MODEL 1
REMARK VINA RESULT: -7.098017144      0.000      0.000
REMARK  2 active torsions:
REMARK  status: ('A' for Active; 'I' for Inactive)
REMARK    1  A    between atoms: C4_11  and  C5_12 
REMARK    2  A    between atoms: C5_12  and  C6_13 
ROOT
HETATM    1 BR1  UNL     1      17.943 -20.425   1.467  1.00  0.00    -0.010 Br
HETATM    2  C1  UNL     1      19.519 -21.491   1.311  1.00  0.00     0.155 A 
HETATM    3  N1  UNL     1      20.309 -21.954   2.285  1.00  0.00    -0.332 N 
ATOM      4  H1  UNL     1      20.164 -21.788   3.280  1.00  0.00     0.168 HD
HETATM    5  C2  UNL     1      21.328 -22.673   1.763  1.00  0.00     0.102 A 
HETATM    6  C3  UNL     1      21.156 -22.653   0.397  1.00  0.00     0.137 A 
HETATM    7  N2  UNL     1      20.043 -21.922   0.157  1.00  0.00    -0.321 N 
ATOM      8  H2  UNL     1      19.660 -21.727  -0.769  1.00  0.00     0.169 HD
HETATM    9  N3  UNL     1      22.212 -23.369   0.269  1.00  0.00    -0.342 N 
ATOM     10  H3  UNL     1      22.708 -23.756  -0.534  1.00  0.00     0.167 HD
HETATM   11  C4  UNL     1      22.426 -23.418   1.662  1.00  0.00     0.047 A 
ENDROOT
BRANCH  11  12
HETATM   12  C5  UNL     1      23.404 -24.018   2.591  1.00  0.00     0.118 C 
BRANCH  12  13
HETATM   13  C6  UNL     1      24.624 -23.142   2.579  1.00  0.00     0.033 A 
HETATM   14  N4  UNL     1      25.026 -22.279   1.647  1.00  0.00    -0.366 N 
HETATM   15  C7  UNL     1      26.186 -21.693   2.015  1.00  0.00     0.108 A 
ATOM     16  H4  UNL     1      24.527 -22.087   0.778  1.00  0.00     0.165 HD
HETATM   17  C8  UNL     1      26.529 -22.214   3.242  1.00  0.00     0.045 A 
HETATM   18 BR2  UNL     1      28.084 -21.770   4.286  1.00  0.00    -0.048 Br
HETATM   19  C9  UNL     1      25.554 -23.121   3.596  1.00  0.00     0.052 A 
HETATM   20 BR3  UNL     1      25.541 -24.131   5.214  1.00  0.00    -0.048 Br
ENDBRANCH  12  13
ENDBRANCH  11  12
TORSDOF 2
ENDMDL
MODEL 2
REMARK VINA RESULT: -6.948349225      0.908      1.391
REMARK  2 active torsions:
REMARK  status: ('A' for Active; 'I' for Inactive)
REMARK    1  A    between atoms: C4_11  and  C5_12 
REMARK    2  A    between atoms: C5_12  and  C6_13 
ROOT
HETATM    1 BR1  UNL     1      17.813 -21.190  -0.220  1.00  0.00    -0.010 Br
HETATM    2  C1  UNL     1      19.243 -21.779   0.900  1.00  0.00     0.155 A 
HETATM    3  N1  UNL     1      20.260 -22.591   0.593  1.00  0.00    -0.332 N 
ATOM      4  H1  UNL     1      20.406 -23.020  -0.320  1.00  0.00     0.168 HD
HETATM    5  C2  UNL     1      21.066 -22.763   1.665  1.00  0.00     0.102 A 
HETATM    6  C3  UNL     1      20.517 -22.018   2.684  1.00  0.00     0.137 A 
HETATM    7  N2  UNL     1      19.406 -21.431   2.183  1.00  0.00    -0.321 N 
ATOM      8  H2  UNL     1      18.783 -20.815   2.705  1.00  0.00     0.169 HD
HETATM    9  N3  UNL     1      21.469 -22.400   3.455  1.00  0.00    -0.342 N 
ATOM     10  H3  UNL     1      21.704 -22.215   4.430  1.00  0.00     0.167 HD
HETATM   11  C4  UNL     1      22.066 -23.175   2.439  1.00  0.00     0.047 A 
ENDROOT
BRANCH  11  12
HETATM   12  C5  UNL     1      23.253 -24.041   2.288  1.00  0.00     0.118 C 
BRANCH  12  13
HETATM   13  C6  UNL     1      24.462 -23.154   2.360  1.00  0.00     0.033 A 
HETATM   14  N4  UNL     1      24.904 -22.267   1.469  1.00  0.00    -0.366 N 
HETATM   15  C7  UNL     1      26.037 -21.679   1.911  1.00  0.00     0.108 A 
ATOM     16  H4  UNL     1      24.451 -22.060   0.579  1.00  0.00     0.165 HD
HETATM   17  C8  UNL     1      26.320 -22.224   3.143  1.00  0.00     0.045 A 
HETATM   18 BR2  UNL     1      27.813 -21.789   4.278  1.00  0.00    -0.048 Br
HETATM   19  C9  UNL     1      25.337 -23.147   3.425  1.00  0.00     0.052 A 
HETATM   20 BR3  UNL     1      25.248 -24.192   5.017  1.00  0.00    -0.048 Br
ENDBRANCH  12  13
ENDBRANCH  11  12
TORSDOF 2
ENDMDL
MODEL 3
REMARK VINA RESULT: -6.707533958      2.083      5.853
REMARK  2 active torsions:
REMARK  status: ('A' for Active; 'I' for Inactive)
REMARK    1  A    between atoms: C4_11  and  C5_12 
REMARK    2  A    between atoms: C5_12  and  C6_13 
ROOT
HETATM    1 BR1  UNL     1      28.592 -22.247   5.350  1.00  0.00    -0.010 Br
HETATM    2  C1  UNL     1      27.136 -22.425   4.128  1.00  0.00     0.155 A 
HETATM    3  N1  UNL     1      26.080 -23.241   4.204  1.00  0.00    -0.332 N 
ATOM      4  H1  UNL     1      25.911 -23.905   4.960  1.00  0.00     0.168 HD
HETATM    5  C2  UNL     1      25.268 -23.063   3.138  1.00  0.00     0.102 A 
HETATM    6  C3  UNL     1      25.854 -22.085   2.365  1.00  0.00     0.137 A 
HETATM    7  N2  UNL     1      26.992 -21.719   2.998  1.00  0.00    -0.321 N 
ATOM      8  H2  UNL     1      27.645 -21.010   2.665  1.00  0.00     0.169 HD
HETATM    9  N3  UNL     1      24.886 -22.187   1.530  1.00  0.00    -0.342 N 
ATOM     10  H3  UNL     1      24.661 -21.721   0.651  1.00  0.00     0.167 HD
HETATM   11  C4  UNL     1      24.249 -23.190   2.291  1.00  0.00     0.047 A 
ENDROOT
BRANCH  11  12
HETATM   12  C5  UNL     1      23.022 -24.005   2.205  1.00  0.00     0.118 C 
BRANCH  12  13
HETATM   13  C6  UNL     1      21.893 -23.167   2.735  1.00  0.00     0.033 A 
HETATM   14  N4  UNL     1      21.020 -22.417   2.063  1.00  0.00    -0.366 N 
HETATM   15  C7  UNL     1      20.164 -21.813   2.916  1.00  0.00     0.108 A 
ATOM     16  H4  UNL     1      21.001 -22.315   1.049  1.00  0.00     0.165 HD
HETATM   17  C8  UNL     1      20.517 -22.204   4.187  1.00  0.00     0.045 A 
HETATM   18 BR2  UNL     1      19.668 -21.675   5.831  1.00  0.00    -0.048 Br
HETATM   19  C9  UNL     1      21.599 -23.051   4.076  1.00  0.00     0.052 A 
HETATM   20 BR3  UNL     1      22.483 -23.886   5.544  1.00  0.00    -0.048 Br
ENDBRANCH  12  13
ENDBRANCH  11  12
TORSDOF 2
ENDMDL
MODEL 4
REMARK VINA RESULT: -6.681086763      2.333      6.282
REMARK  2 active torsions:
REMARK  status: ('A' for Active; 'I' for Inactive)
REMARK    1  A    between atoms: C4_11  and  C5_12 
REMARK    2  A    between atoms: C5_12  and  C6_13 
ROOT
HETATM    1 BR1  UNL     1      29.225 -22.123   4.955  1.00  0.00    -0.010 Br
HETATM    2  C1  UNL     1      27.671 -22.242   3.852  1.00  0.00     0.155 A 
HETATM    3  N1  UNL     1      26.584 -23.001   4.024  1.00  0.00    -0.332 N 
ATOM      4  H1  UNL     1      26.442 -23.644   4.803  1.00  0.00     0.168 HD
HETATM    5  C2  UNL     1      25.702 -22.797   3.021  1.00  0.00     0.102 A 
HETATM    6  C3  UNL     1      26.275 -21.862   2.188  1.00  0.00     0.137 A 
HETATM    7  N2  UNL     1      27.476 -21.547   2.724  1.00  0.00    -0.321 N 
ATOM      8  H2  UNL     1      28.136 -20.877   2.328  1.00  0.00     0.169 HD
HETATM    9  N3  UNL     1      25.240 -21.925   1.432  1.00  0.00    -0.342 N 
ATOM     10  H3  UNL     1      24.972 -21.461   0.564  1.00  0.00     0.167 HD
HETATM   11  C4  UNL     1      24.615 -22.882   2.258  1.00  0.00     0.047 A 
ENDROOT
BRANCH  11  12
HETATM   12  C5  UNL     1      23.344 -23.634   2.283  1.00  0.00     0.118 C 
BRANCH  12  13
HETATM   13  C6  UNL     1      22.381 -22.852   3.128  1.00  0.00     0.033 A 
HETATM   14  N4  UNL     1      22.527 -22.418   4.380  1.00  0.00    -0.366 N 
HETATM   15  C7  UNL     1      21.419 -21.757   4.781  1.00  0.00     0.108 A 
ATOM     16  H4  UNL     1      23.357 -22.564   4.954  1.00  0.00     0.165 HD
HETATM   17  C8  UNL     1      20.534 -21.775   3.728  1.00  0.00     0.045 A 
HETATM   18 BR2  UNL     1      18.775 -20.993   3.689  1.00  0.00    -0.048 Br
HETATM   19  C9  UNL     1      21.134 -22.460   2.693  1.00  0.00     0.052 A 
HETATM   20 BR3  UNL     1      20.338 -22.773   0.989  1.00  0.00    -0.048 Br
ENDBRANCH  12  13
ENDBRANCH  11  12
TORSDOF 2
ENDMDL
MODEL 5
REMARK VINA RESULT: -6.674225926      2.306      2.670
REMARK  2 active torsions:
REMARK  status: ('A' for Active; 'I' for Inactive)
REMARK    1  A    between atoms: C4_11  and  C5_12 
REMARK    2  A    between atoms: C5_12  and  C6_13 
ROOT
HETATM    1 BR1  UNL     1      19.030 -22.354   7.273  1.00  0.00    -0.010 Br
HETATM    2  C1  UNL     1      19.978 -22.549   5.626  1.00  0.00     0.155 A 
HETATM    3  N1  UNL     1      21.028 -23.331   5.358  1.00  0.00    -0.332 N 
ATOM      4  H1  UNL     1      21.478 -23.952   6.031  1.00  0.00     0.168 HD
HETATM    5  C2  UNL     1      21.410 -23.184   4.069  1.00  0.00     0.102 A 
HETATM    6  C3  UNL     1      20.549 -22.263   3.515  1.00  0.00     0.137 A 
HETATM    7  N2  UNL     1      19.690 -21.896   4.493  1.00  0.00    -0.321 N 
ATOM      8  H2  UNL     1      18.933 -21.220   4.384  1.00  0.00     0.169 HD
HETATM    9  N3  UNL     1      21.171 -22.378   2.399  1.00  0.00    -0.342 N 
ATOM     10  H3  UNL     1      21.057 -21.947   1.481  1.00  0.00     0.167 HD
HETATM   11  C4  UNL     1      22.073 -23.326   2.925  1.00  0.00     0.047 A 
ENDROOT
BRANCH  11  12
HETATM   12  C5  UNL     1      23.220 -24.120   2.441  1.00  0.00     0.118 C 
BRANCH  12  13
HETATM   13  C6  UNL     1      24.423 -23.222   2.461  1.00  0.00     0.033 A 
HETATM   14  N4  UNL     1      24.829 -22.346   1.543  1.00  0.00    -0.366 N 
HETATM   15  C7  UNL     1      25.969 -21.741   1.941  1.00  0.00     0.108 A 
ATOM     16  H4  UNL     1      24.348 -22.159   0.664  1.00  0.00     0.165 HD
HETATM   17  C8  UNL     1      26.295 -22.262   3.172  1.00  0.00     0.045 A 
HETATM   18 BR2  UNL     1      27.817 -21.795   4.254  1.00  0.00    -0.048 Br
HETATM   19  C9  UNL     1      25.328 -23.189   3.499  1.00  0.00     0.052 A 
HETATM   20 BR3  UNL     1      25.298 -24.207   5.111  1.00  0.00    -0.048 Br
ENDBRANCH  12  13
ENDBRANCH  11  12
TORSDOF 2
ENDMDL
