MODEL 1
REMARK VINA RESULT: -7.126663936      0.000      0.000
REMARK  5 active torsions:
REMARK  status: ('A' for Active; 'I' for Inactive)
REMARK    1  A    between atoms: C2_2  and  C3_3 
REMARK    2  A    between atoms: C4_4  and  C5_5 
REMARK    3  A    between atoms: C6_6  and  C7_7 
REMARK    4  A    between atoms: C10_10  and  C11_11 
REMARK       I    between atoms: C11_11  and  N1_13 
REMARK    5  A    between atoms: N1_13  and  S1_15 
ROOT
HETATM    1  C7  UNL     1      62.291   6.191  10.316  1.00  0.00    -0.079 C 
HETATM    2  C8  UNL     1      62.544   5.004  10.334  1.00  0.00    -0.106 C 
HETATM    3  C9  UNL     1      62.885   3.576  10.323  1.00  0.00     0.112 C 
ENDROOT
BRANCH   1   4
HETATM    4  C6  UNL     1      62.022   7.572  10.255  1.00  0.00     0.061 C 
HETATM    5  C5  UNL     1      61.272   8.168  11.148  1.00  0.00    -0.012 C 
BRANCH   5   6
HETATM    6  C4  UNL     1      61.054   9.649  11.002  1.00  0.00     0.031 A 
HETATM    7  C3  UNL     1      59.687  10.195  11.235  1.00  0.00     0.029 A 
HETATM    8  C10 UNL     1      60.279  10.170   9.814  1.00  0.00     0.095 A 
BRANCH   7   9
HETATM    9  C2  UNL     1      58.506   9.348  11.479  1.00  0.00    -0.031 C 
HETATM   10  C1  UNL     1      57.695   9.599  12.479  1.00  0.00     0.007 C 
ENDBRANCH   7   9
BRANCH   8  11
HETATM   11  C11 UNL     1      60.635  11.455   9.205  1.00  0.00     0.236 C 
HETATM   12  O1  UNL     1      59.721  12.196   8.772  1.00  0.00    -0.272 OA
HETATM   13  N1  UNL     1      61.967  11.910   9.081  1.00  0.00    -0.254 N 
ATOM     14  H1  UNL     1      62.714  11.310   9.432  1.00  0.00     0.181 HD
BRANCH  13  15
HETATM   15  S1  UNL     1      62.403  13.417   8.370  1.00  0.00     0.229 S 
HETATM   16  C12 UNL     1      64.133  13.705   8.723  1.00  0.00     0.186 C 
HETATM   17  O2  UNL     1      61.574  14.541   8.916  1.00  0.00    -0.206 OA
HETATM   18  O3  UNL     1      62.156  13.304   6.882  1.00  0.00    -0.206 OA
ENDBRANCH  13  15
ENDBRANCH   8  11
ENDBRANCH   5   6
ENDBRANCH   1   4
TORSDOF 5
ENDMDL
MODEL 2
REMARK VINA RESULT: -7.124611340      4.170      4.925
REMARK  5 active torsions:
REMARK  status: ('A' for Active; 'I' for Inactive)
REMARK    1  A    between atoms: C2_2  and  C3_3 
REMARK    2  A    between atoms: C4_4  and  C5_5 
REMARK    3  A    between atoms: C6_6  and  C7_7 
REMARK    4  A    between atoms: C10_10  and  C11_11 
REMARK       I    between atoms: C11_11  and  N1_13 
REMARK    5  A    between atoms: N1_13  and  S1_15 
ROOT
HETATM    1  C7  UNL     1      60.925   7.717  12.906  1.00  0.00    -0.079 C 
HETATM    2  C8  UNL     1      59.935   7.027  13.032  1.00  0.00    -0.106 C 
HETATM    3  C9  UNL     1      58.743   6.193  13.233  1.00  0.00     0.112 C 
ENDROOT
BRANCH   1   4
HETATM    4  C6  UNL     1      62.086   8.509  12.805  1.00  0.00     0.061 C 
HETATM    5  C5  UNL     1      62.130   9.729  13.280  1.00  0.00    -0.012 C 
BRANCH   5   6
HETATM    6  C4  UNL     1      63.419  10.490  13.133  1.00  0.00     0.031 A 
HETATM    7  C3  UNL     1      63.790  11.476  14.186  1.00  0.00     0.029 A 
HETATM    8  C10 UNL     1      63.377  11.959  12.784  1.00  0.00     0.095 A 
BRANCH   7   9
HETATM    9  C2  UNL     1      62.901  11.842  15.304  1.00  0.00    -0.031 C 
HETATM   10  C1  UNL     1      62.921  11.163  16.426  1.00  0.00     0.007 C 
ENDBRANCH   7   9
BRANCH   8  11
HETATM   11  C11 UNL     1      64.418  12.548  11.936  1.00  0.00     0.236 C 
HETATM   12  O1  UNL     1      64.888  11.870  10.991  1.00  0.00    -0.272 OA
HETATM   13  N1  UNL     1      64.924  13.854  12.126  1.00  0.00    -0.254 N 
ATOM     14  H1  UNL     1      64.544  14.409  12.893  1.00  0.00     0.181 HD
BRANCH  13  15
HETATM   15  S1  UNL     1      66.144  14.562  11.138  1.00  0.00     0.229 S 
HETATM   16  C12 UNL     1      65.539  14.580   9.455  1.00  0.00     0.186 C 
HETATM   17  O2  UNL     1      67.428  13.791  11.213  1.00  0.00    -0.206 OA
HETATM   18  O3  UNL     1      66.384  15.965  11.652  1.00  0.00    -0.206 OA
ENDBRANCH  13  15
ENDBRANCH   8  11
ENDBRANCH   5   6
ENDBRANCH   1   4
TORSDOF 5
ENDMDL
MODEL 3
REMARK VINA RESULT: -7.085818744      6.030      7.250
REMARK  5 active torsions:
REMARK  status: ('A' for Active; 'I' for Inactive)
REMARK    1  A    between atoms: C2_2  and  C3_3 
REMARK    2  A    between atoms: C4_4  and  C5_5 
REMARK    3  A    between atoms: C6_6  and  C7_7 
REMARK    4  A    between atoms: C10_10  and  C11_11 
REMARK       I    between atoms: C11_11  and  N1_13 
REMARK    5  A    between atoms: N1_13  and  S1_15 
ROOT
HETATM    1  C7  UNL     1      63.716   6.297   9.144  1.00  0.00    -0.079 C 
HETATM    2  C8  UNL     1      64.679   6.332   8.405  1.00  0.00    -0.106 C 
HETATM    3  C9  UNL     1      65.870   6.385   7.549  1.00  0.00     0.112 C 
ENDROOT
BRANCH   1   4
HETATM    4  C6  UNL     1      62.626   6.276  10.035  1.00  0.00     0.061 C 
HETATM    5  C5  UNL     1      61.914   7.349  10.276  1.00  0.00    -0.012 C 
BRANCH   5   6
HETATM    6  C4  UNL     1      60.762   7.222  11.235  1.00  0.00     0.031 A 
HETATM    7  C3  UNL     1      60.811   7.984  12.514  1.00  0.00     0.029 A 
HETATM    8  C10 UNL     1      60.951   6.451  12.521  1.00  0.00     0.095 A 
BRANCH   7   9
HETATM    9  C2  UNL     1      61.986   8.761  12.951  1.00  0.00    -0.031 C 
HETATM   10  C1  UNL     1      62.021  10.064  12.804  1.00  0.00     0.007 C 
ENDBRANCH   7   9
BRANCH   8  11
HETATM   11  C11 UNL     1      59.844   5.673  13.086  1.00  0.00     0.236 C 
HETATM   12  O1  UNL     1      59.966   5.190  14.237  1.00  0.00    -0.272 OA
HETATM   13  N1  UNL     1      58.633   5.437  12.396  1.00  0.00    -0.254 N 
ATOM     14  H1  UNL     1      58.530   5.828  11.460  1.00  0.00     0.181 HD
BRANCH  13  15
HETATM   15  S1  UNL     1      57.322   4.526  13.045  1.00  0.00     0.229 S 
HETATM   16  C12 UNL     1      55.899   4.799  11.996  1.00  0.00     0.186 C 
HETATM   17  O2  UNL     1      57.010   4.941  14.452  1.00  0.00    -0.206 OA
HETATM   18  O3  UNL     1      57.738   3.072  13.043  1.00  0.00    -0.206 OA
ENDBRANCH  13  15
ENDBRANCH   8  11
ENDBRANCH   5   6
ENDBRANCH   1   4
TORSDOF 5
ENDMDL
MODEL 4
REMARK VINA RESULT: -7.077578489      2.180      2.638
REMARK  5 active torsions:
REMARK  status: ('A' for Active; 'I' for Inactive)
REMARK    1  A    between atoms: C2_2  and  C3_3 
REMARK    2  A    between atoms: C4_4  and  C5_5 
REMARK    3  A    between atoms: C6_6  and  C7_7 
REMARK    4  A    between atoms: C10_10  and  C11_11 
REMARK       I    between atoms: C11_11  and  N1_13 
REMARK    5  A    between atoms: N1_13  and  S1_15 
ROOT
HETATM    1  C7  UNL     1      64.417   5.616   8.795  1.00  0.00    -0.079 C 
HETATM    2  C8  UNL     1      64.619   4.422   8.710  1.00  0.00    -0.106 C 
HETATM    3  C9  UNL     1      64.899   2.983   8.638  1.00  0.00     0.112 C 
ENDROOT
BRANCH   1   4
HETATM    4  C6  UNL     1      64.224   7.006   8.917  1.00  0.00     0.061 C 
HETATM    5  C5  UNL     1      63.183   7.505   9.534  1.00  0.00    -0.012 C 
BRANCH   5   6
HETATM    6  C4  UNL     1      63.073   9.003   9.621  1.00  0.00     0.031 A 
HETATM    7  C3  UNL     1      61.719   9.614   9.736  1.00  0.00     0.029 A 
HETATM    8  C10 UNL     1      62.533   9.776   8.440  1.00  0.00     0.095 A 
BRANCH   7   9
HETATM    9  C2  UNL     1      60.469   8.838   9.644  1.00  0.00    -0.031 C 
HETATM   10  C1  UNL     1      59.588   8.867  10.615  1.00  0.00     0.007 C 
ENDBRANCH   7   9
BRANCH   8  11
HETATM   11  C11 UNL     1      63.054  11.111   8.129  1.00  0.00     0.236 C 
HETATM   12  O1  UNL     1      63.037  11.508   6.940  1.00  0.00    -0.272 OA
HETATM   13  N1  UNL     1      63.578  11.984   9.109  1.00  0.00    -0.254 N 
ATOM     14  H1  UNL     1      63.593  11.665  10.078  1.00  0.00     0.181 HD
BRANCH  13  15
HETATM   15  S1  UNL     1      64.192  13.556   8.763  1.00  0.00     0.229 S 
HETATM   16  C12 UNL     1      64.402  14.413  10.318  1.00  0.00     0.186 C 
HETATM   17  O2  UNL     1      63.261  14.325   7.874  1.00  0.00    -0.206 OA
HETATM   18  O3  UNL     1      65.514  13.377   8.049  1.00  0.00    -0.206 OA
ENDBRANCH  13  15
ENDBRANCH   8  11
ENDBRANCH   5   6
ENDBRANCH   1   4
TORSDOF 5
ENDMDL
MODEL 5
REMARK VINA RESULT: -7.041619849      2.416      3.715
REMARK  5 active torsions:
REMARK  status: ('A' for Active; 'I' for Inactive)
REMARK    1  A    between atoms: C2_2  and  C3_3 
REMARK    2  A    between atoms: C4_4  and  C5_5 
REMARK    3  A    between atoms: C6_6  and  C7_7 
REMARK    4  A    between atoms: C10_10  and  C11_11 
REMARK       I    between atoms: C11_11  and  N1_13 
REMARK    5  A    between atoms: N1_13  and  S1_15 
ROOT
HETATM    1  C7  UNL     1      61.028   7.033  12.262  1.00  0.00    -0.079 C 
HETATM    2  C8  UNL     1      60.590   6.165  12.989  1.00  0.00    -0.106 C 
HETATM    3  C9  UNL     1      60.020   5.118  13.845  1.00  0.00     0.112 C 
ENDROOT
BRANCH   1   4
HETATM    4  C6  UNL     1      61.492   8.049  11.403  1.00  0.00     0.061 C 
HETATM    5  C5  UNL     1      61.377   7.955  10.102  1.00  0.00    -0.012 C 
BRANCH   5   6
HETATM    6  C4  UNL     1      61.893   9.098   9.271  1.00  0.00     0.031 A 
HETATM    7  C3  UNL     1      63.183   8.926   8.544  1.00  0.00     0.029 A 
HETATM    8  C10 UNL     1      63.094   9.879   9.750  1.00  0.00     0.095 A 
BRANCH   7   9
HETATM    9  C2  UNL     1      64.047   7.742   8.695  1.00  0.00    -0.031 C 
HETATM   10  C1  UNL     1      64.804   7.333   7.705  1.00  0.00     0.007 C 
ENDBRANCH   7   9
BRANCH   8  11
HETATM   11  C11 UNL     1      63.193  11.318   9.486  1.00  0.00     0.236 C 
HETATM   12  O1  UNL     1      64.321  11.866   9.522  1.00  0.00    -0.272 OA
HETATM   13  N1  UNL     1      62.075  12.128   9.186  1.00  0.00    -0.254 N 
ATOM     14  H1  UNL     1      61.156  11.686   9.155  1.00  0.00     0.181 HD
BRANCH  13  15
HETATM   15  S1  UNL     1      62.174  13.819   8.870  1.00  0.00     0.229 S 
HETATM   16  C12 UNL     1      62.689  14.625  10.382  1.00  0.00     0.186 C 
HETATM   17  O2  UNL     1      60.855  14.371   8.418  1.00  0.00    -0.206 OA
HETATM   18  O3  UNL     1      63.191  14.014   7.767  1.00  0.00    -0.206 OA
ENDBRANCH  13  15
ENDBRANCH   8  11
ENDBRANCH   5   6
ENDBRANCH   1   4
TORSDOF 5
ENDMDL
