MODEL 1
REMARK VINA RESULT: -6.696987245      0.000      0.000
REMARK  5 active torsions:
REMARK  status: ('A' for Active; 'I' for Inactive)
REMARK    1  A    between atoms: C2_2  and  C3_3 
REMARK    2  A    between atoms: C3_3  and  N1_4 
REMARK    3  A    between atoms: C7_8  and  C8_9 
REMARK       I    between atoms: C8_9  and  N2_11 
REMARK    4  A    between atoms: N2_11  and  C9_13 
REMARK    5  A    between atoms: C9_13  and  C10_14 
ROOT
HETATM    1  C8  UNL     1      64.246  12.542   9.242  1.00  0.00     0.251 C 
HETATM    2  O1  UNL     1      64.583  12.549   8.044  1.00  0.00    -0.271 OA
HETATM    3  N2  UNL     1      63.518  11.443   9.759  1.00  0.00    -0.359 N 
ATOM      4  H2  UNL     1      63.226  11.416  10.736  1.00  0.00     0.162 HD
ENDROOT
BRANCH   1   5
HETATM    5  C7  UNL     1      64.575  13.636  10.135  1.00  0.00     0.314 C 
HETATM    6  N1  UNL     1      64.968  13.284  11.490  1.00  0.00     0.105 N 
HETATM    7  C4  UNL     1      65.251  14.638  11.993  1.00  0.00     0.274 C 
HETATM    8  C5  UNL     1      66.128  15.218  10.938  1.00  0.00     0.033 C 
HETATM    9  C6  UNL     1      65.656  14.548   9.648  1.00  0.00     0.047 C 
BRANCH   6  10
HETATM   10  C3  UNL     1      66.184  12.493  11.518  1.00  0.00     0.300 C 
BRANCH  10  11
HETATM   11  C2  UNL     1      66.165  11.502  12.633  1.00  0.00    -0.007 C 
HETATM   12  C1  UNL     1      65.324  10.484  12.671  1.00  0.00     0.008 C 
ENDBRANCH  10  11
ENDBRANCH   6  10
ENDBRANCH   1   5
BRANCH   3  13
HETATM   13  C9  UNL     1      63.203  10.357   8.853  1.00  0.00     0.127 C 
BRANCH  13  14
HETATM   14  C10 UNL     1      61.745  10.238   8.552  1.00  0.00     0.007 C 
HETATM   15  C11 UNL     1      60.998  10.852   9.710  1.00  0.00     0.032 C 
HETATM   16  C12 UNL     1      59.938  11.791   9.181  1.00  0.00     0.168 C 
HETATM   17  O2  UNL     1      60.445  12.786   8.368  1.00  0.00    -0.391 OA
HETATM   18  C13 UNL     1      61.138  12.324   7.269  1.00  0.00     0.168 C 
HETATM   19  C14 UNL     1      61.322  10.832   7.253  1.00  0.00     0.032 C 
ENDBRANCH  13  14
ENDBRANCH   3  13
TORSDOF 5
ENDMDL
MODEL 2
REMARK VINA RESULT: -6.614669141      3.433      5.875
REMARK  5 active torsions:
REMARK  status: ('A' for Active; 'I' for Inactive)
REMARK    1  A    between atoms: C2_2  and  C3_3 
REMARK    2  A    between atoms: C3_3  and  N1_4 
REMARK    3  A    between atoms: C7_8  and  C8_9 
REMARK       I    between atoms: C8_9  and  N2_11 
REMARK    4  A    between atoms: N2_11  and  C9_13 
REMARK    5  A    between atoms: C9_13  and  C10_14 
ROOT
HETATM    1  C8  UNL     1      62.180   9.038  10.629  1.00  0.00     0.251 C 
HETATM    2  O1  UNL     1      62.279   8.715   9.432  1.00  0.00    -0.271 OA
HETATM    3  N2  UNL     1      62.382  10.387  11.011  1.00  0.00    -0.359 N 
ATOM      4  H2  UNL     1      62.311  10.675  11.987  1.00  0.00     0.162 HD
ENDROOT
BRANCH   1   5
HETATM    5  C7  UNL     1      61.861   8.068  11.659  1.00  0.00     0.314 C 
HETATM    6  N1  UNL     1      60.652   8.301  12.432  1.00  0.00     0.105 N 
HETATM    7  C4  UNL     1      60.698   7.096  13.276  1.00  0.00     0.274 C 
HETATM    8  C5  UNL     1      60.926   5.999  12.294  1.00  0.00     0.033 C 
HETATM    9  C6  UNL     1      61.746   6.655  11.183  1.00  0.00     0.047 C 
BRANCH   6  10
HETATM   10  C3  UNL     1      59.460   8.267  11.604  1.00  0.00     0.300 C 
BRANCH  10  11
HETATM   11  C2  UNL     1      58.669   9.525  11.735  1.00  0.00    -0.007 C 
HETATM   12  C1  UNL     1      57.618   9.628  12.528  1.00  0.00     0.008 C 
ENDBRANCH  10  11
ENDBRANCH   6  10
ENDBRANCH   1   5
BRANCH   3  13
HETATM   13  C9  UNL     1      62.694  11.343   9.968  1.00  0.00     0.127 C 
BRANCH  13  14
HETATM   14  C10 UNL     1      61.565  12.266   9.650  1.00  0.00     0.007 C 
HETATM   15  C11 UNL     1      62.130  13.665   9.610  1.00  0.00     0.032 C 
HETATM   16  C12 UNL     1      61.644  14.366   8.361  1.00  0.00     0.168 C 
HETATM   17  O2  UNL     1      61.966  13.695   7.197  1.00  0.00    -0.391 OA
HETATM   18  C13 UNL     1      61.483  12.405   7.131  1.00  0.00     0.168 C 
HETATM   19  C14 UNL     1      60.822  11.942   8.400  1.00  0.00     0.032 C 
ENDBRANCH  13  14
ENDBRANCH   3  13
TORSDOF 5
ENDMDL
MODEL 3
REMARK VINA RESULT: -6.593040562      2.100      5.121
REMARK  5 active torsions:
REMARK  status: ('A' for Active; 'I' for Inactive)
REMARK    1  A    between atoms: C2_2  and  C3_3 
REMARK    2  A    between atoms: C3_3  and  N1_4 
REMARK    3  A    between atoms: C7_8  and  C8_9 
REMARK       I    between atoms: C8_9  and  N2_11 
REMARK    4  A    between atoms: N2_11  and  C9_13 
REMARK    5  A    between atoms: C9_13  and  C10_14 
ROOT
HETATM    1  C8  UNL     1      63.528  12.587   9.336  1.00  0.00     0.251 C 
HETATM    2  O1  UNL     1      64.769  12.631   9.411  1.00  0.00    -0.271 OA
HETATM    3  N2  UNL     1      62.747  12.798  10.499  1.00  0.00    -0.359 N 
ATOM      4  H2  UNL     1      61.728  12.762  10.463  1.00  0.00     0.162 HD
ENDROOT
BRANCH   1   5
HETATM    5  C7  UNL     1      62.846  12.323   8.083  1.00  0.00     0.314 C 
HETATM    6  N1  UNL     1      63.051  11.013   7.486  1.00  0.00     0.105 N 
HETATM    7  C4  UNL     1      62.167  11.166   6.319  1.00  0.00     0.274 C 
HETATM    8  C5  UNL     1      60.902  11.683   6.913  1.00  0.00     0.033 C 
HETATM    9  C6  UNL     1      61.362  12.500   8.120  1.00  0.00     0.047 C 
BRANCH   6  10
HETATM   10  C3  UNL     1      62.554   9.944   8.333  1.00  0.00     0.300 C 
BRANCH  10  11
HETATM   11  C2  UNL     1      63.489   8.782   8.350  1.00  0.00    -0.007 C 
HETATM   12  C1  UNL     1      63.202   7.642   8.952  1.00  0.00     0.008 C 
ENDBRANCH  10  11
ENDBRANCH   6  10
ENDBRANCH   1   5
BRANCH   3  13
HETATM   13  C9  UNL     1      63.445  13.065  11.739  1.00  0.00     0.127 C 
BRANCH  13  14
HETATM   14  C10 UNL     1      63.375  11.938  12.716  1.00  0.00     0.007 C 
HETATM   15  C11 UNL     1      62.642  10.805  12.040  1.00  0.00     0.032 C 
HETATM   16  C12 UNL     1      63.412   9.520  12.242  1.00  0.00     0.168 C 
HETATM   17  O2  UNL     1      64.713   9.582  11.780  1.00  0.00    -0.391 OA
HETATM   18  C13 UNL     1      65.471  10.582  12.349  1.00  0.00     0.168 C 
HETATM   19  C14 UNL     1      64.690  11.492  13.256  1.00  0.00     0.032 C 
ENDBRANCH  13  14
ENDBRANCH   3  13
TORSDOF 5
ENDMDL
MODEL 4
REMARK VINA RESULT: -6.589174492      4.298      7.369
REMARK  5 active torsions:
REMARK  status: ('A' for Active; 'I' for Inactive)
REMARK    1  A    between atoms: C2_2  and  C3_3 
REMARK    2  A    between atoms: C3_3  and  N1_4 
REMARK    3  A    between atoms: C7_8  and  C8_9 
REMARK       I    between atoms: C8_9  and  N2_11 
REMARK    4  A    between atoms: N2_11  and  C9_13 
REMARK    5  A    between atoms: C9_13  and  C10_14 
ROOT
HETATM    1  C8  UNL     1      59.778   9.225  11.044  1.00  0.00     0.251 C 
HETATM    2  O1  UNL     1      60.288   8.631  10.077  1.00  0.00    -0.271 OA
HETATM    3  N2  UNL     1      60.563  10.119  11.812  1.00  0.00    -0.359 N 
ATOM      4  H2  UNL     1      60.169  10.614  12.612  1.00  0.00     0.162 HD
ENDROOT
BRANCH   1   5
HETATM    5  C7  UNL     1      58.390   9.028  11.416  1.00  0.00     0.314 C 
HETATM    6  N1  UNL     1      58.031   7.727  11.956  1.00  0.00     0.105 N 
HETATM    7  C4  UNL     1      56.610   7.991  12.233  1.00  0.00     0.274 C 
HETATM    8  C5  UNL     1      56.640   9.281  12.976  1.00  0.00     0.033 C 
HETATM    9  C6  UNL     1      57.854  10.014  12.405  1.00  0.00     0.047 C 
BRANCH   6  10
HETATM   10  C3  UNL     1      58.723   7.443  13.200  1.00  0.00     0.300 C 
BRANCH  10  11
HETATM   11  C2  UNL     1      59.683   6.312  13.045  1.00  0.00    -0.007 C 
HETATM   12  C1  UNL     1      60.976   6.494  12.847  1.00  0.00     0.008 C 
ENDBRANCH  10  11
ENDBRANCH   6  10
ENDBRANCH   1   5
BRANCH   3  13
HETATM   13  C9  UNL     1      61.946  10.307  11.422  1.00  0.00     0.127 C 
BRANCH  13  14
HETATM   14  C10 UNL     1      62.922   9.728  12.393  1.00  0.00     0.007 C 
HETATM   15  C11 UNL     1      64.298   9.898  11.798  1.00  0.00     0.032 C 
HETATM   16  C12 UNL     1      65.228  10.470  12.844  1.00  0.00     0.168 C 
HETATM   17  O2  UNL     1      64.790  11.671  13.368  1.00  0.00    -0.391 OA
HETATM   18  C13 UNL     1      63.541  11.617  13.948  1.00  0.00     0.168 C 
HETATM   19  C14 UNL     1      62.848  10.294  13.769  1.00  0.00     0.032 C 
ENDBRANCH  13  14
ENDBRANCH   3  13
TORSDOF 5
ENDMDL
MODEL 5
REMARK VINA RESULT: -6.581561988      3.631      6.097
REMARK  5 active torsions:
REMARK  status: ('A' for Active; 'I' for Inactive)
REMARK    1  A    between atoms: C2_2  and  C3_3 
REMARK    2  A    between atoms: C3_3  and  N1_4 
REMARK    3  A    between atoms: C7_8  and  C8_9 
REMARK       I    between atoms: C8_9  and  N2_11 
REMARK    4  A    between atoms: N2_11  and  C9_13 
REMARK    5  A    between atoms: C9_13  and  C10_14 
ROOT
HETATM    1  C8  UNL     1      60.539   9.068  10.924  1.00  0.00     0.251 C 
HETATM    2  O1  UNL     1      61.119   9.912  11.631  1.00  0.00    -0.271 OA
HETATM    3  N2  UNL     1      60.187   9.394   9.591  1.00  0.00    -0.359 N 
ATOM      4  H2  UNL     1      59.707   8.722   8.993  1.00  0.00     0.162 HD
ENDROOT
BRANCH   1   5
HETATM    5  C7  UNL     1      60.207   7.748  11.425  1.00  0.00     0.314 C 
HETATM    6  N1  UNL     1      60.824   6.615  10.754  1.00  0.00     0.105 N 
HETATM    7  C4  UNL     1      60.272   5.540  11.593  1.00  0.00     0.274 C 
HETATM    8  C5  UNL     1      60.551   6.010  12.979  1.00  0.00     0.033 C 
HETATM    9  C6  UNL     1      60.489   7.533  12.877  1.00  0.00     0.047 C 
BRANCH   6  10
HETATM   10  C3  UNL     1      62.270   6.631  10.875  1.00  0.00     0.300 C 
BRANCH  10  11
HETATM   11  C2  UNL     1      62.930   6.563   9.539  1.00  0.00    -0.007 C 
HETATM   12  C1  UNL     1      63.399   7.630   8.917  1.00  0.00     0.008 C 
ENDBRANCH  10  11
ENDBRANCH   6  10
ENDBRANCH   1   5
BRANCH   3  13
HETATM   13  C9  UNL     1      60.532  10.715   9.107  1.00  0.00     0.127 C 
BRANCH  13  14
HETATM   14  C10 UNL     1      61.550  10.702   8.015  1.00  0.00     0.007 C 
HETATM   15  C11 UNL     1      60.848  11.114   6.744  1.00  0.00     0.032 C 
HETATM   16  C12 UNL     1      61.669  12.169   6.038  1.00  0.00     0.168 C 
HETATM   17  O2  UNL     1      61.920  13.281   6.819  1.00  0.00    -0.391 OA
HETATM   18  C13 UNL     1      62.572  13.010   8.003  1.00  0.00     0.168 C 
HETATM   19  C14 UNL     1      62.755  11.541   8.270  1.00  0.00     0.032 C 
ENDBRANCH  13  14
ENDBRANCH   3  13
TORSDOF 5
ENDMDL
