MODEL 1
REMARK VINA RESULT: -7.657463109      0.000      0.000
REMARK  8 active torsions:
REMARK  status: ('A' for Active; 'I' for Inactive)
REMARK    1  A    between atoms: C2_2  and  C3_3 
REMARK    2  A    between atoms: C3_3  and  C4_4 
REMARK    3  A    between atoms: C4_4  and  C5_5 
REMARK    4  A    between atoms: C10_10  and  C11_11 
REMARK    5  A    between atoms: C11_11  and  S1_12 
REMARK    6  A    between atoms: S1_12  and  N1_15 
REMARK    7  A    between atoms: N1_15  and  O3_16 
REMARK    8  A    between atoms: N1_15  and  O4_18 
ROOT
HETATM    1  C5  UNL     1      62.658   8.876   8.700  1.00  0.00     0.014 C 
HETATM    2  C6  UNL     1      62.585   8.871  10.187  1.00  0.00     0.014 C 
HETATM    3  C7  UNL     1      61.054   8.987  10.298  1.00  0.00    -0.009 A 
HETATM    4  C8  UNL     1      60.437  10.297  10.477  1.00  0.00     0.010 A 
HETATM    5  C9  UNL     1      60.659   9.901   9.094  1.00  0.00    -0.004 A 
HETATM    6  C10 UNL     1      61.970  10.122   8.335  1.00  0.00     0.013 C 
ENDROOT
BRANCH   6   7
HETATM    7  C11 UNL     1      62.510  11.425   8.723  1.00  0.00     0.167 C 
BRANCH   7   8
HETATM    8  S1  UNL     1      61.761  12.690   7.720  1.00  0.00     0.257 S 
HETATM    9  O1  UNL     1      62.655  13.842   7.515  1.00  0.00    -0.207 OA
HETATM   10  O2  UNL     1      60.501  13.207   8.413  1.00  0.00    -0.207 OA
BRANCH   8  11
HETATM   11  N1  UNL     1      61.239  12.049   6.202  1.00  0.00     0.049 NA
BRANCH  11  12
HETATM   12  O3  UNL     1      61.603  12.849   5.174  1.00  0.00    -0.275 OA
ATOM     13  H3  UNL     1      62.498  13.154   5.269  1.00  0.00     0.240 HD
ENDBRANCH  11  12
BRANCH  11  14
HETATM   14  O4  UNL     1      59.918  11.874   6.248  1.00  0.00    -0.275 OA
ATOM     15  H4  UNL     1      59.500  12.630   5.853  1.00  0.00     0.240 HD
ENDBRANCH  11  14
ENDBRANCH   8  11
ENDBRANCH   7   8
ENDBRANCH   6   7
BRANCH   1  16
HETATM   16  C4  UNL     1      63.895   8.453   8.066  1.00  0.00    -0.022 C 
BRANCH  16  17
HETATM   17  C3  UNL     1      64.498   7.172   8.335  1.00  0.00    -0.008 C 
BRANCH  17  18
HETATM   18  C2  UNL     1      65.494   6.707   7.605  1.00  0.00    -0.031 C 
HETATM   19  C1  UNL     1      66.112   5.412   7.988  1.00  0.00     0.036 C 
ENDBRANCH  17  18
ENDBRANCH  16  17
ENDBRANCH   1  16
TORSDOF 8
ENDMDL
MODEL 2
REMARK VINA RESULT: -7.456178120      1.010      1.674
REMARK  8 active torsions:
REMARK  status: ('A' for Active; 'I' for Inactive)
REMARK    1  A    between atoms: C2_2  and  C3_3 
REMARK    2  A    between atoms: C3_3  and  C4_4 
REMARK    3  A    between atoms: C4_4  and  C5_5 
REMARK    4  A    between atoms: C10_10  and  C11_11 
REMARK    5  A    between atoms: C11_11  and  S1_12 
REMARK    6  A    between atoms: S1_12  and  N1_15 
REMARK    7  A    between atoms: N1_15  and  O3_16 
REMARK    8  A    between atoms: N1_15  and  O4_18 
ROOT
HETATM    1  C5  UNL     1      63.084   8.436   9.015  1.00  0.00     0.014 C 
HETATM    2  C6  UNL     1      63.514   8.784  10.397  1.00  0.00     0.014 C 
HETATM    3  C7  UNL     1      62.118   8.737  11.044  1.00  0.00    -0.009 A 
HETATM    4  C8  UNL     1      61.347   9.966  11.194  1.00  0.00     0.010 A 
HETATM    5  C9  UNL     1      61.169   9.275   9.926  1.00  0.00    -0.004 A 
HETATM    6  C10 UNL     1      62.078   9.462   8.708  1.00  0.00     0.013 C 
ENDROOT
BRANCH   6   7
HETATM    7  C11 UNL     1      62.444  10.875   8.622  1.00  0.00     0.167 C 
BRANCH   7   8
HETATM    8  S1  UNL     1      61.305  11.707   7.536  1.00  0.00     0.257 S 
HETATM    9  O1  UNL     1      60.071  12.115   8.228  1.00  0.00    -0.207 OA
HETATM   10  O2  UNL     1      60.903  10.763   6.404  1.00  0.00    -0.207 OA
BRANCH   8  11
HETATM   11  N1  UNL     1      62.054  13.067   6.776  1.00  0.00     0.049 NA
BRANCH  11  12
HETATM   12  O3  UNL     1      61.727  14.224   7.396  1.00  0.00    -0.275 OA
ATOM     13  H3  UNL     1      61.639  14.939   6.777  1.00  0.00     0.240 HD
ENDBRANCH  11  12
BRANCH  11  14
HETATM   14  O4  UNL     1      61.704  13.079   5.490  1.00  0.00    -0.275 OA
ATOM     15  H4  UNL     1      62.301  12.517   5.010  1.00  0.00     0.240 HD
ENDBRANCH  11  14
ENDBRANCH   8  11
ENDBRANCH   7   8
ENDBRANCH   6   7
BRANCH   1  16
HETATM   16  C4  UNL     1      64.097   8.024   8.058  1.00  0.00    -0.022 C 
BRANCH  16  17
HETATM   17  C3  UNL     1      64.986   6.917   8.306  1.00  0.00    -0.008 C 
BRANCH  17  18
HETATM   18  C2  UNL     1      64.535   5.738   8.690  1.00  0.00    -0.031 C 
HETATM   19  C1  UNL     1      65.480   4.593   8.727  1.00  0.00     0.036 C 
ENDBRANCH  17  18
ENDBRANCH  16  17
ENDBRANCH   1  16
TORSDOF 8
ENDMDL
MODEL 3
REMARK VINA RESULT: -7.402458552      1.203      1.736
REMARK  8 active torsions:
REMARK  status: ('A' for Active; 'I' for Inactive)
REMARK    1  A    between atoms: C2_2  and  C3_3 
REMARK    2  A    between atoms: C3_3  and  C4_4 
REMARK    3  A    between atoms: C4_4  and  C5_5 
REMARK    4  A    between atoms: C10_10  and  C11_11 
REMARK    5  A    between atoms: C11_11  and  S1_12 
REMARK    6  A    between atoms: S1_12  and  N1_15 
REMARK    7  A    between atoms: N1_15  and  O3_16 
REMARK    8  A    between atoms: N1_15  and  O4_18 
ROOT
HETATM    1  C5  UNL     1      62.338   8.524   9.405  1.00  0.00     0.014 C 
HETATM    2  C6  UNL     1      62.330   8.790  10.870  1.00  0.00     0.014 C 
HETATM    3  C7  UNL     1      60.804   8.732  11.061  1.00  0.00    -0.009 A 
HETATM    4  C8  UNL     1      60.023   9.964  11.040  1.00  0.00     0.010 A 
HETATM    5  C9  UNL     1      60.237   9.345   9.741  1.00  0.00    -0.004 A 
HETATM    6  C10 UNL     1      61.471   9.582   8.867  1.00  0.00     0.013 C 
ENDROOT
BRANCH   6   7
HETATM    7  C11 UNL     1      61.845  10.992   8.975  1.00  0.00     0.167 C 
BRANCH   7   8
HETATM    8  S1  UNL     1      62.532  11.533   7.425  1.00  0.00     0.257 S 
HETATM    9  O1  UNL     1      62.411  10.510   6.373  1.00  0.00    -0.207 OA
HETATM   10  O2  UNL     1      64.020  11.828   7.606  1.00  0.00    -0.207 OA
BRANCH   8  11
HETATM   11  N1  UNL     1      61.813  13.019   6.913  1.00  0.00     0.049 NA
BRANCH  11  12
HETATM   12  O3  UNL     1      61.730  13.092   5.564  1.00  0.00    -0.275 OA
ATOM     13  H3  UNL     1      62.273  13.791   5.219  1.00  0.00     0.240 HD
ENDBRANCH  11  12
BRANCH  11  14
HETATM   14  O4  UNL     1      62.519  14.028   7.421  1.00  0.00    -0.275 OA
ATOM     15  H4  UNL     1      62.092  14.326   8.215  1.00  0.00     0.240 HD
ENDBRANCH  11  14
ENDBRANCH   8  11
ENDBRANCH   7   8
ENDBRANCH   6   7
BRANCH   1  16
HETATM   16  C4  UNL     1      63.593   8.148   8.776  1.00  0.00    -0.022 C 
BRANCH  16  17
HETATM   17  C3  UNL     1      64.065   6.786   8.753  1.00  0.00    -0.008 C 
BRANCH  17  18
HETATM   18  C2  UNL     1      65.184   6.450   8.143  1.00  0.00    -0.031 C 
HETATM   19  C1  UNL     1      65.742   5.093   8.376  1.00  0.00     0.036 C 
ENDBRANCH  17  18
ENDBRANCH  16  17
ENDBRANCH   1  16
TORSDOF 8
ENDMDL
MODEL 4
REMARK VINA RESULT: -7.374042017      1.426      2.025
REMARK  8 active torsions:
REMARK  status: ('A' for Active; 'I' for Inactive)
REMARK    1  A    between atoms: C2_2  and  C3_3 
REMARK    2  A    between atoms: C3_3  and  C4_4 
REMARK    3  A    between atoms: C4_4  and  C5_5 
REMARK    4  A    between atoms: C10_10  and  C11_11 
REMARK    5  A    between atoms: C11_11  and  S1_12 
REMARK    6  A    between atoms: S1_12  and  N1_15 
REMARK    7  A    between atoms: N1_15  and  O3_16 
REMARK    8  A    between atoms: N1_15  and  O4_18 
ROOT
HETATM    1  C5  UNL     1      62.242   8.754   9.147  1.00  0.00     0.014 C 
HETATM    2  C6  UNL     1      61.657   8.627  10.511  1.00  0.00     0.014 C 
HETATM    3  C7  UNL     1      60.230   9.069  10.144  1.00  0.00    -0.009 A 
HETATM    4  C8  UNL     1      59.832  10.461  10.326  1.00  0.00     0.010 A 
HETATM    5  C9  UNL     1      60.446  10.156   9.043  1.00  0.00    -0.004 A 
HETATM    6  C10 UNL     1      61.955  10.151   8.789  1.00  0.00     0.013 C 
ENDROOT
BRANCH   6   7
HETATM    7  C11 UNL     1      62.549  11.259   9.537  1.00  0.00     0.167 C 
BRANCH   7   8
HETATM    8  S1  UNL     1      63.474  12.288   8.418  1.00  0.00     0.257 S 
HETATM    9  O1  UNL     1      64.020  11.527   7.281  1.00  0.00    -0.207 OA
HETATM   10  O2  UNL     1      64.657  12.909   9.160  1.00  0.00    -0.207 OA
BRANCH   8  11
HETATM   11  N1  UNL     1      62.517  13.613   7.858  1.00  0.00     0.049 NA
BRANCH  11  12
HETATM   12  O3  UNL     1      61.841  13.296   6.730  1.00  0.00    -0.275 OA
ATOM     13  H3  UNL     1      61.562  14.073   6.260  1.00  0.00     0.240 HD
ENDBRANCH  11  12
BRANCH  11  14
HETATM   14  O4  UNL     1      63.314  14.665   7.677  1.00  0.00    -0.275 OA
ATOM     15  H4  UNL     1      63.072  15.091   6.864  1.00  0.00     0.240 HD
ENDBRANCH  11  14
ENDBRANCH   8  11
ENDBRANCH   7   8
ENDBRANCH   6   7
BRANCH   1  16
HETATM   16  C4  UNL     1      63.526   8.128   8.883  1.00  0.00    -0.022 C 
BRANCH  16  17
HETATM   17  C3  UNL     1      63.735   6.709   9.030  1.00  0.00    -0.008 C 
BRANCH  17  18
HETATM   18  C2  UNL     1      64.755   6.096   8.463  1.00  0.00    -0.031 C 
HETATM   19  C1  UNL     1      65.470   6.780   7.355  1.00  0.00     0.036 C 
ENDBRANCH  17  18
ENDBRANCH  16  17
ENDBRANCH   1  16
TORSDOF 8
ENDMDL
MODEL 5
REMARK VINA RESULT: -7.364958031      1.334      1.776
REMARK  8 active torsions:
REMARK  status: ('A' for Active; 'I' for Inactive)
REMARK    1  A    between atoms: C2_2  and  C3_3 
REMARK    2  A    between atoms: C3_3  and  C4_4 
REMARK    3  A    between atoms: C4_4  and  C5_5 
REMARK    4  A    between atoms: C10_10  and  C11_11 
REMARK    5  A    between atoms: C11_11  and  S1_12 
REMARK    6  A    between atoms: S1_12  and  N1_15 
REMARK    7  A    between atoms: N1_15  and  O3_16 
REMARK    8  A    between atoms: N1_15  and  O4_18 
ROOT
HETATM    1  C5  UNL     1      62.455   9.389   9.897  1.00  0.00     0.014 C 
HETATM    2  C6  UNL     1      63.703   9.762  10.619  1.00  0.00     0.014 C 
HETATM    3  C7  UNL     1      63.094  10.890  11.471  1.00  0.00    -0.009 A 
HETATM    4  C8  UNL     1      63.186  12.273  11.017  1.00  0.00     0.010 A 
HETATM    5  C9  UNL     1      62.029  11.538  10.530  1.00  0.00    -0.004 A 
HETATM    6  C10 UNL     1      62.033  10.654   9.280  1.00  0.00     0.013 C 
ENDROOT
BRANCH   6   7
HETATM    7  C11 UNL     1      62.852  11.307   8.260  1.00  0.00     0.167 C 
BRANCH   7   8
HETATM    8  S1  UNL     1      61.835  12.429   7.325  1.00  0.00     0.257 S 
HETATM    9  O1  UNL     1      62.251  13.832   7.493  1.00  0.00    -0.207 OA
HETATM   10  O2  UNL     1      60.388  12.321   7.805  1.00  0.00    -0.207 OA
BRANCH   8  11
HETATM   11  N1  UNL     1      61.813  11.998   5.651  1.00  0.00     0.049 NA
BRANCH  11  12
HETATM   12  O3  UNL     1      61.476  13.051   4.872  1.00  0.00    -0.275 OA
ATOM     13  H3  UNL     1      61.167  12.770   4.019  1.00  0.00     0.240 HD
ENDBRANCH  11  12
BRANCH  11  14
HETATM   14  O4  UNL     1      60.976  10.974   5.489  1.00  0.00    -0.275 OA
ATOM     15  H4  UNL     1      60.086  11.305   5.518  1.00  0.00     0.240 HD
ENDBRANCH  11  14
ENDBRANCH   8  11
ENDBRANCH   7   8
ENDBRANCH   6   7
BRANCH   1  16
HETATM   16  C4  UNL     1      62.420   8.123   9.185  1.00  0.00    -0.022 C 
BRANCH  16  17
HETATM   17  C3  UNL     1      63.208   6.987   9.594  1.00  0.00    -0.008 C 
BRANCH  17  18
HETATM   18  C2  UNL     1      64.140   6.473   8.817  1.00  0.00    -0.031 C 
HETATM   19  C1  UNL     1      64.761   7.339   7.782  1.00  0.00     0.036 C 
ENDBRANCH  17  18
ENDBRANCH  16  17
ENDBRANCH   1  16
TORSDOF 8
ENDMDL
