MODEL 1
REMARK VINA RESULT: -4.944960674      0.000      0.000
REMARK  4 active torsions:
REMARK  status: ('A' for Active; 'I' for Inactive)
REMARK    1  A    between atoms: C2_2  and  N2_5 
REMARK    2  A    between atoms: N2_5  and  C4_7 
REMARK    3  A    between atoms: C4_7  and  N3_9 
REMARK    4  A    between atoms: N3_9  and  C5_11 
ROOT
HETATM    1  C1  UNL     1     -31.859  41.893   8.359  1.00  0.00     0.048 C 
HETATM    2  C2  UNL     1     -30.466  42.237   8.769  1.00  0.00     0.187 C 
HETATM    3  C3  UNL     1     -29.580  41.987   7.632  1.00  0.00     0.084 C 
HETATM    4  N1  UNL     1     -28.883  41.771   6.729  1.00  0.00    -0.195 NA
ENDROOT
BRANCH   2   5
HETATM    5  N2  UNL     1     -30.020  41.486   9.898  1.00  0.00    -0.351 N 
ATOM      6  H2  UNL     1     -29.674  40.535   9.762  1.00  0.00     0.163 HD
BRANCH   5   7
HETATM    7  C4  UNL     1     -30.046  42.035  11.201  1.00  0.00     0.169 C 
HETATM    8  S1  UNL     1     -31.407  41.936  12.073  1.00  0.00    -0.041 SA
BRANCH   7   9
HETATM    9  N3  UNL     1     -28.905  42.662  11.748  1.00  0.00    -0.357 N 
ATOM     10  H3  UNL     1     -28.244  42.089  12.272  1.00  0.00     0.162 HD
BRANCH   9  11
HETATM   11  C5  UNL     1     -28.619  44.095  11.603  1.00  0.00     0.042 C 
HETATM   12  C6  UNL     1     -29.970  44.764  11.476  1.00  0.00     0.039 C 
HETATM   13  C7  UNL     1     -27.798  44.303  10.412  1.00  0.00     0.046 C 
HETATM   14  C8  UNL     1     -26.657  45.229  10.637  1.00  0.00     0.143 C 
HETATM   15  S2  UNL     1     -26.222  44.818  12.316  1.00  0.00     0.146 S 
HETATM   16  O1  UNL     1     -25.609  45.961  13.041  1.00  0.00    -0.228 OA
HETATM   17  O2  UNL     1     -25.402  43.578  12.336  1.00  0.00    -0.228 OA
HETATM   18  C9  UNL     1     -27.905  44.508  12.865  1.00  0.00     0.170 C 
ENDBRANCH   9  11
ENDBRANCH   7   9
ENDBRANCH   5   7
ENDBRANCH   2   5
TORSDOF 4
ENDMDL
MODEL 2
REMARK VINA RESULT: -4.913167311      5.070      6.688
REMARK  4 active torsions:
REMARK  status: ('A' for Active; 'I' for Inactive)
REMARK    1  A    between atoms: C2_2  and  N2_5 
REMARK    2  A    between atoms: N2_5  and  C4_7 
REMARK    3  A    between atoms: C4_7  and  N3_9 
REMARK    4  A    between atoms: N3_9  and  C5_11 
ROOT
HETATM    1  C1  UNL     1     -27.251  46.343  10.177  1.00  0.00     0.048 C 
HETATM    2  C2  UNL     1     -25.766  46.436  10.301  1.00  0.00     0.187 C 
HETATM    3  C3  UNL     1     -25.277  47.350   9.268  1.00  0.00     0.084 C 
HETATM    4  N1  UNL     1     -24.898  48.065   8.436  1.00  0.00    -0.195 NA
ENDROOT
BRANCH   2   5
HETATM    5  N2  UNL     1     -25.119  45.171  10.165  1.00  0.00    -0.351 N 
ATOM      6  H2  UNL     1     -25.070  44.729   9.247  1.00  0.00     0.163 HD
BRANCH   5   7
HETATM    7  C4  UNL     1     -24.544  44.519  11.281  1.00  0.00     0.169 C 
HETATM    8  S1  UNL     1     -25.476  44.169  12.559  1.00  0.00    -0.041 SA
BRANCH   7   9
HETATM    9  N3  UNL     1     -23.176  44.168  11.292  1.00  0.00    -0.357 N 
ATOM     10  H3  UNL     1     -22.612  44.449  12.094  1.00  0.00     0.162 HD
BRANCH   9  11
HETATM   11  C5  UNL     1     -22.522  43.423  10.210  1.00  0.00     0.042 C 
HETATM   12  C6  UNL     1     -23.509  42.349   9.806  1.00  0.00     0.039 C 
HETATM   13  C7  UNL     1     -21.273  42.850  10.708  1.00  0.00     0.046 C 
HETATM   14  C8  UNL     1     -20.128  43.031   9.778  1.00  0.00     0.143 C 
HETATM   15  S2  UNL     1     -20.504  44.635   9.099  1.00  0.00     0.146 S 
HETATM   16  O1  UNL     1     -19.973  44.809   7.721  1.00  0.00    -0.228 OA
HETATM   17  O2  UNL     1     -20.082  45.698  10.048  1.00  0.00    -0.228 OA
HETATM   18  C9  UNL     1     -22.288  44.415   9.099  1.00  0.00     0.170 C 
ENDBRANCH   9  11
ENDBRANCH   7   9
ENDBRANCH   5   7
ENDBRANCH   2   5
TORSDOF 4
ENDMDL
MODEL 3
REMARK VINA RESULT: -4.847947848      4.463      5.800
REMARK  4 active torsions:
REMARK  status: ('A' for Active; 'I' for Inactive)
REMARK    1  A    between atoms: C2_2  and  N2_5 
REMARK    2  A    between atoms: N2_5  and  C4_7 
REMARK    3  A    between atoms: C4_7  and  N3_9 
REMARK    4  A    between atoms: N3_9  and  C5_11 
ROOT
HETATM    1  C1  UNL     1     -22.858  44.253   9.254  1.00  0.00     0.048 C 
HETATM    2  C2  UNL     1     -23.666  44.406  10.499  1.00  0.00     0.187 C 
HETATM    3  C3  UNL     1     -23.242  43.377  11.449  1.00  0.00     0.084 C 
HETATM    4  N1  UNL     1     -22.908  42.547  12.189  1.00  0.00    -0.195 NA
ENDROOT
BRANCH   2   5
HETATM    5  N2  UNL     1     -25.070  44.293  10.267  1.00  0.00    -0.351 N 
ATOM      6  H2  UNL     1     -25.462  43.391   9.997  1.00  0.00     0.163 HD
BRANCH   5   7
HETATM    7  C4  UNL     1     -25.928  45.410  10.406  1.00  0.00     0.169 C 
HETATM    8  S1  UNL     1     -25.538  46.801   9.674  1.00  0.00    -0.041 SA
BRANCH   7   9
HETATM    9  N3  UNL     1     -27.114  45.323  11.166  1.00  0.00    -0.357 N 
ATOM     10  H3  UNL     1     -27.919  44.852  10.752  1.00  0.00     0.162 HD
BRANCH   9  11
HETATM   11  C5  UNL     1     -27.252  45.874  12.519  1.00  0.00     0.042 C 
HETATM   12  C6  UNL     1     -25.848  45.919  13.081  1.00  0.00     0.039 C 
HETATM   13  C7  UNL     1     -28.123  45.002  13.306  1.00  0.00     0.046 C 
HETATM   14  C8  UNL     1     -29.139  45.744  14.098  1.00  0.00     0.143 C 
HETATM   15  S2  UNL     1     -29.506  47.090  12.989  1.00  0.00     0.146 S 
HETATM   16  O1  UNL     1     -29.942  48.316  13.708  1.00  0.00    -0.228 OA
HETATM   17  O2  UNL     1     -30.452  46.636  11.937  1.00  0.00    -0.228 OA
HETATM   18  C9  UNL     1     -27.833  47.255  12.352  1.00  0.00     0.170 C 
ENDBRANCH   9  11
ENDBRANCH   7   9
ENDBRANCH   5   7
ENDBRANCH   2   5
TORSDOF 4
ENDMDL
MODEL 4
REMARK VINA RESULT: -4.842580277      3.308      5.294
REMARK  4 active torsions:
REMARK  status: ('A' for Active; 'I' for Inactive)
REMARK    1  A    between atoms: C2_2  and  N2_5 
REMARK    2  A    between atoms: N2_5  and  C4_7 
REMARK    3  A    between atoms: C4_7  and  N3_9 
REMARK    4  A    between atoms: N3_9  and  C5_11 
ROOT
HETATM    1  C1  UNL     1     -24.142  44.539   9.848  1.00  0.00     0.048 C 
HETATM    2  C2  UNL     1     -24.019  44.184  11.292  1.00  0.00     0.187 C 
HETATM    3  C3  UNL     1     -22.908  43.242  11.439  1.00  0.00     0.084 C 
HETATM    4  N1  UNL     1     -22.036  42.483  11.541  1.00  0.00    -0.195 NA
ENDROOT
BRANCH   2   5
HETATM    5  N2  UNL     1     -25.210  43.607  11.825  1.00  0.00    -0.351 N 
ATOM      6  H2  UNL     1     -25.357  42.600  11.746  1.00  0.00     0.163 HD
BRANCH   5   7
HETATM    7  C4  UNL     1     -26.190  44.404  12.462  1.00  0.00     0.169 C 
HETATM    8  S1  UNL     1     -25.776  45.864  13.027  1.00  0.00    -0.041 SA
BRANCH   7   9
HETATM    9  N3  UNL     1     -27.518  43.945  12.605  1.00  0.00    -0.357 N 
ATOM     10  H3  UNL     1     -27.758  43.420  13.445  1.00  0.00     0.162 HD
BRANCH   9  11
HETATM   11  C5  UNL     1     -28.570  44.183  11.609  1.00  0.00     0.042 C 
HETATM   12  C6  UNL     1     -28.927  42.817  11.066  1.00  0.00     0.039 C 
HETATM   13  C7  UNL     1     -28.051  45.062  10.563  1.00  0.00     0.046 C 
HETATM   14  C8  UNL     1     -28.991  46.151  10.189  1.00  0.00     0.143 C 
HETATM   15  S2  UNL     1     -29.734  46.506  11.769  1.00  0.00     0.146 S 
HETATM   16  O1  UNL     1     -31.119  47.031  11.642  1.00  0.00    -0.228 OA
HETATM   17  O2  UNL     1     -28.830  47.371  12.571  1.00  0.00    -0.228 OA
HETATM   18  C9  UNL     1     -29.720  44.807  12.357  1.00  0.00     0.170 C 
ENDBRANCH   9  11
ENDBRANCH   7   9
ENDBRANCH   5   7
ENDBRANCH   2   5
TORSDOF 4
ENDMDL
MODEL 5
REMARK VINA RESULT: -4.820781955      3.450      5.658
REMARK  4 active torsions:
REMARK  status: ('A' for Active; 'I' for Inactive)
REMARK    1  A    between atoms: C2_2  and  N2_5 
REMARK    2  A    between atoms: N2_5  and  C4_7 
REMARK    3  A    between atoms: C4_7  and  N3_9 
REMARK    4  A    between atoms: N3_9  and  C5_11 
ROOT
HETATM    1  C1  UNL     1     -24.062  44.553   9.790  1.00  0.00     0.048 C 
HETATM    2  C2  UNL     1     -23.879  44.170  11.221  1.00  0.00     0.187 C 
HETATM    3  C3  UNL     1     -22.734  43.263  11.310  1.00  0.00     0.084 C 
HETATM    4  N1  UNL     1     -21.834  42.532  11.366  1.00  0.00    -0.195 NA
ENDROOT
BRANCH   2   5
HETATM    5  N2  UNL     1     -25.033  43.539  11.777  1.00  0.00    -0.351 N 
ATOM      6  H2  UNL     1     -25.101  42.521  11.768  1.00  0.00     0.163 HD
BRANCH   5   7
HETATM    7  C4  UNL     1     -26.083  44.300  12.342  1.00  0.00     0.169 C 
HETATM    8  S1  UNL     1     -25.776  45.799  12.873  1.00  0.00    -0.041 SA
BRANCH   7   9
HETATM    9  N3  UNL     1     -27.388  43.772  12.443  1.00  0.00    -0.357 N 
ATOM     10  H3  UNL     1     -27.595  43.142  13.218  1.00  0.00     0.162 HD
BRANCH   9  11
HETATM   11  C5  UNL     1     -28.464  44.080  11.494  1.00  0.00     0.042 C 
HETATM   12  C6  UNL     1     -27.783  44.730  10.309  1.00  0.00     0.039 C 
HETATM   13  C7  UNL     1     -29.421  44.984  12.129  1.00  0.00     0.046 C 
HETATM   14  C8  UNL     1     -30.838  44.597  11.902  1.00  0.00     0.143 C 
HETATM   15  S2  UNL     1     -30.703  42.820  11.916  1.00  0.00     0.146 S 
HETATM   16  O1  UNL     1     -31.745  42.163  11.085  1.00  0.00    -0.228 OA
HETATM   17  O2  UNL     1     -30.646  42.327  13.317  1.00  0.00    -0.228 OA
HETATM   18  C9  UNL     1     -29.089  42.759  11.125  1.00  0.00     0.170 C 
ENDBRANCH   9  11
ENDBRANCH   7   9
ENDBRANCH   5   7
ENDBRANCH   2   5
TORSDOF 4
ENDMDL
