MODEL 1
REMARK VINA RESULT: -8.531788164      0.000      0.000
REMARK  7 active torsions:
REMARK  status: ('A' for Active; 'I' for Inactive)
REMARK    1  A    between atoms: C2_2  and  N1_3 
REMARK    2  A    between atoms: N1_3  and  C3_5 
REMARK    3  A    between atoms: C4_8  and  C5_9 
REMARK    4  A    between atoms: C5_9  and  C6_10 
REMARK    5  A    between atoms: C6_10  and  N3_11 
REMARK    6  A    between atoms: N3_11  and  C7_13 
REMARK    7  A    between atoms: C8_16  and  N5_17 
ROOT
HETATM    1  N3  UNL     1      -8.968 -27.839 -19.576  1.00  0.00    -0.226 N 
ATOM      2  H3  UNL     1      -8.279 -27.163 -19.906  1.00  0.00     0.177 HD
ENDROOT
BRANCH   1   3
HETATM    3  C6  UNL     1      -8.547 -29.048 -18.923  1.00  0.00     0.145 C 
BRANCH   3   4
HETATM    4  C5  UNL     1      -8.127 -28.684 -17.514  1.00  0.00     0.097 C 
BRANCH   4   5
HETATM    5  C4  UNL     1      -6.816 -29.328 -17.228  1.00  0.00     0.102 A 
HETATM    6  N2  UNL     1      -6.750 -30.511 -16.616  1.00  0.00    -0.180 N 
HETATM    7  C3  UNL     1      -5.587 -31.138 -16.334  1.00  0.00     0.683 A 
ATOM      8  H2  UNL     1      -7.622 -30.967 -16.347  1.00  0.00     0.185 HD
HETATM    9  N9  UNL     1      -4.460 -30.495 -16.712  1.00  0.00    -0.141 N 
HETATM   10  C13 UNL     1      -4.475 -29.311 -17.326  1.00  0.00     0.339 A 
ATOM     11  H9  UNL     1      -3.560 -30.933 -16.519  1.00  0.00     0.189 HD
HETATM   12  N8  UNL     1      -5.663 -28.734 -17.581  1.00  0.00    -0.297 N 
HETATM   13  O1  UNL     1      -3.396 -28.727 -17.672  1.00  0.00    -0.246 OA
ATOM     14  H8  UNL     1      -5.689 -27.829 -18.051  1.00  0.00     0.172 HD
BRANCH   7  15
HETATM   15  N1  UNL     1      -5.543 -32.290 -15.737  1.00  0.00    -0.226 N 
ATOM     16  H1  UNL     1      -6.250 -32.550 -15.049  1.00  0.00     0.177 HD
BRANCH  15  17
HETATM   17  C2  UNL     1      -4.469 -33.191 -16.072  1.00  0.00     0.133 C 
HETATM   18  C1  UNL     1      -3.842 -33.756 -14.806  1.00  0.00     0.027 C 
ENDBRANCH  15  17
ENDBRANCH   7  15
ENDBRANCH   4   5
ENDBRANCH   3   4
ENDBRANCH   1   3
BRANCH   1  19
HETATM   19  C7  UNL     1     -10.252 -27.620 -19.739  1.00  0.00     0.681 A 
HETATM   20  N4  UNL     1     -10.617 -26.346 -19.975  1.00  0.00    -0.176 N 
HETATM   21  C8  UNL     1     -11.935 -26.135 -20.141  1.00  0.00     0.135 A 
ATOM     22  H4  UNL     1      -9.937 -25.588 -20.024  1.00  0.00     0.186 HD
HETATM   23  C9  UNL     1     -12.842 -27.204 -20.065  1.00  0.00     0.095 A 
HETATM   24  S1  UNL     1     -14.541 -27.403 -20.205  1.00  0.00    -0.070 SA
HETATM   25  C12 UNL     1     -12.437 -28.489 -19.824  1.00  0.00     0.142 A 
HETATM   26  C10 UNL     1     -14.621 -29.091 -19.950  1.00  0.00     0.049 A 
HETATM   27  C11 UNL     1     -15.785 -30.029 -19.921  1.00  0.00     0.076 C 
HETATM   28  N6  UNL     1     -13.354 -29.409 -19.773  1.00  0.00    -0.339 N 
ATOM     29  H6  UNL     1     -13.093 -30.379 -19.596  1.00  0.00     0.168 HD
HETATM   30  N7  UNL     1     -11.082 -28.650 -19.662  1.00  0.00    -0.175 N 
ATOM     31  H7  UNL     1     -10.708 -29.581 -19.479  1.00  0.00     0.186 HD
BRANCH  21  32
HETATM   32  N5  UNL     1     -12.451 -24.986 -20.373  1.00  0.00    -0.384 N 
ATOM     33  H52 UNL     1     -11.806 -24.197 -20.340  1.00  0.00     0.157 HD
ATOM     34  H51 UNL     1     -13.439 -24.837 -20.579  1.00  0.00     0.157 HD
ENDBRANCH  21  32
ENDBRANCH   1  19
TORSDOF 7
ENDMDL
MODEL 2
REMARK VINA RESULT: -8.531299021      1.763      2.238
REMARK  7 active torsions:
REMARK  status: ('A' for Active; 'I' for Inactive)
REMARK    1  A    between atoms: C2_2  and  N1_3 
REMARK    2  A    between atoms: N1_3  and  C3_5 
REMARK    3  A    between atoms: C4_8  and  C5_9 
REMARK    4  A    between atoms: C5_9  and  C6_10 
REMARK    5  A    between atoms: C6_10  and  N3_11 
REMARK    6  A    between atoms: N3_11  and  C7_13 
REMARK    7  A    between atoms: C8_16  and  N5_17 
ROOT
HETATM    1  N3  UNL     1      -8.194 -29.518 -18.200  1.00  0.00    -0.226 N 
ATOM      2  H3  UNL     1      -7.725 -30.370 -18.508  1.00  0.00     0.177 HD
ENDROOT
BRANCH   1   3
HETATM    3  C6  UNL     1      -7.987 -29.009 -16.872  1.00  0.00     0.145 C 
BRANCH   3   4
HETATM    4  C5  UNL     1      -6.639 -28.318 -16.854  1.00  0.00     0.097 C 
BRANCH   4   5
HETATM    5  C4  UNL     1      -5.623 -29.246 -17.420  1.00  0.00     0.102 A 
HETATM    6  N2  UNL     1      -5.095 -30.222 -16.679  1.00  0.00    -0.180 N 
HETATM    7  C3  UNL     1      -4.170 -31.091 -17.145  1.00  0.00     0.683 A 
ATOM      8  H2  UNL     1      -5.405 -30.319 -15.712  1.00  0.00     0.185 HD
HETATM    9  N9  UNL     1      -3.793 -30.922 -18.431  1.00  0.00    -0.141 N 
HETATM   10  C13 UNL     1      -4.292 -29.962 -19.211  1.00  0.00     0.339 A 
ATOM     11  H9  UNL     1      -3.098 -31.557 -18.822  1.00  0.00     0.189 HD
HETATM   12  N8  UNL     1      -5.210 -29.127 -18.693  1.00  0.00    -0.297 N 
HETATM   13  O1  UNL     1      -3.918 -29.827 -20.422  1.00  0.00    -0.246 OA
ATOM     14  H8  UNL     1      -5.600 -28.388 -19.278  1.00  0.00     0.172 HD
BRANCH   7  15
HETATM   15  N1  UNL     1      -3.668 -32.034 -16.407  1.00  0.00    -0.226 N 
ATOM     16  H1  UNL     1      -2.659 -32.177 -16.354  1.00  0.00     0.177 HD
BRANCH  15  17
HETATM   17  C2  UNL     1      -4.574 -32.874 -15.665  1.00  0.00     0.133 C 
HETATM   18  C1  UNL     1      -3.795 -33.852 -14.797  1.00  0.00     0.027 C 
ENDBRANCH  15  17
ENDBRANCH   7  15
ENDBRANCH   4   5
ENDBRANCH   3   4
ENDBRANCH   1   3
BRANCH   1  19
HETATM   19  C7  UNL     1      -8.997 -28.867 -19.011  1.00  0.00     0.681 A 
HETATM   20  N4  UNL     1      -8.434 -28.335 -20.112  1.00  0.00    -0.176 N 
HETATM   21  C8  UNL     1      -9.267 -27.672 -20.934  1.00  0.00     0.135 A 
ATOM     22  H4  UNL     1      -7.438 -28.428 -20.310  1.00  0.00     0.186 HD
HETATM   23  C9  UNL     1     -10.632 -27.563 -20.627  1.00  0.00     0.095 A 
HETATM   24  S1  UNL     1     -12.013 -26.843 -21.348  1.00  0.00    -0.070 SA
HETATM   25  C12 UNL     1     -11.173 -28.116 -19.498  1.00  0.00     0.142 A 
HETATM   26  C10 UNL     1     -13.174 -27.290 -20.177  1.00  0.00     0.049 A 
HETATM   27  C11 UNL     1     -14.643 -27.026 -20.095  1.00  0.00     0.076 C 
HETATM   28  N6  UNL     1     -12.449 -27.961 -19.304  1.00  0.00    -0.339 N 
ATOM     29  H6  UNL     1     -12.890 -28.358 -18.475  1.00  0.00     0.168 HD
HETATM   30  N7  UNL     1     -10.280 -28.782 -18.693  1.00  0.00    -0.175 N 
ATOM     31  H7  UNL     1     -10.612 -29.221 -17.834  1.00  0.00     0.186 HD
BRANCH  21  32
HETATM   32  N5  UNL     1      -8.896 -27.107 -22.022  1.00  0.00    -0.384 N 
ATOM     33  H52 UNL     1      -8.802 -27.723 -22.830  1.00  0.00     0.157 HD
ATOM     34  H51 UNL     1      -8.700 -26.110 -22.108  1.00  0.00     0.157 HD
ENDBRANCH  21  32
ENDBRANCH   1  19
TORSDOF 7
ENDMDL
MODEL 3
REMARK VINA RESULT: -8.463972091      2.245      3.280
REMARK  7 active torsions:
REMARK  status: ('A' for Active; 'I' for Inactive)
REMARK    1  A    between atoms: C2_2  and  N1_3 
REMARK    2  A    between atoms: N1_3  and  C3_5 
REMARK    3  A    between atoms: C4_8  and  C5_9 
REMARK    4  A    between atoms: C5_9  and  C6_10 
REMARK    5  A    between atoms: C6_10  and  N3_11 
REMARK    6  A    between atoms: N3_11  and  C7_13 
REMARK    7  A    between atoms: C8_16  and  N5_17 
ROOT
HETATM    1  N3  UNL     1      -8.195 -29.589 -18.165  1.00  0.00    -0.226 N 
ATOM      2  H3  UNL     1      -7.811 -30.491 -18.448  1.00  0.00     0.177 HD
ENDROOT
BRANCH   1   3
HETATM    3  C6  UNL     1      -7.954 -29.075 -16.846  1.00  0.00     0.145 C 
BRANCH   3   4
HETATM    4  C5  UNL     1      -6.620 -28.358 -16.871  1.00  0.00     0.097 C 
BRANCH   4   5
HETATM    5  C4  UNL     1      -5.597 -29.281 -17.433  1.00  0.00     0.102 A 
HETATM    6  N2  UNL     1      -5.073 -30.260 -16.692  1.00  0.00    -0.180 N 
HETATM    7  C3  UNL     1      -4.143 -31.124 -17.153  1.00  0.00     0.683 A 
ATOM      8  H2  UNL     1      -5.391 -30.361 -15.728  1.00  0.00     0.185 HD
HETATM    9  N9  UNL     1      -3.756 -30.949 -18.436  1.00  0.00    -0.141 N 
HETATM   10  C13 UNL     1      -4.249 -29.987 -19.216  1.00  0.00     0.339 A 
ATOM     11  H9  UNL     1      -3.055 -31.581 -18.824  1.00  0.00     0.189 HD
HETATM   12  N8  UNL     1      -5.173 -29.155 -18.702  1.00  0.00    -0.297 N 
HETATM   13  O1  UNL     1      -3.866 -29.846 -20.422  1.00  0.00    -0.246 OA
ATOM     14  H8  UNL     1      -5.560 -28.415 -19.287  1.00  0.00     0.172 HD
BRANCH   7  15
HETATM   15  N1  UNL     1      -3.645 -32.070 -16.416  1.00  0.00    -0.226 N 
ATOM     16  H1  UNL     1      -2.638 -32.223 -16.370  1.00  0.00     0.177 HD
BRANCH  15  17
HETATM   17  C2  UNL     1      -4.554 -32.896 -15.663  1.00  0.00     0.133 C 
HETATM   18  C1  UNL     1      -3.779 -33.867 -14.784  1.00  0.00     0.027 C 
ENDBRANCH  15  17
ENDBRANCH   7  15
ENDBRANCH   4   5
ENDBRANCH   3   4
ENDBRANCH   1   3
BRANCH   1  19
HETATM   19  C7  UNL     1      -8.917 -28.879 -19.001  1.00  0.00     0.681 A 
HETATM   20  N4  UNL     1     -10.123 -28.477 -18.559  1.00  0.00    -0.176 N 
HETATM   21  C8  UNL     1     -10.853 -27.750 -19.425  1.00  0.00     0.135 A 
ATOM     22  H4  UNL     1     -10.463 -28.708 -17.626  1.00  0.00     0.186 HD
HETATM   23  C9  UNL     1     -10.352 -27.453 -20.702  1.00  0.00     0.095 A 
HETATM   24  S1  UNL     1     -10.904 -26.595 -22.083  1.00  0.00    -0.070 SA
HETATM   25  C12 UNL     1      -9.120 -27.878 -21.121  1.00  0.00     0.142 A 
HETATM   26  C10 UNL     1      -9.544 -26.833 -23.090  1.00  0.00     0.049 A 
HETATM   27  C11 UNL     1      -9.260 -26.378 -24.485  1.00  0.00     0.076 C 
HETATM   28  N6  UNL     1      -8.747 -27.550 -22.322  1.00  0.00    -0.339 N 
ATOM     29  H6  UNL     1      -7.837 -27.847 -22.672  1.00  0.00     0.168 HD
HETATM   30  N7  UNL     1      -8.417 -28.615 -20.200  1.00  0.00    -0.175 N 
ATOM     31  H7  UNL     1      -7.490 -28.966 -20.442  1.00  0.00     0.186 HD
BRANCH  21  32
HETATM   32  N5  UNL     1     -12.019 -27.289 -19.165  1.00  0.00    -0.384 N 
ATOM     33  H52 UNL     1     -12.764 -27.588 -19.794  1.00  0.00     0.157 HD
ATOM     34  H51 UNL     1     -12.221 -26.660 -18.387  1.00  0.00     0.157 HD
ENDBRANCH  21  32
ENDBRANCH   1  19
TORSDOF 7
ENDMDL
MODEL 4
REMARK VINA RESULT: -8.382996312      1.100      1.158
REMARK  7 active torsions:
REMARK  status: ('A' for Active; 'I' for Inactive)
REMARK    1  A    between atoms: C2_2  and  N1_3 
REMARK    2  A    between atoms: N1_3  and  C3_5 
REMARK    3  A    between atoms: C4_8  and  C5_9 
REMARK    4  A    between atoms: C5_9  and  C6_10 
REMARK    5  A    between atoms: C6_10  and  N3_11 
REMARK    6  A    between atoms: N3_11  and  C7_13 
REMARK    7  A    between atoms: C8_16  and  N5_17 
ROOT
HETATM    1  N3  UNL     1      -8.355 -28.530 -18.810  1.00  0.00    -0.226 N 
ATOM      2  H3  UNL     1      -7.521 -28.652 -19.385  1.00  0.00     0.177 HD
ENDROOT
BRANCH   1   3
HETATM    3  C6  UNL     1      -8.279 -28.648 -17.380  1.00  0.00     0.145 C 
BRANCH   3   4
HETATM    4  C5  UNL     1      -6.902 -28.181 -16.956  1.00  0.00     0.097 C 
BRANCH   4   5
HETATM    5  C4  UNL     1      -5.951 -29.315 -17.104  1.00  0.00     0.102 A 
HETATM    6  N2  UNL     1      -5.998 -30.365 -16.282  1.00  0.00    -0.180 N 
HETATM    7  C3  UNL     1      -5.159 -31.420 -16.373  1.00  0.00     0.683 A 
ATOM      8  H2  UNL     1      -6.705 -30.373 -15.546  1.00  0.00     0.185 HD
HETATM    9  N9  UNL     1      -4.242 -31.363 -17.364  1.00  0.00    -0.141 N 
HETATM   10  C13 UNL     1      -4.154 -30.336 -18.211  1.00  0.00     0.339 A 
ATOM     11  H9  UNL     1      -3.589 -32.139 -17.469  1.00  0.00     0.189 HD
HETATM   12  N8  UNL     1      -5.017 -29.314 -18.071  1.00  0.00    -0.297 N 
HETATM   13  O1  UNL     1      -3.279 -30.310 -19.136  1.00  0.00    -0.246 OA
ATOM     14  H8  UNL     1      -4.962 -28.522 -18.712  1.00  0.00     0.172 HD
BRANCH   7  15
HETATM   15  N1  UNL     1      -5.221 -32.432 -15.562  1.00  0.00    -0.226 N 
ATOM     16  H1  UNL     1      -5.880 -32.440 -14.784  1.00  0.00     0.177 HD
BRANCH  15  17
HETATM   17  C2  UNL     1      -4.335 -33.545 -15.793  1.00  0.00     0.133 C 
HETATM   18  C1  UNL     1      -3.644 -33.946 -14.498  1.00  0.00     0.027 C 
ENDBRANCH  15  17
ENDBRANCH   7  15
ENDBRANCH   4   5
ENDBRANCH   3   4
ENDBRANCH   1   3
BRANCH   1  19
HETATM   19  C7  UNL     1      -9.515 -28.262 -19.364  1.00  0.00     0.681 A 
HETATM   20  N4  UNL     1      -9.653 -27.035 -19.901  1.00  0.00    -0.176 N 
HETATM   21  C8  UNL     1     -10.846 -26.774 -20.466  1.00  0.00     0.135 A 
ATOM     22  H4  UNL     1      -8.901 -26.347 -19.880  1.00  0.00     0.186 HD
HETATM   23  C9  UNL     1     -11.858 -27.746 -20.474  1.00  0.00     0.095 A 
HETATM   24  S1  UNL     1     -13.469 -27.856 -21.054  1.00  0.00    -0.070 SA
HETATM   25  C12 UNL     1     -11.684 -28.986 -19.918  1.00  0.00     0.142 A 
HETATM   26  C10 UNL     1     -13.810 -29.455 -20.556  1.00  0.00     0.049 A 
HETATM   27  C11 UNL     1     -15.041 -30.291 -20.703  1.00  0.00     0.076 C 
HETATM   28  N6  UNL     1     -12.683 -29.816 -19.978  1.00  0.00    -0.339 N 
ATOM     29  H6  UNL     1     -12.593 -30.749 -19.576  1.00  0.00     0.168 HD
HETATM   30  N7  UNL     1     -10.450 -29.201 -19.356  1.00  0.00    -0.175 N 
ATOM     31  H7  UNL     1     -10.248 -30.103 -18.923  1.00  0.00     0.186 HD
BRANCH  21  32
HETATM   32  N5  UNL     1     -11.144 -25.658 -21.021  1.00  0.00    -0.384 N 
ATOM     33  H52 UNL     1     -10.399 -24.962 -21.042  1.00  0.00     0.157 HD
ATOM     34  H51 UNL     1     -12.057 -25.450 -21.425  1.00  0.00     0.157 HD
ENDBRANCH  21  32
ENDBRANCH   1  19
TORSDOF 7
ENDMDL
MODEL 5
REMARK VINA RESULT: -8.153778227      3.375      8.878
REMARK  7 active torsions:
REMARK  status: ('A' for Active; 'I' for Inactive)
REMARK    1  A    between atoms: C2_2  and  N1_3 
REMARK    2  A    between atoms: N1_3  and  C3_5 
REMARK    3  A    between atoms: C4_8  and  C5_9 
REMARK    4  A    between atoms: C5_9  and  C6_10 
REMARK    5  A    between atoms: C6_10  and  N3_11 
REMARK    6  A    between atoms: N3_11  and  C7_13 
REMARK    7  A    between atoms: C8_16  and  N5_17 
ROOT
HETATM    1  N3  UNL     1      -8.598 -29.108 -17.631  1.00  0.00    -0.226 N 
ATOM      2  H3  UNL     1      -9.315 -29.293 -16.929  1.00  0.00     0.177 HD
ENDROOT
BRANCH   1   3
HETATM    3  C6  UNL     1      -8.911 -28.354 -18.813  1.00  0.00     0.145 C 
BRANCH   3   4
HETATM    4  C5  UNL     1     -10.124 -28.994 -19.455  1.00  0.00     0.097 C 
BRANCH   4   5
HETATM    5  C4  UNL     1     -11.159 -27.946 -19.661  1.00  0.00     0.102 A 
HETATM    6  N2  UNL     1     -12.452 -28.204 -19.454  1.00  0.00    -0.180 N 
HETATM    7  C3  UNL     1     -13.430 -27.289 -19.626  1.00  0.00     0.683 A 
ATOM      8  H2  UNL     1     -12.715 -29.141 -19.149  1.00  0.00     0.185 HD
HETATM    9  N9  UNL     1     -13.030 -26.063 -20.030  1.00  0.00    -0.141 N 
HETATM   10  C13 UNL     1     -11.751 -25.755 -20.250  1.00  0.00     0.339 A 
ATOM     11  H9  UNL     1     -13.737 -25.341 -20.171  1.00  0.00     0.189 HD
HETATM   12  N8  UNL     1     -10.820 -26.708 -20.062  1.00  0.00    -0.297 N 
HETATM   13  O1  UNL     1     -11.403 -24.590 -20.630  1.00  0.00    -0.246 OA
ATOM     14  H8  UNL     1      -9.838 -26.487 -20.227  1.00  0.00     0.172 HD
BRANCH   7  15
HETATM   15  N1  UNL     1     -14.683 -27.561 -19.419  1.00  0.00    -0.226 N 
ATOM     16  H1  UNL     1     -15.010 -27.857 -18.500  1.00  0.00     0.177 HD
BRANCH  15  17
HETATM   17  C2  UNL     1     -15.599 -27.431 -20.524  1.00  0.00     0.133 C 
HETATM   18  C1  UNL     1     -15.256 -28.437 -21.614  1.00  0.00     0.027 C 
ENDBRANCH  15  17
ENDBRANCH   7  15
ENDBRANCH   4   5
ENDBRANCH   3   4
ENDBRANCH   1   3
BRANCH   1  19
HETATM   19  C7  UNL     1      -7.374 -29.557 -17.469  1.00  0.00     0.681 A 
HETATM   20  N4  UNL     1      -6.393 -28.841 -18.048  1.00  0.00    -0.176 N 
HETATM   21  C8  UNL     1      -5.144 -29.311 -17.874  1.00  0.00     0.135 A 
ATOM     22  H4  UNL     1      -6.583 -27.995 -18.585  1.00  0.00     0.186 HD
HETATM   23  C9  UNL     1      -4.921 -30.479 -17.130  1.00  0.00     0.095 A 
HETATM   24  S1  UNL     1      -3.558 -31.413 -16.663  1.00  0.00    -0.070 SA
HETATM   25  C12 UNL     1      -5.943 -31.185 -16.554  1.00  0.00     0.142 A 
HETATM   26  C10 UNL     1      -4.372 -32.625 -15.776  1.00  0.00     0.049 A 
HETATM   27  C11 UNL     1      -3.858 -33.823 -15.044  1.00  0.00     0.076 C 
HETATM   28  N6  UNL     1      -5.632 -32.254 -15.883  1.00  0.00    -0.339 N 
ATOM     29  H6  UNL     1      -6.365 -32.807 -15.439  1.00  0.00     0.168 HD
HETATM   30  N7  UNL     1      -7.197 -30.663 -16.760  1.00  0.00    -0.175 N 
ATOM     31  H7  UNL     1      -8.007 -31.135 -16.361  1.00  0.00     0.186 HD
BRANCH  21  32
HETATM   32  N5  UNL     1      -4.097 -28.751 -18.356  1.00  0.00    -0.384 N 
ATOM     33  H52 UNL     1      -4.166 -28.444 -19.326  1.00  0.00     0.157 HD
ATOM     34  H51 UNL     1      -3.235 -28.608 -17.829  1.00  0.00     0.157 HD
ENDBRANCH  21  32
ENDBRANCH   1  19
TORSDOF 7
ENDMDL
