MODEL 1
REMARK VINA RESULT: -7.270133434      0.000      0.000
REMARK  8 active torsions:
REMARK  status: ('A' for Active; 'I' for Inactive)
REMARK    1  A    between atoms: C2_2  and  O1_3 
REMARK    2  A    between atoms: C2_2  and  C3_5 
REMARK    3  A    between atoms: C3_5  and  N1_6 
REMARK    4  A    between atoms: C3_5  and  C14_30 
REMARK    5  A    between atoms: N1_6  and  C4_8 
REMARK    6  A    between atoms: C7_17  and  N5_18 
REMARK    7  A    between atoms: C12_25  and  N7_26 
REMARK    8  A    between atoms: C14_30  and  O2_32 
ROOT
HETATM    1  C14 UNL     1     -10.455 -26.386 -20.955  1.00  0.00     0.165 C 
HETATM    2  C15 UNL     1      -9.885 -26.443 -22.402  1.00  0.00     0.065 C 
HETATM    3  C16 UNL     1     -11.450 -25.371 -20.977  1.00  0.00     0.099 C 
HETATM    4  N8  UNL     1     -12.252 -24.547 -20.972  1.00  0.00    -0.194 NA
ENDROOT
BRANCH   1   5
HETATM    5  C3  UNL     1     -10.918 -27.781 -20.607  1.00  0.00     0.160 C 
BRANCH   5   6
HETATM    6  C2  UNL     1     -11.794 -27.747 -19.350  1.00  0.00     0.140 C 
HETATM    7  C1  UNL     1     -13.042 -28.548 -19.463  1.00  0.00     0.041 C 
BRANCH   6   8
HETATM    8  O1  UNL     1     -11.132 -27.990 -18.186  1.00  0.00    -0.394 OA
ATOM      9  H1  UNL     1     -10.399 -27.398 -18.060  1.00  0.00     0.210 HD
ENDBRANCH   6   8
ENDBRANCH   5   6
BRANCH   5  10
HETATM   10  N1  UNL     1     -10.026 -28.798 -20.505  1.00  0.00    -0.364 N 
ATOM     11  H1  UNL     1      -9.250 -28.315 -20.053  1.00  0.00     0.161 HD
BRANCH  10  12
HETATM   12  C4  UNL     1      -9.562 -29.904 -20.607  1.00  0.00     0.120 A 
HETATM   13  N2  UNL     1     -10.009 -30.829 -21.493  1.00  0.00    -0.338 N 
HETATM   14  C5  UNL     1      -9.462 -32.052 -21.610  1.00  0.00     0.183 A 
ATOM     15  H2  UNL     1     -10.794 -30.586 -22.097  1.00  0.00     0.168 HD
HETATM   16  N3  UNL     1      -8.431 -32.396 -20.828  1.00  0.00    -0.337 N 
HETATM   17  C6  UNL     1      -7.931 -31.551 -19.929  1.00  0.00     0.139 A 
ATOM     18  H3  UNL     1      -8.020 -33.324 -20.923  1.00  0.00     0.168 HD
HETATM   19  N4  UNL     1      -6.886 -31.902 -19.134  1.00  0.00    -0.175 N 
HETATM   20  C13 UNL     1      -8.483 -30.303 -19.804  1.00  0.00     0.096 A 
HETATM   21  C7  UNL     1      -6.348 -31.086 -18.214  1.00  0.00     0.683 A 
ATOM     22  H4  UNL     1      -6.489 -32.835 -19.243  1.00  0.00     0.186 HD
HETATM   23  N6  UNL     1      -6.874 -29.860 -18.072  1.00  0.00    -0.176 N 
HETATM   24  C12 UNL     1      -7.909 -29.487 -18.845  1.00  0.00     0.132 A 
ATOM     25  H6  UNL     1      -6.490 -29.215 -17.382  1.00  0.00     0.186 HD
BRANCH  21  26
HETATM   26  N5  UNL     1      -5.247 -31.535 -17.410  1.00  0.00    -0.217 N 
HETATM   27  C8  UNL     1      -3.894 -31.151 -17.657  1.00  0.00     0.141 C 
HETATM   28  C9  UNL     1      -3.084 -31.731 -16.541  1.00  0.00     0.022 C 
HETATM   29  C10 UNL     1      -3.943 -32.782 -15.892  1.00  0.00     0.022 C 
HETATM   30  C11 UNL     1      -5.329 -32.388 -16.278  1.00  0.00     0.141 C 
ENDBRANCH  21  26
BRANCH  24  31
HETATM   31  N7  UNL     1      -8.389 -28.320 -18.640  1.00  0.00    -0.384 N 
ATOM     32  H72 UNL     1      -8.490 -27.978 -17.684  1.00  0.00     0.157 HD
ATOM     33  H71 UNL     1      -8.627 -27.770 -19.465  1.00  0.00     0.157 HD
ENDBRANCH  24  31
ENDBRANCH  10  12
ENDBRANCH   5  10
ENDBRANCH   1   5
BRANCH   1  34
HETATM   34  O2  UNL     1      -9.315 -26.141 -20.190  1.00  0.00    -0.374 OA
ATOM     35  H2  UNL     1      -9.587 -25.588 -19.468  1.00  0.00     0.212 HD
ENDBRANCH   1  34
TORSDOF 8
ENDMDL
MODEL 2
REMARK VINA RESULT: -7.109283134      2.505      7.474
REMARK  8 active torsions:
REMARK  status: ('A' for Active; 'I' for Inactive)
REMARK    1  A    between atoms: C2_2  and  O1_3 
REMARK    2  A    between atoms: C2_2  and  C3_5 
REMARK    3  A    between atoms: C3_5  and  N1_6 
REMARK    4  A    between atoms: C3_5  and  C14_30 
REMARK    5  A    between atoms: N1_6  and  C4_8 
REMARK    6  A    between atoms: C7_17  and  N5_18 
REMARK    7  A    between atoms: C12_25  and  N7_26 
REMARK    8  A    between atoms: C14_30  and  O2_32 
ROOT
HETATM    1  C14 UNL     1      -5.116 -31.871 -16.469  1.00  0.00     0.165 C 
HETATM    2  C15 UNL     1      -6.475 -32.410 -17.001  1.00  0.00     0.065 C 
HETATM    3  C16 UNL     1      -4.491 -32.975 -15.830  1.00  0.00     0.099 C 
HETATM    4  N8  UNL     1      -3.973 -33.854 -15.299  1.00  0.00    -0.194 NA
ENDROOT
BRANCH   1   5
HETATM    5  C3  UNL     1      -4.388 -31.270 -17.648  1.00  0.00     0.160 C 
BRANCH   5   6
HETATM    6  C2  UNL     1      -3.330 -30.274 -17.163  1.00  0.00     0.140 C 
HETATM    7  C1  UNL     1      -1.931 -30.711 -17.413  1.00  0.00     0.041 C 
BRANCH   6   8
HETATM    8  O1  UNL     1      -3.541 -28.985 -17.545  1.00  0.00    -0.394 OA
ATOM      9  H1  UNL     1      -4.457 -28.811 -17.730  1.00  0.00     0.210 HD
ENDBRANCH   6   8
ENDBRANCH   5   6
BRANCH   5  10
HETATM   10  N1  UNL     1      -5.079 -30.724 -18.680  1.00  0.00    -0.364 N 
ATOM     11  H1  UNL     1      -4.951 -29.732 -18.480  1.00  0.00     0.161 HD
BRANCH  10  12
HETATM   12  C4  UNL     1      -5.746 -30.657 -19.680  1.00  0.00     0.120 A 
HETATM   13  N2  UNL     1      -5.471 -31.347 -20.816  1.00  0.00    -0.338 N 
HETATM   14  C5  UNL     1      -6.241 -31.281 -21.915  1.00  0.00     0.183 A 
ATOM     15  H2  UNL     1      -4.642 -31.943 -20.835  1.00  0.00     0.168 HD
HETATM   16  N3  UNL     1      -7.333 -30.506 -21.915  1.00  0.00    -0.337 N 
HETATM   17  C6  UNL     1      -7.677 -29.793 -20.845  1.00  0.00     0.139 A 
ATOM     18  H3  UNL     1      -7.914 -30.462 -22.752  1.00  0.00     0.168 HD
HETATM   19  N4  UNL     1      -8.784 -29.004 -20.847  1.00  0.00    -0.175 N 
HETATM   20  C13 UNL     1      -6.896 -29.855 -19.721  1.00  0.00     0.096 A 
HETATM   21  C7  UNL     1      -9.170 -28.267 -19.794  1.00  0.00     0.683 A 
ATOM     22  H4  UNL     1      -9.351 -28.972 -21.694  1.00  0.00     0.186 HD
HETATM   23  N6  UNL     1      -8.421 -28.311 -18.683  1.00  0.00    -0.176 N 
HETATM   24  C12 UNL     1      -7.319 -29.082 -18.654  1.00  0.00     0.132 A 
ATOM     25  H6  UNL     1      -8.685 -27.763 -17.865  1.00  0.00     0.186 HD
BRANCH  21  26
HETATM   26  N5  UNL     1     -10.351 -27.456 -19.878  1.00  0.00    -0.217 N 
HETATM   27  C8  UNL     1     -10.363 -26.152 -20.461  1.00  0.00     0.141 C 
HETATM   28  C9  UNL     1     -11.790 -25.704 -20.456  1.00  0.00     0.022 C 
HETATM   29  C10 UNL     1     -12.517 -26.605 -19.495  1.00  0.00     0.022 C 
HETATM   30  C11 UNL     1     -11.649 -27.815 -19.425  1.00  0.00     0.141 C 
ENDBRANCH  21  26
BRANCH  24  31
HETATM   31  N7  UNL     1      -6.626 -29.055 -17.579  1.00  0.00    -0.384 N 
ATOM     32  H72 UNL     1      -6.285 -29.929 -17.178  1.00  0.00     0.157 HD
ATOM     33  H71 UNL     1      -6.426 -28.135 -17.186  1.00  0.00     0.157 HD
ENDBRANCH  24  31
ENDBRANCH  10  12
ENDBRANCH   5  10
ENDBRANCH   1   5
BRANCH   1  34
HETATM   34  O2  UNL     1      -5.509 -30.806 -15.659  1.00  0.00    -0.374 OA
ATOM     35  H2  UNL     1      -4.781 -30.625 -15.077  1.00  0.00     0.212 HD
ENDBRANCH   1  34
TORSDOF 8
ENDMDL
MODEL 3
REMARK VINA RESULT: -7.068408572      2.451      7.119
REMARK  8 active torsions:
REMARK  status: ('A' for Active; 'I' for Inactive)
REMARK    1  A    between atoms: C2_2  and  O1_3 
REMARK    2  A    between atoms: C2_2  and  C3_5 
REMARK    3  A    between atoms: C3_5  and  N1_6 
REMARK    4  A    between atoms: C3_5  and  C14_30 
REMARK    5  A    between atoms: N1_6  and  C4_8 
REMARK    6  A    between atoms: C7_17  and  N5_18 
REMARK    7  A    between atoms: C12_25  and  N7_26 
REMARK    8  A    between atoms: C14_30  and  O2_32 
ROOT
HETATM    1  C14 UNL     1      -3.892 -30.089 -17.866  1.00  0.00     0.165 C 
HETATM    2  C15 UNL     1      -2.531 -30.674 -17.390  1.00  0.00     0.065 C 
HETATM    3  C16 UNL     1      -3.905 -30.250 -19.277  1.00  0.00     0.099 C 
HETATM    4  N8  UNL     1      -3.930 -30.363 -20.422  1.00  0.00    -0.194 NA
ENDROOT
BRANCH   1   5
HETATM    5  C3  UNL     1      -4.974 -30.804 -17.092  1.00  0.00     0.160 C 
BRANCH   5   6
HETATM    6  C2  UNL     1      -4.506 -32.211 -16.708  1.00  0.00     0.140 C 
HETATM    7  C1  UNL     1      -4.824 -32.589 -15.305  1.00  0.00     0.041 C 
BRANCH   6   8
HETATM    8  O1  UNL     1      -4.846 -33.188 -17.593  1.00  0.00    -0.394 OA
ATOM      9  H1  UNL     1      -4.420 -33.073 -18.434  1.00  0.00     0.210 HD
ENDBRANCH   6   8
ENDBRANCH   5   6
BRANCH   5  10
HETATM   10  N1  UNL     1      -6.240 -30.868 -17.578  1.00  0.00    -0.364 N 
ATOM     11  H1  UNL     1      -6.745 -30.387 -16.834  1.00  0.00     0.161 HD
BRANCH  10  12
HETATM   12  C4  UNL     1      -7.150 -31.129 -18.322  1.00  0.00     0.120 A 
HETATM   13  N2  UNL     1      -7.376 -32.368 -18.828  1.00  0.00    -0.338 N 
HETATM   14  C5  UNL     1      -8.412 -32.647 -19.638  1.00  0.00     0.183 A 
ATOM     15  H2  UNL     1      -6.731 -33.120 -18.583  1.00  0.00     0.168 HD
HETATM   16  N3  UNL     1      -9.271 -31.678 -19.975  1.00  0.00    -0.337 N 
HETATM   17  C6  UNL     1      -9.124 -30.433 -19.526  1.00  0.00     0.139 A 
ATOM     18  H3  UNL     1     -10.056 -31.897 -20.589  1.00  0.00     0.168 HD
HETATM   19  N4  UNL     1      -9.995 -29.449 -19.871  1.00  0.00    -0.175 N 
HETATM   20  C13 UNL     1      -8.070 -30.141 -18.700  1.00  0.00     0.096 A 
HETATM   21  C7  UNL     1      -9.888 -28.181 -19.445  1.00  0.00     0.683 A 
ATOM     22  H4  UNL     1     -10.773 -29.688 -20.486  1.00  0.00     0.186 HD
HETATM   23  N6  UNL     1      -8.863 -27.871 -18.637  1.00  0.00    -0.176 N 
HETATM   24  C12 UNL     1      -7.985 -28.825 -18.280  1.00  0.00     0.132 A 
ATOM     25  H6  UNL     1      -8.751 -26.917 -18.295  1.00  0.00     0.186 HD
BRANCH  21  26
HETATM   26  N5  UNL     1     -10.849 -27.199 -19.859  1.00  0.00    -0.217 N 
HETATM   27  C8  UNL     1     -10.485 -25.964 -20.478  1.00  0.00     0.141 C 
HETATM   28  C9  UNL     1     -11.767 -25.290 -20.854  1.00  0.00     0.022 C 
HETATM   29  C10 UNL     1     -12.855 -25.977 -20.073  1.00  0.00     0.022 C 
HETATM   30  C11 UNL     1     -12.260 -27.303 -19.736  1.00  0.00     0.141 C 
ENDBRANCH  21  26
BRANCH  24  31
HETATM   31  N7  UNL     1      -7.010 -28.461 -17.537  1.00  0.00    -0.384 N 
ATOM     32  H72 UNL     1      -6.682 -27.496 -17.574  1.00  0.00     0.157 HD
ATOM     33  H71 UNL     1      -6.620 -29.168 -16.914  1.00  0.00     0.157 HD
ENDBRANCH  24  31
ENDBRANCH  10  12
ENDBRANCH   5  10
ENDBRANCH   1   5
BRANCH   1  34
HETATM   34  O2  UNL     1      -3.847 -28.784 -17.376  1.00  0.00    -0.374 OA
ATOM     35  H2  UNL     1      -3.130 -28.351 -17.823  1.00  0.00     0.212 HD
ENDBRANCH   1  34
TORSDOF 8
ENDMDL
MODEL 4
REMARK VINA RESULT: -7.038269597      2.307      7.231
REMARK  8 active torsions:
REMARK  status: ('A' for Active; 'I' for Inactive)
REMARK    1  A    between atoms: C2_2  and  O1_3 
REMARK    2  A    between atoms: C2_2  and  C3_5 
REMARK    3  A    between atoms: C3_5  and  N1_6 
REMARK    4  A    between atoms: C3_5  and  C14_30 
REMARK    5  A    between atoms: N1_6  and  C4_8 
REMARK    6  A    between atoms: C7_17  and  N5_18 
REMARK    7  A    between atoms: C12_25  and  N7_26 
REMARK    8  A    between atoms: C14_30  and  O2_32 
ROOT
HETATM    1  C14 UNL     1      -4.372 -30.815 -17.400  1.00  0.00     0.165 C 
HETATM    2  C15 UNL     1      -4.901 -31.922 -16.443  1.00  0.00     0.065 C 
HETATM    3  C16 UNL     1      -2.955 -30.893 -17.328  1.00  0.00     0.099 C 
HETATM    4  N8  UNL     1      -1.807 -30.934 -17.276  1.00  0.00    -0.194 NA
ENDROOT
BRANCH   1   5
HETATM    5  C3  UNL     1      -4.996 -31.066 -18.753  1.00  0.00     0.160 C 
BRANCH   5   6
HETATM    6  C2  UNL     1      -4.363 -30.149 -19.804  1.00  0.00     0.140 C 
HETATM    7  C1  UNL     1      -4.694 -30.520 -21.205  1.00  0.00     0.041 C 
BRANCH   6   8
HETATM    8  O1  UNL     1      -4.526 -28.818 -19.573  1.00  0.00    -0.394 OA
ATOM      9  H1  UNL     1      -4.683 -28.630 -18.655  1.00  0.00     0.210 HD
ENDBRANCH   6   8
ENDBRANCH   5   6
BRANCH   5  10
HETATM   10  N1  UNL     1      -6.345 -31.057 -18.902  1.00  0.00    -0.364 N 
ATOM     11  H1  UNL     1      -6.599 -30.350 -18.213  1.00  0.00     0.161 HD
BRANCH  10  12
HETATM   12  C4  UNL     1      -7.434 -31.347 -19.325  1.00  0.00     0.120 A 
HETATM   13  N2  UNL     1      -7.768 -32.590 -19.754  1.00  0.00    -0.338 N 
HETATM   14  C5  UNL     1      -8.997 -32.903 -20.200  1.00  0.00     0.183 A 
ATOM     15  H2  UNL     1      -7.055 -33.320 -19.736  1.00  0.00     0.168 HD
HETATM   16  N3  UNL     1      -9.950 -31.964 -20.234  1.00  0.00    -0.337 N 
HETATM   17  C6  UNL     1      -9.709 -30.717 -19.835  1.00  0.00     0.139 A 
ATOM     18  H3  UNL     1     -10.881 -32.208 -20.572  1.00  0.00     0.168 HD
HETATM   19  N4  UNL     1     -10.676 -29.763 -19.872  1.00  0.00    -0.175 N 
HETATM   20  C13 UNL     1      -8.458 -30.391 -19.379  1.00  0.00     0.096 A 
HETATM   21  C7  UNL     1     -10.481 -28.493 -19.482  1.00  0.00     0.683 A 
ATOM     22  H4  UNL     1     -11.600 -30.026 -20.214  1.00  0.00     0.186 HD
HETATM   23  N6  UNL     1      -9.265 -28.151 -19.034  1.00  0.00    -0.176 N 
HETATM   24  C12 UNL     1      -8.288 -29.074 -18.987  1.00  0.00     0.132 A 
ATOM     25  H6  UNL     1      -9.081 -27.195 -18.730  1.00  0.00     0.186 HD
BRANCH  21  26
HETATM   26  N5  UNL     1     -11.555 -27.545 -19.557  1.00  0.00    -0.217 N 
HETATM   27  C8  UNL     1     -12.932 -27.921 -19.519  1.00  0.00     0.141 C 
HETATM   28  C9  UNL     1     -13.715 -26.646 -19.505  1.00  0.00     0.022 C 
HETATM   29  C10 UNL     1     -12.770 -25.561 -19.945  1.00  0.00     0.022 C 
HETATM   30  C11 UNL     1     -11.422 -26.135 -19.663  1.00  0.00     0.141 C 
ENDBRANCH  21  26
BRANCH  24  31
HETATM   31  N7  UNL     1      -7.141 -28.679 -18.584  1.00  0.00    -0.384 N 
ATOM     32  H72 UNL     1      -7.052 -27.768 -18.133  1.00  0.00     0.157 HD
ATOM     33  H71 UNL     1      -6.361 -29.323 -18.716  1.00  0.00     0.157 HD
ENDBRANCH  24  31
ENDBRANCH  10  12
ENDBRANCH   5  10
ENDBRANCH   1   5
BRANCH   1  34
HETATM   34  O2  UNL     1      -4.972 -29.664 -16.892  1.00  0.00    -0.374 OA
ATOM     35  H2  UNL     1      -4.986 -29.759 -15.947  1.00  0.00     0.212 HD
ENDBRANCH   1  34
TORSDOF 8
ENDMDL
MODEL 5
REMARK VINA RESULT: -6.841275591      0.980      1.258
REMARK  8 active torsions:
REMARK  status: ('A' for Active; 'I' for Inactive)
REMARK    1  A    between atoms: C2_2  and  O1_3 
REMARK    2  A    between atoms: C2_2  and  C3_5 
REMARK    3  A    between atoms: C3_5  and  N1_6 
REMARK    4  A    between atoms: C3_5  and  C14_30 
REMARK    5  A    between atoms: N1_6  and  C4_8 
REMARK    6  A    between atoms: C7_17  and  N5_18 
REMARK    7  A    between atoms: C12_25  and  N7_26 
REMARK    8  A    between atoms: C14_30  and  O2_32 
ROOT
HETATM    1  C14 UNL     1     -10.884 -26.679 -21.831  1.00  0.00     0.165 C 
HETATM    2  C15 UNL     1      -9.641 -27.185 -22.618  1.00  0.00     0.065 C 
HETATM    3  C16 UNL     1     -11.769 -26.153 -22.812  1.00  0.00     0.099 C 
HETATM    4  N8  UNL     1     -12.493 -25.714 -23.589  1.00  0.00    -0.194 NA
ENDROOT
BRANCH   1   5
HETATM    5  C3  UNL     1     -11.394 -27.843 -21.014  1.00  0.00     0.160 C 
BRANCH   5   6
HETATM    6  C2  UNL     1     -12.103 -27.333 -19.755  1.00  0.00     0.140 C 
HETATM    7  C1  UNL     1     -13.382 -28.031 -19.459  1.00  0.00     0.041 C 
BRANCH   6   8
HETATM    8  O1  UNL     1     -11.307 -27.229 -18.655  1.00  0.00    -0.394 OA
ATOM      9  H1  UNL     1     -10.920 -26.365 -18.573  1.00  0.00     0.210 HD
ENDBRANCH   6   8
ENDBRANCH   5   6
BRANCH   5  10
HETATM   10  N1  UNL     1     -10.567 -28.866 -20.682  1.00  0.00    -0.364 N 
ATOM     11  H1  UNL     1      -9.954 -28.395 -20.016  1.00  0.00     0.161 HD
BRANCH  10  12
HETATM   12  C4  UNL     1     -10.092 -29.972 -20.667  1.00  0.00     0.120 A 
HETATM   13  N2  UNL     1     -10.642 -31.035 -21.307  1.00  0.00    -0.338 N 
HETATM   14  C5  UNL     1     -10.084 -32.258 -21.301  1.00  0.00     0.183 A 
ATOM     15  H2  UNL     1     -11.516 -30.900 -21.815  1.00  0.00     0.168 HD
HETATM   16  N3  UNL     1      -8.937 -32.462 -20.642  1.00  0.00    -0.337 N 
HETATM   17  C6  UNL     1      -8.331 -31.476 -19.985  1.00  0.00     0.139 A 
ATOM     18  H3  UNL     1      -8.519 -33.392 -20.643  1.00  0.00     0.168 HD
HETATM   19  N4  UNL     1      -7.168 -31.685 -19.313  1.00  0.00    -0.175 N 
HETATM   20  C13 UNL     1      -8.893 -30.227 -19.986  1.00  0.00     0.096 A 
HETATM   21  C7  UNL     1      -6.520 -30.724 -18.636  1.00  0.00     0.683 A 
ATOM     22  H4  UNL     1      -6.766 -32.622 -19.325  1.00  0.00     0.186 HD
HETATM   23  N6  UNL     1      -7.053 -29.493 -18.622  1.00  0.00    -0.176 N 
HETATM   24  C12 UNL     1      -8.204 -29.259 -19.277  1.00  0.00     0.132 A 
ATOM     25  H6  UNL     1      -6.588 -28.739 -18.117  1.00  0.00     0.186 HD
BRANCH  21  26
HETATM   26  N5  UNL     1      -5.298 -31.027 -17.948  1.00  0.00    -0.217 N 
HETATM   27  C8  UNL     1      -5.236 -31.887 -16.810  1.00  0.00     0.141 C 
HETATM   28  C9  UNL     1      -3.786 -32.031 -16.471  1.00  0.00     0.022 C 
HETATM   29  C10 UNL     1      -3.069 -30.917 -17.186  1.00  0.00     0.022 C 
HETATM   30  C11 UNL     1      -4.004 -30.549 -18.288  1.00  0.00     0.141 C 
ENDBRANCH  21  26
BRANCH  24  31
HETATM   31  N7  UNL     1      -8.680 -28.075 -19.197  1.00  0.00    -0.384 N 
ATOM     32  H72 UNL     1      -8.052 -27.289 -19.028  1.00  0.00     0.157 HD
ATOM     33  H71 UNL     1      -9.686 -27.975 -19.336  1.00  0.00     0.157 HD
ENDBRANCH  24  31
ENDBRANCH  10  12
ENDBRANCH   5  10
ENDBRANCH   1   5
BRANCH   1  34
HETATM   34  O2  UNL     1     -10.325 -25.774 -20.930  1.00  0.00    -0.374 OA
ATOM     35  H2  UNL     1      -9.396 -25.971 -20.889  1.00  0.00     0.212 HD
ENDBRANCH   1  34
TORSDOF 8
ENDMDL
