MODEL 1
REMARK VINA RESULT: -8.066352317      0.000      0.000
REMARK  6 active torsions:
REMARK  status: ('A' for Active; 'I' for Inactive)
REMARK    1  A    between atoms: N1_1  and  C1_4 
REMARK    2  A    between atoms: C4_12  and  N4_13 
REMARK    3  A    between atoms: C8_17  and  C9_18 
REMARK    4  A    between atoms: C9_18  and  O2_19 
REMARK    5  A    between atoms: O2_19  and  S1_20 
REMARK    6  A    between atoms: S1_20  and  N5_21 
ROOT
HETATM    1  C1  UNL     1     -14.159 -27.187 -20.325  1.00  0.00     0.144 A 
HETATM    2  N2  UNL     1     -13.059 -26.443 -20.385  1.00  0.00    -0.330 N 
ATOM      3  H2  UNL     1     -13.108 -25.457 -20.642  1.00  0.00     0.168 HD
HETATM    4  C2  UNL     1     -11.901 -27.011 -20.105  1.00  0.00     0.138 A 
HETATM    5  C3  UNL     1     -10.624 -26.402 -20.111  1.00  0.00     0.289 A 
HETATM    6  O1  UNL     1     -10.481 -25.176 -20.403  1.00  0.00    -0.265 OA
HETATM    7  N3  UNL     1      -9.561 -27.144 -19.798  1.00  0.00    -0.153 N 
ATOM      8  H3  UNL     1      -8.655 -26.676 -19.812  1.00  0.00     0.187 HD
HETATM    9  C4  UNL     1      -9.563 -28.436 -19.468  1.00  0.00     0.700 A 
HETATM   10  N7  UNL     1     -10.767 -29.031 -19.458  1.00  0.00    -0.181 N 
ATOM     11  H7  UNL     1     -10.836 -30.019 -19.215  1.00  0.00     0.185 HD
HETATM   12  C10 UNL     1     -11.906 -28.332 -19.770  1.00  0.00     0.126 A 
HETATM   13  S2  UNL     1     -13.574 -28.718 -19.868  1.00  0.00    -0.034 SA
ENDROOT
BRANCH   9  14
HETATM   14  N4  UNL     1      -8.377 -29.155 -19.133  1.00  0.00    -0.127 N 
HETATM   15  C5  UNL     1      -7.806 -30.125 -20.080  1.00  0.00     0.164 C 
HETATM   16  C6  UNL     1      -7.879 -31.492 -19.452  1.00  0.00     0.024 C 
HETATM   17  C7  UNL     1      -7.549 -31.370 -17.981  1.00  0.00     0.027 C 
HETATM   18  C8  UNL     1      -6.764 -30.093 -17.821  1.00  0.00     0.125 C 
HETATM   19  N6  UNL     1      -7.688 -28.988 -17.921  1.00  0.00    -0.117 NA
BRANCH  18  20
HETATM   20  C9  UNL     1      -6.012 -29.998 -16.524  1.00  0.00     0.215 C 
BRANCH  20  21
HETATM   21  O2  UNL     1      -4.966 -30.918 -16.549  1.00  0.00    -0.258 OA
BRANCH  21  22
HETATM   22  S1  UNL     1      -3.683 -30.334 -17.470  1.00  0.00     0.355 S 
HETATM   23  O3  UNL     1      -3.593 -28.849 -17.447  1.00  0.00    -0.176 OA
HETATM   24  O4  UNL     1      -2.426 -30.990 -16.947  1.00  0.00    -0.176 OA
BRANCH  22  25
HETATM   25  N5  UNL     1      -3.905 -30.858 -19.087  1.00  0.00    -0.306 N 
ATOM     26  H52 UNL     1      -4.451 -30.366 -19.794  1.00  0.00     0.171 HD
ATOM     27  H51 UNL     1      -3.400 -31.736 -19.209  1.00  0.00     0.171 HD
ENDBRANCH  22  25
ENDBRANCH  21  22
ENDBRANCH  20  21
ENDBRANCH  18  20
ENDBRANCH   9  14
BRANCH   1  28
HETATM   28  N1  UNL     1     -15.403 -26.827 -20.559  1.00  0.00    -0.380 N 
ATOM     29  H12 UNL     1     -16.045 -26.334 -19.939  1.00  0.00     0.158 HD
ATOM     30  H11 UNL     1     -15.956 -26.971 -21.404  1.00  0.00     0.158 HD
ENDBRANCH   1  28
TORSDOF 6
ENDMDL
MODEL 2
REMARK VINA RESULT: -7.643283645      2.539      8.376
REMARK  6 active torsions:
REMARK  status: ('A' for Active; 'I' for Inactive)
REMARK    1  A    between atoms: N1_1  and  C1_4 
REMARK    2  A    between atoms: C4_12  and  N4_13 
REMARK    3  A    between atoms: C8_17  and  C9_18 
REMARK    4  A    between atoms: C9_18  and  O2_19 
REMARK    5  A    between atoms: O2_19  and  S1_20 
REMARK    6  A    between atoms: S1_20  and  N5_21 
ROOT
HETATM    1  C1  UNL     1      -4.056 -30.272 -17.601  1.00  0.00     0.144 A 
HETATM    2  N2  UNL     1      -5.030 -29.798 -16.832  1.00  0.00    -0.330 N 
ATOM      3  H2  UNL     1      -4.891 -29.678 -15.828  1.00  0.00     0.168 HD
HETATM    4  C2  UNL     1      -6.181 -29.485 -17.397  1.00  0.00     0.138 A 
HETATM    5  C3  UNL     1      -7.335 -28.971 -16.763  1.00  0.00     0.289 A 
HETATM    6  O1  UNL     1      -7.356 -28.750 -15.514  1.00  0.00    -0.265 OA
HETATM    7  N3  UNL     1      -8.412 -28.715 -17.506  1.00  0.00    -0.153 N 
ATOM      8  H3  UNL     1      -9.229 -28.345 -17.018  1.00  0.00     0.187 HD
HETATM    9  C4  UNL     1      -8.531 -28.894 -18.822  1.00  0.00     0.700 A 
HETATM   10  N7  UNL     1      -7.444 -29.383 -19.441  1.00  0.00    -0.181 N 
ATOM     11  H7  UNL     1      -7.471 -29.544 -20.448  1.00  0.00     0.185 HD
HETATM   12  C10 UNL     1      -6.299 -29.671 -18.742  1.00  0.00     0.126 A 
HETATM   13  S2  UNL     1      -4.753 -30.289 -19.154  1.00  0.00    -0.034 SA
ENDROOT
BRANCH   9  14
HETATM   14  N4  UNL     1      -9.719 -28.581 -19.546  1.00  0.00    -0.127 N 
HETATM   15  C5  UNL     1      -9.792 -27.356 -20.357  1.00  0.00     0.164 C 
HETATM   16  C6  UNL     1     -10.850 -26.464 -19.763  1.00  0.00     0.024 C 
HETATM   17  C7  UNL     1     -12.015 -27.319 -19.320  1.00  0.00     0.027 C 
HETATM   18  C8  UNL     1     -11.930 -28.603 -20.105  1.00  0.00     0.125 C 
HETATM   19  N6  UNL     1     -10.863 -29.396 -19.546  1.00  0.00    -0.117 NA
BRANCH  18  20
HETATM   20  C9  UNL     1     -13.201 -29.404 -20.104  1.00  0.00     0.215 C 
BRANCH  20  21
HETATM   21  O2  UNL     1     -14.178 -28.686 -19.419  1.00  0.00    -0.258 OA
BRANCH  21  22
HETATM   22  S1  UNL     1     -15.364 -28.134 -20.480  1.00  0.00     0.355 S 
HETATM   23  O3  UNL     1     -15.267 -26.671 -20.733  1.00  0.00    -0.176 OA
HETATM   24  O4  UNL     1     -15.235 -28.942 -21.750  1.00  0.00    -0.176 OA
BRANCH  22  25
HETATM   25  N5  UNL     1     -16.896 -28.485 -19.798  1.00  0.00    -0.306 N 
ATOM     26  H52 UNL     1     -17.123 -28.431 -18.805  1.00  0.00     0.171 HD
ATOM     27  H51 UNL     1     -17.527 -28.754 -20.553  1.00  0.00     0.171 HD
ENDBRANCH  22  25
ENDBRANCH  21  22
ENDBRANCH  20  21
ENDBRANCH  18  20
ENDBRANCH   9  14
BRANCH   1  28
HETATM   28  N1  UNL     1      -2.842 -30.640 -17.250  1.00  0.00    -0.380 N 
ATOM     29  H12 UNL     1      -2.567 -31.286 -16.510  1.00  0.00     0.158 HD
ATOM     30  H11 UNL     1      -1.951 -30.350 -17.652  1.00  0.00     0.158 HD
ENDBRANCH   1  28
TORSDOF 6
ENDMDL
MODEL 3
REMARK VINA RESULT: -7.521632834      1.683      2.097
REMARK  6 active torsions:
REMARK  status: ('A' for Active; 'I' for Inactive)
REMARK    1  A    between atoms: N1_1  and  C1_4 
REMARK    2  A    between atoms: C4_12  and  N4_13 
REMARK    3  A    between atoms: C8_17  and  C9_18 
REMARK    4  A    between atoms: C9_18  and  O2_19 
REMARK    5  A    between atoms: O2_19  and  S1_20 
REMARK    6  A    between atoms: S1_20  and  N5_21 
ROOT
HETATM    1  C1  UNL     1     -13.796 -27.094 -20.502  1.00  0.00     0.144 A 
HETATM    2  N2  UNL     1     -12.596 -26.612 -20.808  1.00  0.00    -0.330 N 
ATOM      3  H2  UNL     1     -12.495 -25.846 -21.474  1.00  0.00     0.168 HD
HETATM    4  C2  UNL     1     -11.538 -27.149 -20.231  1.00  0.00     0.138 A 
HETATM    5  C3  UNL     1     -10.184 -26.788 -20.419  1.00  0.00     0.289 A 
HETATM    6  O1  UNL     1      -9.856 -25.851 -21.209  1.00  0.00    -0.265 OA
HETATM    7  N3  UNL     1      -9.245 -27.451 -19.742  1.00  0.00    -0.153 N 
ATOM      8  H3  UNL     1      -8.278 -27.167 -19.900  1.00  0.00     0.187 HD
HETATM    9  C4  UNL     1      -9.443 -28.449 -18.880  1.00  0.00     0.700 A 
HETATM   10  N7  UNL     1     -10.724 -28.807 -18.691  1.00  0.00    -0.181 N 
ATOM     11  H7  UNL     1     -10.942 -29.565 -18.044  1.00  0.00     0.185 HD
HETATM   12  C10 UNL     1     -11.744 -28.171 -19.352  1.00  0.00     0.126 A 
HETATM   13  S2  UNL     1     -13.450 -28.328 -19.381  1.00  0.00    -0.034 SA
ENDROOT
BRANCH   9  14
HETATM   14  N4  UNL     1      -8.380 -29.100 -18.186  1.00  0.00    -0.127 N 
HETATM   15  C5  UNL     1      -8.108 -28.775 -16.777  1.00  0.00     0.164 C 
HETATM   16  C6  UNL     1      -6.738 -28.153 -16.697  1.00  0.00     0.024 C 
HETATM   17  C7  UNL     1      -5.816 -28.884 -17.645  1.00  0.00     0.027 C 
HETATM   18  C8  UNL     1      -6.429 -30.241 -17.883  1.00  0.00     0.125 C 
HETATM   19  N6  UNL     1      -7.553 -30.071 -18.772  1.00  0.00    -0.117 NA
BRANCH  18  20
HETATM   20  C9  UNL     1      -5.478 -31.247 -18.467  1.00  0.00     0.215 C 
BRANCH  20  21
HETATM   21  O2  UNL     1      -5.614 -32.444 -17.769  1.00  0.00    -0.258 OA
BRANCH  21  22
HETATM   22  S1  UNL     1      -4.610 -32.462 -16.417  1.00  0.00     0.355 S 
HETATM   23  O3  UNL     1      -5.171 -31.683 -15.280  1.00  0.00    -0.176 OA
HETATM   24  O4  UNL     1      -4.376 -33.911 -16.056  1.00  0.00    -0.176 OA
BRANCH  22  25
HETATM   25  N5  UNL     1      -3.099 -31.790 -16.866  1.00  0.00    -0.306 N 
ATOM     26  H52 UNL     1      -2.797 -31.612 -17.824  1.00  0.00     0.171 HD
ATOM     27  H51 UNL     1      -2.568 -31.606 -16.015  1.00  0.00     0.171 HD
ENDBRANCH  22  25
ENDBRANCH  21  22
ENDBRANCH  20  21
ENDBRANCH  18  20
ENDBRANCH   9  14
BRANCH   1  28
HETATM   28  N1  UNL     1     -14.972 -26.709 -20.952  1.00  0.00    -0.380 N 
ATOM     29  H12 UNL     1     -15.728 -26.257 -20.439  1.00  0.00     0.158 HD
ATOM     30  H11 UNL     1     -15.345 -26.789 -21.898  1.00  0.00     0.158 HD
ENDBRANCH   1  28
TORSDOF 6
ENDMDL
MODEL 4
REMARK VINA RESULT: -7.469311763      1.368      1.748
REMARK  6 active torsions:
REMARK  status: ('A' for Active; 'I' for Inactive)
REMARK    1  A    between atoms: N1_1  and  C1_4 
REMARK    2  A    between atoms: C4_12  and  N4_13 
REMARK    3  A    between atoms: C8_17  and  C9_18 
REMARK    4  A    between atoms: C9_18  and  O2_19 
REMARK    5  A    between atoms: O2_19  and  S1_20 
REMARK    6  A    between atoms: S1_20  and  N5_21 
ROOT
HETATM    1  C1  UNL     1     -15.658 -27.994 -20.227  1.00  0.00     0.144 A 
HETATM    2  N2  UNL     1     -14.786 -27.007 -20.408  1.00  0.00    -0.330 N 
ATOM      3  H2  UNL     1     -15.100 -26.075 -20.680  1.00  0.00     0.168 HD
HETATM    4  C2  UNL     1     -13.503 -27.261 -20.228  1.00  0.00     0.138 A 
HETATM    5  C3  UNL     1     -12.423 -26.360 -20.369  1.00  0.00     0.289 A 
HETATM    6  O1  UNL     1     -12.614 -25.151 -20.700  1.00  0.00    -0.265 OA
HETATM    7  N3  UNL     1     -11.186 -26.805 -20.143  1.00  0.00    -0.153 N 
ATOM      8  H3  UNL     1     -10.429 -26.131 -20.254  1.00  0.00     0.187 HD
HETATM    9  C4  UNL     1     -10.839 -28.042 -19.788  1.00  0.00     0.700 A 
HETATM   10  N7  UNL     1     -11.853 -28.913 -19.650  1.00  0.00    -0.181 N 
ATOM     11  H7  UNL     1     -11.653 -29.876 -19.380  1.00  0.00     0.185 HD
HETATM   12  C10 UNL     1     -13.152 -28.528 -19.866  1.00  0.00     0.126 A 
HETATM   13  S2  UNL     1     -14.674 -29.314 -19.795  1.00  0.00    -0.034 SA
ENDROOT
BRANCH   9  14
HETATM   14  N4  UNL     1      -9.487 -28.434 -19.552  1.00  0.00    -0.127 N 
HETATM   15  C5  UNL     1      -8.570 -28.646 -20.681  1.00  0.00     0.164 C 
HETATM   16  C6  UNL     1      -8.169 -30.098 -20.693  1.00  0.00     0.024 C 
HETATM   17  C7  UNL     1      -7.961 -30.557 -19.268  1.00  0.00     0.027 C 
HETATM   18  C8  UNL     1      -7.696 -29.318 -18.451  1.00  0.00     0.125 C 
HETATM   19  N6  UNL     1      -8.951 -28.629 -18.269  1.00  0.00    -0.117 NA
BRANCH  18  20
HETATM   20  C9  UNL     1      -7.078 -29.593 -17.110  1.00  0.00     0.215 C 
BRANCH  20  21
HETATM   21  O2  UNL     1      -5.704 -29.386 -17.203  1.00  0.00    -0.258 OA
BRANCH  21  22
HETATM   22  S1  UNL     1      -4.863 -30.794 -16.818  1.00  0.00     0.355 S 
HETATM   23  O3  UNL     1      -3.394 -30.577 -16.738  1.00  0.00    -0.176 OA
HETATM   24  O4  UNL     1      -5.436 -31.312 -15.519  1.00  0.00    -0.176 OA
BRANCH  22  25
HETATM   25  N5  UNL     1      -5.193 -31.960 -18.030  1.00  0.00    -0.306 N 
ATOM     26  H52 UNL     1      -4.494 -32.395 -18.632  1.00  0.00     0.171 HD
ATOM     27  H51 UNL     1      -6.198 -32.135 -18.038  1.00  0.00     0.171 HD
ENDBRANCH  22  25
ENDBRANCH  21  22
ENDBRANCH  20  21
ENDBRANCH  18  20
ENDBRANCH   9  14
BRANCH   1  28
HETATM   28  N1  UNL     1     -16.968 -27.960 -20.349  1.00  0.00    -0.380 N 
ATOM     29  H12 UNL     1     -17.663 -28.510 -19.845  1.00  0.00     0.158 HD
ATOM     30  H11 UNL     1     -17.531 -27.377 -20.968  1.00  0.00     0.158 HD
ENDBRANCH   1  28
TORSDOF 6
ENDMDL
MODEL 5
REMARK VINA RESULT: -7.442839628      2.332      8.213
REMARK  6 active torsions:
REMARK  status: ('A' for Active; 'I' for Inactive)
REMARK    1  A    between atoms: N1_1  and  C1_4 
REMARK    2  A    between atoms: C4_12  and  N4_13 
REMARK    3  A    between atoms: C8_17  and  C9_18 
REMARK    4  A    between atoms: C9_18  and  O2_19 
REMARK    5  A    between atoms: O2_19  and  S1_20 
REMARK    6  A    between atoms: S1_20  and  N5_21 
ROOT
HETATM    1  C1  UNL     1      -4.046 -30.309 -17.564  1.00  0.00     0.144 A 
HETATM    2  N2  UNL     1      -5.041 -29.858 -16.808  1.00  0.00    -0.330 N 
ATOM      3  H2  UNL     1      -4.946 -29.808 -15.793  1.00  0.00     0.168 HD
HETATM    4  C2  UNL     1      -6.156 -29.475 -17.401  1.00  0.00     0.138 A 
HETATM    5  C3  UNL     1      -7.325 -28.970 -16.785  1.00  0.00     0.289 A 
HETATM    6  O1  UNL     1      -7.398 -28.831 -15.526  1.00  0.00    -0.265 OA
HETATM    7  N3  UNL     1      -8.360 -28.634 -17.556  1.00  0.00    -0.153 N 
ATOM      8  H3  UNL     1      -9.187 -28.273 -17.081  1.00  0.00     0.187 HD
HETATM    9  C4  UNL     1      -8.422 -28.723 -18.885  1.00  0.00     0.700 A 
HETATM   10  N7  UNL     1      -7.321 -29.202 -19.487  1.00  0.00    -0.181 N 
ATOM     11  H7  UNL     1      -7.306 -29.295 -20.503  1.00  0.00     0.185 HD
HETATM   12  C10 UNL     1      -6.217 -29.569 -18.759  1.00  0.00     0.126 A 
HETATM   13  S2  UNL     1      -4.672 -30.202 -19.143  1.00  0.00    -0.034 SA
ENDROOT
BRANCH   9  14
HETATM   14  N4  UNL     1      -9.568 -28.328 -19.638  1.00  0.00    -0.127 N 
HETATM   15  C5  UNL     1      -9.670 -28.669 -21.065  1.00  0.00     0.164 C 
HETATM   16  C6  UNL     1      -9.675 -27.386 -21.854  1.00  0.00     0.024 C 
HETATM   17  C7  UNL     1     -10.506 -26.363 -21.113  1.00  0.00     0.027 C 
HETATM   18  C8  UNL     1     -11.427 -27.135 -20.203  1.00  0.00     0.125 C 
HETATM   19  N6  UNL     1     -10.648 -27.619 -19.089  1.00  0.00    -0.117 NA
BRANCH  18  20
HETATM   20  C9  UNL     1     -12.589 -26.332 -19.688  1.00  0.00     0.215 C 
BRANCH  20  21
HETATM   21  O2  UNL     1     -13.621 -26.395 -20.622  1.00  0.00    -0.258 OA
BRANCH  21  22
HETATM   22  S1  UNL     1     -14.659 -27.674 -20.273  1.00  0.00     0.355 S 
HETATM   23  O3  UNL     1     -14.328 -28.905 -21.041  1.00  0.00    -0.176 OA
HETATM   24  O4  UNL     1     -14.600 -27.901 -18.780  1.00  0.00    -0.176 OA
BRANCH  22  25
HETATM   25  N5  UNL     1     -16.256 -27.185 -20.658  1.00  0.00    -0.306 N 
ATOM     26  H52 UNL     1     -16.633 -26.247 -20.518  1.00  0.00     0.171 HD
ATOM     27  H51 UNL     1     -16.751 -27.989 -21.044  1.00  0.00     0.171 HD
ENDBRANCH  22  25
ENDBRANCH  21  22
ENDBRANCH  20  21
ENDBRANCH  18  20
ENDBRANCH   9  14
BRANCH   1  28
HETATM   28  N1  UNL     1      -2.859 -30.735 -17.185  1.00  0.00    -0.380 N 
ATOM     29  H12 UNL     1      -2.032 -30.182 -16.960  1.00  0.00     0.158 HD
ATOM     30  H11 UNL     1      -2.546 -31.695 -17.043  1.00  0.00     0.158 HD
ENDBRANCH   1  28
TORSDOF 6
ENDMDL
