MODEL 1
REMARK VINA RESULT: -6.878415905      0.000      0.000
REMARK  6 active torsions:
REMARK  status: ('A' for Active; 'I' for Inactive)
REMARK    1  A    between atoms: S1_2  and  C2_3 
REMARK    2  A    between atoms: C4_7  and  N2_8 
REMARK    3  A    between atoms: N2_8  and  C5_10 
REMARK    4  A    between atoms: C5_10  and  C6_11 
REMARK    5  A    between atoms: C9_17  and  N5_18 
REMARK    6  A    between atoms: C12_23  and  N7_24 
ROOT
HETATM    1  C2  UNL     1      61.372  13.605  52.618  1.00  0.00     0.146 A 
HETATM    2  N1  UNL     1      61.977  13.905  53.802  1.00  0.00    -0.332 N 
ATOM      3  H1  UNL     1      61.754  14.788  54.261  1.00  0.00     0.168 HD
HETATM    4  C3  UNL     1      62.852  13.079  54.381  1.00  0.00     0.110 A 
HETATM    5  C4  UNL     1      63.471  13.391  55.600  1.00  0.00     0.146 A 
HETATM    6  N6  UNL     1      64.337  12.504  56.109  1.00  0.00    -0.175 N 
ATOM      7  H6  UNL     1      64.782  12.740  56.996  1.00  0.00     0.186 HD
HETATM    8  C12 UNL     1      64.664  11.330  55.545  1.00  0.00     0.678 A 
HETATM    9  N8  UNL     1      64.061  11.035  54.367  1.00  0.00    -0.186 N 
ATOM     10  H8  UNL     1      64.279  10.153  53.902  1.00  0.00     0.184 HD
HETATM   11  C13 UNL     1      63.182  11.878  53.796  1.00  0.00     0.123 A 
HETATM   12  C14 UNL     1      62.560  11.583  52.591  1.00  0.00     0.131 A 
HETATM   13  N9  UNL     1      62.874  10.457  52.049  1.00  0.00    -0.383 N 
ATOM     14  H91 UNL     1      62.418  10.240  51.163  1.00  0.00     0.157 HD
ATOM     15  H92 UNL     1      63.541   9.816  52.479  1.00  0.00     0.157 HD
HETATM   16  N10 UNL     1      61.670  12.439  52.016  1.00  0.00    -0.321 N 
ATOM     17  H10 UNL     1      61.228  12.196  51.129  1.00  0.00     0.169 HD
ENDROOT
BRANCH   5  18
HETATM   18  N2  UNL     1      63.144  14.502  56.112  1.00  0.00    -0.369 N 
ATOM     19  H2  UNL     1      62.306  14.508  56.695  1.00  0.00     0.161 HD
BRANCH  18  20
HETATM   20  C5  UNL     1      63.841  15.771  55.956  1.00  0.00     0.165 C 
BRANCH  20  21
HETATM   21  C6  UNL     1      65.291  15.618  56.205  1.00  0.00     0.022 A 
HETATM   22  C7  UNL     1      65.848  15.883  57.471  1.00  0.00     0.120 A 
HETATM   23  N3  UNL     1      67.142  15.674  57.343  1.00  0.00    -0.308 N 
HETATM   24  N4  UNL     1      67.456  15.295  56.089  1.00  0.00    -0.281 N 
ATOM     25  H3  UNL     1      67.821  15.786  58.096  1.00  0.00     0.186 HD
HETATM   26  C8  UNL     1      68.801  14.983  55.638  1.00  0.00     0.179 C 
HETATM   27  C9  UNL     1      66.319  15.254  55.368  1.00  0.00     0.128 A 
BRANCH  27  28
HETATM   28  N5  UNL     1      66.201  14.869  54.000  1.00  0.00    -0.374 N 
HETATM   29  C10 UNL     1      66.599  13.541  53.509  1.00  0.00     0.150 C 
HETATM   30  C11 UNL     1      65.646  15.727  52.977  1.00  0.00     0.150 C 
ENDBRANCH  27  28
ENDBRANCH  20  21
ENDBRANCH  18  20
ENDBRANCH   5  18
BRANCH   8  31
HETATM   31  N7  UNL     1      65.508  10.512  56.087  1.00  0.00    -0.234 N 
ATOM     32  H72 UNL     1      65.728  10.566  57.081  1.00  0.00     0.174 HD
ATOM     33  H71 UNL     1      65.986   9.787  55.552  1.00  0.00     0.174 HD
ENDBRANCH   8  31
BRANCH   1  34
HETATM   34  S1  UNL     1      60.204  14.721  51.858  1.00  0.00    -0.098 SA
HETATM   35  C1  UNL     1      59.885  14.267  50.131  1.00  0.00     0.099 C 
ENDBRANCH   1  34
TORSDOF 6
ENDMDL
MODEL 2
REMARK VINA RESULT: -6.857527510      2.769      5.147
REMARK  6 active torsions:
REMARK  status: ('A' for Active; 'I' for Inactive)
REMARK    1  A    between atoms: S1_2  and  C2_3 
REMARK    2  A    between atoms: C4_7  and  N2_8 
REMARK    3  A    between atoms: N2_8  and  C5_10 
REMARK    4  A    between atoms: C5_10  and  C6_11 
REMARK    5  A    between atoms: C9_17  and  N5_18 
REMARK    6  A    between atoms: C12_23  and  N7_24 
ROOT
HETATM    1  C2  UNL     1      61.494  10.379  50.625  1.00  0.00     0.146 A 
HETATM    2  N1  UNL     1      61.647  11.670  51.034  1.00  0.00    -0.332 N 
ATOM      3  H1  UNL     1      62.578  12.001  51.286  1.00  0.00     0.168 HD
HETATM    4  C3  UNL     1      60.618  12.516  51.115  1.00  0.00     0.110 A 
HETATM    5  C4  UNL     1      60.781  13.843  51.535  1.00  0.00     0.146 A 
HETATM    6  N6  UNL     1      59.693  14.624  51.588  1.00  0.00    -0.175 N 
ATOM      7  H6  UNL     1      59.821  15.588  51.895  1.00  0.00     0.186 HD
HETATM    8  C12 UNL     1      58.447  14.236  51.268  1.00  0.00     0.678 A 
HETATM    9  N8  UNL     1      58.297  12.951  50.862  1.00  0.00    -0.186 N 
ATOM     10  H8  UNL     1      57.368  12.613  50.608  1.00  0.00     0.184 HD
HETATM   11  C13 UNL     1      59.345  12.111  50.786  1.00  0.00     0.123 A 
HETATM   12  C14 UNL     1      59.200  10.794  50.371  1.00  0.00     0.131 A 
HETATM   13  N9  UNL     1      58.004  10.422  50.065  1.00  0.00    -0.383 N 
ATOM     14  H91 UNL     1      57.898   9.454  49.760  1.00  0.00     0.157 HD
ATOM     15  H92 UNL     1      57.208  11.057  50.122  1.00  0.00     0.157 HD
HETATM   16  N10 UNL     1      60.263   9.947  50.295  1.00  0.00    -0.321 N 
ATOM     17  H10 UNL     1      60.127   8.984  49.987  1.00  0.00     0.169 HD
ENDROOT
BRANCH   5  18
HETATM   18  N2  UNL     1      61.964  14.184  51.828  1.00  0.00    -0.369 N 
ATOM     19  H2  UNL     1      62.716  13.650  51.392  1.00  0.00     0.161 HD
BRANCH  18  20
HETATM   20  C5  UNL     1      62.363  15.262  52.724  1.00  0.00     0.165 C 
BRANCH  20  21
HETATM   21  C6  UNL     1      63.787  15.142  53.104  1.00  0.00     0.022 A 
HETATM   22  C7  UNL     1      64.739  16.089  52.679  1.00  0.00     0.120 A 
HETATM   23  N3  UNL     1      65.893  15.678  53.166  1.00  0.00    -0.308 N 
HETATM   24  N4  UNL     1      65.750  14.539  53.871  1.00  0.00    -0.281 N 
ATOM     25  H3  UNL     1      66.781  16.161  53.026  1.00  0.00     0.186 HD
HETATM   26  C8  UNL     1      66.838  13.845  54.537  1.00  0.00     0.179 C 
HETATM   27  C9  UNL     1      64.450  14.192  53.843  1.00  0.00     0.128 A 
BRANCH  27  28
HETATM   28  N5  UNL     1      63.864  13.065  54.493  1.00  0.00    -0.374 N 
HETATM   29  C10 UNL     1      63.189  13.158  55.796  1.00  0.00     0.150 C 
HETATM   30  C11 UNL     1      63.843  11.738  53.919  1.00  0.00     0.150 C 
ENDBRANCH  27  28
ENDBRANCH  20  21
ENDBRANCH  18  20
ENDBRANCH   5  18
BRANCH   8  31
HETATM   31  N7  UNL     1      57.433  15.037  51.337  1.00  0.00    -0.234 N 
ATOM     32  H72 UNL     1      56.609  14.896  50.752  1.00  0.00     0.174 HD
ATOM     33  H71 UNL     1      57.410  15.837  51.970  1.00  0.00     0.174 HD
ENDBRANCH   8  31
BRANCH   1  34
HETATM   34  S1  UNL     1      62.883   9.261  50.522  1.00  0.00    -0.098 SA
HETATM   35  C1  UNL     1      62.518   7.680  51.333  1.00  0.00     0.099 C 
ENDBRANCH   1  34
TORSDOF 6
ENDMDL
MODEL 3
REMARK VINA RESULT: -6.839149257      2.571      4.267
REMARK  6 active torsions:
REMARK  status: ('A' for Active; 'I' for Inactive)
REMARK    1  A    between atoms: S1_2  and  C2_3 
REMARK    2  A    between atoms: C4_7  and  N2_8 
REMARK    3  A    between atoms: N2_8  and  C5_10 
REMARK    4  A    between atoms: C5_10  and  C6_11 
REMARK    5  A    between atoms: C9_17  and  N5_18 
REMARK    6  A    between atoms: C12_23  and  N7_24 
ROOT
HETATM    1  C2  UNL     1      58.255  12.859  50.924  1.00  0.00     0.146 A 
HETATM    2  N1  UNL     1      59.566  13.081  51.227  1.00  0.00    -0.332 N 
ATOM      3  H1  UNL     1      59.832  13.972  51.645  1.00  0.00     0.168 HD
HETATM    4  C3  UNL     1      60.511  12.168  50.994  1.00  0.00     0.110 A 
HETATM    5  C4  UNL     1      61.858  12.400  51.309  1.00  0.00     0.146 A 
HETATM    6  N6  UNL     1      62.741  11.428  51.041  1.00  0.00    -0.175 N 
ATOM      7  H6  UNL     1      63.719  11.606  51.273  1.00  0.00     0.186 HD
HETATM    8  C12 UNL     1      62.442  10.239  50.492  1.00  0.00     0.678 A 
HETATM    9  N8  UNL     1      61.137  10.022  50.191  1.00  0.00    -0.186 N 
ATOM     10  H8  UNL     1      60.863   9.133  49.773  1.00  0.00     0.184 HD
HETATM   11  C13 UNL     1      60.196  10.953  50.431  1.00  0.00     0.123 A 
HETATM   12  C14 UNL     1      58.859  10.739  50.126  1.00  0.00     0.131 A 
HETATM   13  N9  UNL     1      58.571   9.598  49.599  1.00  0.00    -0.383 N 
ATOM     14  H91 UNL     1      57.589   9.440  49.374  1.00  0.00     0.157 HD
ATOM     15  H92 UNL     1      59.283   8.891  49.415  1.00  0.00     0.157 HD
HETATM   16  N10 UNL     1      57.909  11.683  50.372  1.00  0.00    -0.321 N 
ATOM     17  H10 UNL     1      56.933  11.497  50.137  1.00  0.00     0.169 HD
ENDROOT
BRANCH   5  18
HETATM   18  N2  UNL     1      62.114  13.526  51.828  1.00  0.00    -0.369 N 
ATOM     19  H2  UNL     1      62.135  14.327  51.197  1.00  0.00     0.161 HD
BRANCH  18  20
HETATM   20  C5  UNL     1      62.381  13.795  53.234  1.00  0.00     0.165 C 
BRANCH  20  21
HETATM   21  C6  UNL     1      63.611  14.599  53.400  1.00  0.00     0.022 A 
HETATM   22  C7  UNL     1      63.709  15.902  52.875  1.00  0.00     0.120 A 
HETATM   23  N3  UNL     1      64.923  16.319  53.176  1.00  0.00    -0.308 N 
HETATM   24  N4  UNL     1      65.609  15.379  53.855  1.00  0.00    -0.281 N 
ATOM     25  H3  UNL     1      65.296  17.235  52.927  1.00  0.00     0.186 HD
HETATM   26  C8  UNL     1      66.971  15.542  54.334  1.00  0.00     0.179 C 
HETATM   27  C9  UNL     1      64.811  14.305  54.003  1.00  0.00     0.128 A 
BRANCH  27  28
HETATM   28  N5  UNL     1      65.139  13.099  54.691  1.00  0.00    -0.374 N 
HETATM   29  C10 UNL     1      64.248  12.481  55.685  1.00  0.00     0.150 C 
HETATM   30  C11 UNL     1      66.352  12.351  54.452  1.00  0.00     0.150 C 
ENDBRANCH  27  28
ENDBRANCH  20  21
ENDBRANCH  18  20
ENDBRANCH   5  18
BRANCH   8  31
HETATM   31  N7  UNL     1      63.340   9.338  50.258  1.00  0.00    -0.234 N 
ATOM     32  H72 UNL     1      64.308   9.472  50.549  1.00  0.00     0.174 HD
ATOM     33  H71 UNL     1      63.125   8.464  49.777  1.00  0.00     0.174 HD
ENDBRANCH   8  31
BRANCH   1  34
HETATM   34  S1  UNL     1      57.003  14.092  51.242  1.00  0.00    -0.098 SA
HETATM   35  C1  UNL     1      55.357  13.341  51.371  1.00  0.00     0.099 C 
ENDBRANCH   1  34
TORSDOF 6
ENDMDL
MODEL 4
REMARK VINA RESULT: -6.820135763      2.350      4.072
REMARK  6 active torsions:
REMARK  status: ('A' for Active; 'I' for Inactive)
REMARK    1  A    between atoms: S1_2  and  C2_3 
REMARK    2  A    between atoms: C4_7  and  N2_8 
REMARK    3  A    between atoms: N2_8  and  C5_10 
REMARK    4  A    between atoms: C5_10  and  C6_11 
REMARK    5  A    between atoms: C9_17  and  N5_18 
REMARK    6  A    between atoms: C12_23  and  N7_24 
ROOT
HETATM    1  C2  UNL     1      58.882  12.788  51.271  1.00  0.00     0.146 A 
HETATM    2  N1  UNL     1      60.191  12.726  51.650  1.00  0.00    -0.332 N 
ATOM      3  H1  UNL     1      60.560  13.447  52.270  1.00  0.00     0.168 HD
HETATM    4  C3  UNL     1      61.003  11.752  51.236  1.00  0.00     0.110 A 
HETATM    5  C4  UNL     1      62.348  11.692  51.629  1.00  0.00     0.146 A 
HETATM    6  N6  UNL     1      63.092  10.679  51.165  1.00  0.00    -0.175 N 
ATOM      7  H6  UNL     1      64.070  10.643  51.456  1.00  0.00     0.186 HD
HETATM    8  C12 UNL     1      62.654   9.707  50.348  1.00  0.00     0.678 A 
HETATM    9  N8  UNL     1      61.352   9.771  49.973  1.00  0.00    -0.186 N 
ATOM     10  H8  UNL     1      60.976   9.054  49.353  1.00  0.00     0.184 HD
HETATM   11  C13 UNL     1      60.546  10.760  50.398  1.00  0.00     0.123 A 
HETATM   12  C14 UNL     1      59.213  10.834  50.019  1.00  0.00     0.131 A 
HETATM   13  N9  UNL     1      58.792   9.901  49.235  1.00  0.00    -0.383 N 
ATOM     14  H91 UNL     1      57.813   9.955  48.955  1.00  0.00     0.157 HD
ATOM     15  H92 UNL     1      59.402   9.151  48.910  1.00  0.00     0.157 HD
HETATM   16  N10 UNL     1      58.400  11.836  50.453  1.00  0.00    -0.321 N 
ATOM     17  H10 UNL     1      57.423  11.864  50.157  1.00  0.00     0.169 HD
ENDROOT
BRANCH   5  18
HETATM   18  N2  UNL     1      62.735  12.617  52.401  1.00  0.00    -0.369 N 
ATOM     19  H2  UNL     1      62.982  13.505  51.964  1.00  0.00     0.161 HD
BRANCH  18  20
HETATM   20  C5  UNL     1      62.865  12.544  53.850  1.00  0.00     0.165 C 
BRANCH  20  21
HETATM   21  C6  UNL     1      64.274  12.712  54.269  1.00  0.00     0.022 A 
HETATM   22  C7  UNL     1      65.087  11.601  54.565  1.00  0.00     0.120 A 
HETATM   23  N3  UNL     1      66.254  12.097  54.921  1.00  0.00    -0.308 N 
HETATM   24  N4  UNL     1      66.249  13.443  54.876  1.00  0.00    -0.281 N 
ATOM     25  H3  UNL     1      67.059  11.534  55.197  1.00  0.00     0.186 HD
HETATM   26  C8  UNL     1      67.390  14.280  55.203  1.00  0.00     0.179 C 
HETATM   27  C9  UNL     1      65.028  13.843  54.473  1.00  0.00     0.128 A 
BRANCH  27  28
HETATM   28  N5  UNL     1      64.609  15.190  54.262  1.00  0.00    -0.374 N 
HETATM   29  C10 UNL     1      64.651  15.840  52.944  1.00  0.00     0.150 C 
HETATM   30  C11 UNL     1      64.067  16.027  55.308  1.00  0.00     0.150 C 
ENDBRANCH  27  28
ENDBRANCH  20  21
ENDBRANCH  18  20
ENDBRANCH   5  18
BRANCH   8  31
HETATM   31  N7  UNL     1      63.422   8.751  49.934  1.00  0.00    -0.234 N 
ATOM     32  H72 UNL     1      63.794   8.749  48.984  1.00  0.00     0.174 HD
ATOM     33  H71 UNL     1      63.687   7.965  50.529  1.00  0.00     0.174 HD
ENDBRANCH   8  31
BRANCH   1  34
HETATM   34  S1  UNL     1      57.809  14.099  51.836  1.00  0.00    -0.098 SA
HETATM   35  C1  UNL     1      56.116  13.875  51.223  1.00  0.00     0.099 C 
ENDBRANCH   1  34
TORSDOF 6
ENDMDL
MODEL 5
REMARK VINA RESULT: -6.814694103      3.761      6.399
REMARK  6 active torsions:
REMARK  status: ('A' for Active; 'I' for Inactive)
REMARK    1  A    between atoms: S1_2  and  C2_3 
REMARK    2  A    between atoms: C4_7  and  N2_8 
REMARK    3  A    between atoms: N2_8  and  C5_10 
REMARK    4  A    between atoms: C5_10  and  C6_11 
REMARK    5  A    between atoms: C9_17  and  N5_18 
REMARK    6  A    between atoms: C12_23  and  N7_24 
ROOT
HETATM    1  C2  UNL     1      66.496  14.739  55.138  1.00  0.00     0.146 A 
HETATM    2  N1  UNL     1      66.302  13.401  55.319  1.00  0.00    -0.332 N 
ATOM      3  H1  UNL     1      66.913  12.897  55.961  1.00  0.00     0.168 HD
HETATM    4  C3  UNL     1      65.338  12.732  54.683  1.00  0.00     0.110 A 
HETATM    5  C4  UNL     1      65.142  11.356  54.873  1.00  0.00     0.146 A 
HETATM    6  N6  UNL     1      64.151  10.764  54.194  1.00  0.00    -0.175 N 
ATOM      7  H6  UNL     1      64.016   9.763  54.338  1.00  0.00     0.186 HD
HETATM    8  C12 UNL     1      63.321  11.383  53.338  1.00  0.00     0.678 A 
HETATM    9  N8  UNL     1      63.516  12.714  53.160  1.00  0.00    -0.186 N 
ATOM     10  H8  UNL     1      62.909  13.225  52.520  1.00  0.00     0.184 HD
HETATM   11  C13 UNL     1      64.493  13.374  53.808  1.00  0.00     0.123 A 
HETATM   12  C14 UNL     1      64.699  14.735  53.631  1.00  0.00     0.131 A 
HETATM   13  N9  UNL     1      63.903  15.329  52.810  1.00  0.00    -0.383 N 
ATOM     14  H91 UNL     1      64.055  16.330  52.679  1.00  0.00     0.157 HD
ATOM     15  H92 UNL     1      63.162  14.831  52.317  1.00  0.00     0.157 HD
HETATM   16  N10 UNL     1      65.688  15.400  54.290  1.00  0.00    -0.321 N 
ATOM     17  H10 UNL     1      65.817  16.401  54.140  1.00  0.00     0.169 HD
ENDROOT
BRANCH   5  18
HETATM   18  N2  UNL     1      65.935  10.797  55.686  1.00  0.00    -0.369 N 
ATOM     19  H2  UNL     1      65.829  11.041  56.671  1.00  0.00     0.161 HD
BRANCH  18  20
HETATM   20  C5  UNL     1      66.982   9.839  55.360  1.00  0.00     0.165 C 
BRANCH  20  21
HETATM   21  C6  UNL     1      67.243   8.925  56.494  1.00  0.00     0.022 A 
HETATM   22  C7  UNL     1      66.524   9.032  57.700  1.00  0.00     0.120 A 
HETATM   23  N3  UNL     1      67.013   8.099  58.491  1.00  0.00    -0.308 N 
HETATM   24  N4  UNL     1      67.991   7.402  57.881  1.00  0.00    -0.281 N 
ATOM     25  H3  UNL     1      66.692   7.926  59.444  1.00  0.00     0.186 HD
HETATM   26  C8  UNL     1      68.718   6.303  58.491  1.00  0.00     0.179 C 
HETATM   27  C9  UNL     1      68.148   7.901  56.640  1.00  0.00     0.128 A 
BRANCH  27  28
HETATM   28  N5  UNL     1      69.059   7.428  55.650  1.00  0.00    -0.374 N 
HETATM   29  C10 UNL     1      68.695   6.411  54.653  1.00  0.00     0.150 C 
HETATM   30  C11 UNL     1      70.408   7.929  55.507  1.00  0.00     0.150 C 
ENDBRANCH  27  28
ENDBRANCH  20  21
ENDBRANCH  18  20
ENDBRANCH   5  18
BRANCH   8  31
HETATM   31  N7  UNL     1      62.378  10.757  52.711  1.00  0.00    -0.234 N 
ATOM     32  H72 UNL     1      61.898   9.965  53.138  1.00  0.00     0.174 HD
ATOM     33  H71 UNL     1      62.077  11.021  51.772  1.00  0.00     0.174 HD
ENDBRANCH   8  31
BRANCH   1  34
HETATM   34  S1  UNL     1      67.790  15.619  55.998  1.00  0.00    -0.098 SA
HETATM   35  C1  UNL     1      69.418  14.894  55.658  1.00  0.00     0.099 C 
ENDBRANCH   1  34
TORSDOF 6
ENDMDL
