MODEL 1
REMARK VINA RESULT: -8.131018694      0.000      0.000
REMARK  5 active torsions:
REMARK  status: ('A' for Active; 'I' for Inactive)
REMARK    1  A    between atoms: C5_11  and  N3_12 
REMARK    2  A    between atoms: N3_12  and  C6_14 
REMARK    3  A    between atoms: C6_14  and  C7_15 
REMARK    4  A    between atoms: C10_20  and  N5_21 
REMARK    5  A    between atoms: N7_28  and  C12_29 
ROOT
HETATM    1  C7  UNL     1      61.605  13.520  52.422  1.00  0.00     0.100 A 
HETATM    2  N4  UNL     1      62.012  13.235  51.169  1.00  0.00    -0.353 N 
ATOM      3  H4  UNL     1      63.011  13.162  50.976  1.00  0.00     0.166 HD
HETATM    4  C8  UNL     1      61.130  13.043  50.157  1.00  0.00     0.108 A 
HETATM    5  C9  UNL     1      59.775  13.141  50.414  1.00  0.00     0.067 A 
HETATM    6  C10 UNL     1      58.822  12.957  49.437  1.00  0.00     0.118 A 
HETATM    7  N6  UNL     1      57.519  13.074  49.786  1.00  0.00    -0.294 N 
ATOM      8  H6  UNL     1      56.808  12.941  49.067  1.00  0.00     0.172 HD
HETATM    9  C11 UNL     1      57.126  13.355  51.028  1.00  0.00     0.330 A 
HETATM   10  O3  UNL     1      55.899  13.442  51.254  1.00  0.00    -0.246 OA
HETATM   11  N7  UNL     1      58.019  13.542  52.011  1.00  0.00    -0.280 N 
HETATM   12  C15 UNL     1      59.349  13.430  51.687  1.00  0.00     0.128 A 
HETATM   13  N8  UNL     1      60.288  13.610  52.650  1.00  0.00    -0.330 N 
ATOM     14  H8  UNL     1      59.975  13.824  53.597  1.00  0.00     0.168 HD
ENDROOT
BRANCH   1  15
HETATM   15  C6  UNL     1      62.540  13.739  53.541  1.00  0.00     0.196 C 
BRANCH  15  16
HETATM   16  N3  UNL     1      63.926  13.611  53.210  1.00  0.00    -0.377 N 
ATOM     17  H3  UNL     1      64.175  13.027  52.412  1.00  0.00     0.160 HD
BRANCH  16  18
HETATM   18  C5  UNL     1      64.972  14.244  53.922  1.00  0.00     0.120 A 
HETATM   19  C2  UNL     1      65.424  15.524  53.633  1.00  0.00     0.042 A 
HETATM   20  C1  UNL     1      64.791  16.257  52.530  1.00  0.00     0.071 C 
HETATM   21  N1  UNL     1      66.418  16.078  54.347  1.00  0.00    -0.310 N 
HETATM   22  C3  UNL     1      67.005  15.421  55.356  1.00  0.00     0.327 A 
ATOM     23  H1  UNL     1      66.732  17.020  54.115  1.00  0.00     0.170 HD
HETATM   24  O1  UNL     1      67.926  15.939  56.014  1.00  0.00    -0.247 OA
HETATM   25  N2  UNL     1      66.586  14.174  55.661  1.00  0.00    -0.274 N 
HETATM   26  C4  UNL     1      65.581  13.582  54.959  1.00  0.00     0.277 A 
ATOM     27  H2  UNL     1      67.028  13.668  56.428  1.00  0.00     0.173 HD
HETATM   28  O2  UNL     1      65.270  12.416  55.329  1.00  0.00    -0.265 OA
ENDBRANCH  16  18
ENDBRANCH  15  16
ENDBRANCH   1  15
BRANCH  11  29
HETATM   29  C12 UNL     1      57.643  13.844  53.354  1.00  0.00     0.096 A 
HETATM   30  C13 UNL     1      57.224  12.780  54.329  1.00  0.00     0.028 A 
HETATM   31  C14 UNL     1      56.269  13.893  53.859  1.00  0.00     0.028 A 
ENDBRANCH  11  29
BRANCH   6  32
HETATM   32  N5  UNL     1      59.163  12.685  48.231  1.00  0.00    -0.385 N 
ATOM     33  H52 UNL     1      59.172  11.723  47.890  1.00  0.00     0.157 HD
ATOM     34  H51 UNL     1      59.431  13.427  47.584  1.00  0.00     0.157 HD
ENDBRANCH   6  32
TORSDOF 5
ENDMDL
MODEL 2
REMARK VINA RESULT: -8.129815893      2.863      4.281
REMARK  5 active torsions:
REMARK  status: ('A' for Active; 'I' for Inactive)
REMARK    1  A    between atoms: C5_11  and  N3_12 
REMARK    2  A    between atoms: N3_12  and  C6_14 
REMARK    3  A    between atoms: C6_14  and  C7_15 
REMARK    4  A    between atoms: C10_20  and  N5_21 
REMARK    5  A    between atoms: N7_28  and  C12_29 
ROOT
HETATM    1  C7  UNL     1      63.390  13.940  55.486  1.00  0.00     0.100 A 
HETATM    2  N4  UNL     1      63.982  12.827  55.964  1.00  0.00    -0.353 N 
ATOM      3  H4  UNL     1      64.465  12.868  56.862  1.00  0.00     0.166 HD
HETATM    4  C8  UNL     1      63.954  11.654  55.285  1.00  0.00     0.108 A 
HETATM    5  C9  UNL     1      63.301  11.593  54.068  1.00  0.00     0.067 A 
HETATM    6  C10 UNL     1      63.230  10.437  53.323  1.00  0.00     0.118 A 
HETATM    7  N6  UNL     1      62.568  10.477  52.143  1.00  0.00    -0.294 N 
ATOM      8  H6  UNL     1      62.513   9.625  51.585  1.00  0.00     0.172 HD
HETATM    9  C11 UNL     1      61.985  11.581  51.678  1.00  0.00     0.330 A 
HETATM   10  O3  UNL     1      61.396  11.520  50.577  1.00  0.00    -0.246 OA
HETATM   11  N7  UNL     1      62.028  12.730  52.369  1.00  0.00    -0.280 N 
HETATM   12  C15 UNL     1      62.694  12.720  53.571  1.00  0.00     0.128 A 
HETATM   13  N8  UNL     1      62.762  13.860  54.305  1.00  0.00    -0.330 N 
ATOM     14  H8  UNL     1      62.311  14.698  53.940  1.00  0.00     0.168 HD
ENDROOT
BRANCH   1  15
HETATM   15  C6  UNL     1      63.407  15.230  56.200  1.00  0.00     0.196 C 
BRANCH  15  16
HETATM   16  N3  UNL     1      64.433  16.139  55.790  1.00  0.00    -0.377 N 
ATOM     17  H3  UNL     1      64.172  17.110  55.622  1.00  0.00     0.160 HD
BRANCH  16  18
HETATM   18  C5  UNL     1      65.787  15.773  55.602  1.00  0.00     0.120 A 
HETATM   19  C2  UNL     1      66.362  15.595  54.352  1.00  0.00     0.042 A 
HETATM   20  C1  UNL     1      65.522  15.787  53.162  1.00  0.00     0.071 C 
HETATM   21  N1  UNL     1      67.655  15.253  54.234  1.00  0.00    -0.310 N 
HETATM   22  C3  UNL     1      68.433  15.073  55.310  1.00  0.00     0.327 A 
ATOM     23  H1  UNL     1      68.054  15.128  53.303  1.00  0.00     0.170 HD
HETATM   24  O1  UNL     1      69.631  14.757  55.195  1.00  0.00    -0.247 OA
HETATM   25  N2  UNL     1      67.901  15.241  56.540  1.00  0.00    -0.274 N 
HETATM   26  C4  UNL     1      66.594  15.587  56.696  1.00  0.00     0.277 A 
ATOM     27  H2  UNL     1      68.487  15.106  57.364  1.00  0.00     0.173 HD
HETATM   28  O2  UNL     1      66.204  15.717  57.891  1.00  0.00    -0.265 OA
ENDBRANCH  16  18
ENDBRANCH  15  16
ENDBRANCH   1  15
BRANCH  11  29
HETATM   29  C12 UNL     1      61.418  13.936  51.911  1.00  0.00     0.096 A 
HETATM   30  C13 UNL     1      60.012  14.316  52.283  1.00  0.00     0.028 A 
HETATM   31  C14 UNL     1      60.434  14.029  50.830  1.00  0.00     0.028 A 
ENDBRANCH  11  29
BRANCH   6  32
HETATM   32  N5  UNL     1      63.779   9.355  53.738  1.00  0.00    -0.385 N 
ATOM     33  H52 UNL     1      64.696   9.065  53.397  1.00  0.00     0.157 HD
ATOM     34  H51 UNL     1      63.310   8.759  54.420  1.00  0.00     0.157 HD
ENDBRANCH   6  32
TORSDOF 5
ENDMDL
MODEL 3
REMARK VINA RESULT: -8.063063548      2.090      3.269
REMARK  5 active torsions:
REMARK  status: ('A' for Active; 'I' for Inactive)
REMARK    1  A    between atoms: C5_11  and  N3_12 
REMARK    2  A    between atoms: N3_12  and  C6_14 
REMARK    3  A    between atoms: C6_14  and  C7_15 
REMARK    4  A    between atoms: C10_20  and  N5_21 
REMARK    5  A    between atoms: N7_28  and  C12_29 
ROOT
HETATM    1  C7  UNL     1      61.407  13.427  53.015  1.00  0.00     0.100 A 
HETATM    2  N4  UNL     1      60.321  14.213  52.867  1.00  0.00    -0.353 N 
ATOM      3  H4  UNL     1      60.280  15.102  53.365  1.00  0.00     0.166 HD
HETATM    4  C8  UNL     1      59.282  13.854  52.074  1.00  0.00     0.108 A 
HETATM    5  C9  UNL     1      59.334  12.650  51.396  1.00  0.00     0.067 A 
HETATM    6  C10 UNL     1      58.317  12.220  50.573  1.00  0.00     0.118 A 
HETATM    7  N6  UNL     1      58.460  11.025  49.952  1.00  0.00    -0.294 N 
ATOM      8  H6  UNL     1      57.710  10.700  49.342  1.00  0.00     0.172 HD
HETATM    9  C11 UNL     1      59.537  10.256  50.104  1.00  0.00     0.330 A 
HETATM   10  O3  UNL     1      59.578   9.168  49.488  1.00  0.00    -0.246 OA
HETATM   11  N7  UNL     1      60.552  10.634  50.895  1.00  0.00    -0.280 N 
HETATM   12  C15 UNL     1      60.435  11.842  51.539  1.00  0.00     0.128 A 
HETATM   13  N8  UNL     1      61.438  12.266  52.350  1.00  0.00    -0.330 N 
ATOM     14  H8  UNL     1      62.258  11.668  52.457  1.00  0.00     0.168 HD
ENDROOT
BRANCH   1  15
HETATM   15  C6  UNL     1      62.550  13.789  53.874  1.00  0.00     0.196 C 
BRANCH  15  16
HETATM   16  N3  UNL     1      63.839  13.588  53.289  1.00  0.00    -0.377 N 
ATOM     17  H3  UNL     1      63.893  13.049  52.425  1.00  0.00     0.160 HD
BRANCH  16  18
HETATM   18  C5  UNL     1      65.045  14.089  53.835  1.00  0.00     0.120 A 
HETATM   19  C2  UNL     1      65.553  15.345  53.533  1.00  0.00     0.042 A 
HETATM   20  C1  UNL     1      64.808  16.194  52.595  1.00  0.00     0.071 C 
HETATM   21  N1  UNL     1      66.700  15.772  54.086  1.00  0.00    -0.310 N 
HETATM   22  C3  UNL     1      67.391  15.008  54.943  1.00  0.00     0.327 A 
ATOM     23  H1  UNL     1      67.053  16.699  53.848  1.00  0.00     0.170 HD
HETATM   24  O1  UNL     1      68.453  15.408  55.452  1.00  0.00    -0.247 OA
HETATM   25  N2  UNL     1      66.920  13.781  55.256  1.00  0.00    -0.274 N 
HETATM   26  C4  UNL     1      65.761  13.317  54.714  1.00  0.00     0.277 A 
ATOM     27  H2  UNL     1      67.441  13.194  55.908  1.00  0.00     0.173 HD
HETATM   28  O2  UNL     1      65.415  12.158  55.077  1.00  0.00    -0.265 OA
ENDBRANCH  16  18
ENDBRANCH  15  16
ENDBRANCH   1  15
BRANCH  11  29
HETATM   29  C12 UNL     1      61.724   9.843  51.087  1.00  0.00     0.096 A 
HETATM   30  C13 UNL     1      62.975  10.053  50.281  1.00  0.00     0.028 A 
HETATM   31  C14 UNL     1      62.159   8.748  50.216  1.00  0.00     0.028 A 
ENDBRANCH  11  29
BRANCH   6  32
HETATM   32  N5  UNL     1      57.265  12.934  50.402  1.00  0.00    -0.385 N 
ATOM     33  H52 UNL     1      57.270  13.935  50.597  1.00  0.00     0.157 HD
ATOM     34  H51 UNL     1      56.398  12.514  50.067  1.00  0.00     0.157 HD
ENDBRANCH   6  32
TORSDOF 5
ENDMDL
MODEL 4
REMARK VINA RESULT: -8.014009142      2.947      4.524
REMARK  5 active torsions:
REMARK  status: ('A' for Active; 'I' for Inactive)
REMARK    1  A    between atoms: C5_11  and  N3_12 
REMARK    2  A    between atoms: N3_12  and  C6_14 
REMARK    3  A    between atoms: C6_14  and  C7_15 
REMARK    4  A    between atoms: C10_20  and  N5_21 
REMARK    5  A    between atoms: N7_28  and  C12_29 
ROOT
HETATM    1  C7  UNL     1      63.550  13.944  55.458  1.00  0.00     0.100 A 
HETATM    2  N4  UNL     1      64.123  12.834  55.966  1.00  0.00    -0.353 N 
ATOM      3  H4  UNL     1      64.608  12.892  56.862  1.00  0.00     0.166 HD
HETATM    4  C8  UNL     1      64.072  11.644  55.320  1.00  0.00     0.108 A 
HETATM    5  C9  UNL     1      63.416  11.561  54.106  1.00  0.00     0.067 A 
HETATM    6  C10 UNL     1      63.323  10.386  53.393  1.00  0.00     0.118 A 
HETATM    7  N6  UNL     1      62.659  10.406  52.213  1.00  0.00    -0.294 N 
ATOM      8  H6  UNL     1      62.588   9.539  51.679  1.00  0.00     0.172 HD
HETATM    9  C11 UNL     1      62.095  11.507  51.719  1.00  0.00     0.330 A 
HETATM   10  O3  UNL     1      61.503  11.426  50.620  1.00  0.00    -0.246 OA
HETATM   11  N7  UNL     1      62.160  12.673  52.378  1.00  0.00    -0.280 N 
HETATM   12  C15 UNL     1      62.828  12.685  53.579  1.00  0.00     0.128 A 
HETATM   13  N8  UNL     1      62.918  13.843  54.281  1.00  0.00    -0.330 N 
ATOM     14  H8  UNL     1      62.482  14.679  53.893  1.00  0.00     0.168 HD
ENDROOT
BRANCH   1  15
HETATM   15  C6  UNL     1      63.592  15.253  56.136  1.00  0.00     0.196 C 
BRANCH  15  16
HETATM   16  N3  UNL     1      64.612  16.144  55.677  1.00  0.00    -0.377 N 
ATOM     17  H3  UNL     1      64.337  17.091  55.414  1.00  0.00     0.160 HD
BRANCH  16  18
HETATM   18  C5  UNL     1      65.978  15.794  55.564  1.00  0.00     0.120 A 
HETATM   19  C2  UNL     1      66.871  15.857  56.625  1.00  0.00     0.042 A 
HETATM   20  C1  UNL     1      66.376  16.318  57.929  1.00  0.00     0.071 C 
HETATM   21  N1  UNL     1      68.157  15.506  56.461  1.00  0.00    -0.310 N 
HETATM   22  C3  UNL     1      68.622  15.084  55.278  1.00  0.00     0.327 A 
ATOM     23  H1  UNL     1      68.793  15.561  57.257  1.00  0.00     0.170 HD
HETATM   24  O1  UNL     1      69.815  14.761  55.132  1.00  0.00    -0.247 OA
HETATM   25  N2  UNL     1      67.777  15.012  54.227  1.00  0.00    -0.274 N 
HETATM   26  C4  UNL     1      66.467  15.360  54.358  1.00  0.00     0.277 A 
ATOM     27  H2  UNL     1      68.124  14.692  53.323  1.00  0.00     0.173 HD
HETATM   28  O2  UNL     1      65.768  15.253  53.311  1.00  0.00    -0.265 OA
ENDBRANCH  16  18
ENDBRANCH  15  16
ENDBRANCH   1  15
BRANCH  11  29
HETATM   29  C12 UNL     1      61.571  13.877  51.887  1.00  0.00     0.096 A 
HETATM   30  C13 UNL     1      60.194  14.321  52.294  1.00  0.00     0.028 A 
HETATM   31  C14 UNL     1      60.548  13.954  50.841  1.00  0.00     0.028 A 
ENDBRANCH  11  29
BRANCH   6  32
HETATM   32  N5  UNL     1      63.853   9.306  53.837  1.00  0.00    -0.385 N 
ATOM     33  H52 UNL     1      63.386   8.406  53.728  1.00  0.00     0.157 HD
ATOM     34  H51 UNL     1      64.757   9.324  54.310  1.00  0.00     0.157 HD
ENDBRANCH   6  32
TORSDOF 5
ENDMDL
MODEL 5
REMARK VINA RESULT: -7.938218331      2.259      3.669
REMARK  5 active torsions:
REMARK  status: ('A' for Active; 'I' for Inactive)
REMARK    1  A    between atoms: C5_11  and  N3_12 
REMARK    2  A    between atoms: N3_12  and  C6_14 
REMARK    3  A    between atoms: C6_14  and  C7_15 
REMARK    4  A    between atoms: C10_20  and  N5_21 
REMARK    5  A    between atoms: N7_28  and  C12_29 
ROOT
HETATM    1  C7  UNL     1      61.699  13.979  52.520  1.00  0.00     0.100 A 
HETATM    2  N4  UNL     1      60.572  14.690  52.317  1.00  0.00    -0.353 N 
ATOM      3  H4  UNL     1      60.513  15.642  52.680  1.00  0.00     0.166 HD
HETATM    4  C8  UNL     1      59.513  14.175  51.643  1.00  0.00     0.108 A 
HETATM    5  C9  UNL     1      59.589  12.886  51.149  1.00  0.00     0.067 A 
HETATM    6  C10 UNL     1      58.555  12.299  50.456  1.00  0.00     0.118 A 
HETATM    7  N6  UNL     1      58.723  11.030  50.011  1.00  0.00    -0.294 N 
ATOM      8  H6  UNL     1      57.960  10.588  49.498  1.00  0.00     0.172 HD
HETATM    9  C11 UNL     1      59.841  10.336  50.216  1.00  0.00     0.330 A 
HETATM   10  O3  UNL     1      59.904   9.170  49.766  1.00  0.00    -0.246 OA
HETATM   11  N7  UNL     1      60.874  10.867  50.886  1.00  0.00    -0.280 N 
HETATM   12  C15 UNL     1      60.732  12.153  51.349  1.00  0.00     0.128 A 
HETATM   13  N8  UNL     1      61.752  12.732  52.032  1.00  0.00    -0.330 N 
ATOM     14  H8  UNL     1      62.603  12.190  52.182  1.00  0.00     0.168 HD
ENDROOT
BRANCH   1  15
HETATM   15  C6  UNL     1      62.864  14.510  53.251  1.00  0.00     0.196 C 
BRANCH  15  16
HETATM   16  N3  UNL     1      64.054  13.723  53.156  1.00  0.00    -0.377 N 
ATOM     17  H3  UNL     1      64.034  12.896  52.559  1.00  0.00     0.160 HD
BRANCH  16  18
HETATM   18  C5  UNL     1      65.258  14.020  53.838  1.00  0.00     0.120 A 
HETATM   19  C2  UNL     1      65.841  13.164  54.761  1.00  0.00     0.042 A 
HETATM   20  C1  UNL     1      65.174  11.888  55.052  1.00  0.00     0.071 C 
HETATM   21  N1  UNL     1      66.989  13.496  55.375  1.00  0.00    -0.310 N 
HETATM   22  C3  UNL     1      67.609  14.656  55.120  1.00  0.00     0.327 A 
ATOM     23  H1  UNL     1      67.398  12.849  56.050  1.00  0.00     0.170 HD
HETATM   24  O1  UNL     1      68.672  14.958  55.692  1.00  0.00    -0.247 OA
HETATM   25  N2  UNL     1      67.065  15.509  54.226  1.00  0.00    -0.274 N 
HETATM   26  C4  UNL     1      65.903  15.204  53.585  1.00  0.00     0.277 A 
ATOM     27  H2  UNL     1      67.532  16.394  54.027  1.00  0.00     0.173 HD
HETATM   28  O2  UNL     1      65.486  16.074  52.770  1.00  0.00    -0.265 OA
ENDBRANCH  16  18
ENDBRANCH  15  16
ENDBRANCH   1  15
BRANCH  11  29
HETATM   29  C12 UNL     1      62.090  10.161  51.128  1.00  0.00     0.096 A 
HETATM   30  C13 UNL     1      63.212  10.128  50.128  1.00  0.00     0.028 A 
HETATM   31  C14 UNL     1      62.444   8.862  50.550  1.00  0.00     0.028 A 
ENDBRANCH  11  29
BRANCH   6  32
HETATM   32  N5  UNL     1      57.463  12.936  50.239  1.00  0.00    -0.385 N 
ATOM     33  H52 UNL     1      56.717  12.954  50.935  1.00  0.00     0.157 HD
ATOM     34  H51 UNL     1      57.318  13.442  49.365  1.00  0.00     0.157 HD
ENDBRANCH   6  32
TORSDOF 5
ENDMDL
