MODEL 1
REMARK VINA RESULT: -7.824761737      0.000      0.000
REMARK  6 active torsions:
REMARK  status: ('A' for Active; 'I' for Inactive)
REMARK    1  A    between atoms: C2_2  and  O1_3 
REMARK    2  A    between atoms: N1_7  and  C5_8 
REMARK    3  A    between atoms: C7_14  and  C8_15 
REMARK    4  A    between atoms: C8_15  and  C9_16 
REMARK    5  A    between atoms: C9_16  and  N4_17 
REMARK    6  A    between atoms: C13_26  and  N7_27 
ROOT
HETATM    1  C9  UNL     1      65.214  12.081  54.677  1.00  0.00     0.136 C 
ENDROOT
BRANCH   1   2
HETATM    2  C8  UNL     1      65.134  10.978  55.700  1.00  0.00     0.064 C 
BRANCH   2   3
HETATM    3  C7  UNL     1      65.107   9.627  55.129  1.00  0.00     0.005 A 
HETATM    4  C5  UNL     1      65.976   8.589  55.398  1.00  0.00     0.125 A 
HETATM    5  N2  UNL     1      65.578   7.513  54.656  1.00  0.00    -0.285 N 
HETATM    6  N3  UNL     1      64.518   7.871  53.964  1.00  0.00    -0.310 N 
ATOM      7  H2  UNL     1      66.023   6.595  54.641  1.00  0.00     0.188 HD
HETATM    8  C6  UNL     1      64.187   9.165  54.219  1.00  0.00     0.118 A 
ATOM      9  H3  UNL     1      64.013   7.261  53.322  1.00  0.00     0.186 HD
BRANCH   4  10
HETATM   10  N1  UNL     1      67.084   8.566  56.275  1.00  0.00    -0.363 N 
HETATM   11  C4  UNL     1      68.469   8.444  55.882  1.00  0.00     0.127 C 
HETATM   12  C3  UNL     1      68.959   7.458  56.957  1.00  0.00     0.059 C 
HETATM   13  C2  UNL     1      68.357   8.048  58.196  1.00  0.00     0.072 C 
HETATM   14  C1  UNL     1      68.105   7.038  59.293  1.00  0.00     0.047 C 
HETATM   15  C15 UNL     1      67.061   8.670  57.713  1.00  0.00     0.161 C 
BRANCH  13  16
HETATM   16  O1  UNL     1      69.233   9.007  58.703  1.00  0.00    -0.389 OA
ATOM     17  H1  UNL     1      70.000   9.018  58.142  1.00  0.00     0.210 HD
ENDBRANCH  13  16
ENDBRANCH   4  10
ENDBRANCH   2   3
ENDBRANCH   1   2
BRANCH   1  18
HETATM   18  N4  UNL     1      65.124  13.388  55.273  1.00  0.00    -0.327 N 
HETATM   19  C10 UNL     1      63.982  14.037  55.585  1.00  0.00     0.185 A 
HETATM   20  N5  UNL     1      64.262  15.235  56.125  1.00  0.00    -0.345 N 
HETATM   21  C11 UNL     1      65.585  15.390  56.177  1.00  0.00     0.147 A 
ATOM     22  H5  UNL     1      63.573  15.916  56.443  1.00  0.00     0.167 HD
HETATM   23  C12 UNL     1      66.467  16.364  56.605  1.00  0.00     0.290 A 
HETATM   24  C14 UNL     1      66.116  14.219  55.635  1.00  0.00     0.156 A 
HETATM   25  O2  UNL     1      65.983  17.412  57.087  1.00  0.00    -0.265 OA
HETATM   26  N6  UNL     1      67.796  16.175  56.499  1.00  0.00    -0.154 N 
HETATM   27  C13 UNL     1      68.286  15.038  55.975  1.00  0.00     0.680 A 
ATOM     28  H6  UNL     1      68.437  16.901  56.820  1.00  0.00     0.187 HD
HETATM   29  N8  UNL     1      67.436  14.097  55.560  1.00  0.00    -0.174 N 
ATOM     30  H8  UNL     1      67.821  13.239  55.164  1.00  0.00     0.186 HD
BRANCH  27  31
HETATM   31  N7  UNL     1      69.579  14.847  55.871  1.00  0.00    -0.234 N 
ATOM     32  H72 UNL     1      70.179  15.593  55.519  1.00  0.00     0.174 HD
ATOM     33  H71 UNL     1      70.000  13.957  56.137  1.00  0.00     0.174 HD
ENDBRANCH  27  31
ENDBRANCH   1  18
TORSDOF 6
ENDMDL
MODEL 2
REMARK VINA RESULT: -7.766845284      4.994      7.263
REMARK  6 active torsions:
REMARK  status: ('A' for Active; 'I' for Inactive)
REMARK    1  A    between atoms: C2_2  and  O1_3 
REMARK    2  A    between atoms: N1_7  and  C5_8 
REMARK    3  A    between atoms: C7_14  and  C8_15 
REMARK    4  A    between atoms: C8_15  and  C9_16 
REMARK    5  A    between atoms: C9_16  and  N4_17 
REMARK    6  A    between atoms: C13_26  and  N7_27 
ROOT
HETATM    1  C9  UNL     1      63.995  16.329  53.850  1.00  0.00     0.136 C 
ENDROOT
BRANCH   1   2
HETATM    2  C8  UNL     1      63.142  15.448  52.975  1.00  0.00     0.064 C 
BRANCH   2   3
HETATM    3  C7  UNL     1      62.624  14.252  53.647  1.00  0.00     0.005 A 
HETATM    4  C5  UNL     1      61.751  13.317  53.130  1.00  0.00     0.125 A 
HETATM    5  N2  UNL     1      61.544  12.367  54.091  1.00  0.00    -0.285 N 
HETATM    6  N3  UNL     1      62.254  12.703  55.147  1.00  0.00    -0.310 N 
ATOM      7  H2  UNL     1      60.947  11.545  54.005  1.00  0.00     0.188 HD
HETATM    8  C6  UNL     1      62.938  13.856  54.925  1.00  0.00     0.118 A 
ATOM      9  H3  UNL     1      62.286  12.169  56.015  1.00  0.00     0.186 HD
BRANCH   4  10
HETATM   10  N1  UNL     1      61.151  13.275  51.850  1.00  0.00    -0.363 N 
HETATM   11  C4  UNL     1      60.241  14.260  51.312  1.00  0.00     0.127 C 
HETATM   12  C3  UNL     1      59.215  13.330  50.643  1.00  0.00     0.059 C 
HETATM   13  C2  UNL     1      60.111  12.358  49.938  1.00  0.00     0.072 C 
HETATM   14  C1  UNL     1      59.488  10.998  49.722  1.00  0.00     0.047 C 
HETATM   15  C15 UNL     1      61.331  12.267  50.835  1.00  0.00     0.161 C 
BRANCH  13  16
HETATM   16  O1  UNL     1      60.430  12.877  48.684  1.00  0.00    -0.389 OA
ATOM     17  H1  UNL     1      59.736  12.624  48.085  1.00  0.00     0.210 HD
ENDBRANCH  13  16
ENDBRANCH   4  10
ENDBRANCH   2   3
ENDBRANCH   1   2
BRANCH   1  18
HETATM   18  N4  UNL     1      65.366  15.892  53.896  1.00  0.00    -0.327 N 
HETATM   19  C10 UNL     1      66.059  15.354  52.869  1.00  0.00     0.185 A 
HETATM   20  N5  UNL     1      67.310  15.058  53.258  1.00  0.00    -0.345 N 
HETATM   21  C11 UNL     1      67.459  15.397  54.539  1.00  0.00     0.147 A 
ATOM     22  H5  UNL     1      68.030  14.642  52.669  1.00  0.00     0.167 HD
HETATM   23  C12 UNL     1      68.468  15.347  55.482  1.00  0.00     0.290 A 
HETATM   24  C14 UNL     1      66.225  15.920  54.929  1.00  0.00     0.156 A 
HETATM   25  O2  UNL     1      69.570  14.876  55.125  1.00  0.00    -0.265 OA
HETATM   26  N6  UNL     1      68.255  15.795  56.734  1.00  0.00    -0.154 N 
HETATM   27  C13 UNL     1      67.059  16.296  57.087  1.00  0.00     0.680 A 
ATOM     28  H6  UNL     1      69.009  15.754  57.420  1.00  0.00     0.187 HD
HETATM   29  N8  UNL     1      66.082  16.344  56.179  1.00  0.00    -0.174 N 
ATOM     30  H8  UNL     1      65.179  16.726  56.460  1.00  0.00     0.186 HD
BRANCH  27  31
HETATM   31  N7  UNL     1      66.845  16.735  58.304  1.00  0.00    -0.234 N 
ATOM     32  H72 UNL     1      67.633  16.995  58.899  1.00  0.00     0.174 HD
ATOM     33  H71 UNL     1      65.898  16.822  58.671  1.00  0.00     0.174 HD
ENDBRANCH  27  31
ENDBRANCH   1  18
TORSDOF 6
ENDMDL
MODEL 3
REMARK VINA RESULT: -7.656380486      3.856      6.175
REMARK  6 active torsions:
REMARK  status: ('A' for Active; 'I' for Inactive)
REMARK    1  A    between atoms: C2_2  and  O1_3 
REMARK    2  A    between atoms: N1_7  and  C5_8 
REMARK    3  A    between atoms: C7_14  and  C8_15 
REMARK    4  A    between atoms: C8_15  and  C9_16 
REMARK    5  A    between atoms: C9_16  and  N4_17 
REMARK    6  A    between atoms: C13_26  and  N7_27 
ROOT
HETATM    1  C9  UNL     1      64.922  12.685  54.301  1.00  0.00     0.136 C 
ENDROOT
BRANCH   1   2
HETATM    2  C8  UNL     1      63.883  11.717  54.805  1.00  0.00     0.064 C 
BRANCH   2   3
HETATM    3  C7  UNL     1      63.268  10.895  53.758  1.00  0.00     0.005 A 
HETATM    4  C5  UNL     1      62.289  11.279  52.864  1.00  0.00     0.125 A 
HETATM    5  N2  UNL     1      62.017  10.205  52.063  1.00  0.00    -0.285 N 
HETATM    6  N3  UNL     1      62.788   9.211  52.447  1.00  0.00    -0.310 N 
ATOM      7  H2  UNL     1      61.337  10.179  51.303  1.00  0.00     0.188 HD
HETATM    8  C6  UNL     1      63.578   9.584  53.488  1.00  0.00     0.118 A 
ATOM      9  H3  UNL     1      62.793   8.285  52.020  1.00  0.00     0.186 HD
BRANCH   4  10
HETATM   10  N1  UNL     1      61.651  12.533  52.732  1.00  0.00    -0.363 N 
HETATM   11  C4  UNL     1      60.828  13.170  53.733  1.00  0.00     0.127 C 
HETATM   12  C3  UNL     1      59.694  13.703  52.839  1.00  0.00     0.059 C 
HETATM   13  C2  UNL     1      60.469  14.301  51.705  1.00  0.00     0.072 C 
HETATM   14  C1  UNL     1      59.708  14.340  50.399  1.00  0.00     0.047 C 
HETATM   15  C15 UNL     1      61.700  13.421  51.597  1.00  0.00     0.161 C 
BRANCH  13  16
HETATM   16  O1  UNL     1      60.799  15.615  52.036  1.00  0.00    -0.389 OA
ATOM     17  H1  UNL     1      61.653  15.598  52.453  1.00  0.00     0.210 HD
ENDBRANCH  13  16
ENDBRANCH   4  10
ENDBRANCH   2   3
ENDBRANCH   1   2
BRANCH   1  18
HETATM   18  N4  UNL     1      64.940  13.911  55.056  1.00  0.00    -0.327 N 
HETATM   19  C10 UNL     1      63.857  14.628  55.425  1.00  0.00     0.185 A 
HETATM   20  N5  UNL     1      64.234  15.715  56.117  1.00  0.00    -0.345 N 
HETATM   21  C11 UNL     1      65.563  15.730  56.214  1.00  0.00     0.147 A 
ATOM     22  H5  UNL     1      63.604  16.417  56.505  1.00  0.00     0.167 HD
HETATM   23  C12 UNL     1      66.521  16.550  56.778  1.00  0.00     0.290 A 
HETATM   24  C14 UNL     1      65.996  14.587  55.539  1.00  0.00     0.156 A 
HETATM   25  O2  UNL     1      66.126  17.573  57.380  1.00  0.00    -0.265 OA
HETATM   26  N6  UNL     1      67.829  16.244  56.676  1.00  0.00    -0.154 N 
HETATM   27  C13 UNL     1      68.222  15.137  56.022  1.00  0.00     0.680 A 
ATOM     28  H6  UNL     1      68.526  16.857  57.098  1.00  0.00     0.187 HD
HETATM   29  N8  UNL     1      67.299  14.344  55.475  1.00  0.00    -0.174 N 
ATOM     30  H8  UNL     1      67.612  13.507  54.982  1.00  0.00     0.186 HD
BRANCH  27  31
HETATM   31  N7  UNL     1      69.494  14.832  55.920  1.00  0.00    -0.234 N 
ATOM     32  H72 UNL     1      70.076  14.785  56.756  1.00  0.00     0.174 HD
ATOM     33  H71 UNL     1      69.915  14.640  55.011  1.00  0.00     0.174 HD
ENDBRANCH  27  31
ENDBRANCH   1  18
TORSDOF 6
ENDMDL
MODEL 4
REMARK VINA RESULT: -7.656131930      4.938      7.304
REMARK  6 active torsions:
REMARK  status: ('A' for Active; 'I' for Inactive)
REMARK    1  A    between atoms: C2_2  and  O1_3 
REMARK    2  A    between atoms: N1_7  and  C5_8 
REMARK    3  A    between atoms: C7_14  and  C8_15 
REMARK    4  A    between atoms: C8_15  and  C9_16 
REMARK    5  A    between atoms: C9_16  and  N4_17 
REMARK    6  A    between atoms: C13_26  and  N7_27 
ROOT
HETATM    1  C9  UNL     1      62.540  13.685  55.971  1.00  0.00     0.136 C 
ENDROOT
BRANCH   1   2
HETATM    2  C8  UNL     1      61.659  12.617  55.377  1.00  0.00     0.064 C 
BRANCH   2   3
HETATM    3  C7  UNL     1      60.272  13.037  55.149  1.00  0.00     0.005 A 
HETATM    4  C5  UNL     1      59.688  13.370  53.944  1.00  0.00     0.125 A 
HETATM    5  N2  UNL     1      58.383  13.691  54.191  1.00  0.00    -0.285 N 
HETATM    6  N3  UNL     1      58.175  13.564  55.484  1.00  0.00    -0.310 N 
ATOM      7  H2  UNL     1      57.693  13.978  53.497  1.00  0.00     0.188 HD
HETATM    8  C6  UNL     1      59.308  13.163  56.120  1.00  0.00     0.118 A 
ATOM      9  H3  UNL     1      57.284  13.743  55.947  1.00  0.00     0.186 HD
BRANCH   4  10
HETATM   10  N1  UNL     1      60.265  13.385  52.654  1.00  0.00    -0.363 N 
HETATM   11  C4  UNL     1      60.650  14.566  51.916  1.00  0.00     0.127 C 
HETATM   12  C3  UNL     1      60.146  14.174  50.515  1.00  0.00     0.059 C 
HETATM   13  C2  UNL     1      60.642  12.765  50.406  1.00  0.00     0.072 C 
HETATM   14  C1  UNL     1      59.819  11.898  49.480  1.00  0.00     0.047 C 
HETATM   15  C15 UNL     1      60.593  12.247  51.831  1.00  0.00     0.161 C 
BRANCH  13  16
HETATM   16  O1  UNL     1      61.945  12.789  49.910  1.00  0.00    -0.389 OA
ATOM     17  H1  UNL     1      62.533  12.652  50.643  1.00  0.00     0.210 HD
ENDBRANCH  13  16
ENDBRANCH   4  10
ENDBRANCH   2   3
ENDBRANCH   1   2
BRANCH   1  18
HETATM   18  N4  UNL     1      63.723  13.918  55.184  1.00  0.00    -0.327 N 
HETATM   19  C10 UNL     1      63.905  13.544  53.899  1.00  0.00     0.185 A 
HETATM   20  N5  UNL     1      65.122  13.918  53.475  1.00  0.00    -0.345 N 
HETATM   21  C11 UNL     1      65.757  14.542  54.468  1.00  0.00     0.147 A 
ATOM     22  H5  UNL     1      65.502  13.752  52.543  1.00  0.00     0.167 HD
HETATM   23  C12 UNL     1      66.988  15.138  54.657  1.00  0.00     0.290 A 
HETATM   24  C14 UNL     1      64.863  14.534  55.540  1.00  0.00     0.156 A 
HETATM   25  O2  UNL     1      67.785  15.140  53.692  1.00  0.00    -0.265 OA
HETATM   26  N6  UNL     1      67.304  15.692  55.843  1.00  0.00    -0.154 N 
HETATM   27  C13 UNL     1      66.428  15.673  56.862  1.00  0.00     0.680 A 
ATOM     28  H6  UNL     1      68.217  16.130  55.969  1.00  0.00     0.187 HD
HETATM   29  N8  UNL     1      65.237  15.098  56.682  1.00  0.00    -0.174 N 
ATOM     30  H8  UNL     1      64.581  15.091  57.464  1.00  0.00     0.186 HD
BRANCH  27  31
HETATM   31  N7  UNL     1      66.728  16.213  58.019  1.00  0.00    -0.234 N 
ATOM     32  H72 UNL     1      67.208  17.113  58.053  1.00  0.00     0.174 HD
ATOM     33  H71 UNL     1      66.490  15.745  58.893  1.00  0.00     0.174 HD
ENDBRANCH  27  31
ENDBRANCH   1  18
TORSDOF 6
ENDMDL
MODEL 5
REMARK VINA RESULT: -7.643391075      1.906      6.796
REMARK  6 active torsions:
REMARK  status: ('A' for Active; 'I' for Inactive)
REMARK    1  A    between atoms: C2_2  and  O1_3 
REMARK    2  A    between atoms: N1_7  and  C5_8 
REMARK    3  A    between atoms: C7_14  and  C8_15 
REMARK    4  A    between atoms: C8_15  and  C9_16 
REMARK    5  A    between atoms: C9_16  and  N4_17 
REMARK    6  A    between atoms: C13_26  and  N7_27 
ROOT
HETATM    1  C9  UNL     1      65.241  10.146  55.001  1.00  0.00     0.136 C 
ENDROOT
BRANCH   1   2
HETATM    2  C8  UNL     1      65.415  11.641  54.960  1.00  0.00     0.064 C 
BRANCH   2   3
HETATM    3  C7  UNL     1      64.463  12.334  54.086  1.00  0.00     0.005 A 
HETATM    4  C5  UNL     1      64.357  13.694  53.879  1.00  0.00     0.125 A 
HETATM    5  N2  UNL     1      63.345  13.899  52.983  1.00  0.00    -0.285 N 
HETATM    6  N3  UNL     1      62.852  12.724  52.657  1.00  0.00    -0.310 N 
ATOM      7  H2  UNL     1      63.029  14.803  52.631  1.00  0.00     0.188 HD
HETATM    8  C6  UNL     1      63.506  11.726  53.308  1.00  0.00     0.118 A 
ATOM      9  H3  UNL     1      62.083  12.581  52.003  1.00  0.00     0.186 HD
BRANCH   4  10
HETATM   10  N1  UNL     1      65.125  14.739  54.442  1.00  0.00    -0.363 N 
HETATM   11  C4  UNL     1      66.399  15.210  53.949  1.00  0.00     0.127 C 
HETATM   12  C3  UNL     1      67.146  15.388  55.282  1.00  0.00     0.059 C 
HETATM   13  C2  UNL     1      66.113  16.090  56.109  1.00  0.00     0.072 C 
HETATM   14  C1  UNL     1      66.259  15.857  57.596  1.00  0.00     0.047 C 
HETATM   15  C15 UNL     1      64.795  15.540  55.594  1.00  0.00     0.161 C 
BRANCH  13  16
HETATM   16  O1  UNL     1      66.223  17.462  55.887  1.00  0.00    -0.389 OA
ATOM     17  H1  UNL     1      66.338  17.592  54.953  1.00  0.00     0.210 HD
ENDBRANCH  13  16
ENDBRANCH   4  10
ENDBRANCH   2   3
ENDBRANCH   1   2
BRANCH   1  18
HETATM   18  N4  UNL     1      65.877   9.552  56.149  1.00  0.00    -0.327 N 
HETATM   19  C10 UNL     1      65.342   9.452  57.385  1.00  0.00     0.185 A 
HETATM   20  N5  UNL     1      66.205   8.846  58.216  1.00  0.00    -0.345 N 
HETATM   21  C11 UNL     1      67.313   8.537  57.543  1.00  0.00     0.147 A 
ATOM     22  H5  UNL     1      66.039   8.652  59.204  1.00  0.00     0.167 HD
HETATM   23  C12 UNL     1      68.522   7.929  57.821  1.00  0.00     0.290 A 
HETATM   24  C14 UNL     1      67.093   8.989  56.241  1.00  0.00     0.156 A 
HETATM   25  O2  UNL     1      68.713   7.527  58.991  1.00  0.00    -0.265 OA
HETATM   26  N6  UNL     1      69.450   7.780  56.857  1.00  0.00    -0.154 N 
HETATM   27  C13 UNL     1      69.216   8.223  55.609  1.00  0.00     0.680 A 
ATOM     28  H6  UNL     1      70.338   7.328  57.075  1.00  0.00     0.187 HD
HETATM   29  N8  UNL     1      68.050   8.812  55.338  1.00  0.00    -0.174 N 
ATOM     30  H8  UNL     1      67.885   9.143  54.387  1.00  0.00     0.186 HD
BRANCH  27  31
HETATM   31  N7  UNL     1      70.114   8.080  54.664  1.00  0.00    -0.234 N 
ATOM     32  H72 UNL     1      70.141   7.224  54.111  1.00  0.00     0.174 HD
ATOM     33  H71 UNL     1      70.794   8.815  54.473  1.00  0.00     0.174 HD
ENDBRANCH  27  31
ENDBRANCH   1  18
TORSDOF 6
ENDMDL
