MODEL 1
REMARK VINA RESULT: -8.430719536      0.000      0.000
REMARK  4 active torsions:
REMARK  status: ('A' for Active; 'I' for Inactive)
REMARK    1  A    between atoms: N1_1  and  C1_4 
REMARK    2  A    between atoms: C4_9  and  C5_10 
REMARK       I    between atoms: C5_10  and  N3_12 
REMARK    3  A    between atoms: N3_12  and  N4_13 
REMARK    4  A    between atoms: N5_19  and  O2_20 
ROOT
HETATM    1  C1  UNL     1     -23.303 -33.325  11.974  1.00  0.00     0.693 A 
HETATM    2  N2  UNL     1     -22.028 -32.877  12.042  1.00  0.00    -0.188 N 
ATOM      3  H2  UNL     1     -21.307 -33.392  11.536  1.00  0.00     0.184 HD
HETATM    4  C2  UNL     1     -21.660 -31.788  12.744  1.00  0.00     0.081 A 
HETATM    5  C3  UNL     1     -20.356 -31.340  12.806  1.00  0.00     0.051 A 
HETATM    6  C4  UNL     1     -19.995 -30.225  13.529  1.00  0.00     0.050 A 
HETATM    7  C6  UNL     1     -20.951 -29.513  14.223  1.00  0.00     0.021 A 
HETATM    8  C7  UNL     1     -22.262 -29.958  14.162  1.00  0.00     0.037 A 
HETATM    9  C8  UNL     1     -22.617 -31.079  13.434  1.00  0.00     0.109 A 
HETATM   10  N5  UNL     1     -23.888 -31.531  13.360  1.00  0.00    -0.147 N 
HETATM   11  N6  UNL     1     -24.222 -32.618  12.653  1.00  0.00    -0.105 N 
ATOM     12  H6  UNL     1     -25.197 -32.917  12.630  1.00  0.00     0.208 HD
ENDROOT
BRANCH   6  13
HETATM   13  C5  UNL     1     -18.554 -29.783  13.527  1.00  0.00     0.345 C 
HETATM   14  O1  UNL     1     -18.035 -29.891  12.380  1.00  0.00    -0.249 OA
HETATM   15  N3  UNL     1     -18.049 -29.353  14.717  1.00  0.00    -0.288 NA
BRANCH  15  16
HETATM   16  N4  UNL     1     -17.560 -28.937  15.868  1.00  0.00    -0.276 N 
ATOM     17  H42 UNL     1     -17.930 -29.290  14.985  1.00  0.00     0.191 HD
ATOM     18  H41 UNL     1     -17.182 -28.614  16.759  1.00  0.00     0.191 HD
ENDBRANCH  15  16
ENDBRANCH   6  13
BRANCH   1  19
HETATM   19  N1  UNL     1     -23.626 -34.384  11.289  1.00  0.00    -0.233 N 
ATOM     20  H12 UNL     1     -22.926 -34.929  10.785  1.00  0.00     0.174 HD
ATOM     21  H11 UNL     1     -24.589 -34.713  11.226  1.00  0.00     0.174 HD
ENDBRANCH   1  19
BRANCH  10  22
HETATM   22  O2  UNL     1     -24.844 -30.831  14.044  1.00  0.00    -0.267 OA
ATOM     23  H2  UNL     1     -25.642 -31.293  14.272  1.00  0.00     0.247 HD
ENDBRANCH  10  22
TORSDOF 4
ENDMDL
MODEL 2
REMARK VINA RESULT: -7.850306854      1.580      2.491
REMARK  4 active torsions:
REMARK  status: ('A' for Active; 'I' for Inactive)
REMARK    1  A    between atoms: N1_1  and  C1_4 
REMARK    2  A    between atoms: C4_9  and  C5_10 
REMARK       I    between atoms: C5_10  and  N3_12 
REMARK    3  A    between atoms: N3_12  and  N4_13 
REMARK    4  A    between atoms: N5_19  and  O2_20 
ROOT
HETATM    1  C1  UNL     1     -24.644 -31.345  13.798  1.00  0.00     0.693 A 
HETATM    2  N2  UNL     1     -23.539 -30.703  14.243  1.00  0.00    -0.188 N 
ATOM      3  H2  UNL     1     -23.657 -29.948  14.919  1.00  0.00     0.184 HD
HETATM    4  C2  UNL     1     -22.291 -31.008  13.841  1.00  0.00     0.081 A 
HETATM    5  C3  UNL     1     -21.171 -30.347  14.302  1.00  0.00     0.051 A 
HETATM    6  C4  UNL     1     -19.900 -30.670  13.881  1.00  0.00     0.050 A 
HETATM    7  C6  UNL     1     -19.713 -31.686  12.966  1.00  0.00     0.021 A 
HETATM    8  C7  UNL     1     -20.835 -32.355  12.501  1.00  0.00     0.037 A 
HETATM    9  C8  UNL     1     -22.108 -32.024  12.930  1.00  0.00     0.109 A 
HETATM   10  N5  UNL     1     -23.216 -32.661  12.491  1.00  0.00    -0.147 N 
HETATM   11  N6  UNL     1     -24.445 -32.334  12.910  1.00  0.00    -0.105 N 
ATOM     12  H6  UNL     1     -25.248 -32.846  12.548  1.00  0.00     0.208 HD
ENDROOT
BRANCH   6  13
HETATM   13  C5  UNL     1     -18.723 -29.920  14.450  1.00  0.00     0.345 C 
HETATM   14  O1  UNL     1     -17.936 -29.530  13.541  1.00  0.00    -0.249 OA
HETATM   15  N3  UNL     1     -18.687 -29.783  15.805  1.00  0.00    -0.288 NA
BRANCH  15  16
HETATM   16  N4  UNL     1     -18.652 -29.651  17.115  1.00  0.00    -0.276 N 
ATOM     17  H42 UNL     1     -18.682 -29.786  16.105  1.00  0.00     0.191 HD
ATOM     18  H41 UNL     1     -18.624 -29.548  18.130  1.00  0.00     0.191 HD
ENDBRANCH  15  16
ENDBRANCH   6  13
BRANCH   1  19
HETATM   19  N1  UNL     1     -25.838 -31.023  14.204  1.00  0.00    -0.233 N 
ATOM     20  H12 UNL     1     -25.984 -30.435  15.025  1.00  0.00     0.174 HD
ATOM     21  H11 UNL     1     -26.677 -31.345  13.722  1.00  0.00     0.174 HD
ENDBRANCH   1  19
BRANCH  10  22
HETATM   22  O2  UNL     1     -23.042 -33.671  11.585  1.00  0.00    -0.267 OA
ATOM     23  H2  UNL     1     -23.822 -34.105  11.261  1.00  0.00     0.247 HD
ENDBRANCH  10  22
TORSDOF 4
ENDMDL
MODEL 3
REMARK VINA RESULT: -7.610016038      1.545      6.031
REMARK  4 active torsions:
REMARK  status: ('A' for Active; 'I' for Inactive)
REMARK    1  A    between atoms: N1_1  and  C1_4 
REMARK    2  A    between atoms: C4_9  and  C5_10 
REMARK       I    between atoms: C5_10  and  N3_12 
REMARK    3  A    between atoms: N3_12  and  N4_13 
REMARK    4  A    between atoms: N5_19  and  O2_20 
ROOT
HETATM    1  C1  UNL     1     -18.771 -29.730  16.939  1.00  0.00     0.693 A 
HETATM    2  N2  UNL     1     -20.022 -30.144  16.627  1.00  0.00    -0.188 N 
ATOM      3  H2  UNL     1     -20.694 -30.266  17.385  1.00  0.00     0.184 HD
HETATM    4  C2  UNL     1     -20.426 -30.403  15.369  1.00  0.00     0.081 A 
HETATM    5  C3  UNL     1     -21.704 -30.823  15.063  1.00  0.00     0.051 A 
HETATM    6  C4  UNL     1     -22.103 -31.086  13.771  1.00  0.00     0.050 A 
HETATM    7  C6  UNL     1     -21.212 -30.930  12.729  1.00  0.00     0.021 A 
HETATM    8  C7  UNL     1     -19.928 -30.506  13.031  1.00  0.00     0.037 A 
HETATM    9  C8  UNL     1     -19.535 -30.244  14.331  1.00  0.00     0.109 A 
HETATM   10  N5  UNL     1     -18.289 -29.830  14.650  1.00  0.00    -0.147 N 
HETATM   11  N6  UNL     1     -17.917 -29.581  15.912  1.00  0.00    -0.105 N 
ATOM     12  H6  UNL     1     -16.964 -29.270  16.098  1.00  0.00     0.208 HD
ENDROOT
BRANCH   6  13
HETATM   13  C5  UNL     1     -23.524 -31.516  13.513  1.00  0.00     0.345 C 
HETATM   14  O1  UNL     1     -24.351 -30.778  14.120  1.00  0.00    -0.249 OA
HETATM   15  N3  UNL     1     -23.693 -32.594  12.698  1.00  0.00    -0.288 NA
BRANCH  15  16
HETATM   16  N4  UNL     1     -23.858 -33.637  11.910  1.00  0.00    -0.276 N 
ATOM     17  H42 UNL     1     -23.762 -32.834  12.531  1.00  0.00     0.191 HD
ATOM     18  H41 UNL     1     -23.985 -34.445  11.299  1.00  0.00     0.191 HD
ENDBRANCH  15  16
ENDBRANCH   6  13
BRANCH   1  19
HETATM   19  N1  UNL     1     -18.410 -29.491  18.167  1.00  0.00    -0.233 N 
ATOM     20  H12 UNL     1     -19.066 -29.580  18.944  1.00  0.00     0.174 HD
ATOM     21  H11 UNL     1     -17.461 -29.205  18.404  1.00  0.00     0.174 HD
ENDBRANCH   1  19
BRANCH  10  22
HETATM   22  O2  UNL     1     -17.399 -29.672  13.624  1.00  0.00    -0.267 OA
ATOM     23  H2  UNL     1     -16.516 -29.404  13.850  1.00  0.00     0.247 HD
ENDBRANCH  10  22
TORSDOF 4
ENDMDL
MODEL 4
REMARK VINA RESULT: -7.413802806      1.459      1.459
REMARK  4 active torsions:
REMARK  status: ('A' for Active; 'I' for Inactive)
REMARK    1  A    between atoms: N1_1  and  C1_4 
REMARK    2  A    between atoms: C4_9  and  C5_10 
REMARK       I    between atoms: C5_10  and  N3_12 
REMARK    3  A    between atoms: N3_12  and  N4_13 
REMARK    4  A    between atoms: N5_19  and  O2_20 
ROOT
HETATM    1  C1  UNL     1     -23.192 -33.292  12.291  1.00  0.00     0.693 A 
HETATM    2  N2  UNL     1     -21.916 -33.174  12.727  1.00  0.00    -0.188 N 
ATOM      3  H2  UNL     1     -21.215 -33.809  12.346  1.00  0.00     0.184 HD
HETATM    4  C2  UNL     1     -21.524 -32.263  13.636  1.00  0.00     0.081 A 
HETATM    5  C3  UNL     1     -20.219 -32.151  14.073  1.00  0.00     0.051 A 
HETATM    6  C4  UNL     1     -19.832 -31.214  15.005  1.00  0.00     0.050 A 
HETATM    7  C6  UNL     1     -20.763 -30.344  15.537  1.00  0.00     0.021 A 
HETATM    8  C7  UNL     1     -22.074 -30.451  15.100  1.00  0.00     0.037 A 
HETATM    9  C8  UNL     1     -22.455 -31.395  14.164  1.00  0.00     0.109 A 
HETATM   10  N5  UNL     1     -23.726 -31.518  13.723  1.00  0.00    -0.147 N 
HETATM   11  N6  UNL     1     -24.085 -32.436  12.817  1.00  0.00    -0.105 N 
ATOM     12  H6  UNL     1     -25.059 -32.486  12.518  1.00  0.00     0.208 HD
ENDROOT
BRANCH   6  13
HETATM   13  C5  UNL     1     -18.383 -31.136  15.412  1.00  0.00     0.345 C 
HETATM   14  O1  UNL     1     -17.866 -32.285  15.512  1.00  0.00    -0.249 OA
HETATM   15  N3  UNL     1     -17.873 -29.888  15.605  1.00  0.00    -0.288 NA
BRANCH  15  16
HETATM   16  N4  UNL     1     -17.378 -28.681  15.792  1.00  0.00    -0.276 N 
ATOM     17  H42 UNL     1     -17.730 -29.627  15.648  1.00  0.00     0.191 HD
ATOM     18  H41 UNL     1     -16.996 -27.746  15.937  1.00  0.00     0.191 HD
ENDBRANCH  15  16
ENDBRANCH   6  13
BRANCH   1  19
HETATM   19  N1  UNL     1     -23.541 -34.187  11.413  1.00  0.00    -0.233 N 
ATOM     20  H12 UNL     1     -23.400 -35.183  11.580  1.00  0.00     0.174 HD
ATOM     21  H11 UNL     1     -23.966 -33.931  10.522  1.00  0.00     0.174 HD
ENDBRANCH   1  19
BRANCH  10  22
HETATM   22  O2  UNL     1     -24.655 -30.660  14.243  1.00  0.00    -0.267 OA
ATOM     23  H2  UNL     1     -24.538 -29.733  14.070  1.00  0.00     0.247 HD
ENDBRANCH  10  22
TORSDOF 4
ENDMDL
MODEL 5
REMARK VINA RESULT: -7.332054199      2.077      6.051
REMARK  4 active torsions:
REMARK  status: ('A' for Active; 'I' for Inactive)
REMARK    1  A    between atoms: N1_1  and  C1_4 
REMARK    2  A    between atoms: C4_9  and  C5_10 
REMARK       I    between atoms: C5_10  and  N3_12 
REMARK    3  A    between atoms: N3_12  and  N4_13 
REMARK    4  A    between atoms: N5_19  and  O2_20 
ROOT
HETATM    1  C1  UNL     1     -19.752 -30.284  16.225  1.00  0.00     0.693 A 
HETATM    2  N2  UNL     1     -21.103 -30.328  16.149  1.00  0.00    -0.188 N 
ATOM      3  H2  UNL     1     -21.644 -29.961  16.932  1.00  0.00     0.184 HD
HETATM    4  C2  UNL     1     -21.770 -30.832  15.094  1.00  0.00     0.081 A 
HETATM    5  C3  UNL     1     -23.148 -30.872  15.026  1.00  0.00     0.051 A 
HETATM    6  C4  UNL     1     -23.817 -31.391  13.940  1.00  0.00     0.050 A 
HETATM    7  C6  UNL     1     -23.108 -31.895  12.869  1.00  0.00     0.021 A 
HETATM    8  C7  UNL     1     -21.724 -31.856  12.931  1.00  0.00     0.037 A 
HETATM    9  C8  UNL     1     -21.059 -31.333  14.026  1.00  0.00     0.109 A 
HETATM   10  N5  UNL     1     -19.712 -31.284  14.108  1.00  0.00    -0.147 N 
HETATM   11  N6  UNL     1     -19.077 -30.776  15.173  1.00  0.00    -0.105 N 
ATOM     12  H6  UNL     1     -18.058 -30.763  15.185  1.00  0.00     0.208 HD
ENDROOT
BRANCH   6  13
HETATM   13  C5  UNL     1     -25.324 -31.376  13.928  1.00  0.00     0.345 C 
HETATM   14  O1  UNL     1     -25.789 -30.629  14.836  1.00  0.00    -0.249 OA
HETATM   15  N3  UNL     1     -25.932 -32.141  12.980  1.00  0.00    -0.288 NA
BRANCH  15  16
HETATM   16  N4  UNL     1     -26.521 -32.881  12.062  1.00  0.00    -0.276 N 
ATOM     17  H42 UNL     1     -26.088 -32.284  12.766  1.00  0.00     0.191 HD
ATOM     18  H41 UNL     1     -26.976 -33.454  11.351  1.00  0.00     0.191 HD
ENDBRANCH  15  16
ENDBRANCH   6  13
BRANCH   1  19
HETATM   19  N1  UNL     1     -19.137 -29.793  17.262  1.00  0.00    -0.233 N 
ATOM     20  H12 UNL     1     -18.574 -30.380  17.877  1.00  0.00     0.174 HD
ATOM     21  H11 UNL     1     -19.192 -28.804  17.504  1.00  0.00     0.174 HD
ENDBRANCH   1  19
BRANCH  10  22
HETATM   22  O2  UNL     1     -19.000 -31.780  13.052  1.00  0.00    -0.267 OA
ATOM     23  H2  UNL     1     -18.195 -31.332  12.820  1.00  0.00     0.247 HD
ENDBRANCH  10  22
TORSDOF 4
ENDMDL
