MODEL 1
REMARK VINA RESULT: -6.916393897      0.000      0.000
REMARK  4 active torsions:
REMARK  status: ('A' for Active; 'I' for Inactive)
REMARK    1  A    between atoms: N2_7  and  N3_8 
REMARK    2  A    between atoms: N3_8  and  C4_10 
REMARK    3  A    between atoms: C4_10  and  N4_12 
REMARK    4  A    between atoms: N4_12  and  C5_14 
ROOT
HETATM    1  C4  UNL     1     -20.791 -30.700  15.783  1.00  0.00     0.205 C 
HETATM    2  S1  UNL     1     -20.021 -30.882  17.203  1.00  0.00    -0.039 SA
ENDROOT
BRANCH   1   3
HETATM    3  N3  UNL     1     -21.878 -31.550  15.472  1.00  0.00    -0.269 N 
ATOM      4  H3  UNL     1     -22.426 -31.908  16.254  1.00  0.00     0.189 HD
BRANCH   3   5
HETATM    5  N2  UNL     1     -22.260 -31.936  14.212  1.00  0.00    -0.239 N 
HETATM    6  C1  UNL     1     -23.571 -31.678  13.663  1.00  0.00     0.337 C 
HETATM    7  O1  UNL     1     -24.367 -30.777  14.088  1.00  0.00    -0.245 OA
HETATM    8  N1  UNL     1     -23.804 -32.583  12.594  1.00  0.00    -0.340 N 
HETATM    9  C2  UNL     1     -22.696 -33.516  12.608  1.00  0.00     0.146 C 
ATOM     10  H1  UNL     1     -24.592 -32.577  11.947  1.00  0.00     0.164 HD
HETATM   11  C3  UNL     1     -21.573 -32.639  13.144  1.00  0.00     0.173 C 
ENDBRANCH   3   5
ENDBRANCH   1   3
BRANCH   1  12
HETATM   12  N4  UNL     1     -20.366 -29.696  14.880  1.00  0.00    -0.163 N 
ATOM     13  H4  UNL     1     -21.017 -28.945  14.647  1.00  0.00     0.187 HD
BRANCH  12  14
HETATM   14  C5  UNL     1     -19.196 -29.684  14.338  1.00  0.00     0.710 A 
HETATM   15  N5  UNL     1     -18.889 -29.992  13.063  1.00  0.00    -0.117 N 
HETATM   16  N6  UNL     1     -17.576 -29.861  12.886  1.00  0.00     0.006 NA
ATOM     17  H5  UNL     1     -19.556 -30.280  12.348  1.00  0.00     0.202 HD
HETATM   18  N7  UNL     1     -17.031 -29.473  14.027  1.00  0.00     0.006 NA
HETATM   19  N8  UNL     1     -18.019 -29.368  14.902  1.00  0.00    -0.117 N 
ATOM     20  H8  UNL     1     -17.902 -29.086  15.875  1.00  0.00     0.202 HD
ENDBRANCH  12  14
ENDBRANCH   1  12
TORSDOF 4
ENDMDL
MODEL 2
REMARK VINA RESULT: -6.764490140      2.545      5.324
REMARK  4 active torsions:
REMARK  status: ('A' for Active; 'I' for Inactive)
REMARK    1  A    between atoms: N2_7  and  N3_8 
REMARK    2  A    between atoms: N3_8  and  C4_10 
REMARK    3  A    between atoms: C4_10  and  N4_12 
REMARK    4  A    between atoms: N4_12  and  C5_14 
ROOT
HETATM    1  C4  UNL     1     -22.524 -32.078  14.118  1.00  0.00     0.205 C 
HETATM    2  S1  UNL     1     -23.737 -31.011  13.925  1.00  0.00    -0.039 SA
ENDROOT
BRANCH   1   3
HETATM    3  N3  UNL     1     -21.400 -31.713  14.893  1.00  0.00    -0.269 N 
ATOM      4  H3  UNL     1     -21.419 -31.957  15.883  1.00  0.00     0.189 HD
BRANCH   3   5
HETATM    5  N2  UNL     1     -20.284 -31.060  14.431  1.00  0.00    -0.239 N 
HETATM    6  C1  UNL     1     -19.330 -30.405  15.295  1.00  0.00     0.337 C 
HETATM    7  O1  UNL     1     -19.187 -30.659  16.536  1.00  0.00    -0.245 OA
HETATM    8  N1  UNL     1     -18.601 -29.455  14.532  1.00  0.00    -0.340 N 
HETATM    9  C2  UNL     1     -19.239 -29.408  13.232  1.00  0.00     0.146 C 
ATOM     10  H1  UNL     1     -17.792 -28.915  14.838  1.00  0.00     0.164 HD
HETATM   11  C3  UNL     1     -19.753 -30.835  13.100  1.00  0.00     0.173 C 
ENDBRANCH   3   5
ENDBRANCH   1   3
BRANCH   1  12
HETATM   12  N4  UNL     1     -22.612 -33.353  13.509  1.00  0.00    -0.163 N 
ATOM     13  H4  UNL     1     -22.590 -34.179  14.108  1.00  0.00     0.187 HD
BRANCH  12  14
HETATM   14  C5  UNL     1     -22.718 -33.521  12.235  1.00  0.00     0.710 A 
HETATM   15  N5  UNL     1     -23.623 -34.281  11.589  1.00  0.00    -0.117 N 
HETATM   16  N6  UNL     1     -23.407 -34.198  10.279  1.00  0.00     0.006 NA
ATOM     17  H5  UNL     1     -24.356 -34.833  12.034  1.00  0.00     0.202 HD
HETATM   18  N7  UNL     1     -22.377 -33.396  10.068  1.00  0.00     0.006 NA
HETATM   19  N8  UNL     1     -21.964 -32.990  11.258  1.00  0.00    -0.117 N 
ATOM     20  H8  UNL     1     -21.179 -32.358  11.413  1.00  0.00     0.202 HD
ENDBRANCH  12  14
ENDBRANCH   1  12
TORSDOF 4
ENDMDL
MODEL 3
REMARK VINA RESULT: -6.693800573      2.504      5.362
REMARK  4 active torsions:
REMARK  status: ('A' for Active; 'I' for Inactive)
REMARK    1  A    between atoms: N2_7  and  N3_8 
REMARK    2  A    between atoms: N3_8  and  C4_10 
REMARK    3  A    between atoms: C4_10  and  N4_12 
REMARK    4  A    between atoms: N4_12  and  C5_14 
ROOT
HETATM    1  C4  UNL     1     -22.577 -31.326  13.729  1.00  0.00     0.205 C 
HETATM    2  S1  UNL     1     -24.162 -31.196  14.073  1.00  0.00    -0.039 SA
ENDROOT
BRANCH   1   3
HETATM    3  N3  UNL     1     -21.738 -30.201  13.902  1.00  0.00    -0.269 N 
ATOM      4  H3  UNL     1     -22.076 -29.310  13.539  1.00  0.00     0.189 HD
BRANCH   3   5
HETATM    5  N2  UNL     1     -20.510 -30.202  14.514  1.00  0.00    -0.239 N 
HETATM    6  C1  UNL     1     -19.310 -29.691  13.893  1.00  0.00     0.337 C 
HETATM    7  O1  UNL     1     -19.297 -28.867  12.919  1.00  0.00    -0.245 OA
HETATM    8  N1  UNL     1     -18.183 -30.253  14.546  1.00  0.00    -0.340 N 
HETATM    9  C2  UNL     1     -18.703 -31.253  15.457  1.00  0.00     0.146 C 
ATOM     10  H1  UNL     1     -17.204 -30.005  14.403  1.00  0.00     0.164 HD
HETATM   11  C3  UNL     1     -20.056 -30.655  15.815  1.00  0.00     0.173 C 
ENDBRANCH   3   5
ENDBRANCH   1   3
BRANCH   1  12
HETATM   12  N4  UNL     1     -22.061 -32.559  13.264  1.00  0.00    -0.163 N 
ATOM     13  H4  UNL     1     -21.338 -33.021  13.816  1.00  0.00     0.187 HD
BRANCH  12  14
HETATM   14  C5  UNL     1     -22.461 -33.127  12.178  1.00  0.00     0.710 A 
HETATM   15  N5  UNL     1     -23.417 -34.069  12.058  1.00  0.00    -0.117 N 
HETATM   16  N6  UNL     1     -23.541 -34.404  10.775  1.00  0.00     0.006 NA
ATOM     17  H5  UNL     1     -23.958 -34.462  12.827  1.00  0.00     0.202 HD
HETATM   18  N7  UNL     1     -22.680 -33.694  10.066  1.00  0.00     0.006 NA
HETATM   19  N8  UNL     1     -22.030 -32.922  10.922  1.00  0.00    -0.117 N 
ATOM     20  H8  UNL     1     -21.298 -32.260  10.664  1.00  0.00     0.202 HD
ENDBRANCH  12  14
ENDBRANCH   1  12
TORSDOF 4
ENDMDL
MODEL 4
REMARK VINA RESULT: -6.656121443      2.385      5.033
REMARK  4 active torsions:
REMARK  status: ('A' for Active; 'I' for Inactive)
REMARK    1  A    between atoms: N2_7  and  N3_8 
REMARK    2  A    between atoms: N3_8  and  C4_10 
REMARK    3  A    between atoms: C4_10  and  N4_12 
REMARK    4  A    between atoms: N4_12  and  C5_14 
ROOT
HETATM    1  C4  UNL     1     -23.214 -31.879  14.305  1.00  0.00     0.205 C 
HETATM    2  S1  UNL     1     -24.643 -31.227  13.884  1.00  0.00    -0.039 SA
ENDROOT
BRANCH   1   3
HETATM    3  N3  UNL     1     -22.398 -31.207  15.244  1.00  0.00    -0.269 N 
ATOM      4  H3  UNL     1     -22.868 -30.750  16.025  1.00  0.00     0.189 HD
BRANCH   3   5
HETATM    5  N2  UNL     1     -21.029 -31.114  15.197  1.00  0.00    -0.239 N 
HETATM    6  C1  UNL     1     -20.295 -30.752  14.008  1.00  0.00     0.337 C 
HETATM    7  O1  UNL     1     -20.795 -30.129  13.013  1.00  0.00    -0.245 OA
HETATM    8  N1  UNL     1     -18.956 -31.202  14.143  1.00  0.00    -0.340 N 
HETATM    9  C2  UNL     1     -18.919 -32.000  15.352  1.00  0.00     0.146 C 
ATOM     10  H1  UNL     1     -18.176 -31.003  13.517  1.00  0.00     0.164 HD
HETATM   11  C3  UNL     1     -19.992 -31.320  16.191  1.00  0.00     0.173 C 
ENDBRANCH   3   5
ENDBRANCH   1   3
BRANCH   1  12
HETATM   12  N4  UNL     1     -22.808 -33.106  13.729  1.00  0.00    -0.163 N 
ATOM     13  H4  UNL     1     -22.525 -33.864  14.351  1.00  0.00     0.187 HD
BRANCH  12  14
HETATM   14  C5  UNL     1     -22.778 -33.313  12.456  1.00  0.00     0.710 A 
HETATM   15  N5  UNL     1     -21.884 -32.826  11.575  1.00  0.00    -0.117 N 
HETATM   16  N6  UNL     1     -22.189 -33.263  10.356  1.00  0.00     0.006 NA
ATOM     17  H5  UNL     1     -21.098 -32.219  11.806  1.00  0.00     0.202 HD
HETATM   18  N7  UNL     1     -23.267 -34.025  10.435  1.00  0.00     0.006 NA
HETATM   19  N8  UNL     1     -23.619 -34.050  11.711  1.00  0.00    -0.117 N 
ATOM     20  H8  UNL     1     -24.421 -34.561  12.080  1.00  0.00     0.202 HD
ENDBRANCH  12  14
ENDBRANCH   1  12
TORSDOF 4
ENDMDL
MODEL 5
REMARK VINA RESULT: -6.653154288      2.502      5.604
REMARK  4 active torsions:
REMARK  status: ('A' for Active; 'I' for Inactive)
REMARK    1  A    between atoms: N2_7  and  N3_8 
REMARK    2  A    between atoms: N3_8  and  C4_10 
REMARK    3  A    between atoms: C4_10  and  N4_12 
REMARK    4  A    between atoms: N4_12  and  C5_14 
ROOT
HETATM    1  C4  UNL     1     -21.407 -31.791  13.879  1.00  0.00     0.205 C 
HETATM    2  S1  UNL     1     -22.267 -30.417  14.014  1.00  0.00    -0.039 SA
ENDROOT
BRANCH   1   3
HETATM    3  N3  UNL     1     -20.005 -31.749  14.055  1.00  0.00    -0.269 N 
ATOM      4  H3  UNL     1     -19.455 -32.464  13.580  1.00  0.00     0.189 HD
BRANCH   3   5
HETATM    5  N2  UNL     1     -19.318 -30.830  14.808  1.00  0.00    -0.239 N 
HETATM    6  C1  UNL     1     -18.569 -29.734  14.240  1.00  0.00     0.337 C 
HETATM    7  O1  UNL     1     -18.751 -29.267  13.068  1.00  0.00    -0.245 OA
HETATM    8  N1  UNL     1     -17.622 -29.284  15.197  1.00  0.00    -0.340 N 
HETATM    9  C2  UNL     1     -17.676 -30.230  16.293  1.00  0.00     0.146 C 
ATOM     10  H1  UNL     1     -17.025 -28.460  15.127  1.00  0.00     0.164 HD
HETATM   11  C3  UNL     1     -19.133 -30.667  16.238  1.00  0.00     0.173 C 
ENDBRANCH   3   5
ENDBRANCH   1   3
BRANCH   1  12
HETATM   12  N4  UNL     1     -22.072 -33.007  13.590  1.00  0.00    -0.163 N 
ATOM     13  H4  UNL     1     -22.272 -33.645  14.360  1.00  0.00     0.187 HD
BRANCH  12  14
HETATM   14  C5  UNL     1     -22.436 -33.346  12.400  1.00  0.00     0.710 A 
HETATM   15  N5  UNL     1     -21.905 -32.924  11.237  1.00  0.00    -0.117 N 
HETATM   16  N6  UNL     1     -22.554 -33.499  10.227  1.00  0.00     0.006 NA
ATOM     17  H5  UNL     1     -21.130 -32.268  11.145  1.00  0.00     0.202 HD
HETATM   18  N7  UNL     1     -23.495 -34.285  10.719  1.00  0.00     0.006 NA
HETATM   19  N8  UNL     1     -23.419 -34.188  12.037  1.00  0.00    -0.117 N 
ATOM     20  H8  UNL     1     -24.024 -34.685  12.690  1.00  0.00     0.202 HD
ENDBRANCH  12  14
ENDBRANCH   1  12
TORSDOF 4
ENDMDL
