MODEL 1
REMARK VINA RESULT: -7.170133229      0.000      0.000
REMARK  1 active torsions:
REMARK  status: ('A' for Active; 'I' for Inactive)
REMARK       I    between atoms: C1_2  and  N2_4 
REMARK    1  A    between atoms: N2_4  and  C2_6 
ROOT
HETATM    1  C2  UNL     1     -23.074 -32.162  13.717  1.00  0.00     0.142 A 
HETATM    2  N3  UNL     1     -22.880 -32.675  12.494  1.00  0.00    -0.292 N 
ATOM      3  H3  UNL     1     -23.667 -33.195  12.104  1.00  0.00     0.172 HD
HETATM    4  C3  UNL     1     -21.776 -32.598  11.701  1.00  0.00     0.328 A 
HETATM    5  O2  UNL     1     -21.845 -33.082  10.556  1.00  0.00    -0.247 OA
HETATM    6  N4  UNL     1     -20.588 -32.046  12.020  1.00  0.00    -0.273 N 
ATOM      7  H4  UNL     1     -19.864 -32.191  11.316  1.00  0.00     0.173 HD
HETATM    8  C4  UNL     1     -20.178 -31.350  13.076  1.00  0.00     0.278 A 
HETATM    9  O3  UNL     1     -18.981 -30.916  13.092  1.00  0.00    -0.265 OA
HETATM   10  C5  UNL     1     -20.926 -31.033  14.197  1.00  0.00     0.133 A 
HETATM   11  N5  UNL     1     -20.525 -30.292  15.247  1.00  0.00    -0.346 N 
ATOM     12  H5  UNL     1     -19.602 -29.869  15.339  1.00  0.00     0.167 HD
HETATM   13  C6  UNL     1     -21.508 -30.188  16.154  1.00  0.00     0.181 A 
HETATM   14  N6  UNL     1     -22.587 -30.875  15.696  1.00  0.00    -0.347 N 
ATOM     15  H6  UNL     1     -23.486 -30.978  16.165  1.00  0.00     0.167 HD
HETATM   16  C7  UNL     1     -22.239 -31.396  14.494  1.00  0.00     0.110 A 
ENDROOT
BRANCH   1  17
HETATM   17  N2  UNL     1     -24.221 -32.431  14.235  1.00  0.00    -0.295 N 
HETATM   18  C1  UNL     1     -25.395 -31.732  13.840  1.00  0.00     0.334 C 
HETATM   19  N1  UNL     1     -25.791 -30.579  14.545  1.00  0.00    -0.040 NA
HETATM   20  O1  UNL     1     -26.071 -32.161  12.852  1.00  0.00    -0.251 OA
ATOM     21  H2  UNL     1     -24.290 -33.162  14.944  1.00  0.00     0.171 HD
ENDBRANCH   1  17
TORSDOF 1
ENDMDL
MODEL 2
REMARK VINA RESULT: -6.867468569      2.461      3.457
REMARK  1 active torsions:
REMARK  status: ('A' for Active; 'I' for Inactive)
REMARK       I    between atoms: C1_2  and  N2_4 
REMARK    1  A    between atoms: N2_4  and  C2_6 
ROOT
HETATM    1  C2  UNL     1     -20.823 -31.086  15.036  1.00  0.00     0.142 A 
HETATM    2  N3  UNL     1     -20.466 -30.358  13.968  1.00  0.00    -0.292 N 
ATOM      3  H3  UNL     1     -21.137 -30.344  13.200  1.00  0.00     0.172 HD
HETATM    4  C3  UNL     1     -19.330 -29.633  13.770  1.00  0.00     0.328 A 
HETATM    5  O2  UNL     1     -19.243 -28.959  12.727  1.00  0.00    -0.247 OA
HETATM    6  N4  UNL     1     -18.263 -29.561  14.590  1.00  0.00    -0.273 N 
ATOM      7  H4  UNL     1     -17.476 -29.043  14.199  1.00  0.00     0.173 HD
HETATM    8  C4  UNL     1     -18.039 -30.035  15.813  1.00  0.00     0.278 A 
HETATM    9  O3  UNL     1     -16.923 -29.778  16.371  1.00  0.00    -0.265 OA
HETATM   10  C5  UNL     1     -18.905 -30.802  16.573  1.00  0.00     0.133 A 
HETATM   11  N5  UNL     1     -18.696 -31.246  17.826  1.00  0.00    -0.346 N 
ATOM     12  H5  UNL     1     -17.854 -31.064  18.373  1.00  0.00     0.167 HD
HETATM   13  C6  UNL     1     -19.747 -31.960  18.256  1.00  0.00     0.181 A 
HETATM   14  N6  UNL     1     -20.676 -31.990  17.265  1.00  0.00    -0.347 N 
ATOM     15  H6  UNL     1     -21.583 -32.456  17.296  1.00  0.00     0.167 HD
HETATM   16  C7  UNL     1     -20.168 -31.281  16.228  1.00  0.00     0.110 A 
ENDROOT
BRANCH   1  17
HETATM   17  N2  UNL     1     -21.952 -31.691  14.918  1.00  0.00    -0.295 N 
HETATM   18  C1  UNL     1     -22.845 -31.392  13.852  1.00  0.00     0.334 C 
HETATM   19  N1  UNL     1     -23.840 -30.411  14.030  1.00  0.00    -0.040 NA
HETATM   20  O1  UNL     1     -22.729 -32.016  12.750  1.00  0.00    -0.251 OA
ATOM     21  H2  UNL     1     -22.212 -32.402  15.603  1.00  0.00     0.171 HD
ENDBRANCH   1  17
TORSDOF 1
ENDMDL
MODEL 3
REMARK VINA RESULT: -6.727597082      2.432      3.864
REMARK  1 active torsions:
REMARK  status: ('A' for Active; 'I' for Inactive)
REMARK       I    between atoms: C1_2  and  N2_4 
REMARK    1  A    between atoms: N2_4  and  C2_6 
ROOT
HETATM    1  C2  UNL     1     -21.690 -30.438  14.698  1.00  0.00     0.142 A 
HETATM    2  N3  UNL     1     -22.064 -30.825  15.925  1.00  0.00    -0.292 N 
ATOM      3  H3  UNL     1     -23.068 -30.944  16.063  1.00  0.00     0.172 HD
HETATM    4  C3  UNL     1     -21.286 -31.082  17.014  1.00  0.00     0.328 A 
HETATM    5  O2  UNL     1     -21.844 -31.514  18.040  1.00  0.00    -0.247 OA
HETATM    6  N4  UNL     1     -19.953 -30.916  17.112  1.00  0.00    -0.273 N 
ATOM      7  H4  UNL     1     -19.586 -31.069  18.052  1.00  0.00     0.173 HD
HETATM    8  C4  UNL     1     -19.021 -30.592  16.219  1.00  0.00     0.278 A 
HETATM    9  O3  UNL     1     -17.806 -30.541  16.598  1.00  0.00    -0.265 OA
HETATM   10  C5  UNL     1     -19.227 -30.293  14.883  1.00  0.00     0.133 A 
HETATM   11  N5  UNL     1     -18.281 -30.007  13.970  1.00  0.00    -0.346 N 
ATOM     12  H5  UNL     1     -17.280 -29.977  14.161  1.00  0.00     0.167 HD
HETATM   13  C6  UNL     1     -18.837 -29.768  12.772  1.00  0.00     0.181 A 
HETATM   14  N6  UNL     1     -20.184 -29.899  12.894  1.00  0.00    -0.347 N 
ATOM     15  H6  UNL     1     -20.876 -29.778  12.155  1.00  0.00     0.167 HD
HETATM   16  C7  UNL     1     -20.432 -30.223  14.187  1.00  0.00     0.110 A 
ENDROOT
BRANCH   1  17
HETATM   17  N2  UNL     1     -22.662 -30.239  13.879  1.00  0.00    -0.295 N 
HETATM   18  C1  UNL     1     -23.771 -31.129  13.817  1.00  0.00     0.334 C 
HETATM   19  N1  UNL     1     -23.752 -32.207  12.911  1.00  0.00    -0.040 NA
HETATM   20  O1  UNL     1     -24.767 -30.935  14.585  1.00  0.00    -0.251 OA
ATOM     21  H2  UNL     1     -22.638 -29.428  13.262  1.00  0.00     0.171 HD
ENDBRANCH   1  17
TORSDOF 1
ENDMDL
MODEL 4
REMARK VINA RESULT: -6.661541083      3.089      5.709
REMARK  1 active torsions:
REMARK  status: ('A' for Active; 'I' for Inactive)
REMARK       I    between atoms: C1_2  and  N2_4 
REMARK    1  A    between atoms: N2_4  and  C2_6 
ROOT
HETATM    1  C2  UNL     1     -18.964 -30.227  15.759  1.00  0.00     0.142 A 
HETATM    2  N3  UNL     1     -18.756 -29.712  14.539  1.00  0.00    -0.292 N 
ATOM      3  H3  UNL     1     -17.783 -29.511  14.305  1.00  0.00     0.172 HD
HETATM    4  C3  UNL     1     -19.667 -29.421  13.568  1.00  0.00     0.328 A 
HETATM    5  O2  UNL     1     -19.239 -29.024  12.469  1.00  0.00    -0.247 OA
HETATM    6  N4  UNL     1     -21.007 -29.514  13.663  1.00  0.00    -0.273 N 
ATOM      7  H4  UNL     1     -21.505 -29.146  12.852  1.00  0.00     0.173 HD
HETATM    8  C4  UNL     1     -21.808 -29.994  14.611  1.00  0.00     0.278 A 
HETATM    9  O3  UNL     1     -23.066 -29.982  14.410  1.00  0.00    -0.265 OA
HETATM   10  C5  UNL     1     -21.420 -30.521  15.831  1.00  0.00     0.133 A 
HETATM   11  N5  UNL     1     -22.226 -31.046  16.772  1.00  0.00    -0.346 N 
ATOM     12  H5  UNL     1     -23.240 -31.117  16.693  1.00  0.00     0.167 HD
HETATM   13  C6  UNL     1     -21.511 -31.462  17.828  1.00  0.00     0.181 A 
HETATM   14  N6  UNL     1     -20.199 -31.208  17.582  1.00  0.00    -0.347 N 
ATOM     15  H6  UNL     1     -19.414 -31.412  18.199  1.00  0.00     0.167 HD
HETATM   16  C7  UNL     1     -20.134 -30.631  16.357  1.00  0.00     0.110 A 
ENDROOT
BRANCH   1  17
HETATM   17  N2  UNL     1     -17.902 -30.361  16.472  1.00  0.00    -0.295 N 
HETATM   18  C1  UNL     1     -16.734 -29.590  16.214  1.00  0.00     0.334 C 
HETATM   19  N1  UNL     1     -15.741 -30.095  15.352  1.00  0.00    -0.040 NA
HETATM   20  O1  UNL     1     -16.607 -28.452  16.767  1.00  0.00    -0.251 OA
ATOM     21  H2  UNL     1     -17.896 -31.034  17.239  1.00  0.00     0.171 HD
ENDBRANCH   1  17
TORSDOF 1
ENDMDL
MODEL 5
REMARK VINA RESULT: -6.524890491      3.038      4.430
REMARK  1 active torsions:
REMARK  status: ('A' for Active; 'I' for Inactive)
REMARK       I    between atoms: C1_2  and  N2_4 
REMARK    1  A    between atoms: N2_4  and  C2_6 
ROOT
HETATM    1  C2  UNL     1     -20.613 -31.299  16.152  1.00  0.00     0.142 A 
HETATM    2  N3  UNL     1     -21.811 -31.026  15.615  1.00  0.00    -0.292 N 
ATOM      3  H3  UNL     1     -22.610 -31.458  16.079  1.00  0.00     0.172 HD
HETATM    4  C3  UNL     1     -22.106 -30.249  14.535  1.00  0.00     0.328 A 
HETATM    5  O2  UNL     1     -23.307 -30.065  14.261  1.00  0.00    -0.247 OA
HETATM    6  N4  UNL     1     -21.229 -29.645  13.710  1.00  0.00    -0.273 N 
ATOM      7  H4  UNL     1     -21.663 -29.198  12.902  1.00  0.00     0.173 HD
HETATM    8  C4  UNL     1     -19.905 -29.519  13.746  1.00  0.00     0.278 A 
HETATM    9  O3  UNL     1     -19.332 -28.849  12.826  1.00  0.00    -0.265 OA
HETATM   10  C5  UNL     1     -19.050 -30.049  14.697  1.00  0.00     0.133 A 
HETATM   11  N5  UNL     1     -17.716 -29.886  14.757  1.00  0.00    -0.346 N 
ATOM     12  H5  UNL     1     -17.168 -29.339  14.093  1.00  0.00     0.167 HD
HETATM   13  C6  UNL     1     -17.207 -30.541  15.812  1.00  0.00     0.181 A 
HETATM   14  N6  UNL     1     -18.228 -31.152  16.467  1.00  0.00    -0.347 N 
ATOM     15  H6  UNL     1     -18.155 -31.725  17.308  1.00  0.00     0.167 HD
HETATM   16  C7  UNL     1     -19.364 -30.855  15.790  1.00  0.00     0.110 A 
ENDROOT
BRANCH   1  17
HETATM   17  N2  UNL     1     -20.648 -32.099  17.159  1.00  0.00    -0.295 N 
HETATM   18  C1  UNL     1     -20.991 -31.637  18.460  1.00  0.00     0.334 C 
HETATM   19  N1  UNL     1     -19.978 -31.210  19.339  1.00  0.00    -0.040 NA
HETATM   20  O1  UNL     1     -22.214 -31.618  18.809  1.00  0.00    -0.251 OA
ATOM     21  H2  UNL     1     -20.424 -33.085  17.022  1.00  0.00     0.171 HD
ENDBRANCH   1  17
TORSDOF 1
ENDMDL
