MODEL 1
REMARK VINA RESULT: -5.675214447      0.000      0.000
REMARK  2 active torsions:
REMARK  status: ('A' for Active; 'I' for Inactive)
REMARK    1  A    between atoms: N1_1  and  C1_4 
REMARK    2  A    between atoms: N4_13  and  C5_14 
ROOT
HETATM    1  C1  UNL     1      -4.181   7.630   7.477  1.00  0.00     0.680 A 
HETATM    2  N2  UNL     1      -4.226   7.027   8.679  1.00  0.00    -0.154 N 
ATOM      3  H2  UNL     1      -3.376   6.598   9.045  1.00  0.00     0.187 HD
HETATM    4  C2  UNL     1      -5.346   6.970   9.412  1.00  0.00     0.290 A 
HETATM    5  O1  UNL     1      -5.421   6.419  10.531  1.00  0.00    -0.265 OA
HETATM    6  C3  UNL     1      -6.485   7.551   8.907  1.00  0.00     0.148 A 
HETATM    7  N3  UNL     1      -7.743   7.668   9.377  1.00  0.00    -0.344 N 
ATOM      8  H3  UNL     1      -8.065   7.301  10.273  1.00  0.00     0.167 HD
HETATM    9  C4  UNL     1      -8.511   8.332   8.507  1.00  0.00     0.193 A 
HETATM   10  N4  UNL     1      -7.709   8.647   7.447  1.00  0.00    -0.269 N 
HETATM   11  C6  UNL     1      -6.466   8.184   7.660  1.00  0.00     0.163 A 
HETATM   12  N5  UNL     1      -5.296   8.196   6.989  1.00  0.00    -0.174 N 
ATOM     13  H5  UNL     1      -5.258   8.651   6.077  1.00  0.00     0.186 HD
ENDROOT
BRANCH   1  14
HETATM   14  N1  UNL     1      -3.047   7.638   6.832  1.00  0.00    -0.234 N 
ATOM     15  H12 UNL     1      -2.428   6.827   6.797  1.00  0.00     0.174 HD
ATOM     16  H11 UNL     1      -2.773   8.492   6.348  1.00  0.00     0.174 HD
ENDBRANCH   1  14
BRANCH  10  17
HETATM   17  C5  UNL     1      -8.126   9.360   6.284  1.00  0.00     0.362 C 
HETATM   18  O2  UNL     1      -8.289   8.802   5.177  1.00  0.00    -0.283 OA
ENDBRANCH  10  17
TORSDOF 2
ENDMDL
MODEL 2
REMARK VINA RESULT: -5.302510848      1.480      3.479
REMARK  2 active torsions:
REMARK  status: ('A' for Active; 'I' for Inactive)
REMARK    1  A    between atoms: N1_1  and  C1_4 
REMARK    2  A    between atoms: N4_13  and  C5_14 
ROOT
HETATM    1  C1  UNL     1      -4.106   7.559   8.359  1.00  0.00     0.680 A 
HETATM    2  N2  UNL     1      -4.657   8.477   7.546  1.00  0.00    -0.154 N 
ATOM      3  H2  UNL     1      -4.048   9.018   6.932  1.00  0.00     0.187 HD
HETATM    4  C2  UNL     1      -5.976   8.706   7.512  1.00  0.00     0.290 A 
HETATM    5  O1  UNL     1      -6.520   9.552   6.768  1.00  0.00    -0.265 OA
HETATM    6  C3  UNL     1      -6.787   7.972   8.344  1.00  0.00     0.148 A 
HETATM    7  N3  UNL     1      -8.119   7.955   8.551  1.00  0.00    -0.344 N 
ATOM      8  H3  UNL     1      -8.789   8.553   8.067  1.00  0.00     0.167 HD
HETATM    9  C4  UNL     1      -8.441   7.049   9.480  1.00  0.00     0.193 A 
HETATM   10  N4  UNL     1      -7.269   6.469   9.874  1.00  0.00    -0.269 N 
HETATM   11  C6  UNL     1      -6.240   7.011   9.201  1.00  0.00     0.163 A 
HETATM   12  N5  UNL     1      -4.902   6.844   9.170  1.00  0.00    -0.174 N 
ATOM     13  H5  UNL     1      -4.480   6.148   9.787  1.00  0.00     0.186 HD
ENDROOT
BRANCH   1  14
HETATM   14  N1  UNL     1      -2.811   7.401   8.326  1.00  0.00    -0.234 N 
ATOM     15  H12 UNL     1      -2.166   8.048   8.781  1.00  0.00     0.174 HD
ATOM     16  H11 UNL     1      -2.435   6.599   7.822  1.00  0.00     0.174 HD
ENDBRANCH   1  14
BRANCH  10  17
HETATM   17  C5  UNL     1      -7.149   5.442  10.857  1.00  0.00     0.362 C 
HETATM   18  O2  UNL     1      -6.053   4.916  11.149  1.00  0.00    -0.283 OA
ENDBRANCH  10  17
TORSDOF 2
ENDMDL
MODEL 3
REMARK VINA RESULT: -5.238009471      2.075      2.574
REMARK  2 active torsions:
REMARK  status: ('A' for Active; 'I' for Inactive)
REMARK    1  A    between atoms: N1_1  and  C1_4 
REMARK    2  A    between atoms: N4_13  and  C5_14 
ROOT
HETATM    1  C1  UNL     1      -4.675   7.350   8.076  1.00  0.00     0.680 A 
HETATM    2  N2  UNL     1      -3.872   8.229   8.701  1.00  0.00    -0.154 N 
ATOM      3  H2  UNL     1      -3.071   7.875   9.226  1.00  0.00     0.187 HD
HETATM    4  C2  UNL     1      -4.083   9.551   8.659  1.00  0.00     0.290 A 
HETATM    5  O1  UNL     1      -3.355  10.394   9.228  1.00  0.00    -0.265 OA
HETATM    6  C3  UNL     1      -5.165  10.016   7.950  1.00  0.00     0.148 A 
HETATM    7  N3  UNL     1      -5.647  11.252   7.714  1.00  0.00    -0.344 N 
ATOM      8  H3  UNL     1      -5.233  12.114   8.069  1.00  0.00     0.167 HD
HETATM    9  C4  UNL     1      -6.745  11.193   6.953  1.00  0.00     0.193 A 
HETATM   10  N4  UNL     1      -6.964   9.869   6.696  1.00  0.00    -0.269 N 
HETATM   11  C6  UNL     1      -6.017   9.124   7.291  1.00  0.00     0.163 A 
HETATM   12  N5  UNL     1      -5.731   7.810   7.385  1.00  0.00    -0.174 N 
ATOM     13  H5  UNL     1      -6.339   7.140   6.913  1.00  0.00     0.186 HD
ENDROOT
BRANCH   1  14
HETATM   14  N1  UNL     1      -4.394   6.080   8.170  1.00  0.00    -0.234 N 
ATOM     15  H12 UNL     1      -3.615   5.729   8.728  1.00  0.00     0.174 HD
ATOM     16  H11 UNL     1      -4.979   5.417   7.662  1.00  0.00     0.174 HD
ENDBRANCH   1  14
BRANCH  10  17
HETATM   17  C5  UNL     1      -8.038   9.351   5.914  1.00  0.00     0.362 C 
HETATM   18  O2  UNL     1      -7.909   8.349   5.177  1.00  0.00    -0.283 OA
ENDBRANCH  10  17
TORSDOF 2
ENDMDL
MODEL 4
REMARK VINA RESULT: -5.103595241      2.496      3.408
REMARK  2 active torsions:
REMARK  status: ('A' for Active; 'I' for Inactive)
REMARK    1  A    between atoms: N1_1  and  C1_4 
REMARK    2  A    between atoms: N4_13  and  C5_14 
ROOT
HETATM    1  C1  UNL     1      -3.156   9.112   7.726  1.00  0.00     0.680 A 
HETATM    2  N2  UNL     1      -3.495   7.990   7.067  1.00  0.00    -0.154 N 
ATOM      3  H2  UNL     1      -2.944   7.711   6.255  1.00  0.00     0.187 HD
HETATM    4  C2  UNL     1      -4.530   7.224   7.439  1.00  0.00     0.290 A 
HETATM    5  O1  UNL     1      -4.870   6.175   6.849  1.00  0.00    -0.265 OA
HETATM    6  C3  UNL     1      -5.266   7.609   8.534  1.00  0.00     0.148 A 
HETATM    7  N3  UNL     1      -6.337   7.078   9.155  1.00  0.00    -0.344 N 
ATOM      8  H3  UNL     1      -6.808   6.220   8.868  1.00  0.00     0.167 HD
HETATM    9  C4  UNL     1      -6.699   7.832  10.199  1.00  0.00     0.193 A 
HETATM   10  N4  UNL     1      -5.823   8.878  10.240  1.00  0.00    -0.269 N 
HETATM   11  C6  UNL     1      -4.935   8.772   9.237  1.00  0.00     0.163 A 
HETATM   12  N5  UNL     1      -3.878   9.484   8.796  1.00  0.00    -0.174 N 
ATOM     13  H5  UNL     1      -3.618  10.337   9.292  1.00  0.00     0.186 HD
ENDROOT
BRANCH   1  14
HETATM   14  N1  UNL     1      -2.133   9.797   7.294  1.00  0.00    -0.234 N 
ATOM     15  H12 UNL     1      -2.172  10.372   6.452  1.00  0.00     0.174 HD
ATOM     16  H11 UNL     1      -1.263   9.750   7.823  1.00  0.00     0.174 HD
ENDBRANCH   1  14
BRANCH  10  17
HETATM   17  C5  UNL     1      -5.844   9.931  11.203  1.00  0.00     0.362 C 
HETATM   18  O2  UNL     1      -4.812  10.546  11.548  1.00  0.00    -0.283 OA
ENDBRANCH  10  17
TORSDOF 2
ENDMDL
MODEL 5
REMARK VINA RESULT: -4.995466762      1.792      2.603
REMARK  2 active torsions:
REMARK  status: ('A' for Active; 'I' for Inactive)
REMARK    1  A    between atoms: N1_1  and  C1_4 
REMARK    2  A    between atoms: N4_13  and  C5_14 
ROOT
HETATM    1  C1  UNL     1      -6.023   6.505   9.275  1.00  0.00     0.680 A 
HETATM    2  N2  UNL     1      -4.915   7.020   9.838  1.00  0.00    -0.154 N 
ATOM      3  H2  UNL     1      -4.432   6.479  10.555  1.00  0.00     0.187 HD
HETATM    4  C2  UNL     1      -4.424   8.218   9.492  1.00  0.00     0.290 A 
HETATM    5  O1  UNL     1      -3.398   8.724   9.996  1.00  0.00    -0.265 OA
HETATM    6  C3  UNL     1      -5.085   8.939   8.526  1.00  0.00     0.148 A 
HETATM    7  N3  UNL     1      -4.862  10.143   7.964  1.00  0.00    -0.344 N 
ATOM      8  H3  UNL     1      -4.085  10.759   8.201  1.00  0.00     0.167 HD
HETATM    9  C4  UNL     1      -5.799  10.418   7.051  1.00  0.00     0.193 A 
HETATM   10  N4  UNL     1      -6.647   9.348   7.035  1.00  0.00    -0.269 N 
HETATM   11  C6  UNL     1      -6.239   8.427   7.925  1.00  0.00     0.163 A 
HETATM   12  N5  UNL     1      -6.665   7.214   8.332  1.00  0.00    -0.174 N 
ATOM     13  H5  UNL     1      -7.505   6.820   7.908  1.00  0.00     0.186 HD
ENDROOT
BRANCH   1  14
HETATM   14  N1  UNL     1      -6.430   5.332   9.673  1.00  0.00    -0.234 N 
ATOM     15  H12 UNL     1      -6.289   4.484   9.123  1.00  0.00     0.174 HD
ATOM     16  H11 UNL     1      -6.909   5.265  10.571  1.00  0.00     0.174 HD
ENDBRANCH   1  14
BRANCH  10  17
HETATM   17  C5  UNL     1      -7.797   9.222   6.201  1.00  0.00     0.362 C 
HETATM   18  O2  UNL     1      -7.900   8.332   5.329  1.00  0.00    -0.283 OA
ENDBRANCH  10  17
TORSDOF 2
ENDMDL
