MODEL 1
REMARK VINA RESULT: -5.261036379      0.000      0.000
REMARK  3 active torsions:
REMARK  status: ('A' for Active; 'I' for Inactive)
REMARK    1  A    between atoms: N1_1  and  N2_4 
REMARK    2  A    between atoms: N2_4  and  C1_6 
REMARK    3  A    between atoms: C4_11  and  N4_12 
ROOT
HETATM    1  C1  UNL     1      -4.847   6.977   9.004  1.00  0.00     0.136 A 
HETATM    2  C2  UNL     1      -5.252   8.174   9.549  1.00  0.00     0.068 A 
HETATM    3  C3  UNL     1      -6.417   8.249  10.286  1.00  0.00     0.110 A 
HETATM    4  N3  UNL     1      -7.115   7.095  10.434  1.00  0.00    -0.202 N 
ATOM      5  H3  UNL     1      -7.982   7.111  10.972  1.00  0.00     0.183 HD
HETATM    6  C4  UNL     1      -6.710   5.934   9.899  1.00  0.00     0.683 A 
HETATM    7  N6  UNL     1      -5.575   5.865   9.181  1.00  0.00    -0.175 N 
ATOM      8  H6  UNL     1      -5.272   4.979   8.776  1.00  0.00     0.186 HD
ENDROOT
BRANCH   6   9
HETATM    9  N4  UNL     1      -7.523   4.760  10.111  1.00  0.00    -0.192 N 
HETATM   10  C5  UNL     1      -7.191   3.612  10.916  1.00  0.00     0.170 C 
HETATM   11  C6  UNL     1      -7.946   2.478  10.259  1.00  0.00     0.254 C 
HETATM   12  N5  UNL     1      -8.951   3.066   9.421  1.00  0.00    -0.057 N 
HETATM   13  C7  UNL     1      -8.837   4.508   9.551  1.00  0.00     0.374 C 
ATOM     14  H52 UNL     1      -8.898   2.748   8.453  1.00  0.00     0.279 HD
ATOM     15  H51 UNL     1      -9.889   2.720   9.623  1.00  0.00     0.279 HD
ENDBRANCH   6   9
BRANCH   1  16
HETATM   16  N2  UNL     1      -3.759   6.900   8.314  1.00  0.00    -0.292 N 
ATOM     17  H2  UNL     1      -2.997   6.316   8.657  1.00  0.00     0.188 HD
BRANCH  16  18
HETATM   18  N1  UNL     1      -3.592   7.581   7.128  1.00  0.00    -0.344 N 
ATOM     19  H12 UNL     1      -4.421   7.764   6.562  1.00  0.00     0.176 HD
ATOM     20  H11 UNL     1      -2.678   7.901   6.809  1.00  0.00     0.176 HD
ENDBRANCH  16  18
ENDBRANCH   1  16
TORSDOF 3
ENDMDL
MODEL 2
REMARK VINA RESULT: -5.174301648      3.777      5.824
REMARK  3 active torsions:
REMARK  status: ('A' for Active; 'I' for Inactive)
REMARK    1  A    between atoms: N1_1  and  N2_4 
REMARK    2  A    between atoms: N2_4  and  C1_6 
REMARK    3  A    between atoms: C4_11  and  N4_12 
ROOT
HETATM    1  C1  UNL     1      -1.713  11.443   6.908  1.00  0.00     0.136 A 
HETATM    2  C2  UNL     1      -1.813  12.417   7.875  1.00  0.00     0.068 A 
HETATM    3  C3  UNL     1      -2.607  12.219   8.987  1.00  0.00     0.110 A 
HETATM    4  N3  UNL     1      -3.264  11.033   9.059  1.00  0.00    -0.202 N 
ATOM      5  H3  UNL     1      -3.860  10.851   9.866  1.00  0.00     0.183 HD
HETATM    6  C4  UNL     1      -3.158  10.092   8.110  1.00  0.00     0.683 A 
HETATM    7  N6  UNL     1      -2.383  10.288   7.028  1.00  0.00    -0.175 N 
ATOM      8  H6  UNL     1      -2.306   9.568   6.310  1.00  0.00     0.186 HD
ENDROOT
BRANCH   6   9
HETATM    9  N4  UNL     1      -3.896   8.862   8.278  1.00  0.00    -0.192 N 
HETATM   10  C5  UNL     1      -4.940   8.603   9.236  1.00  0.00     0.170 C 
HETATM   11  C6  UNL     1      -4.848   7.113   9.478  1.00  0.00     0.254 C 
HETATM   12  N5  UNL     1      -4.090   6.553   8.397  1.00  0.00    -0.057 N 
HETATM   13  C7  UNL     1      -3.726   7.643   7.510  1.00  0.00     0.374 C 
ATOM     14  H52 UNL     1      -3.285   6.011   8.714  1.00  0.00     0.279 HD
ATOM     15  H51 UNL     1      -4.578   5.796   7.918  1.00  0.00     0.279 HD
ENDBRANCH   6   9
BRANCH   1  16
HETATM   16  N2  UNL     1      -0.972  11.621   5.865  1.00  0.00    -0.292 N 
ATOM     17  H2  UNL     1      -1.404  11.960   5.006  1.00  0.00     0.188 HD
BRANCH  16  18
HETATM   18  N1  UNL     1       0.383  11.368   5.876  1.00  0.00    -0.344 N 
ATOM     19  H12 UNL     1       0.725  10.627   6.487  1.00  0.00     0.176 HD
ATOM     20  H11 UNL     1       1.038  11.894   5.298  1.00  0.00     0.176 HD
ENDBRANCH  16  18
ENDBRANCH   1  16
TORSDOF 3
ENDMDL
MODEL 3
REMARK VINA RESULT: -5.141009446      1.398      4.916
REMARK  3 active torsions:
REMARK  status: ('A' for Active; 'I' for Inactive)
REMARK    1  A    between atoms: N1_1  and  N2_4 
REMARK    2  A    between atoms: N2_4  and  C1_6 
REMARK    3  A    between atoms: C4_11  and  N4_12 
ROOT
HETATM    1  C1  UNL     1      -7.224   5.077  10.326  1.00  0.00     0.136 A 
HETATM    2  C2  UNL     1      -8.036   5.992  10.957  1.00  0.00     0.068 A 
HETATM    3  C3  UNL     1      -7.733   7.338  10.922  1.00  0.00     0.110 A 
HETATM    4  N3  UNL     1      -6.611   7.689  10.242  1.00  0.00    -0.202 N 
ATOM      5  H3  UNL     1      -6.354   8.675  10.195  1.00  0.00     0.183 HD
HETATM    6  C4  UNL     1      -5.828   6.788   9.632  1.00  0.00     0.683 A 
HETATM    7  N6  UNL     1      -6.126   5.477   9.668  1.00  0.00    -0.175 N 
ATOM      8  H6  UNL     1      -5.527   4.797   9.202  1.00  0.00     0.186 HD
ENDROOT
BRANCH   6   9
HETATM    9  N4  UNL     1      -4.655   7.260   8.934  1.00  0.00    -0.192 N 
HETATM   10  C5  UNL     1      -3.709   8.243   9.397  1.00  0.00     0.170 C 
HETATM   11  C6  UNL     1      -3.176   8.861   8.124  1.00  0.00     0.254 C 
HETATM   12  N5  UNL     1      -3.500   7.967   7.049  1.00  0.00    -0.057 N 
HETATM   13  C7  UNL     1      -4.201   6.833   7.624  1.00  0.00     0.374 C 
ATOM     14  H52 UNL     1      -4.022   8.419   6.299  1.00  0.00     0.279 HD
ATOM     15  H51 UNL     1      -2.685   7.695   6.499  1.00  0.00     0.279 HD
ENDBRANCH   6   9
BRANCH   1  16
HETATM   16  N2  UNL     1      -7.502   3.816  10.355  1.00  0.00    -0.292 N 
ATOM     17  H2  UNL     1      -7.195   3.262  11.154  1.00  0.00     0.188 HD
BRANCH  16  18
HETATM   18  N1  UNL     1      -8.198   3.195   9.341  1.00  0.00    -0.344 N 
ATOM     19  H12 UNL     1      -8.924   3.730   8.864  1.00  0.00     0.176 HD
ATOM     20  H11 UNL     1      -8.009   2.233   9.063  1.00  0.00     0.176 HD
ENDBRANCH  16  18
ENDBRANCH   1  16
TORSDOF 3
ENDMDL
MODEL 4
REMARK VINA RESULT: -5.055409346      4.856      8.465
REMARK  3 active torsions:
REMARK  status: ('A' for Active; 'I' for Inactive)
REMARK    1  A    between atoms: N1_1  and  N2_4 
REMARK    2  A    between atoms: N2_4  and  C1_6 
REMARK    3  A    between atoms: C4_11  and  N4_12 
ROOT
HETATM    1  C1  UNL     1      -3.178   8.950   7.824  1.00  0.00     0.136 A 
HETATM    2  C2  UNL     1      -3.819   9.435   8.942  1.00  0.00     0.068 A 
HETATM    3  C3  UNL     1      -3.635  10.743   9.342  1.00  0.00     0.110 A 
HETATM    4  N3  UNL     1      -2.803  11.498   8.580  1.00  0.00    -0.202 N 
ATOM      5  H3  UNL     1      -2.643  12.470   8.845  1.00  0.00     0.183 HD
HETATM    6  C4  UNL     1      -2.185  11.015   7.493  1.00  0.00     0.683 A 
HETATM    7  N6  UNL     1      -2.366   9.740   7.106  1.00  0.00    -0.175 N 
ATOM      8  H6  UNL     1      -1.893   9.378   6.278  1.00  0.00     0.186 HD
ENDROOT
BRANCH   6   9
HETATM    9  N4  UNL     1      -1.319  11.898   6.747  1.00  0.00    -0.192 N 
HETATM   10  C5  UNL     1      -1.270  12.057   5.317  1.00  0.00     0.170 C 
HETATM   11  C6  UNL     1       0.159  12.472   5.046  1.00  0.00     0.254 C 
HETATM   12  N5  UNL     1       0.714  12.919   6.291  1.00  0.00    -0.057 N 
HETATM   13  C7  UNL     1      -0.324  12.798   7.299  1.00  0.00     0.374 C 
ATOM     14  H52 UNL     1       1.573  12.430   6.543  1.00  0.00     0.279 HD
ATOM     15  H51 UNL     1       1.108  13.859   6.236  1.00  0.00     0.279 HD
ENDBRANCH   6   9
BRANCH   1  16
HETATM   16  N2  UNL     1      -3.345   7.728   7.444  1.00  0.00    -0.292 N 
ATOM     17  H2  UNL     1      -3.206   7.493   6.462  1.00  0.00     0.188 HD
BRANCH  16  18
HETATM   18  N1  UNL     1      -3.706   6.729   8.323  1.00  0.00    -0.344 N 
ATOM     19  H12 UNL     1      -4.688   6.457   8.359  1.00  0.00     0.176 HD
ATOM     20  H11 UNL     1      -3.027   6.266   8.926  1.00  0.00     0.176 HD
ENDBRANCH  16  18
ENDBRANCH   1  16
TORSDOF 3
ENDMDL
MODEL 5
REMARK VINA RESULT: -5.040524858      3.326      4.664
REMARK  3 active torsions:
REMARK  status: ('A' for Active; 'I' for Inactive)
REMARK    1  A    between atoms: N1_1  and  N2_4 
REMARK    2  A    between atoms: N2_4  and  C1_6 
REMARK    3  A    between atoms: C4_11  and  N4_12 
ROOT
HETATM    1  C1  UNL     1      -3.544   8.532   7.907  1.00  0.00     0.136 A 
HETATM    2  C2  UNL     1      -3.600   7.432   8.732  1.00  0.00     0.068 A 
HETATM    3  C3  UNL     1      -4.816   6.880   9.081  1.00  0.00     0.110 A 
HETATM    4  N3  UNL     1      -5.922   7.480   8.570  1.00  0.00    -0.202 N 
ATOM      5  H3  UNL     1      -6.839   7.101   8.806  1.00  0.00     0.183 HD
HETATM    6  C4  UNL     1      -5.855   8.552   7.768  1.00  0.00     0.683 A 
HETATM    7  N6  UNL     1      -4.667   9.087   7.430  1.00  0.00    -0.175 N 
ATOM      8  H6  UNL     1      -4.623   9.902   6.819  1.00  0.00     0.186 HD
ENDROOT
BRANCH   6   9
HETATM    9  N4  UNL     1      -7.088   9.119   7.275  1.00  0.00    -0.192 N 
HETATM   10  C5  UNL     1      -8.043   9.895   8.023  1.00  0.00     0.170 C 
HETATM   11  C6  UNL     1      -9.359   9.616   7.331  1.00  0.00     0.254 C 
HETATM   12  N5  UNL     1      -9.052   9.070   6.040  1.00  0.00    -0.057 N 
HETATM   13  C7  UNL     1      -7.606   9.014   5.924  1.00  0.00     0.374 C 
ATOM     14  H52 UNL     1      -9.500   8.170   5.872  1.00  0.00     0.279 HD
ATOM     15  H51 UNL     1      -9.494   9.582   5.276  1.00  0.00     0.279 HD
ENDBRANCH   6   9
BRANCH   1  16
HETATM   16  N2  UNL     1      -2.410   9.053   7.577  1.00  0.00    -0.292 N 
ATOM     17  H2  UNL     1      -1.569   8.480   7.633  1.00  0.00     0.188 HD
BRANCH  16  18
HETATM   18  N1  UNL     1      -2.298  10.359   7.151  1.00  0.00    -0.344 N 
ATOM     19  H12 UNL     1      -1.710  10.548   6.340  1.00  0.00     0.176 HD
ATOM     20  H11 UNL     1      -2.781  11.126   7.619  1.00  0.00     0.176 HD
ENDBRANCH  16  18
ENDBRANCH   1  16
TORSDOF 3
ENDMDL
