MODEL 1
REMARK VINA RESULT: -5.448031108      0.000      0.000
REMARK  1 active torsions:
REMARK  status: ('A' for Active; 'I' for Inactive)
REMARK    1  A    between atoms: N3_6  and  C3_7 
ROOT
HETATM    1  C3  UNL     1      -5.637   7.170   9.207  1.00  0.00     0.116 A 
HETATM    2  C4  UNL     1      -6.850   7.743   8.906  1.00  0.00     0.103 A 
HETATM    3  C5  UNL     1      -8.020   7.128   9.296  1.00  0.00     0.178 A 
HETATM    4  O1  UNL     1      -9.131   7.621   9.039  1.00  0.00    -0.288 OA
HETATM    5  C6  UNL     1      -7.938   5.936   9.986  1.00  0.00     0.100 A 
HETATM    6  C7  UNL     1      -6.690   5.420  10.251  1.00  0.00     0.121 A 
HETATM    7  N4  UNL     1      -6.650   4.174  10.985  1.00  0.00    -0.083 NA
HETATM    8  N5  UNL     1      -5.549   6.020   9.872  1.00  0.00    -0.331 N 
ATOM      9  H5  UNL     1      -4.642   5.607  10.087  1.00  0.00     0.168 HD
ENDROOT
BRANCH   1  10
HETATM   10  N3  UNL     1      -4.417   7.803   8.813  1.00  0.00    -0.290 N 
HETATM   11  C1  UNL     1      -3.492   8.602   9.555  1.00  0.00     0.194 A 
HETATM   12  N1  UNL     1      -3.446   9.047  10.921  1.00  0.00    -0.063 NA
HETATM   13  N2  UNL     1      -2.749   8.753   8.534  1.00  0.00    -0.348 N 
HETATM   14  C2  UNL     1      -3.576   7.972   7.673  1.00  0.00     0.259 A 
ATOM     15  H2  UNL     1      -1.873   9.253   8.385  1.00  0.00     0.163 HD
ENDBRANCH   1  10
TORSDOF 1
ENDMDL
MODEL 2
REMARK VINA RESULT: -5.333590350      3.021      4.767
REMARK  1 active torsions:
REMARK  status: ('A' for Active; 'I' for Inactive)
REMARK    1  A    between atoms: N3_6  and  C3_7 
ROOT
HETATM    1  C3  UNL     1      -6.280   8.753   8.074  1.00  0.00     0.116 A 
HETATM    2  C4  UNL     1      -6.498   7.795   9.036  1.00  0.00     0.103 A 
HETATM    3  C5  UNL     1      -5.445   7.050   9.519  1.00  0.00     0.178 A 
HETATM    4  O1  UNL     1      -5.611   6.177  10.388  1.00  0.00    -0.288 OA
HETATM    5  C6  UNL     1      -4.183   7.291   9.015  1.00  0.00     0.100 A 
HETATM    6  C7  UNL     1      -4.039   8.264   8.053  1.00  0.00     0.121 A 
HETATM    7  N4  UNL     1      -2.698   8.490   7.560  1.00  0.00    -0.083 NA
HETATM    8  N5  UNL     1      -5.066   8.991   7.582  1.00  0.00    -0.331 N 
ATOM      9  H5  UNL     1      -4.920   9.705   6.868  1.00  0.00     0.168 HD
ENDROOT
BRANCH   1  10
HETATM   10  N3  UNL     1      -7.365   9.537   7.570  1.00  0.00    -0.290 N 
HETATM   11  C1  UNL     1      -8.108   9.439   6.352  1.00  0.00     0.194 A 
HETATM   12  N1  UNL     1      -8.044   8.546   5.226  1.00  0.00    -0.063 NA
HETATM   13  N2  UNL     1      -8.827  10.439   6.668  1.00  0.00    -0.348 N 
HETATM   14  C2  UNL     1      -8.177  10.656   7.920  1.00  0.00     0.259 A 
ATOM     15  H2  UNL     1      -9.594  10.916   6.195  1.00  0.00     0.163 HD
ENDBRANCH   1  10
TORSDOF 1
ENDMDL
MODEL 3
REMARK VINA RESULT: -5.264238972      2.843      3.857
REMARK  1 active torsions:
REMARK  status: ('A' for Active; 'I' for Inactive)
REMARK    1  A    between atoms: N3_6  and  C3_7 
ROOT
HETATM    1  C3  UNL     1      -5.640   9.118   7.684  1.00  0.00     0.116 A 
HETATM    2  C4  UNL     1      -6.121  10.203   8.376  1.00  0.00     0.103 A 
HETATM    3  C5  UNL     1      -7.317  10.782   8.011  1.00  0.00     0.178 A 
HETATM    4  O1  UNL     1      -7.776  11.764   8.618  1.00  0.00    -0.288 OA
HETATM    5  C6  UNL     1      -8.006  10.246   6.942  1.00  0.00     0.100 A 
HETATM    6  C7  UNL     1      -7.465   9.160   6.294  1.00  0.00     0.121 A 
HETATM    7  N4  UNL     1      -8.226   8.625   5.187  1.00  0.00    -0.083 NA
HETATM    8  N5  UNL     1      -6.299   8.596   6.651  1.00  0.00    -0.331 N 
ATOM      9  H5  UNL     1      -5.929   7.790   6.146  1.00  0.00     0.168 HD
ENDROOT
BRANCH   1  10
HETATM   10  N3  UNL     1      -4.404   8.506   8.058  1.00  0.00    -0.290 N 
HETATM   11  C1  UNL     1      -4.116   7.470   9.002  1.00  0.00     0.194 A 
HETATM   12  N1  UNL     1      -4.935   6.687   9.887  1.00  0.00    -0.063 NA
HETATM   13  N2  UNL     1      -2.873   7.527   8.740  1.00  0.00    -0.348 N 
HETATM   14  C2  UNL     1      -3.008   8.561   7.767  1.00  0.00     0.259 A 
ATOM     15  H2  UNL     1      -2.067   7.015   9.098  1.00  0.00     0.163 HD
ENDBRANCH   1  10
TORSDOF 1
ENDMDL
MODEL 4
REMARK VINA RESULT: -5.127799287      3.327      4.550
REMARK  1 active torsions:
REMARK  status: ('A' for Active; 'I' for Inactive)
REMARK    1  A    between atoms: N3_6  and  C3_7 
ROOT
HETATM    1  C3  UNL     1      -6.442   8.544   8.155  1.00  0.00     0.116 A 
HETATM    2  C4  UNL     1      -5.201   8.748   7.600  1.00  0.00     0.103 A 
HETATM    3  C5  UNL     1      -4.127   7.992   8.014  1.00  0.00     0.178 A 
HETATM    4  O1  UNL     1      -2.993   8.154   7.531  1.00  0.00    -0.288 OA
HETATM    5  C6  UNL     1      -4.331   7.038   8.990  1.00  0.00     0.100 A 
HETATM    6  C7  UNL     1      -5.600   6.889   9.502  1.00  0.00     0.121 A 
HETATM    7  N4  UNL     1      -5.771   5.871  10.515  1.00  0.00    -0.083 NA
HETATM    8  N5  UNL     1      -6.648   7.626   9.097  1.00  0.00    -0.331 N 
ATOM      9  H5  UNL     1      -7.574   7.487   9.500  1.00  0.00     0.168 HD
ENDROOT
BRANCH   1  10
HETATM   10  N3  UNL     1      -7.566   9.318   7.728  1.00  0.00    -0.290 N 
HETATM   11  C1  UNL     1      -8.273   9.342   6.485  1.00  0.00     0.194 A 
HETATM   12  N1  UNL     1      -8.122   8.621   5.250  1.00  0.00    -0.063 NA
HETATM   13  N2  UNL     1      -9.066  10.240   6.912  1.00  0.00    -0.348 N 
HETATM   14  C2  UNL     1      -8.462  10.322   8.202  1.00  0.00     0.259 A 
ATOM     15  H2  UNL     1      -9.853  10.727   6.484  1.00  0.00     0.163 HD
ENDBRANCH   1  10
TORSDOF 1
ENDMDL
MODEL 5
REMARK VINA RESULT: -4.999388889      3.035      3.696
REMARK  1 active torsions:
REMARK  status: ('A' for Active; 'I' for Inactive)
REMARK    1  A    between atoms: N3_6  and  C3_7 
ROOT
HETATM    1  C3  UNL     1      -7.233   7.843   8.704  1.00  0.00     0.116 A 
HETATM    2  C4  UNL     1      -6.299   7.117   9.404  1.00  0.00     0.103 A 
HETATM    3  C5  UNL     1      -6.699   6.087  10.226  1.00  0.00     0.178 A 
HETATM    4  O1  UNL     1      -5.878   5.414  10.872  1.00  0.00    -0.288 OA
HETATM    5  C6  UNL     1      -8.047   5.811  10.326  1.00  0.00     0.100 A 
HETATM    6  C7  UNL     1      -8.926   6.579   9.597  1.00  0.00     0.121 A 
HETATM    7  N4  UNL     1     -10.329   6.249   9.723  1.00  0.00    -0.083 NA
HETATM    8  N5  UNL     1      -8.536   7.584   8.794  1.00  0.00    -0.331 N 
ATOM      9  H5  UNL     1      -9.217   8.131   8.270  1.00  0.00     0.168 HD
ENDROOT
BRANCH   1  10
HETATM   10  N3  UNL     1      -6.829   8.910   7.842  1.00  0.00    -0.290 N 
HETATM   11  C1  UNL     1      -7.175   9.205   6.486  1.00  0.00     0.194 A 
HETATM   12  N1  UNL     1      -8.029   8.563   5.524  1.00  0.00    -0.063 NA
HETATM   13  N2  UNL     1      -6.436  10.239   6.485  1.00  0.00    -0.348 N 
HETATM   14  C2  UNL     1      -6.004  10.074   7.835  1.00  0.00     0.259 A 
ATOM     15  H2  UNL     1      -6.226  10.938   5.772  1.00  0.00     0.163 HD
ENDBRANCH   1  10
TORSDOF 1
ENDMDL
