MODEL 1
REMARK VINA RESULT: -5.872110260      0.000      0.000
REMARK  3 active torsions:
REMARK  status: ('A' for Active; 'I' for Inactive)
REMARK    1  A    between atoms: C3_6  and  N3_7 
REMARK    2  A    between atoms: N3_7  and  C4_9 
REMARK    3  A    between atoms: N6_16  and  O1_17 
ROOT
HETATM    1  N1  UNL     1      -4.612   6.579   9.082  1.00  0.00    -0.078 NA
HETATM    2  C1  UNL     1      -3.967   7.834   8.890  1.00  0.00     0.178 A 
HETATM    3  C2  UNL     1      -3.909   8.858   9.799  1.00  0.00     0.154 A 
HETATM    4  N2  UNL     1      -3.205   9.854   9.206  1.00  0.00    -0.196 N 
ATOM      5  H2  UNL     1      -2.990  10.754   9.636  1.00  0.00     0.183 HD
HETATM    6  C3  UNL     1      -2.832   9.483   7.975  1.00  0.00     0.712 A 
HETATM    7  N6  UNL     1      -3.305   8.242   7.792  1.00  0.00    -0.037 N 
ENDROOT
BRANCH   6   8
HETATM    8  N3  UNL     1      -2.090  10.200   7.011  1.00  0.00    -0.159 N 
ATOM      9  H3  UNL     1      -1.581   9.685   6.293  1.00  0.00     0.187 HD
BRANCH   8  10
HETATM   10  C4  UNL     1      -2.033  11.632   7.015  1.00  0.00     0.190 C 
HETATM   11  N4  UNL     1      -2.767  12.355   6.237  1.00  0.00    -0.360 N 
HETATM   12  C5  UNL     1      -2.505  13.769   6.453  1.00  0.00     0.142 C 
ATOM     13  H4  UNL     1      -3.439  11.985   5.564  1.00  0.00     0.162 HD
HETATM   14  C6  UNL     1      -1.156  13.756   7.180  1.00  0.00     0.142 C 
HETATM   15  N5  UNL     1      -1.214  12.458   7.822  1.00  0.00    -0.360 N 
ATOM     16  H5  UNL     1      -0.751  12.190   8.691  1.00  0.00     0.162 HD
ENDBRANCH   8  10
ENDBRANCH   6   8
BRANCH   7  17
HETATM   17  O1  UNL     1      -3.165   7.446   6.656  1.00  0.00    -0.268 OA
ATOM     18  H1  UNL     1      -2.378   6.946   6.472  1.00  0.00     0.246 HD
ENDBRANCH   7  17
TORSDOF 3
ENDMDL
MODEL 2
REMARK VINA RESULT: -5.836596163      0.217      1.079
REMARK  3 active torsions:
REMARK  status: ('A' for Active; 'I' for Inactive)
REMARK    1  A    between atoms: C3_6  and  N3_7 
REMARK    2  A    between atoms: N3_7  and  C4_9 
REMARK    3  A    between atoms: N6_16  and  O1_17 
ROOT
HETATM    1  N1  UNL     1      -4.612   6.561   9.069  1.00  0.00    -0.078 NA
HETATM    2  C1  UNL     1      -3.970   7.819   8.885  1.00  0.00     0.178 A 
HETATM    3  C2  UNL     1      -3.914   8.839   9.799  1.00  0.00     0.154 A 
HETATM    4  N2  UNL     1      -3.212   9.839   9.212  1.00  0.00    -0.196 N 
ATOM      5  H2  UNL     1      -2.999  10.738   9.646  1.00  0.00     0.183 HD
HETATM    6  C3  UNL     1      -2.837   9.476   7.979  1.00  0.00     0.712 A 
HETATM    7  N6  UNL     1      -3.308   8.234   7.789  1.00  0.00    -0.037 N 
ENDROOT
BRANCH   6   8
HETATM    8  N3  UNL     1      -2.096  10.199   7.019  1.00  0.00    -0.159 N 
ATOM      9  H3  UNL     1      -1.538   9.689   6.336  1.00  0.00     0.187 HD
BRANCH   8  10
HETATM   10  C4  UNL     1      -2.107  11.631   6.981  1.00  0.00     0.190 C 
HETATM   11  N4  UNL     1      -1.335  12.349   7.727  1.00  0.00    -0.360 N 
HETATM   12  C5  UNL     1      -1.556  13.765   7.481  1.00  0.00     0.142 C 
ATOM     13  H4  UNL     1      -0.663  11.974   8.396  1.00  0.00     0.162 HD
HETATM   14  C6  UNL     1      -2.919  13.778   6.779  1.00  0.00     0.142 C 
HETATM   15  N5  UNL     1      -2.916  12.464   6.168  1.00  0.00    -0.360 N 
ATOM     16  H5  UNL     1      -3.403  12.190   5.315  1.00  0.00     0.162 HD
ENDBRANCH   8  10
ENDBRANCH   6   8
BRANCH   7  17
HETATM   17  O1  UNL     1      -3.164   7.445   6.649  1.00  0.00    -0.268 OA
ATOM     18  H1  UNL     1      -2.587   7.678   5.931  1.00  0.00     0.246 HD
ENDBRANCH   7  17
TORSDOF 3
ENDMDL
MODEL 3
REMARK VINA RESULT: -5.814824839      1.709      1.975
REMARK  3 active torsions:
REMARK  status: ('A' for Active; 'I' for Inactive)
REMARK    1  A    between atoms: C3_6  and  N3_7 
REMARK    2  A    between atoms: N3_7  and  C4_9 
REMARK    3  A    between atoms: N6_16  and  O1_17 
ROOT
HETATM    1  N1  UNL     1      -5.100   6.613  10.199  1.00  0.00    -0.078 NA
HETATM    2  C1  UNL     1      -4.490   7.220   9.065  1.00  0.00     0.178 A 
HETATM    3  C2  UNL     1      -4.706   6.882   7.754  1.00  0.00     0.154 A 
HETATM    4  N2  UNL     1      -3.926   7.709   7.014  1.00  0.00    -0.196 N 
ATOM      5  H2  UNL     1      -3.868   7.702   5.995  1.00  0.00     0.183 HD
HETATM    6  C3  UNL     1      -3.243   8.537   7.815  1.00  0.00     0.712 A 
HETATM    7  N6  UNL     1      -3.598   8.228   9.072  1.00  0.00    -0.037 N 
ENDROOT
BRANCH   6   8
HETATM    8  N3  UNL     1      -2.322   9.552   7.477  1.00  0.00    -0.159 N 
ATOM      9  H3  UNL     1      -1.413   9.290   7.098  1.00  0.00     0.187 HD
BRANCH   8  10
HETATM   10  C4  UNL     1      -2.631  10.939   7.654  1.00  0.00     0.190 C 
HETATM   11  N4  UNL     1      -2.889  11.722   6.660  1.00  0.00    -0.360 N 
HETATM   12  C5  UNL     1      -3.168  13.071   7.128  1.00  0.00     0.142 C 
ATOM     13  H4  UNL     1      -2.897  11.434   5.682  1.00  0.00     0.162 HD
HETATM   14  C6  UNL     1      -2.588  13.063   8.547  1.00  0.00     0.142 C 
HETATM   15  N5  UNL     1      -2.705  11.656   8.874  1.00  0.00    -0.360 N 
ATOM     16  H5  UNL     1      -2.819  11.257   9.805  1.00  0.00     0.162 HD
ENDBRANCH   8  10
ENDBRANCH   6   8
BRANCH   7  17
HETATM   17  O1  UNL     1      -3.142   8.825  10.246  1.00  0.00    -0.268 OA
ATOM     18  H1  UNL     1      -2.446   9.472  10.258  1.00  0.00     0.246 HD
ENDBRANCH   7  17
TORSDOF 3
ENDMDL
MODEL 4
REMARK VINA RESULT: -5.537805374      2.408      6.287
REMARK  3 active torsions:
REMARK  status: ('A' for Active; 'I' for Inactive)
REMARK    1  A    between atoms: C3_6  and  N3_7 
REMARK    2  A    between atoms: N3_7  and  C4_9 
REMARK    3  A    between atoms: N6_16  and  O1_17 
ROOT
HETATM    1  N1  UNL     1      -2.363  10.355   7.364  1.00  0.00    -0.078 NA
HETATM    2  C1  UNL     1      -3.212   9.484   8.105  1.00  0.00     0.178 A 
HETATM    3  C2  UNL     1      -3.826   9.776   9.295  1.00  0.00     0.154 A 
HETATM    4  N2  UNL     1      -4.531   8.670   9.641  1.00  0.00    -0.196 N 
ATOM      5  H2  UNL     1      -5.099   8.578  10.483  1.00  0.00     0.183 HD
HETATM    6  C3  UNL     1      -4.373   7.716   8.714  1.00  0.00     0.712 A 
HETATM    7  N6  UNL     1      -3.562   8.227   7.777  1.00  0.00    -0.037 N 
ENDROOT
BRANCH   6   8
HETATM    8  N3  UNL     1      -4.919   6.415   8.668  1.00  0.00    -0.159 N 
ATOM      9  H3  UNL     1      -4.463   5.706   8.095  1.00  0.00     0.187 HD
BRANCH   8  10
HETATM   10  C4  UNL     1      -6.097   6.065   9.405  1.00  0.00     0.190 C 
HETATM   11  N4  UNL     1      -6.084   5.191  10.355  1.00  0.00    -0.360 N 
HETATM   12  C5  UNL     1      -7.412   5.034  10.927  1.00  0.00     0.142 C 
ATOM     13  H4  UNL     1      -5.256   4.681  10.662  1.00  0.00     0.162 HD
HETATM   14  C6  UNL     1      -8.318   5.641   9.848  1.00  0.00     0.142 C 
HETATM   15  N5  UNL     1      -7.405   6.583   9.234  1.00  0.00    -0.360 N 
ATOM     16  H5  UNL     1      -7.655   7.454   8.767  1.00  0.00     0.162 HD
ENDBRANCH   8  10
ENDBRANCH   6   8
BRANCH   7  17
HETATM   17  O1  UNL     1      -3.114   7.597   6.617  1.00  0.00    -0.268 OA
ATOM     18  H1  UNL     1      -2.838   6.687   6.598  1.00  0.00     0.246 HD
ENDBRANCH   7  17
TORSDOF 3
ENDMDL
MODEL 5
REMARK VINA RESULT: -5.269099163      3.572      7.453
REMARK  3 active torsions:
REMARK  status: ('A' for Active; 'I' for Inactive)
REMARK    1  A    between atoms: C3_6  and  N3_7 
REMARK    2  A    between atoms: N3_7  and  C4_9 
REMARK    3  A    between atoms: N6_16  and  O1_17 
ROOT
HETATM    1  N1  UNL     1      -2.730   8.716   7.763  1.00  0.00    -0.078 NA
HETATM    2  C1  UNL     1      -3.787   7.832   8.122  1.00  0.00     0.178 A 
HETATM    3  C2  UNL     1      -4.470   7.002   7.272  1.00  0.00     0.154 A 
HETATM    4  N2  UNL     1      -5.383   6.347   8.031  1.00  0.00    -0.196 N 
ATOM      5  H2  UNL     1      -6.045   5.654   7.681  1.00  0.00     0.183 HD
HETATM    6  C3  UNL     1      -5.288   6.740   9.307  1.00  0.00     0.712 A 
HETATM    7  N6  UNL     1      -4.305   7.652   9.351  1.00  0.00    -0.037 N 
ENDROOT
BRANCH   6   8
HETATM    8  N3  UNL     1      -6.035   6.323  10.430  1.00  0.00    -0.159 N 
ATOM      9  H3  UNL     1      -5.944   6.839  11.305  1.00  0.00     0.187 HD
BRANCH   8  10
HETATM   10  C4  UNL     1      -6.917   5.196  10.373  1.00  0.00     0.190 C 
HETATM   11  N4  UNL     1      -6.534   4.002  10.682  1.00  0.00    -0.360 N 
HETATM   12  C5  UNL     1      -7.630   3.057  10.535  1.00  0.00     0.142 C 
ATOM     13  H4  UNL     1      -5.592   3.756  10.987  1.00  0.00     0.162 HD
HETATM   14  C6  UNL     1      -8.619   3.823   9.648  1.00  0.00     0.142 C 
HETATM   15  N5  UNL     1      -8.281   5.189   9.992  1.00  0.00    -0.360 N 
ATOM     16  H5  UNL     1      -8.907   5.994   9.964  1.00  0.00     0.162 HD
ENDBRANCH   8  10
ENDBRANCH   6   8
BRANCH   7  17
HETATM   17  O1  UNL     1      -3.847   8.342  10.473  1.00  0.00    -0.268 OA
ATOM     18  H1  UNL     1      -3.877   7.977  11.350  1.00  0.00     0.246 HD
ENDBRANCH   7  17
TORSDOF 3
ENDMDL
