MODEL 1
REMARK VINA RESULT: -5.716291602      0.000      0.000
REMARK  9 active torsions:
REMARK  status: ('A' for Active; 'I' for Inactive)
REMARK    1  A    between atoms: C2_2  and  C3_3 
REMARK    2  A    between atoms: C4_6  and  C5_7 
REMARK    3  A    between atoms: C5_7  and  C6_8 
REMARK    4  A    between atoms: C13_16  and  C14_17 
REMARK    5  A    between atoms: C15_18  and  C16_19 
REMARK    6  A    between atoms: C16_19  and  C17_20 
REMARK    7  A    between atoms: C16_19  and  N4_23 
REMARK    8  A    between atoms: N4_23  and  C18_24 
REMARK    9  A    between atoms: N4_23  and  C21_27 
ROOT
HETATM    1  C6  UNL     1      90.977  96.382 -44.632  1.00  0.00    -0.019 A 
HETATM    2  C7  UNL     1      91.184  95.108 -45.095  1.00  0.00     0.037 A 
HETATM    3  C8  UNL     1      91.549  94.085 -44.246  1.00  0.00     0.008 A 
HETATM    4  C9  UNL     1      91.772  92.696 -44.724  1.00  0.00     0.068 C 
HETATM    5  N2  UNL     1      91.689  94.392 -42.964  1.00  0.00    -0.358 N 
HETATM    6  C10 UNL     1      92.082  93.313 -42.061  1.00  0.00     0.156 C 
HETATM    7  C11 UNL     1      91.490  95.655 -42.463  1.00  0.00     0.018 A 
HETATM    8  C12 UNL     1      91.669  95.863 -41.011  1.00  0.00     0.069 C 
HETATM    9  C13 UNL     1      91.127  96.706 -43.260  1.00  0.00    -0.003 A 
ENDROOT
BRANCH   9  10
HETATM   10  C14 UNL     1      90.870  98.054 -42.915  1.00  0.00     0.017 C 
HETATM   11  C15 UNL     1      91.632  99.060 -42.713  1.00  0.00     0.036 C 
BRANCH  11  12
HETATM   12  C16 UNL     1      91.098 100.446 -42.338  1.00  0.00     0.100 C 
BRANCH  12  13
HETATM   13  C17 UNL     1      91.916 101.048 -41.299  1.00  0.00     0.281 C 
HETATM   14  N3  UNL     1      93.111 101.805 -41.644  1.00  0.00    -0.056 NA
HETATM   15  O1  UNL     1      91.723 101.002 -40.064  1.00  0.00    -0.269 OA
ENDBRANCH  12  13
BRANCH  12  16
HETATM   16  N4  UNL     1      90.504 101.137 -43.363  1.00  0.00    -0.347 N 
BRANCH  16  17
HETATM   17  C18 UNL     1      89.152 101.554 -43.078  1.00  0.00     0.082 C 
HETATM   18  C19 UNL     1      88.306 100.502 -42.417  1.00  0.00     0.032 C 
HETATM   19  C20 UNL     1      89.144 102.771 -42.211  1.00  0.00     0.032 C 
ENDBRANCH  16  17
BRANCH  16  20
HETATM   20  C21 UNL     1      90.910 101.264 -44.671  1.00  0.00    -0.018 C 
HETATM   21  C22 UNL     1      91.874 102.380 -45.021  1.00  0.00     0.063 C 
HETATM   22  C23 UNL     1      89.934 101.116 -45.803  1.00  0.00     0.063 C 
ENDBRANCH  16  20
ENDBRANCH  12  16
ENDBRANCH  11  12
ENDBRANCH   9  10
BRANCH   1  23
HETATM   23  C5  UNL     1      90.595  97.398 -45.595  1.00  0.00     0.061 C 
BRANCH  23  24
HETATM   24  C4  UNL     1      89.393  97.429 -46.094  1.00  0.00     0.109 A 
HETATM   25  N1  UNL     1      88.277  97.693 -45.395  1.00  0.00    -0.338 N 
HETATM   26  C3  UNL     1      87.194  97.636 -46.213  1.00  0.00     0.098 A 
ATOM     27  H1  UNL     1      88.248  97.905 -44.398  1.00  0.00     0.167 HD
HETATM   28  C24 UNL     1      87.661  97.325 -47.465  1.00  0.00     0.273 A 
HETATM   29  N5  UNL     1      88.982  97.207 -47.366  1.00  0.00    -0.308 N 
HETATM   30  O2  UNL     1      86.985  97.178 -48.506  1.00  0.00    -0.266 OA
ATOM     31  H5  UNL     1      89.603  96.980 -48.143  1.00  0.00     0.170 HD
BRANCH  26  32
HETATM   32  C2  UNL     1      85.968  97.844 -45.828  1.00  0.00     0.004 C 
HETATM   33  C1  UNL     1      85.543  97.701 -44.426  1.00  0.00     0.038 C 
ENDBRANCH  26  32
ENDBRANCH  23  24
ENDBRANCH   1  23
TORSDOF 9
ENDMDL
MODEL 2
REMARK VINA RESULT: -5.576184859      0.782      1.562
REMARK  9 active torsions:
REMARK  status: ('A' for Active; 'I' for Inactive)
REMARK    1  A    between atoms: C2_2  and  C3_3 
REMARK    2  A    between atoms: C4_6  and  C5_7 
REMARK    3  A    between atoms: C5_7  and  C6_8 
REMARK    4  A    between atoms: C13_16  and  C14_17 
REMARK    5  A    between atoms: C15_18  and  C16_19 
REMARK    6  A    between atoms: C16_19  and  C17_20 
REMARK    7  A    between atoms: C16_19  and  N4_23 
REMARK    8  A    between atoms: N4_23  and  C18_24 
REMARK    9  A    between atoms: N4_23  and  C21_27 
ROOT
HETATM    1  C6  UNL     1      90.903  96.362 -44.618  1.00  0.00    -0.019 A 
HETATM    2  C7  UNL     1      91.121  95.084 -45.067  1.00  0.00     0.037 A 
HETATM    3  C8  UNL     1      91.529  94.082 -44.213  1.00  0.00     0.008 A 
HETATM    4  C9  UNL     1      91.764  92.691 -44.676  1.00  0.00     0.068 C 
HETATM    5  N2  UNL     1      91.701  94.412 -42.940  1.00  0.00    -0.358 N 
HETATM    6  C10 UNL     1      92.140  93.355 -42.033  1.00  0.00     0.156 C 
HETATM    7  C11 UNL     1      91.493  95.679 -42.454  1.00  0.00     0.018 A 
HETATM    8  C12 UNL     1      91.710  95.914 -41.011  1.00  0.00     0.069 C 
HETATM    9  C13 UNL     1      91.088  96.711 -43.256  1.00  0.00    -0.003 A 
ENDROOT
BRANCH   9  10
HETATM   10  C14 UNL     1      90.815  98.059 -42.924  1.00  0.00     0.017 C 
HETATM   11  C15 UNL     1      91.566  99.077 -42.736  1.00  0.00     0.036 C 
BRANCH  11  12
HETATM   12  C16 UNL     1      91.016 100.460 -42.373  1.00  0.00     0.100 C 
BRANCH  12  13
HETATM   13  C17 UNL     1      91.818 101.073 -41.329  1.00  0.00     0.281 C 
HETATM   14  N3  UNL     1      93.013 101.834 -41.663  1.00  0.00    -0.056 NA
HETATM   15  O1  UNL     1      91.609 101.035 -40.096  1.00  0.00    -0.269 OA
ENDBRANCH  12  13
BRANCH  12  16
HETATM   16  N4  UNL     1      90.428 101.141 -43.409  1.00  0.00    -0.347 N 
BRANCH  16  17
HETATM   17  C18 UNL     1      89.071 101.551 -43.139  1.00  0.00     0.082 C 
HETATM   18  C19 UNL     1      88.243 100.520 -42.426  1.00  0.00     0.032 C 
HETATM   19  C20 UNL     1      89.047 102.809 -42.332  1.00  0.00     0.032 C 
ENDBRANCH  16  17
BRANCH  16  20
HETATM   20  C21 UNL     1      90.847 101.263 -44.713  1.00  0.00    -0.018 C 
HETATM   21  C22 UNL     1      91.787 102.398 -45.065  1.00  0.00     0.063 C 
HETATM   22  C23 UNL     1      89.888 101.078 -45.854  1.00  0.00     0.063 C 
ENDBRANCH  16  20
ENDBRANCH  12  16
ENDBRANCH  11  12
ENDBRANCH   9  10
BRANCH   1  23
HETATM   23  C5  UNL     1      90.475  97.356 -45.584  1.00  0.00     0.061 C 
BRANCH  23  24
HETATM   24  C4  UNL     1      89.349  97.224 -46.225  1.00  0.00     0.109 A 
HETATM   25  N1  UNL     1      89.231  96.797 -47.492  1.00  0.00    -0.338 N 
HETATM   26  C3  UNL     1      87.922  96.785 -47.857  1.00  0.00     0.098 A 
ATOM     27  H1  UNL     1      90.009  96.522 -48.092  1.00  0.00     0.167 HD
HETATM   28  C24 UNL     1      87.206  97.221 -46.772  1.00  0.00     0.273 A 
HETATM   29  N5  UNL     1      88.085  97.478 -45.807  1.00  0.00    -0.308 N 
HETATM   30  O2  UNL     1      85.966  97.358 -46.692  1.00  0.00    -0.266 OA
ATOM     31  H5  UNL     1      87.841  97.819 -44.877  1.00  0.00     0.170 HD
BRANCH  26  32
HETATM   32  C2  UNL     1      87.487  96.420 -49.028  1.00  0.00     0.004 C 
HETATM   33  C1  UNL     1      88.280  95.580 -49.942  1.00  0.00     0.038 C 
ENDBRANCH  26  32
ENDBRANCH  23  24
ENDBRANCH   1  23
TORSDOF 9
ENDMDL
MODEL 3
REMARK VINA RESULT: -5.513082657      2.129      4.883
REMARK  9 active torsions:
REMARK  status: ('A' for Active; 'I' for Inactive)
REMARK    1  A    between atoms: C2_2  and  C3_3 
REMARK    2  A    between atoms: C4_6  and  C5_7 
REMARK    3  A    between atoms: C5_7  and  C6_8 
REMARK    4  A    between atoms: C13_16  and  C14_17 
REMARK    5  A    between atoms: C15_18  and  C16_19 
REMARK    6  A    between atoms: C16_19  and  C17_20 
REMARK    7  A    between atoms: C16_19  and  N4_23 
REMARK    8  A    between atoms: N4_23  and  C18_24 
REMARK    9  A    between atoms: N4_23  and  C21_27 
ROOT
HETATM    1  C6  UNL     1      88.579  97.837 -45.388  1.00  0.00    -0.019 A 
HETATM    2  C7  UNL     1      87.546  97.055 -45.837  1.00  0.00     0.037 A 
HETATM    3  C8  UNL     1      86.242  97.305 -45.465  1.00  0.00     0.008 A 
HETATM    4  C9  UNL     1      85.106  96.476 -45.944  1.00  0.00     0.068 C 
HETATM    5  N2  UNL     1      86.036  98.335 -44.656  1.00  0.00    -0.358 N 
HETATM    6  C10 UNL     1      84.657  98.600 -44.255  1.00  0.00     0.156 C 
HETATM    7  C11 UNL     1      87.044  99.140 -44.186  1.00  0.00     0.018 A 
HETATM    8  C12 UNL     1      86.680 100.262 -43.297  1.00  0.00     0.069 C 
HETATM    9  C13 UNL     1      88.355  98.938 -44.522  1.00  0.00    -0.003 A 
ENDROOT
BRANCH   9  10
HETATM   10  C14 UNL     1      89.506  99.670 -44.146  1.00  0.00     0.017 C 
HETATM   11  C15 UNL     1      90.195  99.713 -43.070  1.00  0.00     0.036 C 
BRANCH  11  12
HETATM   12  C16 UNL     1      91.426 100.610 -42.906  1.00  0.00     0.100 C 
BRANCH  12  13
HETATM   13  C17 UNL     1      92.288 100.518 -44.072  1.00  0.00     0.281 C 
HETATM   14  N3  UNL     1      92.928  99.258 -44.421  1.00  0.00    -0.056 NA
HETATM   15  O1  UNL     1      92.576 101.435 -44.872  1.00  0.00    -0.269 OA
ENDBRANCH  12  13
BRANCH  12  16
HETATM   16  N4  UNL     1      91.218 101.754 -42.176  1.00  0.00    -0.347 N 
BRANCH  16  17
HETATM   17  C18 UNL     1      92.119 101.901 -41.058  1.00  0.00     0.082 C 
HETATM   18  C19 UNL     1      92.427 100.618 -40.337  1.00  0.00     0.032 C 
HETATM   19  C20 UNL     1      93.410 102.513 -41.495  1.00  0.00     0.032 C 
ENDBRANCH  16  17
BRANCH  16  20
HETATM   20  C21 UNL     1      90.150 102.618 -42.208  1.00  0.00    -0.018 C 
HETATM   21  C22 UNL     1      89.929 103.445 -43.460  1.00  0.00     0.063 C 
HETATM   22  C23 UNL     1      89.806 103.469 -41.019  1.00  0.00     0.063 C 
ENDBRANCH  16  20
ENDBRANCH  12  16
ENDBRANCH  11  12
ENDBRANCH   9  10
BRANCH   1  23
HETATM   23  C5  UNL     1      89.921  97.504 -45.827  1.00  0.00     0.061 C 
BRANCH  23  24
HETATM   24  C4  UNL     1      90.392  96.299 -45.681  1.00  0.00     0.109 A 
HETATM   25  N1  UNL     1      90.916  95.811 -44.545  1.00  0.00    -0.338 N 
HETATM   26  C3  UNL     1      91.321  94.529 -44.736  1.00  0.00     0.098 A 
ATOM     27  H1  UNL     1      90.997  96.328 -43.669  1.00  0.00     0.167 HD
HETATM   28  C24 UNL     1      91.036  94.214 -46.039  1.00  0.00     0.273 A 
HETATM   29  N5  UNL     1      90.479  95.292 -46.584  1.00  0.00    -0.308 N 
HETATM   30  O2  UNL     1      91.253  93.127 -46.617  1.00  0.00    -0.266 OA
ATOM     31  H5  UNL     1      90.160  95.353 -47.551  1.00  0.00     0.170 HD
BRANCH  26  32
HETATM   32  C2  UNL     1      91.872  93.786 -43.819  1.00  0.00     0.004 C 
HETATM   33  C1  UNL     1      91.573  93.945 -42.386  1.00  0.00     0.038 C 
ENDBRANCH  26  32
ENDBRANCH  23  24
ENDBRANCH   1  23
TORSDOF 9
ENDMDL
MODEL 4
REMARK VINA RESULT: -5.481486342      2.204      4.828
REMARK  9 active torsions:
REMARK  status: ('A' for Active; 'I' for Inactive)
REMARK    1  A    between atoms: C2_2  and  C3_3 
REMARK    2  A    between atoms: C4_6  and  C5_7 
REMARK    3  A    between atoms: C5_7  and  C6_8 
REMARK    4  A    between atoms: C13_16  and  C14_17 
REMARK    5  A    between atoms: C15_18  and  C16_19 
REMARK    6  A    between atoms: C16_19  and  C17_20 
REMARK    7  A    between atoms: C16_19  and  N4_23 
REMARK    8  A    between atoms: N4_23  and  C18_24 
REMARK    9  A    between atoms: N4_23  and  C21_27 
ROOT
HETATM    1  C6  UNL     1      88.781  97.673 -45.394  1.00  0.00    -0.019 A 
HETATM    2  C7  UNL     1      87.678  96.975 -45.815  1.00  0.00     0.037 A 
HETATM    3  C8  UNL     1      86.411  97.304 -45.382  1.00  0.00     0.008 A 
HETATM    4  C9  UNL     1      85.202  96.567 -45.829  1.00  0.00     0.068 C 
HETATM    5  N2  UNL     1      86.311  98.325 -44.541  1.00  0.00    -0.358 N 
HETATM    6  C10 UNL     1      84.972  98.672 -44.075  1.00  0.00     0.156 C 
HETATM    7  C11 UNL     1      87.391  99.047 -44.098  1.00  0.00     0.018 A 
HETATM    8  C12 UNL     1      87.143 100.169 -43.169  1.00  0.00     0.069 C 
HETATM    9  C13 UNL     1      88.669  98.764 -44.495  1.00  0.00    -0.003 A 
ENDROOT
BRANCH   9  10
HETATM   10  C14 UNL     1      89.884  99.406 -44.153  1.00  0.00     0.017 C 
HETATM   11  C15 UNL     1      90.511  99.547 -43.048  1.00  0.00     0.036 C 
BRANCH  11  12
HETATM   12  C16 UNL     1      91.836 100.306 -42.935  1.00  0.00     0.100 C 
BRANCH  12  13
HETATM   13  C17 UNL     1      92.581 100.227 -44.180  1.00  0.00     0.281 C 
HETATM   14  N3  UNL     1      92.561 101.334 -45.126  1.00  0.00    -0.056 NA
HETATM   15  O1  UNL     1      93.285  99.274 -44.580  1.00  0.00    -0.269 OA
ENDBRANCH  12  13
BRANCH  12  16
HETATM   16  N4  UNL     1      91.811 101.401 -42.108  1.00  0.00    -0.347 N 
BRANCH  16  17
HETATM   17  C18 UNL     1      90.648 102.236 -42.285  1.00  0.00     0.082 C 
HETATM   18  C19 UNL     1      89.980 102.648 -41.003  1.00  0.00     0.032 C 
HETATM   19  C20 UNL     1      90.995 103.473 -43.049  1.00  0.00     0.032 C 
ENDBRANCH  16  17
BRANCH  16  20
HETATM   20  C21 UNL     1      92.823 101.930 -41.343  1.00  0.00    -0.018 C 
HETATM   21  C22 UNL     1      94.097 102.370 -42.036  1.00  0.00     0.063 C 
HETATM   22  C23 UNL     1      93.197 101.317 -40.023  1.00  0.00     0.063 C 
ENDBRANCH  16  20
ENDBRANCH  12  16
ENDBRANCH  11  12
ENDBRANCH   9  10
BRANCH   1  23
HETATM   23  C5  UNL     1      90.077  97.260 -45.899  1.00  0.00     0.061 C 
BRANCH  23  24
HETATM   24  C4  UNL     1      90.517  96.050 -45.702  1.00  0.00     0.109 A 
HETATM   25  N1  UNL     1      90.977  95.582 -44.531  1.00  0.00    -0.338 N 
HETATM   26  C3  UNL     1      91.365  94.287 -44.672  1.00  0.00     0.098 A 
ATOM     27  H1  UNL     1      91.028  96.118 -43.665  1.00  0.00     0.167 HD
HETATM   28  C24 UNL     1      91.134  93.946 -45.979  1.00  0.00     0.273 A 
HETATM   29  N5  UNL     1      90.625  95.021 -46.575  1.00  0.00    -0.308 N 
HETATM   30  O2  UNL     1      91.356  92.841 -46.520  1.00  0.00    -0.266 OA
ATOM     31  H5  UNL     1      90.353  95.064 -47.557  1.00  0.00     0.170 HD
BRANCH  26  32
HETATM   32  C2  UNL     1      91.857  93.557 -43.712  1.00  0.00     0.004 C 
HETATM   33  C1  UNL     1      91.595  93.836 -42.291  1.00  0.00     0.038 C 
ENDBRANCH  26  32
ENDBRANCH  23  24
ENDBRANCH   1  23
TORSDOF 9
ENDMDL
MODEL 5
REMARK VINA RESULT: -5.422592939     10.603     13.236
REMARK  9 active torsions:
REMARK  status: ('A' for Active; 'I' for Inactive)
REMARK    1  A    between atoms: C2_2  and  C3_3 
REMARK    2  A    between atoms: C4_6  and  C5_7 
REMARK    3  A    between atoms: C5_7  and  C6_8 
REMARK    4  A    between atoms: C13_16  and  C14_17 
REMARK    5  A    between atoms: C15_18  and  C16_19 
REMARK    6  A    between atoms: C16_19  and  C17_20 
REMARK    7  A    between atoms: C16_19  and  N4_23 
REMARK    8  A    between atoms: N4_23  and  C18_24 
REMARK    9  A    between atoms: N4_23  and  C21_27 
ROOT
HETATM    1  C6  UNL     1      84.829  90.320 -39.155  1.00  0.00    -0.019 A 
HETATM    2  C7  UNL     1      84.425  91.547 -38.693  1.00  0.00     0.037 A 
HETATM    3  C8  UNL     1      83.995  91.719 -37.394  1.00  0.00     0.008 A 
HETATM    4  C9  UNL     1      83.560  93.039 -36.870  1.00  0.00     0.068 C 
HETATM    5  N2  UNL     1      83.990  90.645 -36.616  1.00  0.00    -0.358 N 
HETATM    6  C10 UNL     1      83.530  90.823 -35.242  1.00  0.00     0.156 C 
HETATM    7  C11 UNL     1      84.387  89.402 -37.043  1.00  0.00     0.018 A 
HETATM    8  C12 UNL     1      84.344  88.288 -36.073  1.00  0.00     0.069 C 
HETATM    9  C13 UNL     1      84.823  89.174 -38.319  1.00  0.00    -0.003 A 
ENDROOT
BRANCH   9  10
HETATM   10  C14 UNL     1      85.277  87.974 -38.918  1.00  0.00     0.017 C 
HETATM   11  C15 UNL     1      85.941  86.978 -38.471  1.00  0.00     0.036 C 
BRANCH  11  12
HETATM   12  C16 UNL     1      86.319  85.774 -39.340  1.00  0.00     0.100 C 
BRANCH  12  13
HETATM   13  C17 UNL     1      85.130  85.136 -39.878  1.00  0.00     0.281 C 
HETATM   14  N3  UNL     1      84.703  83.833 -39.387  1.00  0.00    -0.056 NA
HETATM   15  O1  UNL     1      84.372  85.580 -40.767  1.00  0.00    -0.269 OA
ENDBRANCH  12  13
BRANCH  12  16
HETATM   16  N4  UNL     1      87.513  85.890 -40.005  1.00  0.00    -0.347 N 
BRANCH  16  17
HETATM   17  C18 UNL     1      88.651  86.058 -39.133  1.00  0.00     0.082 C 
HETATM   18  C19 UNL     1      88.966  84.856 -38.287  1.00  0.00     0.032 C 
HETATM   19  C20 UNL     1      89.873  86.411 -39.918  1.00  0.00     0.032 C 
ENDBRANCH  16  17
BRANCH  16  20
HETATM   20  C21 UNL     1      87.740  86.114 -41.343  1.00  0.00    -0.018 C 
HETATM   21  C22 UNL     1      87.240  87.409 -41.951  1.00  0.00     0.063 C 
HETATM   22  C23 UNL     1      87.553  85.019 -42.354  1.00  0.00     0.063 C 
ENDBRANCH  16  20
ENDBRANCH  12  16
ENDBRANCH  11  12
ENDBRANCH   9  10
BRANCH   1  23
HETATM   23  C5  UNL     1      85.266  90.227 -40.535  1.00  0.00     0.061 C 
BRANCH  23  24
HETATM   24  C4  UNL     1      84.438  89.875 -41.477  1.00  0.00     0.109 A 
HETATM   25  N1  UNL     1      83.842  88.676 -41.567  1.00  0.00    -0.338 N 
HETATM   26  C3  UNL     1      83.049  88.635 -42.669  1.00  0.00     0.098 A 
ATOM     27  H1  UNL     1      83.966  87.909 -40.906  1.00  0.00     0.167 HD
HETATM   28  C24 UNL     1      83.160  89.857 -43.281  1.00  0.00     0.273 A 
HETATM   29  N5  UNL     1      83.999  90.582 -42.546  1.00  0.00    -0.308 N 
HETATM   30  O2  UNL     1      82.590  90.230 -44.330  1.00  0.00    -0.266 OA
ATOM     31  H5  UNL     1      84.274  91.541 -42.758  1.00  0.00     0.170 HD
BRANCH  26  32
HETATM   32  C2  UNL     1      82.340  87.604 -43.030  1.00  0.00     0.004 C 
HETATM   33  C1  UNL     1      82.833  86.601 -43.989  1.00  0.00     0.038 C 
ENDBRANCH  26  32
ENDBRANCH  23  24
ENDBRANCH   1  23
TORSDOF 9
ENDMDL
