MODEL 1
REMARK VINA RESULT: -6.725321190      0.000      0.000
REMARK  11 active torsions:
REMARK  status: ('A' for Active; 'I' for Inactive)
REMARK    1  A    between atoms: C2_2  and  C3_3 
REMARK       I    between atoms: C3_3  and  N1_5 
REMARK    2  A    between atoms: N1_5  and  C4_7 
REMARK    3  A    between atoms: C4_7  and  C5_8 
REMARK    4  A    between atoms: C10_13  and  C15_23 
REMARK    5  A    between atoms: C12_15  and  C13_16 
REMARK       I    between atoms: C13_16  and  N2_18 
REMARK    6  A    between atoms: C15_23  and  C16_24 
REMARK    7  A    between atoms: C16_24  and  C17_25 
REMARK    8  A    between atoms: C18_26  and  C19_27 
REMARK    9  A    between atoms: C19_27  and  C20_28 
REMARK   10  A    between atoms: C20_28  and  C21_29 
REMARK   11  A    between atoms: C21_29  and  C22_30 
ROOT
HETATM    1  C5  UNL     1      89.964 100.318 -42.898  1.00  0.00     0.009 C 
HETATM    2  C6  UNL     1      90.151 100.862 -44.244  1.00  0.00     0.021 C 
HETATM    3  C7  UNL     1      91.465 100.344 -44.806  1.00  0.00    -0.003 C 
HETATM    4  C8  UNL     1      92.107  99.525 -43.735  1.00  0.00     0.001 C 
HETATM    5  C9  UNL     1      90.970  99.140 -42.840  1.00  0.00     0.010 C 
HETATM    6  C10 UNL     1      90.281  97.994 -43.499  1.00  0.00     0.002 C 
HETATM    7  C11 UNL     1      88.843  98.386 -43.697  1.00  0.00     0.021 C 
HETATM    8  C12 UNL     1      88.657  99.531 -42.754  1.00  0.00     0.092 C 
HETATM    9  C15 UNL     1      90.929  97.806 -44.829  1.00  0.00    -0.017 A 
HETATM   10  C23 UNL     1      91.306  99.064 -45.610  1.00  0.00     0.005 A 
HETATM   11  C24 UNL     1      92.254  98.401 -44.722  1.00  0.00     0.006 A 
ENDROOT
BRANCH   9  12
HETATM   12  C16 UNL     1      90.573  96.645 -45.678  1.00  0.00     0.104 C 
BRANCH  12  13
HETATM   13  C17 UNL     1      91.065  95.421 -45.053  1.00  0.00    -0.106 C 
HETATM   14  C18 UNL     1      91.479  94.421 -44.539  1.00  0.00    -0.107 C 
BRANCH  14  15
HETATM   15  C19 UNL     1      91.987  93.199 -43.911  1.00  0.00     0.094 C 
BRANCH  15  16
HETATM   16  C20 UNL     1      91.437  93.153 -42.506  1.00  0.00     0.019 C 
BRANCH  16  17
HETATM   17  C21 UNL     1      92.333  93.950 -41.608  1.00  0.00     0.070 C 
BRANCH  17  18
HETATM   18  C22 UNL     1      91.618  95.152 -41.098  1.00  0.00     0.231 C 
HETATM   19  O3  UNL     1      92.251  96.089 -40.698  1.00  0.00    -0.307 OA
ENDBRANCH  17  18
ENDBRANCH  16  17
ENDBRANCH  15  16
ENDBRANCH  14  15
ENDBRANCH  12  13
ENDBRANCH   9  12
BRANCH   1  20
HETATM   20  C4  UNL     1      90.095 101.162 -41.707  1.00  0.00     0.074 C 
BRANCH  20  21
HETATM   21  N1  UNL     1      91.163 101.080 -40.804  1.00  0.00    -0.340 N 
HETATM   22  C3  UNL     1      92.428 101.685 -40.792  1.00  0.00     0.220 C 
HETATM   23  O1  UNL     1      92.828 102.476 -41.656  1.00  0.00    -0.273 OA
ATOM     24  H1  UNL     1      90.989 100.467 -40.008  1.00  0.00     0.167 HD
BRANCH  22  25
HETATM   25  C2  UNL     1      93.411 101.398 -39.682  1.00  0.00     0.098 C 
HETATM   26  C1  UNL     1      93.404 102.552 -38.731  1.00  0.00     0.014 C 
ENDBRANCH  22  25
ENDBRANCH  20  21
ENDBRANCH   1  20
BRANCH   8  27
HETATM   27  C13 UNL     1      87.454 100.321 -42.948  1.00  0.00     0.229 C 
HETATM   28  O2  UNL     1      86.526  99.818 -43.677  1.00  0.00    -0.273 OA
HETATM   29  N2  UNL     1      87.167 101.598 -42.426  1.00  0.00    -0.303 N 
HETATM   30  C14 UNL     1      86.703 102.580 -43.113  1.00  0.00     0.203 C 
ATOM     31  H2  UNL     1      87.341 101.754 -41.434  1.00  0.00     0.171 HD
HETATM   32  N3  UNL     1      86.464 103.808 -42.447  1.00  0.00    -0.066 NA
HETATM   33  N4  UNL     1      86.415 102.512 -44.498  1.00  0.00    -0.066 NA
ENDBRANCH   8  27
TORSDOF 11
ENDMDL
MODEL 2
REMARK VINA RESULT: -6.470222176      1.135      1.426
REMARK  11 active torsions:
REMARK  status: ('A' for Active; 'I' for Inactive)
REMARK    1  A    between atoms: C2_2  and  C3_3 
REMARK       I    between atoms: C3_3  and  N1_5 
REMARK    2  A    between atoms: N1_5  and  C4_7 
REMARK    3  A    between atoms: C4_7  and  C5_8 
REMARK    4  A    between atoms: C10_13  and  C15_23 
REMARK    5  A    between atoms: C12_15  and  C13_16 
REMARK       I    between atoms: C13_16  and  N2_18 
REMARK    6  A    between atoms: C15_23  and  C16_24 
REMARK    7  A    between atoms: C16_24  and  C17_25 
REMARK    8  A    between atoms: C18_26  and  C19_27 
REMARK    9  A    between atoms: C19_27  and  C20_28 
REMARK   10  A    between atoms: C20_28  and  C21_29 
REMARK   11  A    between atoms: C21_29  and  C22_30 
ROOT
HETATM    1  C5  UNL     1      89.660 100.328 -43.070  1.00  0.00     0.009 C 
HETATM    2  C6  UNL     1      90.055 100.859 -44.376  1.00  0.00     0.021 C 
HETATM    3  C7  UNL     1      91.431 100.319 -44.730  1.00  0.00    -0.003 C 
HETATM    4  C8  UNL     1      91.893  99.503 -43.569  1.00  0.00     0.001 C 
HETATM    5  C9  UNL     1      90.630  99.139 -42.853  1.00  0.00     0.010 C 
HETATM    6  C10 UNL     1      90.033  97.996 -43.600  1.00  0.00     0.002 C 
HETATM    7  C11 UNL     1      88.647  98.403 -44.016  1.00  0.00     0.021 C 
HETATM    8  C12 UNL     1      88.336  99.558 -43.120  1.00  0.00     0.092 C 
HETATM    9  C15 UNL     1      90.871  97.788 -44.816  1.00  0.00    -0.017 A 
HETATM   10  C23 UNL     1      91.378  99.035 -45.541  1.00  0.00     0.005 A 
HETATM   11  C24 UNL     1      92.173  98.368 -44.514  1.00  0.00     0.006 A 
ENDROOT
BRANCH   9  12
HETATM   12  C16 UNL     1      90.632  96.625 -45.701  1.00  0.00     0.104 C 
BRANCH  12  13
HETATM   13  C17 UNL     1      91.107  95.411 -45.042  1.00  0.00    -0.106 C 
HETATM   14  C18 UNL     1      91.501  94.413 -44.509  1.00  0.00    -0.107 C 
BRANCH  14  15
HETATM   15  C19 UNL     1      91.983  93.191 -43.862  1.00  0.00     0.094 C 
BRANCH  15  16
HETATM   16  C20 UNL     1      91.427  93.176 -42.458  1.00  0.00     0.019 C 
BRANCH  16  17
HETATM   17  C21 UNL     1      92.325  93.984 -41.573  1.00  0.00     0.070 C 
BRANCH  17  18
HETATM   18  C22 UNL     1      91.622  95.208 -41.100  1.00  0.00     0.231 C 
HETATM   19  O3  UNL     1      92.261  96.125 -40.666  1.00  0.00    -0.307 OA
ENDBRANCH  17  18
ENDBRANCH  16  17
ENDBRANCH  15  16
ENDBRANCH  14  15
ENDBRANCH  12  13
ENDBRANCH   9  12
BRANCH   1  20
HETATM   20  C4  UNL     1      89.621 101.182 -41.878  1.00  0.00     0.074 C 
BRANCH  20  21
HETATM   21  N1  UNL     1      90.627 101.210 -40.904  1.00  0.00    -0.340 N 
HETATM   22  C3  UNL     1      91.845 101.900 -40.835  1.00  0.00     0.220 C 
HETATM   23  O1  UNL     1      92.251 102.681 -41.705  1.00  0.00    -0.273 OA
ATOM     24  H1  UNL     1      90.439 100.618 -40.094  1.00  0.00     0.167 HD
BRANCH  22  25
HETATM   25  C2  UNL     1      92.766 101.727 -39.651  1.00  0.00     0.098 C 
HETATM   26  C1  UNL     1      94.169 101.990 -40.096  1.00  0.00     0.014 C 
ENDBRANCH  22  25
ENDBRANCH  20  21
ENDBRANCH   1  20
BRANCH   8  27
HETATM   27  C13 UNL     1      87.186 100.361 -43.497  1.00  0.00     0.229 C 
HETATM   28  O2  UNL     1      86.561 100.976 -42.561  1.00  0.00    -0.273 OA
HETATM   29  N2  UNL     1      86.656 100.556 -44.788  1.00  0.00    -0.303 N 
HETATM   30  C14 UNL     1      85.410 100.458 -45.089  1.00  0.00     0.203 C 
ATOM     31  H2  UNL     1      87.307 100.791 -45.537  1.00  0.00     0.171 HD
HETATM   32  N3  UNL     1      85.027 100.683 -46.434  1.00  0.00    -0.066 NA
HETATM   33  N4  UNL     1      84.393 100.138 -44.157  1.00  0.00    -0.066 NA
ENDBRANCH   8  27
TORSDOF 11
ENDMDL
MODEL 3
REMARK VINA RESULT: -6.450912203      1.404      1.540
REMARK  11 active torsions:
REMARK  status: ('A' for Active; 'I' for Inactive)
REMARK    1  A    between atoms: C2_2  and  C3_3 
REMARK       I    between atoms: C3_3  and  N1_5 
REMARK    2  A    between atoms: N1_5  and  C4_7 
REMARK    3  A    between atoms: C4_7  and  C5_8 
REMARK    4  A    between atoms: C10_13  and  C15_23 
REMARK    5  A    between atoms: C12_15  and  C13_16 
REMARK       I    between atoms: C13_16  and  N2_18 
REMARK    6  A    between atoms: C15_23  and  C16_24 
REMARK    7  A    between atoms: C16_24  and  C17_25 
REMARK    8  A    between atoms: C18_26  and  C19_27 
REMARK    9  A    between atoms: C19_27  and  C20_28 
REMARK   10  A    between atoms: C20_28  and  C21_29 
REMARK   11  A    between atoms: C21_29  and  C22_30 
ROOT
HETATM    1  C5  UNL     1      88.772 100.271 -43.640  1.00  0.00     0.009 C 
HETATM    2  C6  UNL     1      88.992 100.744 -45.008  1.00  0.00     0.021 C 
HETATM    3  C7  UNL     1      90.410 100.391 -45.428  1.00  0.00    -0.003 C 
HETATM    4  C8  UNL     1      91.070  99.754 -44.250  1.00  0.00     0.001 C 
HETATM    5  C9  UNL     1      89.929  99.264 -43.413  1.00  0.00     0.010 C 
HETATM    6  C10 UNL     1      89.471  97.986 -44.026  1.00  0.00     0.002 C 
HETATM    7  C11 UNL     1      88.013  98.142 -44.362  1.00  0.00     0.021 C 
HETATM    8  C12 UNL     1      87.585  99.308 -43.530  1.00  0.00     0.092 C 
HETATM    9  C15 UNL     1      90.249  97.806 -45.286  1.00  0.00    -0.017 A 
HETATM   10  C23 UNL     1      90.506  99.050 -46.136  1.00  0.00     0.005 A 
HETATM   11  C24 UNL     1      91.461  98.599 -45.129  1.00  0.00     0.006 A 
ENDROOT
BRANCH   9  12
HETATM   12  C16 UNL     1      90.138  96.549 -46.062  1.00  0.00     0.104 C 
BRANCH  12  13
HETATM   13  C17 UNL     1      90.823  95.477 -45.346  1.00  0.00    -0.106 C 
HETATM   14  C18 UNL     1      91.394  94.603 -44.759  1.00  0.00    -0.107 C 
BRANCH  14  15
HETATM   15  C19 UNL     1      92.095  93.535 -44.041  1.00  0.00     0.094 C 
BRANCH  15  16
HETATM   16  C20 UNL     1      91.371  93.321 -42.734  1.00  0.00     0.019 C 
BRANCH  16  17
HETATM   17  C21 UNL     1      92.195  93.897 -41.623  1.00  0.00     0.070 C 
BRANCH  17  18
HETATM   18  C22 UNL     1      91.586  95.164 -41.130  1.00  0.00     0.231 C 
HETATM   19  O3  UNL     1      92.295  96.023 -40.685  1.00  0.00    -0.307 OA
ENDBRANCH  17  18
ENDBRANCH  16  17
ENDBRANCH  15  16
ENDBRANCH  14  15
ENDBRANCH  12  13
ENDBRANCH   9  12
BRANCH   1  20
HETATM   20  C4  UNL     1      88.678 101.205 -42.514  1.00  0.00     0.074 C 
BRANCH  20  21
HETATM   21  N1  UNL     1      89.554 101.202 -41.420  1.00  0.00    -0.340 N 
HETATM   22  C3  UNL     1      90.593 102.067 -41.051  1.00  0.00     0.220 C 
HETATM   23  O1  UNL     1      90.919 103.076 -41.690  1.00  0.00    -0.273 OA
ATOM     24  H1  UNL     1      89.408 100.428 -40.773  1.00  0.00     0.167 HD
BRANCH  22  25
HETATM   25  C2  UNL     1      91.405 101.810 -39.804  1.00  0.00     0.098 C 
HETATM   26  C1  UNL     1      92.572 100.948 -40.165  1.00  0.00     0.014 C 
ENDBRANCH  22  25
ENDBRANCH  20  21
ENDBRANCH   1  20
BRANCH   8  27
HETATM   27  C13 UNL     1      86.301  99.893 -43.875  1.00  0.00     0.229 C 
HETATM   28  O2  UNL     1      86.112 100.227 -45.099  1.00  0.00    -0.273 OA
HETATM   29  N2  UNL     1      85.212 100.149 -43.019  1.00  0.00    -0.303 N 
HETATM   30  C14 UNL     1      84.561 101.257 -42.974  1.00  0.00     0.203 C 
ATOM     31  H2  UNL     1      84.918  99.402 -42.390  1.00  0.00     0.171 HD
HETATM   32  N3  UNL     1      83.486 101.365 -42.058  1.00  0.00    -0.066 NA
HETATM   33  N4  UNL     1      84.855 102.380 -43.785  1.00  0.00    -0.066 NA
ENDBRANCH   8  27
TORSDOF 11
ENDMDL
MODEL 4
REMARK VINA RESULT: -6.280521762     10.717     13.726
REMARK  11 active torsions:
REMARK  status: ('A' for Active; 'I' for Inactive)
REMARK    1  A    between atoms: C2_2  and  C3_3 
REMARK       I    between atoms: C3_3  and  N1_5 
REMARK    2  A    between atoms: N1_5  and  C4_7 
REMARK    3  A    between atoms: C4_7  and  C5_8 
REMARK    4  A    between atoms: C10_13  and  C15_23 
REMARK    5  A    between atoms: C12_15  and  C13_16 
REMARK       I    between atoms: C13_16  and  N2_18 
REMARK    6  A    between atoms: C15_23  and  C16_24 
REMARK    7  A    between atoms: C16_24  and  C17_25 
REMARK    8  A    between atoms: C18_26  and  C19_27 
REMARK    9  A    between atoms: C19_27  and  C20_28 
REMARK   10  A    between atoms: C20_28  and  C21_29 
REMARK   11  A    between atoms: C21_29  and  C22_30 
ROOT
HETATM    1  C5  UNL     1      86.473  87.778 -39.433  1.00  0.00     0.009 C 
HETATM    2  C6  UNL     1      85.222  88.208 -38.805  1.00  0.00     0.021 C 
HETATM    3  C7  UNL     1      84.769  89.507 -39.452  1.00  0.00    -0.003 C 
HETATM    4  C8  UNL     1      85.818  89.893 -40.441  1.00  0.00     0.001 C 
HETATM    5  C9  UNL     1      86.528  88.609 -40.740  1.00  0.00     0.010 C 
HETATM    6  C10 UNL     1      85.678  87.872 -41.717  1.00  0.00     0.002 C 
HETATM    7  C11 UNL     1      85.351  86.534 -41.112  1.00  0.00     0.021 C 
HETATM    8  C12 UNL     1      86.379  86.374 -40.039  1.00  0.00     0.092 C 
HETATM    9  C15 UNL     1      84.421  88.659 -41.879  1.00  0.00    -0.017 A 
HETATM   10  C23 UNL     1      83.824  89.293 -40.623  1.00  0.00     0.005 A 
HETATM   11  C24 UNL     1      84.745  90.024 -41.486  1.00  0.00     0.006 A 
ENDROOT
BRANCH   9  12
HETATM   12  C16 UNL     1      83.421  88.272 -42.900  1.00  0.00     0.104 C 
BRANCH  12  13
HETATM   13  C17 UNL     1      83.826  88.806 -44.198  1.00  0.00    -0.106 C 
HETATM   14  C18 UNL     1      84.153  89.252 -45.261  1.00  0.00    -0.107 C 
BRANCH  14  15
HETATM   15  C19 UNL     1      84.550  89.800 -46.560  1.00  0.00     0.094 C 
BRANCH  15  16
HETATM   16  C20 UNL     1      84.158  91.258 -46.572  1.00  0.00     0.019 C 
BRANCH  16  17
HETATM   17  C21 UNL     1      84.189  91.756 -47.985  1.00  0.00     0.070 C 
BRANCH  17  18
HETATM   18  C22 UNL     1      84.080  93.241 -48.013  1.00  0.00     0.231 C 
HETATM   19  O3  UNL     1      83.807  93.830 -47.004  1.00  0.00    -0.307 OA
ENDBRANCH  17  18
ENDBRANCH  16  17
ENDBRANCH  15  16
ENDBRANCH  14  15
ENDBRANCH  12  13
ENDBRANCH   9  12
BRANCH   1  20
HETATM   20  C4  UNL     1      87.752  87.858 -38.721  1.00  0.00     0.074 C 
BRANCH  20  21
HETATM   21  N1  UNL     1      89.002  87.831 -39.352  1.00  0.00    -0.340 N 
HETATM   22  C3  UNL     1      89.840  86.771 -39.725  1.00  0.00     0.220 C 
HETATM   23  O1  UNL     1      89.569  85.576 -39.549  1.00  0.00    -0.273 OA
ATOM     24  H1  UNL     1      89.371  88.753 -39.585  1.00  0.00     0.167 HD
BRANCH  22  25
HETATM   25  C2  UNL     1      91.170  87.034 -40.388  1.00  0.00     0.098 C 
HETATM   26  C1  UNL     1      91.092  88.341 -41.111  1.00  0.00     0.014 C 
ENDBRANCH  22  25
ENDBRANCH  20  21
ENDBRANCH   1  20
BRANCH   8  27
HETATM   27  C13 UNL     1      86.127  85.317 -39.074  1.00  0.00     0.229 C 
HETATM   28  O2  UNL     1      85.244  84.437 -39.378  1.00  0.00    -0.273 OA
HETATM   29  N2  UNL     1      86.740  85.129 -37.821  1.00  0.00    -0.303 N 
HETATM   30  C14 UNL     1      86.108  84.888 -36.726  1.00  0.00     0.203 C 
ATOM     31  H2  UNL     1      87.757  85.189 -37.777  1.00  0.00     0.171 HD
HETATM   32  N3  UNL     1      86.865  84.723 -35.540  1.00  0.00    -0.066 NA
HETATM   33  N4  UNL     1      84.700  84.779 -36.633  1.00  0.00    -0.066 NA
ENDBRANCH   8  27
TORSDOF 11
ENDMDL
MODEL 5
REMARK VINA RESULT: -6.227253599      1.442      1.661
REMARK  11 active torsions:
REMARK  status: ('A' for Active; 'I' for Inactive)
REMARK    1  A    between atoms: C2_2  and  C3_3 
REMARK       I    between atoms: C3_3  and  N1_5 
REMARK    2  A    between atoms: N1_5  and  C4_7 
REMARK    3  A    between atoms: C4_7  and  C5_8 
REMARK    4  A    between atoms: C10_13  and  C15_23 
REMARK    5  A    between atoms: C12_15  and  C13_16 
REMARK       I    between atoms: C13_16  and  N2_18 
REMARK    6  A    between atoms: C15_23  and  C16_24 
REMARK    7  A    between atoms: C16_24  and  C17_25 
REMARK    8  A    between atoms: C18_26  and  C19_27 
REMARK    9  A    between atoms: C19_27  and  C20_28 
REMARK   10  A    between atoms: C20_28  and  C21_29 
REMARK   11  A    between atoms: C21_29  and  C22_30 
ROOT
HETATM    1  C5  UNL     1      91.422 100.869 -43.456  1.00  0.00     0.009 C 
HETATM    2  C6  UNL     1      90.851 101.163 -44.772  1.00  0.00     0.021 C 
HETATM    3  C7  UNL     1      91.583 100.340 -45.820  1.00  0.00    -0.003 C 
HETATM    4  C8  UNL     1      92.664  99.591 -45.112  1.00  0.00     0.001 C 
HETATM    5  C9  UNL     1      92.210  99.554 -43.686  1.00  0.00     0.010 C 
HETATM    6  C10 UNL     1      91.198  98.463 -43.592  1.00  0.00     0.002 C 
HETATM    7  C11 UNL     1      89.927  99.070 -43.066  1.00  0.00     0.021 C 
HETATM    8  C12 UNL     1      90.378 100.358 -42.458  1.00  0.00     0.092 C 
HETATM    9  C15 UNL     1      90.969  97.964 -44.979  1.00  0.00    -0.017 A 
HETATM   10  C23 UNL     1      90.917  99.002 -46.099  1.00  0.00     0.005 A 
HETATM   11  C24 UNL     1      92.158  98.323 -45.740  1.00  0.00     0.006 A 
ENDROOT
BRANCH   9  12
HETATM   12  C16 UNL     1      90.124  96.770 -45.216  1.00  0.00     0.104 C 
BRANCH  12  13
HETATM   13  C17 UNL     1      90.887  95.568 -44.894  1.00  0.00    -0.106 C 
HETATM   14  C18 UNL     1      91.521  94.586 -44.630  1.00  0.00    -0.107 C 
BRANCH  14  15
HETATM   15  C19 UNL     1      92.300  93.388 -44.307  1.00  0.00     0.094 C 
BRANCH  15  16
HETATM   16  C20 UNL     1      91.768  92.843 -43.004  1.00  0.00     0.019 C 
BRANCH  16  17
HETATM   17  C21 UNL     1      92.758  93.133 -41.917  1.00  0.00     0.070 C 
BRANCH  17  18
HETATM   18  C22 UNL     1      92.286  94.268 -41.076  1.00  0.00     0.231 C 
HETATM   19  O3  UNL     1      91.114  94.393 -40.859  1.00  0.00    -0.307 OA
ENDBRANCH  17  18
ENDBRANCH  16  17
ENDBRANCH  15  16
ENDBRANCH  14  15
ENDBRANCH  12  13
ENDBRANCH   9  12
BRANCH   1  20
HETATM   20  C4  UNL     1      92.256 101.847 -42.749  1.00  0.00     0.074 C 
BRANCH  20  21
HETATM   21  N1  UNL     1      92.952 101.571 -41.565  1.00  0.00    -0.340 N 
HETATM   22  C3  UNL     1      92.858 102.112 -40.276  1.00  0.00     0.220 C 
HETATM   23  O1  UNL     1      92.053 102.995 -39.950  1.00  0.00    -0.273 OA
ATOM     24  H1  UNL     1      93.659 100.841 -41.659  1.00  0.00     0.167 HD
BRANCH  22  25
HETATM   25  C2  UNL     1      93.765 101.632 -39.168  1.00  0.00     0.098 C 
HETATM   26  C1  UNL     1      93.788 102.667 -38.090  1.00  0.00     0.014 C 
ENDBRANCH  22  25
ENDBRANCH  20  21
ENDBRANCH   1  20
BRANCH   8  27
HETATM   27  C13 UNL     1      89.328 101.312 -42.143  1.00  0.00     0.229 C 
HETATM   28  O2  UNL     1      88.163 101.090 -42.632  1.00  0.00    -0.273 OA
HETATM   29  N2  UNL     1      89.427 102.474 -41.354  1.00  0.00    -0.303 N 
HETATM   30  C14 UNL     1      88.975 103.629 -41.695  1.00  0.00     0.203 C 
ATOM     31  H2  UNL     1      89.889 102.395 -40.449  1.00  0.00     0.171 HD
HETATM   32  N3  UNL     1      89.150 104.707 -40.793  1.00  0.00    -0.066 NA
HETATM   33  N4  UNL     1      88.312 103.891 -42.918  1.00  0.00    -0.066 NA
ENDBRANCH   8  27
TORSDOF 11
ENDMDL
