MODEL 1
REMARK VINA RESULT: -7.110971677      0.000      0.000
REMARK  6 active torsions:
REMARK  status: ('A' for Active; 'I' for Inactive)
REMARK    1  A    between atoms: C2_2  and  N1_5 
REMARK    2  A    between atoms: N1_5  and  S1_7 
REMARK    3  A    between atoms: S1_7  and  C5_10 
REMARK    4  A    between atoms: C8_13  and  N2_14 
REMARK    5  A    between atoms: N2_14  and  S2_16 
REMARK    6  A    between atoms: S2_16  and  C9_19 
ROOT
HETATM    1  C5  UNL     1     -24.449  44.437  11.131  1.00  0.00     0.079 A 
HETATM    2  C6  UNL     1     -25.010  45.400  10.337  1.00  0.00     0.027 A 
HETATM    3  C7  UNL     1     -26.274  45.914  10.624  1.00  0.00     0.031 A 
HETATM    4  C8  UNL     1     -26.980  45.436  11.743  1.00  0.00     0.042 A 
HETATM    5  C15 UNL     1     -26.418  44.482  12.521  1.00  0.00     0.031 A 
HETATM    6  C16 UNL     1     -25.152  43.985  12.212  1.00  0.00     0.027 A 
ENDROOT
BRANCH   4   7
HETATM    7  N2  UNL     1     -28.237  45.998  12.024  1.00  0.00    -0.281 N 
ATOM      8  H2  UNL     1     -28.278  46.959  12.363  1.00  0.00     0.179 HD
BRANCH   7   9
HETATM    9  S2  UNL     1     -29.691  45.141  11.822  1.00  0.00     0.263 S 
HETATM   10  O3  UNL     1     -29.929  44.351  13.097  1.00  0.00    -0.200 OA
HETATM   11  O4  UNL     1     -30.839  46.156  11.755  1.00  0.00    -0.200 OA
BRANCH   9  12
HETATM   12  C9  UNL     1     -29.694  44.126  10.439  1.00  0.00     0.079 A 
HETATM   13  C10 UNL     1     -29.383  44.648   9.194  1.00  0.00     0.025 A 
HETATM   14  C11 UNL     1     -29.391  43.798   8.117  1.00  0.00     0.002 A 
HETATM   15  C12 UNL     1     -29.699  42.455   8.240  1.00  0.00     0.000 A 
HETATM   16  C13 UNL     1     -30.002  41.978   9.495  1.00  0.00     0.002 A 
HETATM   17  C14 UNL     1     -30.003  42.789  10.591  1.00  0.00     0.025 A 
ENDBRANCH   9  12
ENDBRANCH   7   9
ENDBRANCH   4   7
BRANCH   1  18
HETATM   18  S1  UNL     1     -22.882  43.794  10.784  1.00  0.00     0.259 S 
HETATM   19  O1  UNL     1     -22.525  42.887  11.920  1.00  0.00    -0.201 OA
HETATM   20  O2  UNL     1     -23.056  42.896   9.562  1.00  0.00    -0.201 OA
BRANCH  18  21
HETATM   21  N1  UNL     1     -21.799  44.998  10.440  1.00  0.00    -0.307 N 
ATOM     22  H1  UNL     1     -21.983  45.932  10.807  1.00  0.00     0.173 HD
BRANCH  21  23
HETATM   23  C2  UNL     1     -20.653  44.804   9.680  1.00  0.00     0.029 C 
HETATM   24  C1  UNL     1     -20.978  45.150   8.215  1.00  0.00     0.038 C 
HETATM   25  C3  UNL     1     -19.941  43.509   9.733  1.00  0.00     0.038 C 
HETATM   26  C4  UNL     1     -19.654  45.906  10.097  1.00  0.00     0.038 C 
ENDBRANCH  21  23
ENDBRANCH  18  21
ENDBRANCH   1  18
TORSDOF 6
ENDMDL
MODEL 2
REMARK VINA RESULT: -7.077994129      0.143      1.377
REMARK  6 active torsions:
REMARK  status: ('A' for Active; 'I' for Inactive)
REMARK    1  A    between atoms: C2_2  and  N1_5 
REMARK    2  A    between atoms: N1_5  and  S1_7 
REMARK    3  A    between atoms: S1_7  and  C5_10 
REMARK    4  A    between atoms: C8_13  and  N2_14 
REMARK    5  A    between atoms: N2_14  and  S2_16 
REMARK    6  A    between atoms: S2_16  and  C9_19 
ROOT
HETATM    1  C5  UNL     1     -24.478  44.417  11.252  1.00  0.00     0.079 A 
HETATM    2  C6  UNL     1     -25.164  43.986  12.354  1.00  0.00     0.027 A 
HETATM    3  C7  UNL     1     -26.416  44.516  12.668  1.00  0.00     0.031 A 
HETATM    4  C8  UNL     1     -26.977  45.506  11.841  1.00  0.00     0.042 A 
HETATM    5  C15 UNL     1     -26.289  45.928  10.754  1.00  0.00     0.031 A 
HETATM    6  C16 UNL     1     -25.039  45.380  10.463  1.00  0.00     0.027 A 
ENDROOT
BRANCH   4   7
HETATM    7  N2  UNL     1     -28.254  45.996  12.165  1.00  0.00    -0.281 N 
ATOM      8  H2  UNL     1     -28.335  46.939  12.544  1.00  0.00     0.179 HD
BRANCH   7   9
HETATM    9  S2  UNL     1     -29.669  45.079  11.949  1.00  0.00     0.263 S 
HETATM   10  O3  UNL     1     -29.842  44.220  13.190  1.00  0.00    -0.200 OA
HETATM   11  O4  UNL     1     -30.865  46.038  11.952  1.00  0.00    -0.200 OA
BRANCH   9  12
HETATM   12  C9  UNL     1     -29.651  44.130  10.521  1.00  0.00     0.079 A 
HETATM   13  C10 UNL     1     -29.838  42.759  10.595  1.00  0.00     0.025 A 
HETATM   14  C11 UNL     1     -29.822  42.040   9.426  1.00  0.00     0.002 A 
HETATM   15  C12 UNL     1     -29.628  42.639   8.195  1.00  0.00     0.000 A 
HETATM   16  C13 UNL     1     -29.447  44.004   8.166  1.00  0.00     0.002 A 
HETATM   17  C14 UNL     1     -29.456  44.754   9.304  1.00  0.00     0.025 A 
ENDBRANCH   9  12
ENDBRANCH   7   9
ENDBRANCH   4   7
BRANCH   1  18
HETATM   18  S1  UNL     1     -22.926  43.765  10.855  1.00  0.00     0.259 S 
HETATM   19  O1  UNL     1     -22.538  42.855  11.978  1.00  0.00    -0.201 OA
HETATM   20  O2  UNL     1     -23.144  42.869   9.638  1.00  0.00    -0.201 OA
BRANCH  18  21
HETATM   21  N1  UNL     1     -21.848  44.963  10.477  1.00  0.00    -0.307 N 
ATOM     22  H1  UNL     1     -22.024  45.901  10.836  1.00  0.00     0.173 HD
BRANCH  21  23
HETATM   23  C2  UNL     1     -20.717  44.759   9.696  1.00  0.00     0.029 C 
HETATM   24  C1  UNL     1     -21.061  45.119   8.239  1.00  0.00     0.038 C 
HETATM   25  C3  UNL     1     -20.022  43.454   9.730  1.00  0.00     0.038 C 
HETATM   26  C4  UNL     1     -19.697  45.844  10.105  1.00  0.00     0.038 C 
ENDBRANCH  21  23
ENDBRANCH  18  21
ENDBRANCH   1  18
TORSDOF 6
ENDMDL
MODEL 3
REMARK VINA RESULT: -6.884621204      2.392      3.505
REMARK  6 active torsions:
REMARK  status: ('A' for Active; 'I' for Inactive)
REMARK    1  A    between atoms: C2_2  and  N1_5 
REMARK    2  A    between atoms: N1_5  and  S1_7 
REMARK    3  A    between atoms: S1_7  and  C5_10 
REMARK    4  A    between atoms: C8_13  and  N2_14 
REMARK    5  A    between atoms: N2_14  and  S2_16 
REMARK    6  A    between atoms: S2_16  and  C9_19 
ROOT
HETATM    1  C5  UNL     1     -24.488  44.475  11.133  1.00  0.00     0.079 A 
HETATM    2  C6  UNL     1     -25.102  45.339  10.268  1.00  0.00     0.027 A 
HETATM    3  C7  UNL     1     -26.361  45.866  10.559  1.00  0.00     0.031 A 
HETATM    4  C8  UNL     1     -27.006  45.502  11.755  1.00  0.00     0.042 A 
HETATM    5  C15 UNL     1     -26.391  44.645  12.603  1.00  0.00     0.031 A 
HETATM    6  C16 UNL     1     -25.131  44.133  12.289  1.00  0.00     0.027 A 
ENDROOT
BRANCH   4   7
HETATM    7  N2  UNL     1     -28.257  46.075  12.035  1.00  0.00    -0.281 N 
ATOM      8  H2  UNL     1     -28.361  47.087  11.955  1.00  0.00     0.179 HD
BRANCH   7   9
HETATM    9  S2  UNL     1     -29.606  45.151  12.501  1.00  0.00     0.263 S 
HETATM   10  O3  UNL     1     -30.839  45.848  11.953  1.00  0.00    -0.200 OA
HETATM   11  O4  UNL     1     -29.541  43.807  11.767  1.00  0.00    -0.200 OA
BRANCH   9  12
HETATM   12  C9  UNL     1     -29.714  44.916  14.197  1.00  0.00     0.079 A 
HETATM   13  C10 UNL     1     -29.790  43.634  14.716  1.00  0.00     0.025 A 
HETATM   14  C11 UNL     1     -29.868  43.493  16.079  1.00  0.00     0.002 A 
HETATM   15  C12 UNL     1     -29.875  44.580  16.934  1.00  0.00     0.000 A 
HETATM   16  C13 UNL     1     -29.797  45.837  16.375  1.00  0.00     0.002 A 
HETATM   17  C14 UNL     1     -29.717  46.020  15.027  1.00  0.00     0.025 A 
ENDBRANCH   9  12
ENDBRANCH   7   9
ENDBRANCH   4   7
BRANCH   1  18
HETATM   18  S1  UNL     1     -22.928  43.818  10.782  1.00  0.00     0.259 S 
HETATM   19  O1  UNL     1     -22.582  42.895  11.909  1.00  0.00    -0.201 OA
HETATM   20  O2  UNL     1     -23.109  42.934   9.550  1.00  0.00    -0.201 OA
BRANCH  18  21
HETATM   21  N1  UNL     1     -21.831  45.013  10.452  1.00  0.00    -0.307 N 
ATOM     22  H1  UNL     1     -22.008  45.946  10.823  1.00  0.00     0.173 HD
BRANCH  21  23
HETATM   23  C2  UNL     1     -20.682  44.813   9.698  1.00  0.00     0.029 C 
HETATM   24  C1  UNL     1     -20.990  45.184   8.235  1.00  0.00     0.038 C 
HETATM   25  C3  UNL     1     -19.990  43.506   9.738  1.00  0.00     0.038 C 
HETATM   26  C4  UNL     1     -19.670  45.894  10.138  1.00  0.00     0.038 C 
ENDBRANCH  21  23
ENDBRANCH  18  21
ENDBRANCH   1  18
TORSDOF 6
ENDMDL
MODEL 4
REMARK VINA RESULT: -6.876301584      2.385      3.537
REMARK  6 active torsions:
REMARK  status: ('A' for Active; 'I' for Inactive)
REMARK    1  A    between atoms: C2_2  and  N1_5 
REMARK    2  A    between atoms: N1_5  and  S1_7 
REMARK    3  A    between atoms: S1_7  and  C5_10 
REMARK    4  A    between atoms: C8_13  and  N2_14 
REMARK    5  A    between atoms: N2_14  and  S2_16 
REMARK    6  A    between atoms: S2_16  and  C9_19 
ROOT
HETATM    1  C5  UNL     1     -24.497  44.493  11.153  1.00  0.00     0.079 A 
HETATM    2  C6  UNL     1     -25.144  44.163  12.312  1.00  0.00     0.027 A 
HETATM    3  C7  UNL     1     -26.397  44.702  12.607  1.00  0.00     0.031 A 
HETATM    4  C8  UNL     1     -26.999  45.596  11.703  1.00  0.00     0.042 A 
HETATM    5  C15 UNL     1     -26.349  45.917  10.560  1.00  0.00     0.031 A 
HETATM    6  C16 UNL     1     -25.097  45.364  10.288  1.00  0.00     0.027 A 
ENDROOT
BRANCH   4   7
HETATM    7  N2  UNL     1     -28.275  46.094  12.014  1.00  0.00    -0.281 N 
ATOM      8  H2  UNL     1     -28.436  47.100  11.952  1.00  0.00     0.179 HD
BRANCH   7   9
HETATM    9  S2  UNL     1     -29.562  45.090  12.488  1.00  0.00     0.263 S 
HETATM   10  O3  UNL     1     -30.833  45.682  11.906  1.00  0.00    -0.200 OA
HETATM   11  O4  UNL     1     -29.392  43.734  11.792  1.00  0.00    -0.200 OA
BRANCH   9  12
HETATM   12  C9  UNL     1     -29.676  44.891  14.188  1.00  0.00     0.079 A 
HETATM   13  C10 UNL     1     -29.695  46.001  15.017  1.00  0.00     0.025 A 
HETATM   14  C11 UNL     1     -29.794  45.795  16.370  1.00  0.00     0.002 A 
HETATM   15  C12 UNL     1     -29.874  44.528  16.919  1.00  0.00     0.000 A 
HETATM   16  C13 UNL     1     -29.852  43.453  16.059  1.00  0.00     0.002 A 
HETATM   17  C14 UNL     1     -29.756  43.614  14.709  1.00  0.00     0.025 A 
ENDBRANCH   9  12
ENDBRANCH   7   9
ENDBRANCH   4   7
BRANCH   1  18
HETATM   18  S1  UNL     1     -22.944  43.830  10.777  1.00  0.00     0.259 S 
HETATM   19  O1  UNL     1     -22.593  42.891  11.890  1.00  0.00    -0.201 OA
HETATM   20  O2  UNL     1     -23.145  42.962   9.537  1.00  0.00    -0.201 OA
BRANCH  18  21
HETATM   21  N1  UNL     1     -21.843  45.021  10.450  1.00  0.00    -0.307 N 
ATOM     22  H1  UNL     1     -22.013  45.953  10.829  1.00  0.00     0.173 HD
BRANCH  21  23
HETATM   23  C2  UNL     1     -20.700  44.820   9.686  1.00  0.00     0.029 C 
HETATM   24  C1  UNL     1     -21.017  45.201   8.228  1.00  0.00     0.038 C 
HETATM   25  C3  UNL     1     -20.013  43.511   9.715  1.00  0.00     0.038 C 
HETATM   26  C4  UNL     1     -19.681  45.895  10.126  1.00  0.00     0.038 C 
ENDBRANCH  21  23
ENDBRANCH  18  21
ENDBRANCH   1  18
TORSDOF 6
ENDMDL
MODEL 5
REMARK VINA RESULT: -6.819102259      1.080      1.862
REMARK  6 active torsions:
REMARK  status: ('A' for Active; 'I' for Inactive)
REMARK    1  A    between atoms: C2_2  and  N1_5 
REMARK    2  A    between atoms: N1_5  and  S1_7 
REMARK    3  A    between atoms: S1_7  and  C5_10 
REMARK    4  A    between atoms: C8_13  and  N2_14 
REMARK    5  A    between atoms: N2_14  and  S2_16 
REMARK    6  A    between atoms: S2_16  and  C9_19 
ROOT
HETATM    1  C5  UNL     1     -24.555  44.669  11.137  1.00  0.00     0.079 A 
HETATM    2  C6  UNL     1     -25.233  44.326  12.275  1.00  0.00     0.027 A 
HETATM    3  C7  UNL     1     -26.458  44.919  12.581  1.00  0.00     0.031 A 
HETATM    4  C8  UNL     1     -27.000  45.881  11.709  1.00  0.00     0.042 A 
HETATM    5  C15 UNL     1     -26.321  46.215  10.588  1.00  0.00     0.031 A 
HETATM    6  C16 UNL     1     -25.097  45.606  10.304  1.00  0.00     0.027 A 
ENDROOT
BRANCH   4   7
HETATM    7  N2  UNL     1     -28.252  46.434  12.029  1.00  0.00    -0.281 N 
ATOM      8  H2  UNL     1     -28.289  47.210  12.690  1.00  0.00     0.179 HD
BRANCH   7   9
HETATM    9  S2  UNL     1     -29.705  45.864  11.357  1.00  0.00     0.263 S 
HETATM   10  O3  UNL     1     -30.836  46.642  12.006  1.00  0.00    -0.200 OA
HETATM   11  O4  UNL     1     -29.737  46.262   9.877  1.00  0.00    -0.200 OA
BRANCH   9  12
HETATM   12  C9  UNL     1     -29.917  44.171  11.537  1.00  0.00     0.079 A 
HETATM   13  C10 UNL     1     -29.517  43.310  10.529  1.00  0.00     0.025 A 
HETATM   14  C11 UNL     1     -29.701  41.963  10.718  1.00  0.00     0.002 A 
HETATM   15  C12 UNL     1     -30.266  41.452  11.872  1.00  0.00     0.000 A 
HETATM   16  C13 UNL     1     -30.649  42.343  12.849  1.00  0.00     0.002 A 
HETATM   17  C14 UNL     1     -30.484  43.688  12.701  1.00  0.00     0.025 A 
ENDBRANCH   9  12
ENDBRANCH   7   9
ENDBRANCH   4   7
BRANCH   1  18
HETATM   18  S1  UNL     1     -23.036  43.939  10.748  1.00  0.00     0.259 S 
HETATM   19  O1  UNL     1     -22.747  42.940  11.826  1.00  0.00    -0.201 OA
HETATM   20  O2  UNL     1     -23.270  43.131   9.473  1.00  0.00    -0.201 OA
BRANCH  18  21
HETATM   21  N1  UNL     1     -21.870  45.081  10.477  1.00  0.00    -0.307 N 
ATOM     22  H1  UNL     1     -21.985  45.999  10.906  1.00  0.00     0.173 HD
BRANCH  21  23
HETATM   23  C2  UNL     1     -20.743  44.857   9.696  1.00  0.00     0.029 C 
HETATM   24  C1  UNL     1     -21.069  45.258   8.246  1.00  0.00     0.038 C 
HETATM   25  C3  UNL     1     -20.090  43.530   9.705  1.00  0.00     0.038 C 
HETATM   26  C4  UNL     1     -19.690  45.900  10.130  1.00  0.00     0.038 C 
ENDBRANCH  21  23
ENDBRANCH  18  21
ENDBRANCH   1  18
TORSDOF 6
ENDMDL
