MODEL 1
REMARK VINA RESULT: -7.468860304      0.000      0.000
REMARK  5 active torsions:
REMARK  status: ('A' for Active; 'I' for Inactive)
REMARK    1  A    between atoms: C2_3  and  C3_4 
REMARK    2  A    between atoms: C2_3  and  N2_11 
REMARK    3  A    between atoms: C3_4  and  C4_5 
REMARK       I    between atoms: N2_11  and  C10_13 
REMARK    4  A    between atoms: C10_13  and  C11_15 
REMARK    5  A    between atoms: N4_19  and  C13_20 
REMARK       I    between atoms: N5_27  and  C20_29 
ROOT
HETATM    1  N1  UNL     1     -25.770  46.413  13.437  1.00  0.00    -0.195 NA
HETATM    2  C1  UNL     1     -25.807  45.497  12.746  1.00  0.00     0.085 C 
HETATM    3  C2  UNL     1     -25.851  44.327  11.829  1.00  0.00     0.196 C 
ENDROOT
BRANCH   3   4
HETATM    4  C3  UNL     1     -24.669  43.461  12.085  1.00  0.00     0.078 C 
BRANCH   4   5
HETATM    5  C4  UNL     1     -23.568  43.653  11.124  1.00  0.00    -0.055 A 
HETATM    6  C5  UNL     1     -23.618  44.641  10.166  1.00  0.00     0.007 A 
HETATM    7  C6  UNL     1     -22.592  44.824   9.263  1.00  0.00     0.001 A 
HETATM    8  C7  UNL     1     -21.481  44.013   9.299  1.00  0.00     0.000 A 
HETATM    9  C8  UNL     1     -21.412  43.019  10.250  1.00  0.00     0.001 A 
HETATM   10  C9  UNL     1     -22.458  42.851  11.153  1.00  0.00     0.007 A 
ENDBRANCH   4   5
ENDBRANCH   3   4
BRANCH   3  11
HETATM   11  N2  UNL     1     -27.124  43.666  11.888  1.00  0.00    -0.339 N 
HETATM   12  C10 UNL     1     -28.183  43.971  10.977  1.00  0.00     0.258 C 
HETATM   13  O1  UNL     1     -27.943  44.864  10.107  1.00  0.00    -0.267 OA
ATOM     14  H2  UNL     1     -27.279  42.956  12.604  1.00  0.00     0.164 HD
BRANCH  12  15
HETATM   15  C11 UNL     1     -29.449  43.268  11.082  1.00  0.00     0.094 A 
HETATM   16  C12 UNL     1     -29.807  42.174  10.283  1.00  0.00     0.128 A 
HETATM   17  N3  UNL     1     -31.032  41.800  10.664  1.00  0.00    -0.302 N 
HETATM   18  N4  UNL     1     -31.507  42.544  11.635  1.00  0.00    -0.239 N 
ATOM     19  H3  UNL     1     -31.541  41.022  10.247  1.00  0.00     0.186 HD
HETATM   20  C19 UNL     1     -30.529  43.472  11.909  1.00  0.00     0.148 A 
HETATM   21  N5  UNL     1     -30.673  44.349  12.800  1.00  0.00    -0.295 N 
HETATM   22  C20 UNL     1     -29.926  45.383  13.302  1.00  0.00     0.334 C 
ATOM     23  H5  UNL     1     -31.577  44.271  13.268  1.00  0.00     0.172 HD
HETATM   24  N6  UNL     1     -29.328  45.318  14.591  1.00  0.00    -0.040 NA
HETATM   25  O2  UNL     1     -29.740  46.443  12.628  1.00  0.00    -0.251 OA
BRANCH  18  26
HETATM   26  C13 UNL     1     -32.773  42.426  12.290  1.00  0.00     0.058 A 
HETATM   27  C14 UNL     1     -33.918  42.857  11.640  1.00  0.00     0.031 A 
HETATM   28  C15 UNL     1     -35.158  42.759  12.243  1.00  0.00     0.002 A 
HETATM   29  C16 UNL     1     -35.299  42.231  13.509  1.00  0.00     0.000 A 
HETATM   30  C17 UNL     1     -34.166  41.801  14.161  1.00  0.00     0.002 A 
HETATM   31  C18 UNL     1     -32.937  41.900  13.558  1.00  0.00     0.031 A 
ENDBRANCH  18  26
ENDBRANCH  12  15
ENDBRANCH   3  11
TORSDOF 5
ENDMDL
MODEL 2
REMARK VINA RESULT: -7.326356128      5.650      8.964
REMARK  5 active torsions:
REMARK  status: ('A' for Active; 'I' for Inactive)
REMARK    1  A    between atoms: C2_3  and  C3_4 
REMARK    2  A    between atoms: C2_3  and  N2_11 
REMARK    3  A    between atoms: C3_4  and  C4_5 
REMARK       I    between atoms: N2_11  and  C10_13 
REMARK    4  A    between atoms: C10_13  and  C11_15 
REMARK    5  A    between atoms: N4_19  and  C13_20 
REMARK       I    between atoms: N5_27  and  C20_29 
ROOT
HETATM    1  N1  UNL     1     -28.662  44.146   9.709  1.00  0.00    -0.195 NA
HETATM    2  C1  UNL     1     -27.982  44.980  10.107  1.00  0.00     0.085 C 
HETATM    3  C2  UNL     1     -27.124  46.075  10.633  1.00  0.00     0.196 C 
ENDROOT
BRANCH   3   4
HETATM    4  C3  UNL     1     -26.276  45.544  11.735  1.00  0.00     0.078 C 
BRANCH   4   5
HETATM    5  C4  UNL     1     -25.107  44.776  11.271  1.00  0.00    -0.055 A 
HETATM    6  C5  UNL     1     -24.466  45.089  10.093  1.00  0.00     0.007 A 
HETATM    7  C6  UNL     1     -23.373  44.373   9.653  1.00  0.00     0.001 A 
HETATM    8  C7  UNL     1     -22.891  43.315  10.390  1.00  0.00     0.000 A 
HETATM    9  C8  UNL     1     -23.519  42.986  11.571  1.00  0.00     0.001 A 
HETATM   10  C9  UNL     1     -24.621  43.722  11.998  1.00  0.00     0.007 A 
ENDBRANCH   4   5
ENDBRANCH   3   4
BRANCH   3  11
HETATM   11  N2  UNL     1     -26.416  46.737   9.574  1.00  0.00    -0.339 N 
HETATM   12  C10 UNL     1     -26.447  48.156   9.409  1.00  0.00     0.258 C 
HETATM   13  O1  UNL     1     -27.139  48.810  10.248  1.00  0.00    -0.267 OA
ATOM     14  H2  UNL     1     -25.873  46.176   8.917  1.00  0.00     0.164 HD
BRANCH  12  15
HETATM   15  C11 UNL     1     -25.709  48.771   8.321  1.00  0.00     0.094 A 
HETATM   16  C12 UNL     1     -24.324  48.988   8.336  1.00  0.00     0.128 A 
HETATM   17  N3  UNL     1     -24.010  49.570   7.175  1.00  0.00    -0.302 N 
HETATM   18  N4  UNL     1     -25.056  49.754   6.404  1.00  0.00    -0.239 N 
ATOM     19  H3  UNL     1     -23.062  49.842   6.917  1.00  0.00     0.186 HD
HETATM   20  C19 UNL     1     -26.131  49.261   7.106  1.00  0.00     0.148 A 
HETATM   21  N5  UNL     1     -27.300  49.289   6.642  1.00  0.00    -0.295 N 
HETATM   22  C20 UNL     1     -28.544  48.901   7.067  1.00  0.00     0.334 C 
ATOM     23  H5  UNL     1     -27.330  49.708   5.712  1.00  0.00     0.172 HD
HETATM   24  N6  UNL     1     -29.210  47.775   6.509  1.00  0.00    -0.040 NA
HETATM   25  O2  UNL     1     -29.151  49.540   7.982  1.00  0.00    -0.251 OA
BRANCH  18  26
HETATM   26  C13 UNL     1     -25.089  50.337   5.099  1.00  0.00     0.058 A 
HETATM   27  C14 UNL     1     -25.565  51.629   4.942  1.00  0.00     0.031 A 
HETATM   28  C15 UNL     1     -25.613  52.224   3.695  1.00  0.00     0.002 A 
HETATM   29  C16 UNL     1     -25.191  51.555   2.566  1.00  0.00     0.000 A 
HETATM   30  C17 UNL     1     -24.718  50.271   2.713  1.00  0.00     0.002 A 
HETATM   31  C18 UNL     1     -24.672  49.685   3.953  1.00  0.00     0.031 A 
ENDBRANCH  18  26
ENDBRANCH  12  15
ENDBRANCH   3  11
TORSDOF 5
ENDMDL
MODEL 3
REMARK VINA RESULT: -7.215682089      6.346      9.816
REMARK  5 active torsions:
REMARK  status: ('A' for Active; 'I' for Inactive)
REMARK    1  A    between atoms: C2_3  and  C3_4 
REMARK    2  A    between atoms: C2_3  and  N2_11 
REMARK    3  A    between atoms: C3_4  and  C4_5 
REMARK       I    between atoms: N2_11  and  C10_13 
REMARK    4  A    between atoms: C10_13  and  C11_15 
REMARK    5  A    between atoms: N4_19  and  C13_20 
REMARK       I    between atoms: N5_27  and  C20_29 
ROOT
HETATM    1  N1  UNL     1     -31.136  47.188   8.662  1.00  0.00    -0.195 NA
HETATM    2  C1  UNL     1     -30.031  47.117   8.963  1.00  0.00     0.085 C 
HETATM    3  C2  UNL     1     -28.604  47.041   9.376  1.00  0.00     0.196 C 
ENDROOT
BRANCH   3   4
HETATM    4  C3  UNL     1     -28.281  45.641   9.763  1.00  0.00     0.078 C 
BRANCH   4   5
HETATM    5  C4  UNL     1     -27.206  45.531  10.765  1.00  0.00    -0.055 A 
HETATM    6  C5  UNL     1     -25.977  45.000  10.442  1.00  0.00     0.007 A 
HETATM    7  C6  UNL     1     -24.968  44.893  11.375  1.00  0.00     0.001 A 
HETATM    8  C7  UNL     1     -25.168  45.320  12.668  1.00  0.00     0.000 A 
HETATM    9  C8  UNL     1     -26.390  45.854  13.011  1.00  0.00     0.001 A 
HETATM   10  C9  UNL     1     -27.396  45.954  12.054  1.00  0.00     0.007 A 
ENDBRANCH   4   5
ENDBRANCH   3   4
BRANCH   3  11
HETATM   11  N2  UNL     1     -27.743  47.621   8.383  1.00  0.00    -0.339 N 
HETATM   12  C10 UNL     1     -26.737  48.580   8.716  1.00  0.00     0.258 C 
HETATM   13  O1  UNL     1     -26.642  48.902   9.940  1.00  0.00    -0.267 OA
ATOM     14  H2  UNL     1     -27.853  47.339   7.409  1.00  0.00     0.164 HD
BRANCH  12  15
HETATM   15  C11 UNL     1     -25.893  49.131   7.671  1.00  0.00     0.094 A 
HETATM   16  C12 UNL     1     -24.492  49.146   7.721  1.00  0.00     0.128 A 
HETATM   17  N3  UNL     1     -24.071  49.728   6.594  1.00  0.00    -0.302 N 
HETATM   18  N4  UNL     1     -25.060  50.093   5.814  1.00  0.00    -0.239 N 
ATOM     19  H3  UNL     1     -23.088  49.873   6.366  1.00  0.00     0.186 HD
HETATM   20  C19 UNL     1     -26.212  49.728   6.473  1.00  0.00     0.148 A 
HETATM   21  N5  UNL     1     -27.353  49.944   5.990  1.00  0.00    -0.295 N 
HETATM   22  C20 UNL     1     -28.650  49.719   6.374  1.00  0.00     0.334 C 
ATOM     23  H5  UNL     1     -27.300  50.402   5.080  1.00  0.00     0.172 HD
HETATM   24  N6  UNL     1     -29.454  48.725   5.752  1.00  0.00    -0.040 NA
HETATM   25  O2  UNL     1     -29.182  50.397   7.307  1.00  0.00    -0.251 OA
BRANCH  18  26
HETATM   26  C13 UNL     1     -24.979  50.731   4.537  1.00  0.00     0.058 A 
HETATM   27  C14 UNL     1     -25.039  52.113   4.462  1.00  0.00     0.031 A 
HETATM   28  C15 UNL     1     -24.964  52.765   3.245  1.00  0.00     0.002 A 
HETATM   29  C16 UNL     1     -24.830  52.064   2.065  1.00  0.00     0.000 A 
HETATM   30  C17 UNL     1     -24.771  50.690   2.131  1.00  0.00     0.002 A 
HETATM   31  C18 UNL     1     -24.844  50.049   3.343  1.00  0.00     0.031 A 
ENDBRANCH  18  26
ENDBRANCH  12  15
ENDBRANCH   3  11
TORSDOF 5
ENDMDL
MODEL 4
REMARK VINA RESULT: -7.182721120      1.472      1.859
REMARK  5 active torsions:
REMARK  status: ('A' for Active; 'I' for Inactive)
REMARK    1  A    between atoms: C2_3  and  C3_4 
REMARK    2  A    between atoms: C2_3  and  N2_11 
REMARK    3  A    between atoms: C3_4  and  C4_5 
REMARK       I    between atoms: N2_11  and  C10_13 
REMARK    4  A    between atoms: C10_13  and  C11_15 
REMARK    5  A    between atoms: N4_19  and  C13_20 
REMARK       I    between atoms: N5_27  and  C20_29 
ROOT
HETATM    1  N1  UNL     1     -27.867  47.931  10.611  1.00  0.00    -0.195 NA
HETATM    2  C1  UNL     1     -27.448  46.879  10.794  1.00  0.00     0.085 C 
HETATM    3  C2  UNL     1     -26.901  45.511  11.003  1.00  0.00     0.196 C 
ENDROOT
BRANCH   3   4
HETATM    4  C3  UNL     1     -25.615  45.609  11.745  1.00  0.00     0.078 C 
BRANCH   4   5
HETATM    5  C4  UNL     1     -24.572  44.689  11.256  1.00  0.00    -0.055 A 
HETATM    6  C5  UNL     1     -24.098  43.662  12.041  1.00  0.00     0.007 A 
HETATM    7  C6  UNL     1     -23.122  42.799  11.590  1.00  0.00     0.001 A 
HETATM    8  C7  UNL     1     -22.591  42.946  10.329  1.00  0.00     0.000 A 
HETATM    9  C8  UNL     1     -23.052  43.967   9.528  1.00  0.00     0.001 A 
HETATM   10  C9  UNL     1     -24.039  44.828  10.002  1.00  0.00     0.007 A 
ENDBRANCH   4   5
ENDBRANCH   3   4
BRANCH   3  11
HETATM   11  N2  UNL     1     -27.883  44.640  11.584  1.00  0.00    -0.339 N 
HETATM   12  C10 UNL     1     -28.866  43.968  10.793  1.00  0.00     0.258 C 
HETATM   13  O1  UNL     1     -28.832  44.183   9.542  1.00  0.00    -0.267 OA
ATOM     14  H2  UNL     1     -27.880  44.496  12.593  1.00  0.00     0.164 HD
BRANCH  12  15
HETATM   15  C11 UNL     1     -29.834  43.097  11.434  1.00  0.00     0.094 A 
HETATM   16  C12 UNL     1     -29.785  41.697  11.381  1.00  0.00     0.128 A 
HETATM   17  N3  UNL     1     -30.831  41.246  12.079  1.00  0.00    -0.302 N 
HETATM   18  N4  UNL     1     -31.558  42.215  12.582  1.00  0.00    -0.239 N 
ATOM     19  H3  UNL     1     -31.042  40.257  12.206  1.00  0.00     0.186 HD
HETATM   20  C19 UNL     1     -30.950  43.384  12.187  1.00  0.00     0.148 A 
HETATM   21  N5  UNL     1     -31.405  44.513  12.504  1.00  0.00    -0.295 N 
HETATM   22  C20 UNL     1     -31.056  45.820  12.281  1.00  0.00     0.334 C 
ATOM     23  H5  UNL     1     -32.248  44.437  13.074  1.00  0.00     0.172 HD
HETATM   24  N6  UNL     1     -30.516  46.639  13.311  1.00  0.00    -0.040 NA
HETATM   25  O2  UNL     1     -31.206  46.350  11.136  1.00  0.00    -0.251 OA
BRANCH  18  26
HETATM   26  C13 UNL     1     -32.737  42.101  13.383  1.00  0.00     0.058 A 
HETATM   27  C14 UNL     1     -33.963  41.910  12.767  1.00  0.00     0.031 A 
HETATM   28  C15 UNL     1     -35.123  41.796  13.511  1.00  0.00     0.002 A 
HETATM   29  C16 UNL     1     -35.101  41.869  14.887  1.00  0.00     0.000 A 
HETATM   30  C17 UNL     1     -33.887  42.059  15.507  1.00  0.00     0.002 A 
HETATM   31  C18 UNL     1     -32.738  42.171  14.764  1.00  0.00     0.031 A 
ENDBRANCH  18  26
ENDBRANCH  12  15
ENDBRANCH   3  11
TORSDOF 5
ENDMDL
MODEL 5
REMARK VINA RESULT: -6.981650576      3.646      8.309
REMARK  5 active torsions:
REMARK  status: ('A' for Active; 'I' for Inactive)
REMARK    1  A    between atoms: C2_3  and  C3_4 
REMARK    2  A    between atoms: C2_3  and  N2_11 
REMARK    3  A    between atoms: C3_4  and  C4_5 
REMARK       I    between atoms: N2_11  and  C10_13 
REMARK    4  A    between atoms: C10_13  and  C11_15 
REMARK    5  A    between atoms: N4_19  and  C13_20 
REMARK       I    between atoms: N5_27  and  C20_29 
ROOT
HETATM    1  N1  UNL     1     -30.232  49.443   7.785  1.00  0.00    -0.195 NA
HETATM    2  C1  UNL     1     -29.966  48.530   8.427  1.00  0.00     0.085 C 
HETATM    3  C2  UNL     1     -29.624  47.362   9.282  1.00  0.00     0.196 C 
ENDROOT
BRANCH   3   4
HETATM    4  C3  UNL     1     -30.672  46.318   9.123  1.00  0.00     0.078 C 
BRANCH   4   5
HETATM    5  C4  UNL     1     -30.235  45.148   8.340  1.00  0.00    -0.055 A 
HETATM    6  C5  UNL     1     -30.014  45.235   6.984  1.00  0.00     0.007 A 
HETATM    7  C6  UNL     1     -29.607  44.144   6.246  1.00  0.00     0.001 A 
HETATM    8  C7  UNL     1     -29.409  42.926   6.856  1.00  0.00     0.000 A 
HETATM    9  C8  UNL     1     -29.624  42.818   8.212  1.00  0.00     0.001 A 
HETATM   10  C9  UNL     1     -30.036  43.932   8.939  1.00  0.00     0.007 A 
ENDBRANCH   4   5
ENDBRANCH   3   4
BRANCH   3  11
HETATM   11  N2  UNL     1     -28.277  46.923   9.052  1.00  0.00    -0.339 N 
HETATM   12  C10 UNL     1     -27.170  47.445   9.791  1.00  0.00     0.258 C 
HETATM   13  O1  UNL     1     -27.437  48.326  10.666  1.00  0.00    -0.267 OA
ATOM     14  H2  UNL     1     -28.103  46.216   8.338  1.00  0.00     0.164 HD
BRANCH  12  15
HETATM   15  C11 UNL     1     -25.829  46.963   9.518  1.00  0.00     0.094 A 
HETATM   16  C12 UNL     1     -24.928  47.600   8.653  1.00  0.00     0.128 A 
HETATM   17  N3  UNL     1     -23.809  46.870   8.654  1.00  0.00    -0.302 N 
HETATM   18  N4  UNL     1     -23.892  45.820   9.435  1.00  0.00    -0.239 N 
ATOM     19  H3  UNL     1     -22.981  47.104   8.107  1.00  0.00     0.186 HD
HETATM   20  C19 UNL     1     -25.152  45.860   9.985  1.00  0.00     0.148 A 
HETATM   21  N5  UNL     1     -25.558  44.981  10.788  1.00  0.00    -0.295 N 
HETATM   22  C20 UNL     1     -26.712  44.733  11.486  1.00  0.00     0.334 C 
ATOM     23  H5  UNL     1     -24.846  44.271  10.966  1.00  0.00     0.172 HD
HETATM   24  N6  UNL     1     -26.789  44.912  12.894  1.00  0.00    -0.040 NA
HETATM   25  O2  UNL     1     -27.760  44.331  10.893  1.00  0.00    -0.251 OA
BRANCH  18  26
HETATM   26  C13 UNL     1     -22.889  44.831   9.684  1.00  0.00     0.058 A 
HETATM   27  C14 UNL     1     -21.591  45.056   9.255  1.00  0.00     0.031 A 
HETATM   28  C15 UNL     1     -20.595  44.123   9.477  1.00  0.00     0.002 A 
HETATM   29  C16 UNL     1     -20.859  42.938  10.131  1.00  0.00     0.000 A 
HETATM   30  C17 UNL     1     -22.146  42.707  10.559  1.00  0.00     0.002 A 
HETATM   31  C18 UNL     1     -23.130  43.637  10.337  1.00  0.00     0.031 A 
ENDBRANCH  18  26
ENDBRANCH  12  15
ENDBRANCH   3  11
TORSDOF 5
ENDMDL
