MODEL 1
REMARK VINA RESULT: -7.793556396      0.000      0.000
REMARK  6 active torsions:
REMARK  status: ('A' for Active; 'I' for Inactive)
REMARK    1  A    between atoms: N1_1  and  C1_5 
REMARK    2  A    between atoms: C1_5  and  C2_6 
REMARK    3  A    between atoms: C2_6  and  N2_7 
REMARK       I    between atoms: N2_7  and  C3_9 
REMARK    4  A    between atoms: C3_9  and  C4_11 
REMARK    5  A    between atoms: C6_13  and  N3_14 
REMARK       I    between atoms: N3_14  and  C7_16 
REMARK    6  A    between atoms: C7_16  and  C8_18 
ROOT
HETATM    1  C4  UNL     1      23.110  51.800  19.812  1.00  0.00     0.074 A 
HETATM    2  C5  UNL     1      23.000  52.886  19.005  1.00  0.00     0.054 A 
HETATM    3  C6  UNL     1      22.361  52.740  17.823  1.00  0.00     0.042 A 
HETATM    4  C14 UNL     1      21.876  51.498  17.539  1.00  0.00     0.080 A 
HETATM    5  S1  UNL     1      22.322  50.574  18.924  1.00  0.00    -0.094 SA
ENDROOT
BRANCH   1   6
HETATM    6  C3  UNL     1      23.758  51.703  21.144  1.00  0.00     0.258 C 
HETATM    7  N2  UNL     1      23.999  52.889  21.855  1.00  0.00    -0.355 N 
ATOM      8  H2  UNL     1      23.726  53.784  21.447  1.00  0.00     0.162 HD
HETATM    9  O1  UNL     1      24.064  50.561  21.582  1.00  0.00    -0.267 OA
BRANCH   7  10
HETATM   10  C2  UNL     1      24.627  52.862  23.157  1.00  0.00     0.150 C 
BRANCH  10  11
HETATM   11  C1  UNL     1      23.571  52.826  24.264  1.00  0.00     0.249 C 
BRANCH  11  12
HETATM   12  N1  UNL     1      23.307  51.467  24.661  1.00  0.00    -0.078 N 
ATOM     13  H13 UNL     1      24.168  50.938  24.802  1.00  0.00     0.274 HD
ATOM     14  H12 UNL     1      22.940  51.413  25.611  1.00  0.00     0.274 HD
ATOM     15  H11 UNL     1      22.689  51.015  23.988  1.00  0.00     0.274 HD
ENDBRANCH  11  12
ENDBRANCH  10  11
ENDBRANCH   7  10
ENDBRANCH   1   6
BRANCH   3  16
HETATM   16  N3  UNL     1      22.225  53.840  16.906  1.00  0.00    -0.326 N 
HETATM   17  C7  UNL     1      23.197  54.118  15.939  1.00  0.00     0.226 C 
HETATM   18  O2  UNL     1      24.255  53.474  15.751  1.00  0.00    -0.273 OA
ATOM     19  H3  UNL     1      21.398  54.434  16.963  1.00  0.00     0.169 HD
BRANCH  17  20
HETATM   20  C8  UNL     1      23.015  55.293  14.998  1.00  0.00     0.078 C 
HETATM   21  C9  UNL     1      23.453  56.514  15.814  1.00  0.00     0.014 C 
HETATM   22  C10 UNL     1      23.222  57.790  15.033  1.00  0.00     0.001 C 
HETATM   23  C11 UNL     1      23.431  57.496  13.579  1.00  0.00     0.000 C 
HETATM   24  C12 UNL     1      24.517  56.470  13.363  1.00  0.00     0.001 C 
HETATM   25  C13 UNL     1      24.023  55.155  13.894  1.00  0.00     0.014 C 
ENDBRANCH  17  20
ENDBRANCH   3  16
TORSDOF 6
ENDMDL
MODEL 2
REMARK VINA RESULT: -7.710656673      3.577      8.647
REMARK  6 active torsions:
REMARK  status: ('A' for Active; 'I' for Inactive)
REMARK    1  A    between atoms: N1_1  and  C1_5 
REMARK    2  A    between atoms: C1_5  and  C2_6 
REMARK    3  A    between atoms: C2_6  and  N2_7 
REMARK       I    between atoms: N2_7  and  C3_9 
REMARK    4  A    between atoms: C3_9  and  C4_11 
REMARK    5  A    between atoms: C6_13  and  N3_14 
REMARK       I    between atoms: N3_14  and  C7_16 
REMARK    6  A    between atoms: C7_16  and  C8_18 
ROOT
HETATM    1  C4  UNL     1      23.715  56.926  14.518  1.00  0.00     0.074 A 
HETATM    2  C5  UNL     1      23.610  55.703  15.094  1.00  0.00     0.054 A 
HETATM    3  C6  UNL     1      24.032  55.560  16.370  1.00  0.00     0.042 A 
HETATM    4  C14 UNL     1      24.535  56.674  16.976  1.00  0.00     0.080 A 
HETATM    5  S1  UNL     1      24.403  57.881  15.753  1.00  0.00    -0.094 SA
ENDROOT
BRANCH   1   6
HETATM    6  C3  UNL     1      23.326  57.335  13.145  1.00  0.00     0.258 C 
HETATM    7  N2  UNL     1      23.323  56.359  12.135  1.00  0.00    -0.355 N 
ATOM      8  H2  UNL     1      23.584  55.399  12.363  1.00  0.00     0.162 HD
HETATM    9  O1  UNL     1      23.014  58.539  12.941  1.00  0.00    -0.267 OA
BRANCH   7  10
HETATM   10  C2  UNL     1      22.954  56.693  10.778  1.00  0.00     0.150 C 
BRANCH  10  11
HETATM   11  C1  UNL     1      24.187  57.102   9.969  1.00  0.00     0.249 C 
BRANCH  11  12
HETATM   12  N1  UNL     1      25.100  55.995   9.854  1.00  0.00    -0.078 N 
ATOM     13  H13 UNL     1      26.037  56.300   9.588  1.00  0.00     0.274 HD
ATOM     14  H12 UNL     1      25.326  55.592  10.763  1.00  0.00     0.274 HD
ATOM     15  H11 UNL     1      24.731  55.296   9.210  1.00  0.00     0.274 HD
ENDBRANCH  11  12
ENDBRANCH  10  11
ENDBRANCH   7  10
ENDBRANCH   1   6
BRANCH   3  16
HETATM   16  N3  UNL     1      23.973  54.289  17.041  1.00  0.00    -0.326 N 
HETATM   17  C7  UNL     1      22.796  53.534  17.087  1.00  0.00     0.226 C 
HETATM   18  O2  UNL     1      21.698  53.849  16.571  1.00  0.00    -0.273 OA
ATOM     19  H3  UNL     1      24.811  53.928  17.495  1.00  0.00     0.169 HD
BRANCH  17  20
HETATM   20  C8  UNL     1      22.777  52.202  17.812  1.00  0.00     0.078 C 
HETATM   21  C9  UNL     1      24.169  51.610  17.569  1.00  0.00     0.014 C 
HETATM   22  C10 UNL     1      24.266  50.215  18.148  1.00  0.00     0.001 C 
HETATM   23  C11 UNL     1      23.411  50.156  19.377  1.00  0.00     0.000 C 
HETATM   24  C12 UNL     1      23.414  51.465  20.128  1.00  0.00     0.001 C 
HETATM   25  C13 UNL     1      22.703  52.484  19.284  1.00  0.00     0.014 C 
ENDBRANCH  17  20
ENDBRANCH   3  16
TORSDOF 6
ENDMDL
MODEL 3
REMARK VINA RESULT: -7.610078808      3.417      8.493
REMARK  6 active torsions:
REMARK  status: ('A' for Active; 'I' for Inactive)
REMARK    1  A    between atoms: N1_1  and  C1_5 
REMARK    2  A    between atoms: C1_5  and  C2_6 
REMARK    3  A    between atoms: C2_6  and  N2_7 
REMARK       I    between atoms: N2_7  and  C3_9 
REMARK    4  A    between atoms: C3_9  and  C4_11 
REMARK    5  A    between atoms: C6_13  and  N3_14 
REMARK       I    between atoms: N3_14  and  C7_16 
REMARK    6  A    between atoms: C7_16  and  C8_18 
ROOT
HETATM    1  C4  UNL     1      23.923  56.010  14.551  1.00  0.00     0.074 A 
HETATM    2  C5  UNL     1      23.796  54.926  15.357  1.00  0.00     0.054 A 
HETATM    3  C6  UNL     1      23.924  55.104  16.691  1.00  0.00     0.042 A 
HETATM    4  C14 UNL     1      24.172  56.375  17.117  1.00  0.00     0.080 A 
HETATM    5  S1  UNL     1      24.220  57.280  15.651  1.00  0.00    -0.094 SA
ENDROOT
BRANCH   1   6
HETATM    6  C3  UNL     1      23.826  56.075  13.071  1.00  0.00     0.258 C 
HETATM    7  N2  UNL     1      24.022  54.892  12.339  1.00  0.00    -0.355 N 
ATOM      8  H2  UNL     1      24.223  54.023  12.833  1.00  0.00     0.162 HD
HETATM    9  O1  UNL     1      23.572  57.186  12.533  1.00  0.00    -0.267 OA
BRANCH   7  10
HETATM   10  C2  UNL     1      23.941  54.890  10.895  1.00  0.00     0.150 C 
BRANCH  10  11
HETATM   11  C1  UNL     1      24.706  53.698  10.315  1.00  0.00     0.249 C 
BRANCH  11  12
HETATM   12  N1  UNL     1      25.764  54.155   9.451  1.00  0.00    -0.078 N 
ATOM     13  H13 UNL     1      25.642  53.825   8.494  1.00  0.00     0.274 HD
ATOM     14  H12 UNL     1      25.705  55.157   9.275  1.00  0.00     0.274 HD
ATOM     15  H11 UNL     1      26.672  53.889   9.832  1.00  0.00     0.274 HD
ENDBRANCH  11  12
ENDBRANCH  10  11
ENDBRANCH   7  10
ENDBRANCH   1   6
BRANCH   3  16
HETATM   16  N3  UNL     1      23.824  53.998  17.606  1.00  0.00    -0.326 N 
HETATM   17  C7  UNL     1      22.719  53.141  17.609  1.00  0.00     0.226 C 
HETATM   18  O2  UNL     1      21.726  53.216  16.847  1.00  0.00    -0.273 OA
ATOM     19  H3  UNL     1      24.579  53.836  18.272  1.00  0.00     0.169 HD
BRANCH  17  20
HETATM   20  C8  UNL     1      22.653  51.992  18.597  1.00  0.00     0.078 C 
HETATM   21  C9  UNL     1      23.780  51.047  18.168  1.00  0.00     0.014 C 
HETATM   22  C10 UNL     1      23.769  49.787  19.005  1.00  0.00     0.001 C 
HETATM   23  C11 UNL     1      23.302  50.141  20.384  1.00  0.00     0.000 C 
HETATM   24  C12 UNL     1      23.766  51.516  20.799  1.00  0.00     0.001 C 
HETATM   25  C13 UNL     1      23.053  52.524  19.943  1.00  0.00     0.014 C 
ENDBRANCH  17  20
ENDBRANCH   3  16
TORSDOF 6
ENDMDL
MODEL 4
REMARK VINA RESULT: -7.586216544      2.115      3.169
REMARK  6 active torsions:
REMARK  status: ('A' for Active; 'I' for Inactive)
REMARK    1  A    between atoms: N1_1  and  C1_5 
REMARK    2  A    between atoms: C1_5  and  C2_6 
REMARK    3  A    between atoms: C2_6  and  N2_7 
REMARK       I    between atoms: N2_7  and  C3_9 
REMARK    4  A    between atoms: C3_9  and  C4_11 
REMARK    5  A    between atoms: C6_13  and  N3_14 
REMARK       I    between atoms: N3_14  and  C7_16 
REMARK    6  A    between atoms: C7_16  and  C8_18 
ROOT
HETATM    1  C4  UNL     1      23.272  52.643  17.304  1.00  0.00     0.074 A 
HETATM    2  C5  UNL     1      23.722  53.363  16.245  1.00  0.00     0.054 A 
HETATM    3  C6  UNL     1      22.844  54.161  15.598  1.00  0.00     0.042 A 
HETATM    4  C14 UNL     1      21.565  54.173  16.071  1.00  0.00     0.080 A 
HETATM    5  S1  UNL     1      21.625  53.077  17.400  1.00  0.00    -0.094 SA
ENDROOT
BRANCH   1   6
HETATM    6  C3  UNL     1      24.031  51.705  18.170  1.00  0.00     0.258 C 
HETATM    7  N2  UNL     1      24.130  51.997  19.540  1.00  0.00    -0.355 N 
ATOM      8  H2  UNL     1      23.685  52.837  19.909  1.00  0.00     0.162 HD
HETATM    9  O1  UNL     1      24.553  50.687  17.641  1.00  0.00    -0.267 OA
BRANCH   7  10
HETATM   10  C2  UNL     1      24.855  51.123  20.436  1.00  0.00     0.150 C 
BRANCH  10  11
HETATM   11  C1  UNL     1      24.845  51.683  21.860  1.00  0.00     0.249 C 
BRANCH  11  12
HETATM   12  N1  UNL     1      24.273  53.004  21.875  1.00  0.00    -0.078 N 
ATOM     13  H13 UNL     1      24.916  53.701  21.498  1.00  0.00     0.274 HD
ATOM     14  H12 UNL     1      23.525  53.103  21.190  1.00  0.00     0.274 HD
ATOM     15  H11 UNL     1      23.961  53.245  22.815  1.00  0.00     0.274 HD
ENDBRANCH  11  12
ENDBRANCH  10  11
ENDBRANCH   7  10
ENDBRANCH   1   6
BRANCH   3  16
HETATM   16  N3  UNL     1      23.241  54.937  14.453  1.00  0.00    -0.326 N 
HETATM   17  C7  UNL     1      23.422  56.321  14.528  1.00  0.00     0.226 C 
HETATM   18  O2  UNL     1      23.276  57.029  15.552  1.00  0.00    -0.273 OA
ATOM     19  H3  UNL     1      23.394  54.464  13.563  1.00  0.00     0.169 HD
BRANCH  17  20
HETATM   20  C8  UNL     1      23.834  57.100  13.294  1.00  0.00     0.078 C 
HETATM   21  C9  UNL     1      23.167  56.361  12.129  1.00  0.00     0.014 C 
HETATM   22  C10 UNL     1      23.580  56.965  10.805  1.00  0.00     0.001 C 
HETATM   23  C11 UNL     1      23.784  58.436  11.002  1.00  0.00     0.000 C 
HETATM   24  C12 UNL     1      22.819  59.008  12.012  1.00  0.00     0.001 C 
HETATM   25  C13 UNL     1      23.172  58.445  13.359  1.00  0.00     0.014 C 
ENDBRANCH  17  20
ENDBRANCH   3  16
TORSDOF 6
ENDMDL
MODEL 5
REMARK VINA RESULT: -7.575050514      3.444      8.563
REMARK  6 active torsions:
REMARK  status: ('A' for Active; 'I' for Inactive)
REMARK    1  A    between atoms: N1_1  and  C1_5 
REMARK    2  A    between atoms: C1_5  and  C2_6 
REMARK    3  A    between atoms: C2_6  and  N2_7 
REMARK       I    between atoms: N2_7  and  C3_9 
REMARK    4  A    between atoms: C3_9  and  C4_11 
REMARK    5  A    between atoms: C6_13  and  N3_14 
REMARK       I    between atoms: N3_14  and  C7_16 
REMARK    6  A    between atoms: C7_16  and  C8_18 
ROOT
HETATM    1  C4  UNL     1      24.176  56.231  14.340  1.00  0.00     0.074 A 
HETATM    2  C5  UNL     1      24.096  55.073  15.043  1.00  0.00     0.054 A 
HETATM    3  C6  UNL     1      24.052  55.148  16.392  1.00  0.00     0.042 A 
HETATM    4  C14 UNL     1      24.092  56.397  16.937  1.00  0.00     0.080 A 
HETATM    5  S1  UNL     1      24.190  57.426  15.558  1.00  0.00    -0.094 SA
ENDROOT
BRANCH   1   6
HETATM    6  C3  UNL     1      24.237  56.413  12.868  1.00  0.00     0.258 C 
HETATM    7  N2  UNL     1      23.415  57.391  12.284  1.00  0.00    -0.355 N 
ATOM      8  H2  UNL     1      22.801  57.950  12.876  1.00  0.00     0.162 HD
HETATM    9  O1  UNL     1      25.023  55.685  12.204  1.00  0.00    -0.267 OA
BRANCH   7  10
HETATM   10  C2  UNL     1      23.428  57.617  10.856  1.00  0.00     0.150 C 
BRANCH  10  11
HETATM   11  C1  UNL     1      22.357  56.769  10.166  1.00  0.00     0.249 C 
BRANCH  11  12
HETATM   12  N1  UNL     1      22.748  55.384  10.150  1.00  0.00    -0.078 N 
ATOM     13  H13 UNL     1      22.055  54.788  10.603  1.00  0.00     0.274 HD
ATOM     14  H12 UNL     1      22.699  54.986   9.213  1.00  0.00     0.274 HD
ATOM     15  H11 UNL     1      23.673  55.271  10.563  1.00  0.00     0.274 HD
ENDBRANCH  11  12
ENDBRANCH  10  11
ENDBRANCH   7  10
ENDBRANCH   1   6
BRANCH   3  16
HETATM   16  N3  UNL     1      23.989  53.962  17.205  1.00  0.00    -0.326 N 
HETATM   17  C7  UNL     1      22.820  53.201  17.309  1.00  0.00     0.226 C 
HETATM   18  O2  UNL     1      21.733  53.436  16.731  1.00  0.00    -0.273 OA
ATOM     19  H3  UNL     1      24.818  53.670  17.721  1.00  0.00     0.169 HD
BRANCH  17  20
HETATM   20  C8  UNL     1      22.798  51.962  18.184  1.00  0.00     0.078 C 
HETATM   21  C9  UNL     1      24.121  51.251  17.883  1.00  0.00     0.014 C 
HETATM   22  C10 UNL     1      24.194  49.926  18.611  1.00  0.00     0.001 C 
HETATM   23  C11 UNL     1      23.466  50.064  19.913  1.00  0.00     0.000 C 
HETATM   24  C12 UNL     1      23.621  51.446  20.501  1.00  0.00     0.001 C 
HETATM   25  C13 UNL     1      22.889  52.411  19.614  1.00  0.00     0.014 C 
ENDBRANCH  17  20
ENDBRANCH   3  16
TORSDOF 6
ENDMDL
