MODEL 1
REMARK VINA RESULT: -7.241074670      0.000      0.000
REMARK  8 active torsions:
REMARK  status: ('A' for Active; 'I' for Inactive)
REMARK    1  A    between atoms: C2_2  and  C4_4 
REMARK    2  A    between atoms: C4_4  and  O1_5 
REMARK    3  A    between atoms: C4_4  and  C5_7 
REMARK    4  A    between atoms: C5_7  and  C6_8 
REMARK    5  A    between atoms: C5_7  and  C7_10 
REMARK    6  A    between atoms: C7_10  and  O2_11 
REMARK    7  A    between atoms: C7_10  and  N1_13 
REMARK    8  A    between atoms: N1_13  and  C8_16 
ROOT
HETATM    1  N1  UNL     1      23.702  52.592  19.124  1.00  0.00    -0.043 N 
ATOM      2  H11 UNL     1      23.775  53.531  19.516  1.00  0.00     0.280 HD
ATOM      3  H12 UNL     1      24.668  52.460  18.827  1.00  0.00     0.280 HD
ENDROOT
BRANCH   1   4
HETATM    4  C7  UNL     1      22.797  52.573  17.982  1.00  0.00     0.330 C 
BRANCH   4   5
HETATM    5  C5  UNL     1      23.530  53.059  16.766  1.00  0.00     0.109 C 
BRANCH   5   6
HETATM    6  C4  UNL     1      23.555  54.498  16.561  1.00  0.00     0.057 C 
BRANCH   6   7
HETATM    7  C2  UNL     1      23.362  55.336  15.430  1.00  0.00    -0.042 C 
HETATM    8  C1  UNL     1      23.058  56.634  15.671  1.00  0.00     0.021 C 
HETATM    9  C3  UNL     1      23.465  54.985  14.014  1.00  0.00     0.050 C 
ENDBRANCH   6   7
BRANCH   6  10
HETATM   10  O1  UNL     1      23.810  55.163  17.676  1.00  0.00    -0.364 OA
ATOM     11  H1  UNL     1      23.029  55.445  18.138  1.00  0.00     0.217 HD
ENDBRANCH   6  10
ENDBRANCH   5   6
BRANCH   5  12
HETATM   12  C6  UNL     1      24.913  52.463  16.658  1.00  0.00     0.101 C 
HETATM   13  S1  UNL     1      25.196  51.966  14.931  1.00  0.00    -0.097 SA
ENDBRANCH   5  12
ENDBRANCH   4   5
BRANCH   4  14
HETATM   14  O2  UNL     1      21.712  53.326  18.280  1.00  0.00    -0.369 OA
ATOM     15  H2  UNL     1      21.298  53.071  19.097  1.00  0.00     0.212 HD
ENDBRANCH   4  14
ENDBRANCH   1   4
BRANCH   1  16
HETATM   16  C8  UNL     1      23.344  51.648  20.127  1.00  0.00     0.197 C 
HETATM   17  C9  UNL     1      23.327  50.219  19.623  1.00  0.00     0.017 C 
HETATM   18  C10 UNL     1      22.855  49.313  20.742  1.00  0.00     0.011 C 
HETATM   19  C14 UNL     1      24.684  49.755  19.199  1.00  0.00     0.011 C 
HETATM   20  C11 UNL     1      23.823  49.360  21.877  1.00  0.00    -0.013 C 
HETATM   21  C12 UNL     1      25.228  48.983  21.443  1.00  0.00     0.009 C 
HETATM   22  C17 UNL     1      23.880  50.781  22.404  1.00  0.00     0.011 C 
HETATM   23  C13 UNL     1      25.650  49.940  20.333  1.00  0.00    -0.013 C 
HETATM   24  C15 UNL     1      25.668  51.360  20.852  1.00  0.00     0.011 C 
HETATM   25  C16 UNL     1      24.294  51.738  21.290  1.00  0.00     0.017 C 
ENDBRANCH   1  16
TORSDOF 8
ENDMDL
MODEL 2
REMARK VINA RESULT: -7.153960343      1.726      3.038
REMARK  8 active torsions:
REMARK  status: ('A' for Active; 'I' for Inactive)
REMARK    1  A    between atoms: C2_2  and  C4_4 
REMARK    2  A    between atoms: C4_4  and  O1_5 
REMARK    3  A    between atoms: C4_4  and  C5_7 
REMARK    4  A    between atoms: C5_7  and  C6_8 
REMARK    5  A    between atoms: C5_7  and  C7_10 
REMARK    6  A    between atoms: C7_10  and  O2_11 
REMARK    7  A    between atoms: C7_10  and  N1_13 
REMARK    8  A    between atoms: N1_13  and  C8_16 
ROOT
HETATM    1  N1  UNL     1      24.854  51.834  18.994  1.00  0.00    -0.043 N 
ATOM      2  H11 UNL     1      24.205  52.535  19.351  1.00  0.00     0.280 HD
ATOM      3  H12 UNL     1      25.736  52.292  19.223  1.00  0.00     0.280 HD
ENDROOT
BRANCH   1   4
HETATM    4  C7  UNL     1      24.708  51.674  17.553  1.00  0.00     0.330 C 
BRANCH   4   5
HETATM    5  C5  UNL     1      23.604  52.569  17.068  1.00  0.00     0.109 C 
BRANCH   5   6
HETATM    6  C4  UNL     1      22.505  52.794  17.992  1.00  0.00     0.057 C 
BRANCH   6   7
HETATM    7  C2  UNL     1      21.202  52.242  18.125  1.00  0.00    -0.042 C 
HETATM    8  C1  UNL     1      20.193  53.106  18.392  1.00  0.00     0.021 C 
HETATM    9  C3  UNL     1      20.792  50.844  17.998  1.00  0.00     0.050 C 
ENDBRANCH   6   7
BRANCH   6  10
HETATM   10  O1  UNL     1      22.789  53.710  18.902  1.00  0.00    -0.364 OA
ATOM     11  H1  UNL     1      22.233  54.479  18.855  1.00  0.00     0.217 HD
ENDBRANCH   6  10
ENDBRANCH   5   6
BRANCH   5  12
HETATM   12  C6  UNL     1      24.130  53.869  16.508  1.00  0.00     0.101 C 
HETATM   13  S1  UNL     1      22.791  54.683  15.583  1.00  0.00    -0.097 SA
ENDBRANCH   5  12
ENDBRANCH   4   5
BRANCH   4  14
HETATM   14  O2  UNL     1      24.483  50.366  17.286  1.00  0.00    -0.369 OA
ATOM     15  H2  UNL     1      24.091  49.902  18.017  1.00  0.00     0.212 HD
ENDBRANCH   4  14
ENDBRANCH   1   4
BRANCH   1  16
HETATM   16  C8  UNL     1      24.719  50.607  19.701  1.00  0.00     0.197 C 
HETATM   17  C9  UNL     1      25.925  50.274  20.556  1.00  0.00     0.017 C 
HETATM   18  C10 UNL     1      25.709  48.917  21.194  1.00  0.00     0.011 C 
HETATM   19  C14 UNL     1      26.128  51.269  21.654  1.00  0.00     0.011 C 
HETATM   20  C11 UNL     1      24.531  48.964  22.108  1.00  0.00    -0.013 C 
HETATM   21  C12 UNL     1      24.680  50.036  23.173  1.00  0.00     0.009 C 
HETATM   22  C17 UNL     1      23.300  49.309  21.292  1.00  0.00     0.011 C 
HETATM   23  C13 UNL     1      24.873  51.375  22.469  1.00  0.00    -0.013 C 
HETATM   24  C15 UNL     1      23.660  51.696  21.625  1.00  0.00     0.011 C 
HETATM   25  C16 UNL     1      23.499  50.645  20.581  1.00  0.00     0.017 C 
ENDBRANCH   1  16
TORSDOF 8
ENDMDL
MODEL 3
REMARK VINA RESULT: -7.095784352      1.706      2.216
REMARK  8 active torsions:
REMARK  status: ('A' for Active; 'I' for Inactive)
REMARK    1  A    between atoms: C2_2  and  C4_4 
REMARK    2  A    between atoms: C4_4  and  O1_5 
REMARK    3  A    between atoms: C4_4  and  C5_7 
REMARK    4  A    between atoms: C5_7  and  C6_8 
REMARK    5  A    between atoms: C5_7  and  C7_10 
REMARK    6  A    between atoms: C7_10  and  O2_11 
REMARK    7  A    between atoms: C7_10  and  N1_13 
REMARK    8  A    between atoms: N1_13  and  C8_16 
ROOT
HETATM    1  N1  UNL     1      24.269  51.179  18.440  1.00  0.00    -0.043 N 
ATOM      2  H11 UNL     1      24.821  50.348  18.232  1.00  0.00     0.280 HD
ATOM      3  H12 UNL     1      23.333  50.788  18.336  1.00  0.00     0.280 HD
ENDROOT
BRANCH   1   4
HETATM    4  C7  UNL     1      24.509  52.225  17.455  1.00  0.00     0.330 C 
BRANCH   4   5
HETATM    5  C5  UNL     1      23.374  53.208  17.493  1.00  0.00     0.109 C 
BRANCH   5   6
HETATM    6  C4  UNL     1      23.648  54.530  16.954  1.00  0.00     0.057 C 
BRANCH   6   7
HETATM    7  C2  UNL     1      23.605  55.090  15.650  1.00  0.00    -0.042 C 
HETATM    8  C1  UNL     1      23.019  56.304  15.520  1.00  0.00     0.021 C 
HETATM    9  C3  UNL     1      24.131  54.530  14.404  1.00  0.00     0.050 C 
ENDBRANCH   6   7
BRANCH   6  10
HETATM   10  O1  UNL     1      24.015  55.391  17.889  1.00  0.00    -0.364 OA
ATOM     11  H1  UNL     1      24.927  55.650  17.831  1.00  0.00     0.217 HD
ENDBRANCH   6  10
ENDBRANCH   5   6
BRANCH   5  12
HETATM   12  C6  UNL     1      22.102  52.631  16.919  1.00  0.00     0.101 C 
HETATM   13  S1  UNL     1      20.833  52.618  18.222  1.00  0.00    -0.097 SA
ENDBRANCH   5  12
ENDBRANCH   4   5
BRANCH   4  14
HETATM   14  O2  UNL     1      24.664  51.646  16.242  1.00  0.00    -0.369 OA
ATOM     15  H2  UNL     1      25.575  51.572  15.981  1.00  0.00     0.212 HD
ENDBRANCH   4  14
ENDBRANCH   1   4
BRANCH   1  16
HETATM   16  C8  UNL     1      24.491  51.618  19.775  1.00  0.00     0.197 C 
HETATM   17  C9  UNL     1      23.354  51.273  20.715  1.00  0.00     0.017 C 
HETATM   18  C10 UNL     1      23.657  51.855  22.080  1.00  0.00     0.011 C 
HETATM   19  C14 UNL     1      23.184  49.796  20.875  1.00  0.00     0.011 C 
HETATM   20  C11 UNL     1      24.888  51.226  22.642  1.00  0.00    -0.013 C 
HETATM   21  C12 UNL     1      24.767  49.714  22.722  1.00  0.00     0.009 C 
HETATM   22  C17 UNL     1      26.052  51.536  21.721  1.00  0.00     0.011 C 
HETATM   23  C13 UNL     1      24.483  49.190  21.318  1.00  0.00    -0.013 C 
HETATM   24  C15 UNL     1      25.629  49.536  20.395  1.00  0.00     0.011 C 
HETATM   25  C16 UNL     1      25.762  51.019  20.315  1.00  0.00     0.017 C 
ENDBRANCH   1  16
TORSDOF 8
ENDMDL
MODEL 4
REMARK VINA RESULT: -7.061854299      1.079      1.685
REMARK  8 active torsions:
REMARK  status: ('A' for Active; 'I' for Inactive)
REMARK    1  A    between atoms: C2_2  and  C4_4 
REMARK    2  A    between atoms: C4_4  and  O1_5 
REMARK    3  A    between atoms: C4_4  and  C5_7 
REMARK    4  A    between atoms: C5_7  and  C6_8 
REMARK    5  A    between atoms: C5_7  and  C7_10 
REMARK    6  A    between atoms: C7_10  and  O2_11 
REMARK    7  A    between atoms: C7_10  and  N1_13 
REMARK    8  A    between atoms: N1_13  and  C8_16 
ROOT
HETATM    1  N1  UNL     1      24.093  51.565  19.077  1.00  0.00    -0.043 N 
ATOM      2  H11 UNL     1      24.991  51.713  18.617  1.00  0.00     0.280 HD
ATOM      3  H12 UNL     1      23.916  50.602  18.792  1.00  0.00     0.280 HD
ENDROOT
BRANCH   1   4
HETATM    4  C7  UNL     1      23.078  52.463  18.541  1.00  0.00     0.330 C 
BRANCH   4   5
HETATM    5  C5  UNL     1      23.425  52.807  17.121  1.00  0.00     0.109 C 
BRANCH   5   6
HETATM    6  C4  UNL     1      22.959  54.096  16.638  1.00  0.00     0.057 C 
BRANCH   6   7
HETATM    7  C2  UNL     1      23.612  55.273  16.184  1.00  0.00    -0.042 C 
HETATM    8  C1  UNL     1      23.605  55.504  14.849  1.00  0.00     0.021 C 
HETATM    9  C3  UNL     1      24.292  56.296  16.977  1.00  0.00     0.050 C 
ENDBRANCH   6   7
BRANCH   6  10
HETATM   10  O1  UNL     1      21.639  54.182  16.620  1.00  0.00    -0.364 OA
ATOM     11  H1  UNL     1      21.293  54.562  15.822  1.00  0.00     0.217 HD
ENDBRANCH   6  10
ENDBRANCH   5   6
BRANCH   5  12
HETATM   12  C6  UNL     1      24.893  52.607  16.830  1.00  0.00     0.101 C 
HETATM   13  S1  UNL     1      25.065  51.981  15.131  1.00  0.00    -0.097 SA
ENDBRANCH   5  12
ENDBRANCH   4   5
BRANCH   4  14
HETATM   14  O2  UNL     1      23.000  53.551  19.343  1.00  0.00    -0.369 OA
ATOM     15  H2  UNL     1      22.105  53.831  19.501  1.00  0.00     0.212 HD
ENDBRANCH   4  14
ENDBRANCH   1   4
BRANCH   1  16
HETATM   16  C8  UNL     1      24.222  51.661  20.491  1.00  0.00     0.197 C 
HETATM   17  C9  UNL     1      23.209  50.822  21.242  1.00  0.00     0.017 C 
HETATM   18  C10 UNL     1      23.383  51.062  22.728  1.00  0.00     0.011 C 
HETATM   19  C14 UNL     1      23.392  49.359  20.991  1.00  0.00     0.011 C 
HETATM   20  C11 UNL     1      24.734  50.603  23.164  1.00  0.00    -0.013 C 
HETATM   21  C12 UNL     1      24.972  49.141  22.829  1.00  0.00     0.009 C 
HETATM   22  C17 UNL     1      25.781  51.411  22.423  1.00  0.00     0.011 C 
HETATM   23  C13 UNL     1      24.802  48.969  21.323  1.00  0.00    -0.013 C 
HETATM   24  C15 UNL     1      25.824  49.808  20.588  1.00  0.00     0.011 C 
HETATM   25  C16 UNL     1      25.604  51.245  20.917  1.00  0.00     0.017 C 
ENDBRANCH   1  16
TORSDOF 8
ENDMDL
MODEL 5
REMARK VINA RESULT: -7.046873672      1.252      1.841
REMARK  8 active torsions:
REMARK  status: ('A' for Active; 'I' for Inactive)
REMARK    1  A    between atoms: C2_2  and  C4_4 
REMARK    2  A    between atoms: C4_4  and  O1_5 
REMARK    3  A    between atoms: C4_4  and  C5_7 
REMARK    4  A    between atoms: C5_7  and  C6_8 
REMARK    5  A    between atoms: C5_7  and  C7_10 
REMARK    6  A    between atoms: C7_10  and  O2_11 
REMARK    7  A    between atoms: C7_10  and  N1_13 
REMARK    8  A    between atoms: N1_13  and  C8_16 
ROOT
HETATM    1  N1  UNL     1      23.770  52.444  19.846  1.00  0.00    -0.043 N 
ATOM      2  H11 UNL     1      23.851  53.404  20.178  1.00  0.00     0.280 HD
ATOM      3  H12 UNL     1      24.683  52.343  19.404  1.00  0.00     0.280 HD
ENDROOT
BRANCH   1   4
HETATM    4  C7  UNL     1      22.699  52.320  18.865  1.00  0.00     0.330 C 
BRANCH   4   5
HETATM    5  C5  UNL     1      23.253  52.589  17.495  1.00  0.00     0.109 C 
BRANCH   5   6
HETATM    6  C4  UNL     1      23.189  53.966  17.034  1.00  0.00     0.057 C 
BRANCH   6   7
HETATM    7  C2  UNL     1      22.567  54.608  15.930  1.00  0.00    -0.042 C 
HETATM    8  C1  UNL     1      21.226  54.459  15.809  1.00  0.00     0.021 C 
HETATM    9  C3  UNL     1      23.186  55.434  14.894  1.00  0.00     0.050 C 
ENDBRANCH   6   7
BRANCH   6  10
HETATM   10  O1  UNL     1      23.857  54.794  17.821  1.00  0.00    -0.364 OA
ATOM     11  H1  UNL     1      24.791  54.810  17.650  1.00  0.00     0.217 HD
ENDBRANCH   6  10
ENDBRANCH   5   6
BRANCH   5  12
HETATM   12  C6  UNL     1      24.636  52.010  17.317  1.00  0.00     0.101 C 
HETATM   13  S1  UNL     1      25.030  51.992  15.541  1.00  0.00    -0.097 SA
ENDBRANCH   5  12
ENDBRANCH   4   5
BRANCH   4  14
HETATM   14  O2  UNL     1      21.703  53.170  19.207  1.00  0.00    -0.369 OA
ATOM     15  H2  UNL     1      21.691  53.373  20.135  1.00  0.00     0.212 HD
ENDBRANCH   4  14
ENDBRANCH   1   4
BRANCH   1  16
HETATM   16  C8  UNL     1      23.627  51.538  20.934  1.00  0.00     0.197 C 
HETATM   17  C9  UNL     1      24.812  50.607  21.094  1.00  0.00     0.017 C 
HETATM   18  C10 UNL     1      24.520  49.638  22.222  1.00  0.00     0.011 C 
HETATM   19  C14 UNL     1      26.066  51.344  21.439  1.00  0.00     0.011 C 
HETATM   20  C11 UNL     1      24.376  50.380  23.508  1.00  0.00    -0.013 C 
HETATM   21  C12 UNL     1      25.606  51.211  23.825  1.00  0.00     0.009 C 
HETATM   22  C17 UNL     1      23.206  51.337  23.385  1.00  0.00     0.011 C 
HETATM   23  C13 UNL     1      25.834  52.176  22.666  1.00  0.00    -0.013 C 
HETATM   24  C15 UNL     1      24.647  53.102  22.522  1.00  0.00     0.011 C 
HETATM   25  C16 UNL     1      23.431  52.295  22.219  1.00  0.00     0.017 C 
ENDBRANCH   1  16
TORSDOF 8
ENDMDL
