MODEL 1
REMARK VINA RESULT: -8.477703919      0.000      0.000
REMARK  8 active torsions:
REMARK  status: ('A' for Active; 'I' for Inactive)
REMARK    1  A    between atoms: C2_2  and  C3_3 
REMARK    2  A    between atoms: C2_2  and  N1_13 
REMARK    3  A    between atoms: C3_3  and  O1_4 
REMARK    4  A    between atoms: O1_4  and  C4_5 
REMARK    5  A    between atoms: C7_8  and  O2_9 
REMARK    6  A    between atoms: N1_13  and  C10_15 
REMARK    7  A    between atoms: C10_15  and  C11_20 
REMARK    8  A    between atoms: N2_16  and  O3_18 
ROOT
HETATM    1  N1  UNL     1      22.818  52.576  17.333  1.00  0.00    -0.372 N 
ATOM      2  H1  UNL     1      22.436  51.791  16.806  1.00  0.00     0.161 HD
ENDROOT
BRANCH   1   3
HETATM    3  C2  UNL     1      22.930  53.890  16.677  1.00  0.00     0.102 C 
HETATM    4  C1  UNL     1      21.568  54.204  16.088  1.00  0.00     0.034 C 
BRANCH   3   5
HETATM    5  C3  UNL     1      23.974  53.712  15.602  1.00  0.00     0.193 C 
BRANCH   5   6
HETATM    6  O1  UNL     1      24.229  54.856  14.947  1.00  0.00    -0.384 OA
BRANCH   6   7
HETATM    7  C4  UNL     1      24.044  54.942  13.609  1.00  0.00     0.121 C 
HETATM    8  C5  UNL     1      24.093  56.394  13.113  1.00  0.00     0.034 C 
HETATM    9  C6  UNL     1      23.856  56.399  11.633  1.00  0.00     0.034 C 
HETATM   10  C7  UNL     1      25.023  55.658  10.995  1.00  0.00     0.118 C 
HETATM   11  C8  UNL     1      24.797  54.200  11.332  1.00  0.00     0.034 C 
HETATM   12  C9  UNL     1      25.005  54.085  12.853  1.00  0.00     0.034 C 
BRANCH  10  13
HETATM   13  O2  UNL     1      25.110  55.885   9.634  1.00  0.00    -0.396 OA
ATOM     14  H2  UNL     1      24.273  56.128   9.254  1.00  0.00     0.210 HD
ENDBRANCH  10  13
ENDBRANCH   6   7
ENDBRANCH   5   6
ENDBRANCH   3   5
ENDBRANCH   1   3
BRANCH   1  15
HETATM   15  C10 UNL     1      23.225  52.371  18.681  1.00  0.00     0.102 C 
HETATM   16  N2  UNL     1      23.076  53.331  19.522  1.00  0.00    -0.257 N 
ATOM     17  H2  UNL     1      22.674  54.221  19.228  1.00  0.00     0.195 HD
BRANCH  16  18
HETATM   18  O3  UNL     1      23.467  53.138  20.818  1.00  0.00    -0.288 OA
ATOM     19  H3  UNL     1      22.977  53.564  21.512  1.00  0.00     0.244 HD
ENDBRANCH  16  18
BRANCH  15  20
HETATM   20  C11 UNL     1      23.802  51.095  19.110  1.00  0.00     0.055 C 
HETATM   21  C12 UNL     1      22.693  50.172  19.621  1.00  0.00     0.012 C 
HETATM   22  C13 UNL     1      23.387  49.154  20.529  1.00  0.00     0.001 C 
HETATM   23  C14 UNL     1      24.732  48.846  19.960  1.00  0.00     0.000 C 
HETATM   24  C15 UNL     1      24.795  48.965  18.467  1.00  0.00     0.001 C 
HETATM   25  C16 UNL     1      24.481  50.346  17.981  1.00  0.00     0.012 C 
ENDBRANCH  15  20
ENDBRANCH   1  15
TORSDOF 8
ENDMDL
MODEL 2
REMARK VINA RESULT: -8.331862499      2.620      8.392
REMARK  8 active torsions:
REMARK  status: ('A' for Active; 'I' for Inactive)
REMARK    1  A    between atoms: C2_2  and  C3_3 
REMARK    2  A    between atoms: C2_2  and  N1_13 
REMARK    3  A    between atoms: C3_3  and  O1_4 
REMARK    4  A    between atoms: O1_4  and  C4_5 
REMARK    5  A    between atoms: C7_8  and  O2_9 
REMARK    6  A    between atoms: N1_13  and  C10_15 
REMARK    7  A    between atoms: C10_15  and  C11_20 
REMARK    8  A    between atoms: N2_16  and  O3_18 
ROOT
HETATM    1  N1  UNL     1      23.894  54.539  13.406  1.00  0.00    -0.372 N 
ATOM      2  H1  UNL     1      22.931  54.230  13.276  1.00  0.00     0.161 HD
ENDROOT
BRANCH   1   3
HETATM    3  C2  UNL     1      24.580  54.231  14.672  1.00  0.00     0.102 C 
HETATM    4  C1  UNL     1      25.014  52.779  14.593  1.00  0.00     0.034 C 
BRANCH   3   5
HETATM    5  C3  UNL     1      23.546  54.443  15.750  1.00  0.00     0.193 C 
BRANCH   5   6
HETATM    6  O1  UNL     1      23.913  53.900  16.921  1.00  0.00    -0.384 OA
BRANCH   6   7
HETATM    7  C4  UNL     1      23.036  53.166  17.646  1.00  0.00     0.121 C 
HETATM    8  C5  UNL     1      21.621  53.207  17.051  1.00  0.00     0.034 C 
HETATM    9  C6  UNL     1      20.715  52.393  17.923  1.00  0.00     0.034 C 
HETATM   10  C7  UNL     1      21.202  50.953  17.846  1.00  0.00     0.118 C 
HETATM   11  C8  UNL     1      22.488  50.927  18.641  1.00  0.00     0.034 C 
HETATM   12  C9  UNL     1      23.499  51.758  17.829  1.00  0.00     0.034 C 
BRANCH  10  13
HETATM   13  O2  UNL     1      20.263  50.054  18.318  1.00  0.00    -0.396 OA
ATOM     14  H2  UNL     1      20.296  49.960  19.263  1.00  0.00     0.210 HD
ENDBRANCH  10  13
ENDBRANCH   6   7
ENDBRANCH   5   6
ENDBRANCH   3   5
ENDBRANCH   1   3
BRANCH   1  15
HETATM   15  C10 UNL     1      24.537  55.257  12.359  1.00  0.00     0.102 C 
HETATM   16  N2  UNL     1      25.502  54.690  11.727  1.00  0.00    -0.257 N 
ATOM     17  H2  UNL     1      25.800  53.747  11.972  1.00  0.00     0.195 HD
BRANCH  16  18
HETATM   18  O3  UNL     1      26.122  55.377  10.719  1.00  0.00    -0.288 OA
ATOM     19  H3  UNL     1      26.268  54.938   9.889  1.00  0.00     0.244 HD
ENDBRANCH  16  18
BRANCH  15  20
HETATM   20  C11 UNL     1      24.113  56.612  12.000  1.00  0.00     0.055 C 
HETATM   21  C12 UNL     1      22.933  56.544  11.027  1.00  0.00     0.012 C 
HETATM   22  C13 UNL     1      22.921  57.888  10.295  1.00  0.00     0.001 C 
HETATM   23  C14 UNL     1      23.342  58.956  11.251  1.00  0.00     0.000 C 
HETATM   24  C15 UNL     1      22.982  58.662  12.677  1.00  0.00     0.001 C 
HETATM   25  C16 UNL     1      23.625  57.411  13.192  1.00  0.00     0.012 C 
ENDBRANCH  15  20
ENDBRANCH   1  15
TORSDOF 8
ENDMDL
MODEL 3
REMARK VINA RESULT: -8.250413019      2.336      3.430
REMARK  8 active torsions:
REMARK  status: ('A' for Active; 'I' for Inactive)
REMARK    1  A    between atoms: C2_2  and  C3_3 
REMARK    2  A    between atoms: C2_2  and  N1_13 
REMARK    3  A    between atoms: C3_3  and  O1_4 
REMARK    4  A    between atoms: O1_4  and  C4_5 
REMARK    5  A    between atoms: C7_8  and  O2_9 
REMARK    6  A    between atoms: N1_13  and  C10_15 
REMARK    7  A    between atoms: C10_15  and  C11_20 
REMARK    8  A    between atoms: N2_16  and  O3_18 
ROOT
HETATM    1  N1  UNL     1      23.760  54.873  17.173  1.00  0.00    -0.372 N 
ATOM      2  H1  UNL     1      23.397  55.115  18.095  1.00  0.00     0.161 HD
ENDROOT
BRANCH   1   3
HETATM    3  C2  UNL     1      24.175  55.953  16.262  1.00  0.00     0.102 C 
HETATM    4  C1  UNL     1      24.548  57.139  17.131  1.00  0.00     0.034 C 
BRANCH   3   5
HETATM    5  C3  UNL     1      22.964  56.247  15.410  1.00  0.00     0.193 C 
BRANCH   5   6
HETATM    6  O1  UNL     1      23.033  57.454  14.828  1.00  0.00    -0.384 OA
BRANCH   6   7
HETATM    7  C4  UNL     1      23.515  57.586  13.569  1.00  0.00     0.121 C 
HETATM    8  C5  UNL     1      23.414  56.276  12.775  1.00  0.00     0.034 C 
HETATM    9  C6  UNL     1      23.987  56.503  11.409  1.00  0.00     0.034 C 
HETATM   10  C7  UNL     1      23.095  57.526  10.719  1.00  0.00     0.118 C 
HETATM   11  C8  UNL     1      23.404  58.842  11.399  1.00  0.00     0.034 C 
HETATM   12  C9  UNL     1      22.861  58.709  12.834  1.00  0.00     0.034 C 
BRANCH  10  13
HETATM   13  O2  UNL     1      23.303  57.568   9.352  1.00  0.00    -0.396 OA
ATOM     14  H2  UNL     1      22.997  58.380   8.965  1.00  0.00     0.210 HD
ENDBRANCH  10  13
ENDBRANCH   6   7
ENDBRANCH   5   6
ENDBRANCH   3   5
ENDBRANCH   1   3
BRANCH   1  15
HETATM   15  C10 UNL     1      23.850  53.502  16.803  1.00  0.00     0.102 C 
HETATM   16  N2  UNL     1      24.792  53.139  16.008  1.00  0.00    -0.257 N 
ATOM     17  H2  UNL     1      25.461  53.821  15.651  1.00  0.00     0.195 HD
BRANCH  16  18
HETATM   18  O3  UNL     1      24.882  51.822  15.651  1.00  0.00    -0.288 OA
ATOM     19  H3  UNL     1      25.318  51.597  14.838  1.00  0.00     0.244 HD
ENDBRANCH  16  18
BRANCH  15  20
HETATM   20  C11 UNL     1      22.894  52.517  17.314  1.00  0.00     0.055 C 
HETATM   21  C12 UNL     1      23.204  52.208  18.782  1.00  0.00     0.012 C 
HETATM   22  C13 UNL     1      22.576  50.840  19.058  1.00  0.00     0.001 C 
HETATM   23  C14 UNL     1      21.305  50.732  18.283  1.00  0.00     0.000 C 
HETATM   24  C15 UNL     1      20.622  52.049  18.062  1.00  0.00     0.001 C 
HETATM   25  C16 UNL     1      21.463  53.016  17.287  1.00  0.00     0.012 C 
ENDBRANCH  15  20
ENDBRANCH   1  15
TORSDOF 8
ENDMDL
MODEL 4
REMARK VINA RESULT: -8.197116078      2.085      2.916
REMARK  8 active torsions:
REMARK  status: ('A' for Active; 'I' for Inactive)
REMARK    1  A    between atoms: C2_2  and  C3_3 
REMARK    2  A    between atoms: C2_2  and  N1_13 
REMARK    3  A    between atoms: C3_3  and  O1_4 
REMARK    4  A    between atoms: O1_4  and  C4_5 
REMARK    5  A    between atoms: C7_8  and  O2_9 
REMARK    6  A    between atoms: N1_13  and  C10_15 
REMARK    7  A    between atoms: C10_15  and  C11_20 
REMARK    8  A    between atoms: N2_16  and  O3_18 
ROOT
HETATM    1  N1  UNL     1      23.246  53.098  18.607  1.00  0.00    -0.372 N 
ATOM      2  H1  UNL     1      23.277  53.871  19.271  1.00  0.00     0.161 HD
ENDROOT
BRANCH   1   3
HETATM    3  C2  UNL     1      23.478  53.372  17.179  1.00  0.00     0.102 C 
HETATM    4  C1  UNL     1      24.647  52.506  16.751  1.00  0.00     0.034 C 
BRANCH   3   5
HETATM    5  C3  UNL     1      23.818  54.841  17.103  1.00  0.00     0.193 C 
BRANCH   5   6
HETATM    6  O1  UNL     1      23.036  55.499  16.233  1.00  0.00    -0.384 OA
BRANCH   6   7
HETATM    7  C4  UNL     1      23.580  56.187  15.201  1.00  0.00     0.121 C 
HETATM    8  C5  UNL     1      23.623  55.352  13.913  1.00  0.00     0.034 C 
HETATM    9  C6  UNL     1      24.257  56.176  12.834  1.00  0.00     0.034 C 
HETATM   10  C7  UNL     1      23.334  57.360  12.580  1.00  0.00     0.118 C 
HETATM   11  C8  UNL     1      23.505  58.259  13.786  1.00  0.00     0.034 C 
HETATM   12  C9  UNL     1      22.890  57.491  14.970  1.00  0.00     0.034 C 
BRANCH  10  13
HETATM   13  O2  UNL     1      23.618  58.003  11.389  1.00  0.00    -0.396 OA
ATOM     14  H2  UNL     1      24.174  57.483  10.821  1.00  0.00     0.210 HD
ENDBRANCH  10  13
ENDBRANCH   6   7
ENDBRANCH   5   6
ENDBRANCH   3   5
ENDBRANCH   1   3
BRANCH   1  15
HETATM   15  C10 UNL     1      22.978  51.785  19.086  1.00  0.00     0.102 C 
HETATM   16  N2  UNL     1      22.161  51.044  18.428  1.00  0.00    -0.257 N 
ATOM     17  H2  UNL     1      21.713  51.391  17.580  1.00  0.00     0.195 HD
BRANCH  16  18
HETATM   18  O3  UNL     1      21.902  49.781  18.886  1.00  0.00    -0.288 OA
ATOM     19  H3  UNL     1      22.238  49.039  18.397  1.00  0.00     0.244 HD
ENDBRANCH  16  18
BRANCH  15  20
HETATM   20  C11 UNL     1      23.619  51.280  20.303  1.00  0.00     0.055 C 
HETATM   21  C12 UNL     1      25.028  50.777  19.975  1.00  0.00     0.012 C 
HETATM   22  C13 UNL     1      25.390  49.800  21.096  1.00  0.00     0.001 C 
HETATM   23  C14 UNL     1      24.801  50.301  22.374  1.00  0.00     0.000 C 
HETATM   24  C15 UNL     1      24.680  51.794  22.436  1.00  0.00     0.001 C 
HETATM   25  C16 UNL     1      23.794  52.349  21.364  1.00  0.00     0.012 C 
ENDBRANCH  15  20
ENDBRANCH   1  15
TORSDOF 8
ENDMDL
MODEL 5
REMARK VINA RESULT: -8.176288243      1.495      1.991
REMARK  8 active torsions:
REMARK  status: ('A' for Active; 'I' for Inactive)
REMARK    1  A    between atoms: C2_2  and  C3_3 
REMARK    2  A    between atoms: C2_2  and  N1_13 
REMARK    3  A    between atoms: C3_3  and  O1_4 
REMARK    4  A    between atoms: O1_4  and  C4_5 
REMARK    5  A    between atoms: C7_8  and  O2_9 
REMARK    6  A    between atoms: N1_13  and  C10_15 
REMARK    7  A    between atoms: C10_15  and  C11_20 
REMARK    8  A    between atoms: N2_16  and  O3_18 
ROOT
HETATM    1  N1  UNL     1      22.564  53.330  17.591  1.00  0.00    -0.372 N 
ATOM      2  H1  UNL     1      22.590  54.156  18.188  1.00  0.00     0.161 HD
ENDROOT
BRANCH   1   3
HETATM    3  C2  UNL     1      23.184  53.393  16.256  1.00  0.00     0.102 C 
HETATM    4  C1  UNL     1      24.593  52.850  16.402  1.00  0.00     0.034 C 
BRANCH   3   5
HETATM    5  C3  UNL     1      23.188  54.856  15.885  1.00  0.00     0.193 C 
BRANCH   5   6
HETATM    6  O1  UNL     1      24.181  55.162  15.035  1.00  0.00    -0.384 OA
BRANCH   6   7
HETATM    7  C4  UNL     1      23.956  55.213  13.701  1.00  0.00     0.121 C 
HETATM    8  C5  UNL     1      24.012  56.650  13.163  1.00  0.00     0.034 C 
HETATM    9  C6  UNL     1      23.730  56.617  11.692  1.00  0.00     0.034 C 
HETATM   10  C7  UNL     1      24.865  55.840  11.040  1.00  0.00     0.118 C 
HETATM   11  C8  UNL     1      24.627  54.396  11.425  1.00  0.00     0.034 C 
HETATM   12  C9  UNL     1      24.880  54.320  12.942  1.00  0.00     0.034 C 
BRANCH  10  13
HETATM   13  O2  UNL     1      24.913  56.027   9.671  1.00  0.00    -0.396 OA
ATOM     14  H2  UNL     1      25.623  55.543   9.264  1.00  0.00     0.210 HD
ENDBRANCH  10  13
ENDBRANCH   6   7
ENDBRANCH   5   6
ENDBRANCH   3   5
ENDBRANCH   1   3
BRANCH   1  15
HETATM   15  C10 UNL     1      21.932  52.149  18.070  1.00  0.00     0.102 C 
HETATM   16  N2  UNL     1      20.838  51.767  17.514  1.00  0.00    -0.257 N 
ATOM     17  H2  UNL     1      20.433  52.301  16.745  1.00  0.00     0.195 HD
BRANCH  16  18
HETATM   18  O3  UNL     1      20.227  50.633  17.973  1.00  0.00    -0.288 OA
ATOM     19  H3  UNL     1      20.765  49.879  18.188  1.00  0.00     0.244 HD
ENDBRANCH  16  18
BRANCH  15  20
HETATM   20  C11 UNL     1      22.509  51.378  19.174  1.00  0.00     0.055 C 
HETATM   21  C12 UNL     1      23.463  50.317  18.619  1.00  0.00     0.012 C 
HETATM   22  C13 UNL     1      23.571  49.247  19.708  1.00  0.00     0.001 C 
HETATM   23  C14 UNL     1      23.519  49.917  21.042  1.00  0.00     0.000 C 
HETATM   24  C15 UNL     1      24.077  51.309  21.038  1.00  0.00     0.001 C 
HETATM   25  C16 UNL     1      23.334  52.228  20.119  1.00  0.00     0.012 C 
ENDBRANCH  15  20
ENDBRANCH   1  15
TORSDOF 8
ENDMDL
