MODEL 1
REMARK VINA RESULT: -8.452607584      0.000      0.000
REMARK  3 active torsions:
REMARK  status: ('A' for Active; 'I' for Inactive)
REMARK    1  A    between atoms: C4_8  and  C5_9 
REMARK    2  A    between atoms: C6_10  and  C7_11 
REMARK    3  A    between atoms: C7_11  and  O2_12 
ROOT
HETATM    1  C7  UNL     1      30.937  48.237   6.336  1.00  0.00     0.126 C 
HETATM    2  C8  UNL     1      31.878  48.938   7.288  1.00  0.00     0.057 C 
HETATM    3  C9  UNL     1      32.247  47.900   8.349  1.00  0.00     0.075 C 
HETATM    4  C10 UNL     1      32.006  46.617   7.601  1.00  0.00     0.204 C 
HETATM    5  C11 UNL     1      30.651  46.887   6.977  1.00  0.00     0.122 C 
HETATM    6  O3  UNL     1      32.928  46.480   6.573  1.00  0.00    -0.197 OA
HETATM    7  O4  UNL     1      33.822  45.653   7.006  1.00  0.00    -0.197 OA
HETATM    8  C12 UNL     1      33.283  44.944   8.071  1.00  0.00     0.208 C 
HETATM    9  O5  UNL     1      32.053  45.492   8.365  1.00  0.00    -0.312 OA
HETATM   10  C13 UNL     1      34.260  44.992   9.203  1.00  0.00     0.052 C 
HETATM   11  C14 UNL     1      35.612  44.545   8.685  1.00  0.00     0.014 C 
HETATM   12  C15 UNL     1      35.519  43.113   8.254  1.00  0.00    -0.013 C 
HETATM   13  C16 UNL     1      35.055  42.216   9.382  1.00  0.00     0.009 C 
HETATM   14  C17 UNL     1      33.714  42.699   9.866  1.00  0.00    -0.013 C 
HETATM   15  C18 UNL     1      33.869  44.113  10.370  1.00  0.00     0.014 C 
HETATM   16  C19 UNL     1      32.667  42.697   8.795  1.00  0.00     0.014 C 
HETATM   17  C20 UNL     1      33.164  43.496   7.617  1.00  0.00     0.052 C 
HETATM   18  C21 UNL     1      34.513  43.018   7.138  1.00  0.00     0.014 C 
ENDROOT
BRANCH   1  19
HETATM   19  C6  UNL     1      29.658  48.928   6.207  1.00  0.00    -0.060 C 
HETATM   20  C5  UNL     1      28.589  49.482   6.103  1.00  0.00    -0.035 C 
BRANCH  20  21
HETATM   21  C4  UNL     1      27.307  50.122   5.988  1.00  0.00     0.161 A 
HETATM   22  C2  UNL     1      26.162  49.735   6.665  1.00  0.00     0.023 A 
HETATM   23  C1  UNL     1      26.062  48.611   7.610  1.00  0.00     0.055 C 
HETATM   24  C3  UNL     1      25.126  50.589   6.299  1.00  0.00     0.133 A 
HETATM   25 CL1  UNL     1      23.464  50.567   6.843  1.00  0.00    -0.062 Cl
HETATM   26  N1  UNL     1      25.703  51.444   5.421  1.00  0.00    -0.248 N 
HETATM   27  O1  UNL     1      26.952  51.155   5.261  1.00  0.00    -0.227 OA
ATOM     28  H1  UNL     1      25.219  52.209   4.952  1.00  0.00     0.196 HD
ENDBRANCH  20  21
ENDBRANCH   1  19
BRANCH   1  29
HETATM   29  O2  UNL     1      31.529  47.994   5.104  1.00  0.00    -0.377 OA
ATOM     30  H2  UNL     1      32.203  48.631   4.898  1.00  0.00     0.211 HD
ENDBRANCH   1  29
TORSDOF 3
ENDMDL
MODEL 2
REMARK VINA RESULT: -8.210531091      1.480      2.036
REMARK  3 active torsions:
REMARK  status: ('A' for Active; 'I' for Inactive)
REMARK    1  A    between atoms: C4_8  and  C5_9 
REMARK    2  A    between atoms: C6_10  and  C7_11 
REMARK    3  A    between atoms: C7_11  and  O2_12 
ROOT
HETATM    1  C7  UNL     1      30.123  48.573   7.354  1.00  0.00     0.126 C 
HETATM    2  C8  UNL     1      29.448  47.826   8.480  1.00  0.00     0.057 C 
HETATM    3  C9  UNL     1      29.951  46.384   8.384  1.00  0.00     0.075 C 
HETATM    4  C10 UNL     1      31.258  46.577   7.663  1.00  0.00     0.204 C 
HETATM    5  C11 UNL     1      30.844  47.507   6.541  1.00  0.00     0.122 C 
HETATM    6  O3  UNL     1      32.156  47.259   8.472  1.00  0.00    -0.197 OA
HETATM    7  O4  UNL     1      32.952  46.361   8.953  1.00  0.00    -0.197 OA
HETATM    8  C12 UNL     1      32.866  45.227   8.157  1.00  0.00     0.208 C 
HETATM    9  O5  UNL     1      31.853  45.428   7.244  1.00  0.00    -0.312 OA
HETATM   10  C13 UNL     1      32.657  44.047   9.051  1.00  0.00     0.052 C 
HETATM   11  C14 UNL     1      33.731  44.064  10.121  1.00  0.00     0.014 C 
HETATM   12  C15 UNL     1      35.069  43.883   9.471  1.00  0.00    -0.013 C 
HETATM   13  C16 UNL     1      35.135  42.603   8.667  1.00  0.00     0.009 C 
HETATM   14  C17 UNL     1      34.051  42.628   7.623  1.00  0.00    -0.013 C 
HETATM   15  C18 UNL     1      32.717  42.724   8.321  1.00  0.00     0.014 C 
HETATM   16  C19 UNL     1      34.170  43.787   6.681  1.00  0.00     0.014 C 
HETATM   17  C20 UNL     1      34.218  45.067   7.477  1.00  0.00     0.052 C 
HETATM   18  C21 UNL     1      35.298  45.037   8.531  1.00  0.00     0.014 C 
ENDROOT
BRANCH   1  19
HETATM   19  C6  UNL     1      29.167  49.219   6.460  1.00  0.00    -0.060 C 
HETATM   20  C5  UNL     1      28.368  49.764   5.736  1.00  0.00    -0.035 C 
BRANCH  20  21
HETATM   21  C4  UNL     1      27.414  50.429   4.891  1.00  0.00     0.161 A 
HETATM   22  C2  UNL     1      26.096  50.686   5.231  1.00  0.00     0.023 A 
HETATM   23  C1  UNL     1      25.451  50.327   6.504  1.00  0.00     0.055 C 
HETATM   24  C3  UNL     1      25.487  51.341   4.164  1.00  0.00     0.133 A 
HETATM   25 CL1  UNL     1      23.837  51.905   4.041  1.00  0.00    -0.062 Cl
HETATM   26  N1  UNL     1      26.473  51.442   3.240  1.00  0.00    -0.248 N 
HETATM   27  O1  UNL     1      27.565  50.913   3.681  1.00  0.00    -0.227 OA
ATOM     28  H1  UNL     1      26.367  51.876   2.323  1.00  0.00     0.196 HD
ENDBRANCH  20  21
ENDBRANCH   1  19
BRANCH   1  29
HETATM   29  O2  UNL     1      31.085  49.458   7.821  1.00  0.00    -0.377 OA
ATOM     30  H2  UNL     1      31.904  49.023   8.027  1.00  0.00     0.211 HD
ENDBRANCH   1  29
TORSDOF 3
ENDMDL
MODEL 3
REMARK VINA RESULT: -8.191130716      1.813      3.044
REMARK  3 active torsions:
REMARK  status: ('A' for Active; 'I' for Inactive)
REMARK    1  A    between atoms: C4_8  and  C5_9 
REMARK    2  A    between atoms: C6_10  and  C7_11 
REMARK    3  A    between atoms: C7_11  and  O2_12 
ROOT
HETATM    1  C7  UNL     1      28.539  46.865   8.446  1.00  0.00     0.126 C 
HETATM    2  C8  UNL     1      28.470  45.564   7.682  1.00  0.00     0.057 C 
HETATM    3  C9  UNL     1      29.881  45.322   7.142  1.00  0.00     0.075 C 
HETATM    4  C10 UNL     1      30.708  46.121   8.114  1.00  0.00     0.204 C 
HETATM    5  C11 UNL     1      29.929  47.420   8.169  1.00  0.00     0.122 C 
HETATM    6  O3  UNL     1      30.659  45.541   9.374  1.00  0.00    -0.197 OA
HETATM    7  O4  UNL     1      31.766  44.887   9.507  1.00  0.00    -0.197 OA
HETATM    8  C12 UNL     1      32.677  45.376   8.581  1.00  0.00     0.208 C 
HETATM    9  O5  UNL     1      32.014  46.268   7.765  1.00  0.00    -0.312 OA
HETATM   10  C13 UNL     1      33.271  44.210   7.855  1.00  0.00     0.052 C 
HETATM   11  C14 UNL     1      33.787  43.222   8.882  1.00  0.00     0.014 C 
HETATM   12  C15 UNL     1      34.899  43.861   9.657  1.00  0.00    -0.013 C 
HETATM   13  C16 UNL     1      36.019  44.327   8.752  1.00  0.00     0.009 C 
HETATM   14  C17 UNL     1      35.461  45.301   7.749  1.00  0.00    -0.013 C 
HETATM   15  C18 UNL     1      34.407  44.594   6.933  1.00  0.00     0.014 C 
HETATM   16  C19 UNL     1      34.832  46.503   8.384  1.00  0.00     0.014 C 
HETATM   17  C20 UNL     1      33.788  46.050   9.373  1.00  0.00     0.052 C 
HETATM   18  C21 UNL     1      34.346  45.065  10.373  1.00  0.00     0.014 C 
ENDROOT
BRANCH   1  19
HETATM   19  C6  UNL     1      27.581  47.851   7.956  1.00  0.00    -0.060 C 
HETATM   20  C5  UNL     1      26.801  48.672   7.535  1.00  0.00    -0.035 C 
BRANCH  20  21
HETATM   21  C4  UNL     1      25.884  49.650   7.015  1.00  0.00     0.161 A 
HETATM   22  C2  UNL     1      26.166  50.534   5.986  1.00  0.00     0.023 A 
HETATM   23  C1  UNL     1      27.440  50.624   5.255  1.00  0.00     0.055 C 
HETATM   24  C3  UNL     1      25.040  51.321   5.763  1.00  0.00     0.133 A 
HETATM   25 CL1  UNL     1      24.829  52.598   4.588  1.00  0.00    -0.062 Cl
HETATM   26  N1  UNL     1      24.141  50.868   6.671  1.00  0.00    -0.248 N 
HETATM   27  O1  UNL     1      24.650  49.912   7.374  1.00  0.00    -0.227 OA
ATOM     28  H1  UNL     1      23.195  51.232   6.783  1.00  0.00     0.196 HD
ENDBRANCH  20  21
ENDBRANCH   1  19
BRANCH   1  29
HETATM   29  O2  UNL     1      28.437  46.670   9.816  1.00  0.00    -0.377 OA
ATOM     30  H2  UNL     1      27.566  46.391  10.075  1.00  0.00     0.211 HD
ENDBRANCH   1  29
TORSDOF 3
ENDMDL
MODEL 4
REMARK VINA RESULT: -7.900042713      3.255      4.240
REMARK  3 active torsions:
REMARK  status: ('A' for Active; 'I' for Inactive)
REMARK    1  A    between atoms: C4_8  and  C5_9 
REMARK    2  A    between atoms: C6_10  and  C7_11 
REMARK    3  A    between atoms: C7_11  and  O2_12 
ROOT
HETATM    1  C7  UNL     1      30.920  48.655   7.268  1.00  0.00     0.126 C 
HETATM    2  C8  UNL     1      30.564  47.707   6.147  1.00  0.00     0.057 C 
HETATM    3  C9  UNL     1      31.709  46.694   6.079  1.00  0.00     0.075 C 
HETATM    4  C10 UNL     1      32.254  46.773   7.479  1.00  0.00     0.204 C 
HETATM    5  C11 UNL     1      32.333  48.272   7.683  1.00  0.00     0.122 C 
HETATM    6  O3  UNL     1      31.329  46.268   8.383  1.00  0.00    -0.197 OA
HETATM    7  O4  UNL     1      31.727  45.071   8.667  1.00  0.00    -0.197 OA
HETATM    8  C12 UNL     1      33.069  44.964   8.324  1.00  0.00     0.208 C 
HETATM    9  O5  UNL     1      33.432  46.121   7.670  1.00  0.00    -0.312 OA
HETATM   10  C13 UNL     1      33.241  43.721   7.509  1.00  0.00     0.052 C 
HETATM   11  C14 UNL     1      32.623  42.564   8.269  1.00  0.00     0.014 C 
HETATM   12  C15 UNL     1      33.384  42.355   9.542  1.00  0.00    -0.013 C 
HETATM   13  C16 UNL     1      34.853  42.102   9.283  1.00  0.00     0.009 C 
HETATM   14  C17 UNL     1      35.422  43.271   8.526  1.00  0.00    -0.013 C 
HETATM   15  C18 UNL     1      34.688  43.394   7.214  1.00  0.00     0.014 C 
HETATM   16  C19 UNL     1      35.287  44.569   9.261  1.00  0.00     0.014 C 
HETATM   17  C20 UNL     1      33.839  44.782   9.625  1.00  0.00     0.052 C 
HETATM   18  C21 UNL     1      33.265  43.604  10.375  1.00  0.00     0.014 C 
ENDROOT
BRANCH   1  19
HETATM   19  C6  UNL     1      30.966  50.046   6.829  1.00  0.00    -0.060 C 
HETATM   20  C5  UNL     1      31.016  51.192   6.449  1.00  0.00    -0.035 C 
BRANCH  20  21
HETATM   21  C4  UNL     1      31.082  52.548   5.976  1.00  0.00     0.161 A 
HETATM   22  C2  UNL     1      32.054  53.045   5.123  1.00  0.00     0.023 A 
HETATM   23  C1  UNL     1      33.177  52.278   4.560  1.00  0.00     0.055 C 
HETATM   24  C3  UNL     1      31.788  54.392   4.892  1.00  0.00     0.133 A 
HETATM   25 CL1  UNL     1      32.685  55.516   3.897  1.00  0.00    -0.062 Cl
HETATM   26  N1  UNL     1      30.669  54.632   5.618  1.00  0.00    -0.248 N 
HETATM   27  O1  UNL     1      30.286  53.560   6.228  1.00  0.00    -0.227 OA
ATOM     28  H1  UNL     1      30.196  55.533   5.675  1.00  0.00     0.196 HD
ENDBRANCH  20  21
ENDBRANCH   1  19
BRANCH   1  29
HETATM   29  O2  UNL     1      30.101  48.482   8.375  1.00  0.00    -0.377 OA
ATOM     30  H2  UNL     1      29.402  47.859   8.211  1.00  0.00     0.211 HD
ENDBRANCH   1  29
TORSDOF 3
ENDMDL
MODEL 5
REMARK VINA RESULT: -7.887461111      2.038      3.206
REMARK  3 active torsions:
REMARK  status: ('A' for Active; 'I' for Inactive)
REMARK    1  A    between atoms: C4_8  and  C5_9 
REMARK    2  A    between atoms: C6_10  and  C7_11 
REMARK    3  A    between atoms: C7_11  and  O2_12 
ROOT
HETATM    1  C7  UNL     1      29.579  47.185   7.801  1.00  0.00     0.126 C 
HETATM    2  C8  UNL     1      29.875  46.189   6.705  1.00  0.00     0.057 C 
HETATM    3  C9  UNL     1      31.337  46.418   6.317  1.00  0.00     0.075 C 
HETATM    4  C10 UNL     1      31.880  47.040   7.575  1.00  0.00     0.204 C 
HETATM    5  C11 UNL     1      30.813  48.072   7.881  1.00  0.00     0.122 C 
HETATM    6  O3  UNL     1      31.882  46.111   8.607  1.00  0.00    -0.197 OA
HETATM    7  O4  UNL     1      33.101  45.691   8.703  1.00  0.00    -0.197 OA
HETATM    8  C12 UNL     1      33.932  46.613   8.081  1.00  0.00     0.208 C 
HETATM    9  O5  UNL     1      33.135  47.552   7.463  1.00  0.00    -0.312 OA
HETATM   10  C13 UNL     1      34.835  45.869   7.149  1.00  0.00     0.052 C 
HETATM   11  C14 UNL     1      35.498  44.747   7.922  1.00  0.00     0.014 C 
HETATM   12  C15 UNL     1      36.370  45.338   8.988  1.00  0.00    -0.013 C 
HETATM   13  C16 UNL     1      37.407  46.276   8.410  1.00  0.00     0.009 C 
HETATM   14  C17 UNL     1      36.705  47.369   7.650  1.00  0.00    -0.013 C 
HETATM   15  C18 UNL     1      35.909  46.739   6.534  1.00  0.00     0.014 C 
HETATM   16  C19 UNL     1      35.766  48.167   8.501  1.00  0.00     0.014 C 
HETATM   17  C20 UNL     1      34.793  47.231   9.174  1.00  0.00     0.052 C 
HETATM   18  C21 UNL     1      35.498  46.129   9.928  1.00  0.00     0.014 C 
ENDROOT
BRANCH   1  19
HETATM   19  C6  UNL     1      28.450  48.052   7.478  1.00  0.00    -0.060 C 
HETATM   20  C5  UNL     1      27.504  48.758   7.222  1.00  0.00    -0.035 C 
BRANCH  20  21
HETATM   21  C4  UNL     1      26.365  49.589   6.934  1.00  0.00     0.161 A 
HETATM   22  C2  UNL     1      26.289  50.498   5.892  1.00  0.00     0.023 A 
HETATM   23  C1  UNL     1      27.350  50.769   4.908  1.00  0.00     0.055 C 
HETATM   24  C3  UNL     1      25.040  51.110   5.935  1.00  0.00     0.133 A 
HETATM   25 CL1  UNL     1      24.399  52.336   4.865  1.00  0.00    -0.062 Cl
HETATM   26  N1  UNL     1      24.432  50.536   7.001  1.00  0.00    -0.248 N 
HETATM   27  O1  UNL     1      25.212  49.668   7.555  1.00  0.00    -0.227 OA
ATOM     28  H1  UNL     1      23.490  50.757   7.322  1.00  0.00     0.196 HD
ENDBRANCH  20  21
ENDBRANCH   1  19
BRANCH   1  29
HETATM   29  O2  UNL     1      29.430  46.570   9.037  1.00  0.00    -0.377 OA
ATOM     30  H2  UNL     1      28.551  46.668   9.383  1.00  0.00     0.211 HD
ENDBRANCH   1  29
TORSDOF 3
ENDMDL
