MODEL 1
REMARK VINA RESULT: -6.482787957      0.000      0.000
REMARK  1 active torsions:
REMARK  status: ('A' for Active; 'I' for Inactive)
REMARK    1  A    between atoms: C2_2  and  O1_3 
ROOT
HETATM    1  C1  UNL     1      35.429  44.780  10.346  1.00  0.00     0.057 C 
HETATM    2  C2  UNL     1      34.345  44.135   9.564  1.00  0.00     0.144 C 
HETATM    3  C3  UNL     1      32.981  44.713   9.836  1.00  0.00     0.133 C 
HETATM    4  S1  UNL     1      31.865  44.581   8.425  1.00  0.00    -0.094 SA
HETATM    5  S2  UNL     1      29.921  45.180   9.090  1.00  0.00    -0.097 SA
HETATM    6  C4  UNL     1      29.060  46.139   7.825  1.00  0.00     0.096 C 
HETATM    7  C5  UNL     1      29.032  47.614   8.190  1.00  0.00     0.084 C 
HETATM    8  S3  UNL     1      29.275  48.635   6.710  1.00  0.00    -0.168 SA
HETATM    9  C6  UNL     1      30.522  49.912   6.977  1.00  0.00     0.074 C 
HETATM   10  C7  UNL     1      31.838  49.539   6.362  1.00  0.00     0.011 C 
HETATM   11  C8  UNL     1      32.469  48.366   7.079  1.00  0.00     0.011 C 
HETATM   12  C9  UNL     1      33.948  48.296   6.755  1.00  0.00     0.082 C 
HETATM   13  S4  UNL     1      34.739  47.335   8.065  1.00  0.00    -0.094 SA
HETATM   14  C10 UNL     1      35.873  46.125   7.409  1.00  0.00     0.146 C 
HETATM   15  N1  UNL     1      36.990  46.585   6.963  1.00  0.00    -0.370 N 
ATOM     16  H1  UNL     1      37.134  47.592   7.022  1.00  0.00     0.161 HD
HETATM   17  C11 UNL     1      38.054  45.801   6.389  1.00  0.00     0.125 C 
HETATM   18  C12 UNL     1      37.876  44.373   6.799  1.00  0.00     0.061 C 
HETATM   19  C13 UNL     1      36.439  43.994   6.409  1.00  0.00     0.193 C 
HETATM   20 CL1  UNL     1      36.118  44.503   4.749  1.00  0.00    -0.102 Cl
HETATM   21  N2  UNL     1      35.585  44.724   7.363  1.00  0.00    -0.277 N 
HETATM   22  C14 UNL     1      34.631  44.037   8.095  1.00  0.00     0.262 C 
HETATM   23  O2  UNL     1      33.894  43.207   7.453  1.00  0.00    -0.269 OA
ENDROOT
BRANCH   2  24
HETATM   24  O1  UNL     1      34.287  42.787  10.004  1.00  0.00    -0.380 OA
ATOM     25  H1  UNL     1      33.663  42.350   9.437  1.00  0.00     0.211 HD
ENDBRANCH   2  24
TORSDOF 1
ENDMDL
MODEL 2
REMARK VINA RESULT: -6.314842422      1.800      2.247
REMARK  1 active torsions:
REMARK  status: ('A' for Active; 'I' for Inactive)
REMARK    1  A    between atoms: C2_2  and  O1_3 
ROOT
HETATM    1  C1  UNL     1      36.802  45.666   9.272  1.00  0.00     0.057 C 
HETATM    2  C2  UNL     1      35.929  44.751   8.496  1.00  0.00     0.144 C 
HETATM    3  C3  UNL     1      34.603  44.477   9.157  1.00  0.00     0.133 C 
HETATM    4  S1  UNL     1      33.289  44.111   7.978  1.00  0.00    -0.094 SA
HETATM    5  S2  UNL     1      31.583  43.473   9.101  1.00  0.00    -0.097 SA
HETATM    6  C4  UNL     1      30.051  44.112   8.389  1.00  0.00     0.096 C 
HETATM    7  C5  UNL     1      29.493  45.244   9.235  1.00  0.00     0.084 C 
HETATM    8  S3  UNL     1      28.803  46.545   8.174  1.00  0.00    -0.168 SA
HETATM    9  C6  UNL     1      29.381  48.183   8.663  1.00  0.00     0.074 C 
HETATM   10  C7  UNL     1      30.472  48.678   7.761  1.00  0.00     0.011 C 
HETATM   11  C8  UNL     1      31.737  47.865   7.928  1.00  0.00     0.011 C 
HETATM   12  C9  UNL     1      32.921  48.631   7.374  1.00  0.00     0.082 C 
HETATM   13  S4  UNL     1      34.408  47.945   8.137  1.00  0.00    -0.094 SA
HETATM   14  C10 UNL     1      35.699  47.660   6.939  1.00  0.00     0.146 C 
HETATM   15  N1  UNL     1      36.308  48.709   6.510  1.00  0.00    -0.370 N 
ATOM     16  H1  UNL     1      36.008  49.608   6.886  1.00  0.00     0.161 HD
HETATM   17  C11 UNL     1      37.378  48.726   5.544  1.00  0.00     0.125 C 
HETATM   18  C12 UNL     1      37.977  47.357   5.465  1.00  0.00     0.061 C 
HETATM   19  C13 UNL     1      36.807  46.396   5.198  1.00  0.00     0.193 C 
HETATM   20 CL1  UNL     1      35.810  47.024   3.882  1.00  0.00    -0.102 Cl
HETATM   21  N2  UNL     1      36.055  46.358   6.464  1.00  0.00    -0.277 N 
HETATM   22  C14 UNL     1      35.769  45.139   7.056  1.00  0.00     0.262 C 
HETATM   23  O2  UNL     1      35.313  44.216   6.293  1.00  0.00    -0.269 OA
ENDROOT
BRANCH   2  24
HETATM   24  O1  UNL     1      36.603  43.503   8.453  1.00  0.00    -0.380 OA
ATOM     25  H1  UNL     1      36.008  42.894   8.031  1.00  0.00     0.211 HD
ENDBRANCH   2  24
TORSDOF 1
ENDMDL
MODEL 3
REMARK VINA RESULT: -6.112000876      3.237      6.406
REMARK  1 active torsions:
REMARK  status: ('A' for Active; 'I' for Inactive)
REMARK    1  A    between atoms: C2_2  and  O1_3 
ROOT
HETATM    1  C1  UNL     1      31.795  48.381   7.999  1.00  0.00     0.057 C 
HETATM    2  C2  UNL     1      32.368  47.964   6.695  1.00  0.00     0.144 C 
HETATM    3  C3  UNL     1      33.506  48.834   6.230  1.00  0.00     0.133 C 
HETATM    4  S1  UNL     1      34.690  47.953   5.193  1.00  0.00    -0.094 SA
HETATM    5  S2  UNL     1      36.052  49.402   4.406  1.00  0.00    -0.097 SA
HETATM    6  C4  UNL     1      37.739  48.758   4.352  1.00  0.00     0.096 C 
HETATM    7  C5  UNL     1      38.587  49.372   5.452  1.00  0.00     0.084 C 
HETATM    8  S3  UNL     1      39.701  48.127   6.160  1.00  0.00    -0.168 SA
HETATM    9  C6  UNL     1      39.650  48.133   7.964  1.00  0.00     0.074 C 
HETATM   10  C7  UNL     1      38.815  47.008   8.498  1.00  0.00     0.011 C 
HETATM   11  C8  UNL     1      37.351  47.203   8.169  1.00  0.00     0.011 C 
HETATM   12  C9  UNL     1      36.498  46.336   9.072  1.00  0.00     0.082 C 
HETATM   13  S4  UNL     1      34.837  47.047   9.083  1.00  0.00    -0.094 SA
HETATM   14  C10 UNL     1      33.578  45.799   8.882  1.00  0.00     0.146 C 
HETATM   15  N1  UNL     1      33.353  45.057   9.910  1.00  0.00    -0.370 N 
ATOM     16  H1  UNL     1      33.906  45.242  10.747  1.00  0.00     0.161 HD
HETATM   17  C11 UNL     1      32.390  43.988   9.982  1.00  0.00     0.125 C 
HETATM   18  C12 UNL     1      31.392  44.163   8.880  1.00  0.00     0.061 C 
HETATM   19  C13 UNL     1      32.208  44.284   7.584  1.00  0.00     0.193 C 
HETATM   20 CL1  UNL     1      33.412  42.994   7.515  1.00  0.00    -0.102 Cl
HETATM   21  N2  UNL     1      32.851  45.607   7.665  1.00  0.00    -0.277 N 
HETATM   22  C14 UNL     1      32.708  46.505   6.620  1.00  0.00     0.262 C 
HETATM   23  O2  UNL     1      32.882  46.049   5.435  1.00  0.00    -0.269 OA
ENDROOT
BRANCH   2  24
HETATM   24  O1  UNL     1      31.335  48.136   5.736  1.00  0.00    -0.380 OA
ATOM     25  H1  UNL     1      30.517  48.017   6.204  1.00  0.00     0.211 HD
ENDBRANCH   2  24
TORSDOF 1
ENDMDL
MODEL 4
REMARK VINA RESULT: -6.049661627      3.012      4.649
REMARK  1 active torsions:
REMARK  status: ('A' for Active; 'I' for Inactive)
REMARK    1  A    between atoms: C2_2  and  O1_3 
ROOT
HETATM    1  C1  UNL     1      34.819  46.147   5.307  1.00  0.00     0.057 C 
HETATM    2  C2  UNL     1      34.661  47.504   5.886  1.00  0.00     0.144 C 
HETATM    3  C3  UNL     1      33.482  48.262   5.333  1.00  0.00     0.133 C 
HETATM    4  S1  UNL     1      32.794  49.449   6.504  1.00  0.00    -0.094 SA
HETATM    5  S2  UNL     1      31.340  50.614   5.452  1.00  0.00    -0.097 SA
HETATM    6  C4  UNL     1      29.903  50.965   6.489  1.00  0.00     0.096 C 
HETATM    7  C5  UNL     1      28.714  50.116   6.071  1.00  0.00     0.084 C 
HETATM    8  S3  UNL     1      27.793  49.558   7.531  1.00  0.00    -0.168 SA
HETATM    9  C6  UNL     1      27.443  47.789   7.464  1.00  0.00     0.074 C 
HETATM   10  C7  UNL     1      28.377  47.005   8.337  1.00  0.00     0.011 C 
HETATM   11  C8  UNL     1      29.792  47.039   7.800  1.00  0.00     0.011 C 
HETATM   12  C9  UNL     1      30.602  45.913   8.407  1.00  0.00     0.082 C 
HETATM   13  S4  UNL     1      32.009  45.614   7.313  1.00  0.00    -0.094 SA
HETATM   14  C10 UNL     1      33.535  45.451   8.222  1.00  0.00     0.146 C 
HETATM   15  N1  UNL     1      33.694  44.344   8.858  1.00  0.00    -0.370 N 
ATOM     16  H1  UNL     1      32.944  43.656   8.791  1.00  0.00     0.161 HD
HETATM   17  C11 UNL     1      34.839  43.989   9.657  1.00  0.00     0.125 C 
HETATM   18  C12 UNL     1      35.987  44.871   9.274  1.00  0.00     0.061 C 
HETATM   19  C13 UNL     1      35.471  46.313   9.390  1.00  0.00     0.193 C 
HETATM   20 CL1  UNL     1      34.645  46.528  10.937  1.00  0.00    -0.102 Cl
HETATM   21  N2  UNL     1      34.537  46.472   8.262  1.00  0.00    -0.277 N 
HETATM   22  C14 UNL     1      34.694  47.532   7.386  1.00  0.00     0.262 C 
HETATM   23  O2  UNL     1      34.895  48.688   7.902  1.00  0.00    -0.269 OA
ENDROOT
BRANCH   2  24
HETATM   24  O1  UNL     1      35.810  48.239   5.493  1.00  0.00    -0.380 OA
ATOM     25  H1  UNL     1      35.532  48.806   4.783  1.00  0.00     0.211 HD
ENDBRANCH   2  24
TORSDOF 1
ENDMDL
MODEL 5
REMARK VINA RESULT: -6.038784827      2.287      3.158
REMARK  1 active torsions:
REMARK  status: ('A' for Active; 'I' for Inactive)
REMARK    1  A    between atoms: C2_2  and  O1_3 
ROOT
HETATM    1  C1  UNL     1      37.517  46.226   8.927  1.00  0.00     0.057 C 
HETATM    2  C2  UNL     1      36.863  45.145   8.147  1.00  0.00     0.144 C 
HETATM    3  C3  UNL     1      35.682  44.525   8.848  1.00  0.00     0.133 C 
HETATM    4  S1  UNL     1      34.444  43.879   7.707  1.00  0.00    -0.094 SA
HETATM    5  S2  UNL     1      33.010  42.796   8.869  1.00  0.00    -0.097 SA
HETATM    6  C4  UNL     1      31.333  43.051   8.247  1.00  0.00     0.096 C 
HETATM    7  C5  UNL     1      30.553  43.978   9.163  1.00  0.00     0.084 C 
HETATM    8  S3  UNL     1      29.508  45.097   8.189  1.00  0.00    -0.168 SA
HETATM    9  C6  UNL     1      29.682  46.811   8.726  1.00  0.00     0.074 C 
HETATM   10  C7  UNL     1      30.568  47.593   7.804  1.00  0.00     0.011 C 
HETATM   11  C8  UNL     1      32.003  47.120   7.884  1.00  0.00     0.011 C 
HETATM   12  C9  UNL     1      32.928  48.177   7.317  1.00  0.00     0.082 C 
HETATM   13  S4  UNL     1      34.576  47.863   7.990  1.00  0.00    -0.094 SA
HETATM   14  C10 UNL     1      35.836  47.952   6.730  1.00  0.00     0.146 C 
HETATM   15  N1  UNL     1      36.141  49.134   6.322  1.00  0.00    -0.370 N 
ATOM     16  H1  UNL     1      35.644  49.916   6.749  1.00  0.00     0.161 HD
HETATM   17  C11 UNL     1      37.123  49.451   5.317  1.00  0.00     0.125 C 
HETATM   18  C12 UNL     1      38.041  48.279   5.154  1.00  0.00     0.061 C 
HETATM   19  C13 UNL     1      37.137  47.065   4.892  1.00  0.00     0.193 C 
HETATM   20 CL1  UNL     1      35.950  47.463   3.645  1.00  0.00    -0.102 Cl
HETATM   21  N2  UNL     1      36.482  46.798   6.184  1.00  0.00    -0.277 N 
HETATM   22  C14 UNL     1      36.540  45.528   6.733  1.00  0.00     0.262 C 
HETATM   23  O2  UNL     1      36.292  44.544   5.949  1.00  0.00    -0.269 OA
ENDROOT
BRANCH   2  24
HETATM   24  O1  UNL     1      37.825  44.109   8.023  1.00  0.00    -0.380 OA
ATOM     25  H1  UNL     1      38.189  43.981   8.891  1.00  0.00     0.211 HD
ENDBRANCH   2  24
TORSDOF 1
ENDMDL
