MODEL 1
REMARK VINA RESULT: -8.370334498      0.000      0.000
REMARK  0 active torsions:
REMARK  status: ('A' for Active; 'I' for Inactive)
ROOT
HETATM    1  N1  UNL     1      31.629  49.604   5.648  1.00  0.00    -0.397 N 
ATOM      2  H11 UNL     1      30.745  49.273   6.033  1.00  0.00     0.156 HD
ATOM      3  H12 UNL     1      31.766  50.533   5.250  1.00  0.00     0.156 HD
HETATM    4  C1  UNL     1      32.626  48.799   5.670  1.00  0.00     0.093 C 
HETATM    5  C2  UNL     1      33.886  49.271   5.121  1.00  0.00     0.306 C 
HETATM    6  O1  UNL     1      33.963  50.255   4.326  1.00  0.00    -0.258 OA
HETATM    7  O2  UNL     1      35.042  48.572   5.524  1.00  0.00    -0.311 OA
HETATM    8  C3  UNL     1      34.819  47.674   6.617  1.00  0.00     0.137 C 
HETATM    9  C4  UNL     1      36.075  47.114   7.177  1.00  0.00     0.033 C 
HETATM   10  C5  UNL     1      37.205  47.011   6.180  1.00  0.00     0.002 C 
HETATM   11  C6  UNL     1      37.420  45.613   5.682  1.00  0.00     0.000 C 
HETATM   12  C7  UNL     1      36.132  44.859   5.447  1.00  0.00     0.000 C 
HETATM   13  C8  UNL     1      35.271  45.686   4.542  1.00  0.00     0.001 C 
HETATM   14  C9  UNL     1      33.898  45.922   5.055  1.00  0.00     0.008 C 
HETATM   15  C10 UNL     1      33.757  46.676   6.300  1.00  0.00     0.035 C 
HETATM   16  C11 UNL     1      32.428  47.445   6.250  1.00  0.00     0.077 C 
HETATM   17  C12 UNL     1      31.407  46.739   5.399  1.00  0.00     0.024 C 
HETATM   18  C13 UNL     1      30.064  46.962   6.109  1.00  0.00     0.024 C 
HETATM   19  C14 UNL     1      30.490  46.768   7.552  1.00  0.00     0.086 C 
HETATM   20  C15 UNL     1      30.610  45.276   7.760  1.00  0.00     0.030 C 
HETATM   21  C16 UNL     1      30.541  44.908   9.228  1.00  0.00     0.081 C 
HETATM   22  C17 UNL     1      29.197  45.264   9.732  1.00  0.00     0.152 C 
HETATM   23  O3  UNL     1      28.702  44.577  10.595  1.00  0.00    -0.296 OA
HETATM   24  C18 UNL     1      28.502  46.450   9.159  1.00  0.00     0.222 C 
HETATM   25 CL1  UNL     1      27.211  45.970   8.038  1.00  0.00    -0.109 Cl
HETATM   26  C19 UNL     1      29.513  47.312   8.506  1.00  0.00     0.166 C 
HETATM   27  O4  UNL     1      29.515  48.493   8.781  1.00  0.00    -0.295 OA
HETATM   28  C20 UNL     1      31.810  47.476   7.604  1.00  0.00     0.258 A 
HETATM   29  O5  UNL     1      31.840  48.763   8.190  1.00  0.00    -0.192 OA
HETATM   30  O6  UNL     1      32.425  47.638   8.749  1.00  0.00    -0.192 OA
ENDROOT
TORSDOF 0
ENDMDL
MODEL 2
REMARK VINA RESULT: -8.364134017      3.775      6.996
REMARK  0 active torsions:
REMARK  status: ('A' for Active; 'I' for Inactive)
ROOT
HETATM    1  N1  UNL     1      36.343  46.601   9.952  1.00  0.00    -0.397 N 
ATOM      2  H11 UNL     1      36.954  46.963   9.220  1.00  0.00     0.156 HD
ATOM      3  H12 UNL     1      36.457  46.808  10.944  1.00  0.00     0.156 HD
HETATM    4  C1  UNL     1      35.375  45.839   9.596  1.00  0.00     0.093 C 
HETATM    5  C2  UNL     1      34.506  45.323  10.639  1.00  0.00     0.306 C 
HETATM    6  O1  UNL     1      34.845  45.283  11.860  1.00  0.00    -0.258 OA
HETATM    7  O2  UNL     1      33.241  44.860  10.223  1.00  0.00    -0.311 OA
HETATM    8  C3  UNL     1      32.913  45.218   8.875  1.00  0.00     0.137 C 
HETATM    9  C4  UNL     1      31.501  44.924   8.521  1.00  0.00     0.033 C 
HETATM   10  C5  UNL     1      30.897  43.773   9.290  1.00  0.00     0.002 C 
HETATM   11  C6  UNL     1      30.813  42.511   8.484  1.00  0.00     0.000 C 
HETATM   12  C7  UNL     1      32.020  42.284   7.605  1.00  0.00     0.000 C 
HETATM   13  C8  UNL     1      33.241  42.356   8.470  1.00  0.00     0.001 C 
HETATM   14  C9  UNL     1      34.280  43.297   7.980  1.00  0.00     0.008 C 
HETATM   15  C10 UNL     1      33.934  44.716   7.910  1.00  0.00     0.035 C 
HETATM   16  C11 UNL     1      35.210  45.536   8.150  1.00  0.00     0.077 C 
HETATM   17  C12 UNL     1      36.441  44.795   7.704  1.00  0.00     0.024 C 
HETATM   18  C13 UNL     1      37.368  45.867   7.114  1.00  0.00     0.024 C 
HETATM   19  C14 UNL     1      36.357  46.703   6.352  1.00  0.00     0.086 C 
HETATM   20  C15 UNL     1      36.052  45.944   5.082  1.00  0.00     0.030 C 
HETATM   21  C16 UNL     1      35.464  46.847   4.017  1.00  0.00     0.081 C 
HETATM   22  C17 UNL     1      36.489  47.843   3.638  1.00  0.00     0.152 C 
HETATM   23  O3  UNL     1      36.520  48.236   2.495  1.00  0.00    -0.296 OA
HETATM   24  C18 UNL     1      37.446  48.324   4.673  1.00  0.00     0.222 C 
HETATM   25 CL1  UNL     1      39.052  47.596   4.465  1.00  0.00    -0.109 Cl
HETATM   26  C19 UNL     1      36.874  48.035   6.007  1.00  0.00     0.166 C 
HETATM   27  O4  UNL     1      36.841  48.936   6.817  1.00  0.00    -0.295 OA
HETATM   28  C20 UNL     1      35.195  46.757   7.297  1.00  0.00     0.258 A 
HETATM   29  O5  UNL     1      35.012  47.944   8.044  1.00  0.00    -0.192 OA
HETATM   30  O6  UNL     1      34.166  47.522   7.031  1.00  0.00    -0.192 OA
ENDROOT
TORSDOF 0
ENDMDL
MODEL 3
REMARK VINA RESULT: -8.137218939      2.597      3.531
REMARK  0 active torsions:
REMARK  status: ('A' for Active; 'I' for Inactive)
ROOT
HETATM    1  N1  UNL     1      34.158  48.864   6.182  1.00  0.00    -0.397 N 
ATOM      2  H11 UNL     1      33.296  49.320   5.884  1.00  0.00     0.156 HD
ATOM      3  H12 UNL     1      35.090  49.243   6.020  1.00  0.00     0.156 HD
HETATM    4  C1  UNL     1      34.054  47.745   6.799  1.00  0.00     0.093 C 
HETATM    5  C2  UNL     1      35.282  47.094   7.225  1.00  0.00     0.306 C 
HETATM    6  O1  UNL     1      36.414  47.369   6.725  1.00  0.00    -0.258 OA
HETATM    7  O2  UNL     1      35.153  46.125   8.240  1.00  0.00    -0.311 OA
HETATM    8  C3  UNL     1      33.870  46.125   8.876  1.00  0.00     0.137 C 
HETATM    9  C4  UNL     1      33.818  45.262  10.084  1.00  0.00     0.033 C 
HETATM   10  C5  UNL     1      34.775  44.094  10.052  1.00  0.00     0.002 C 
HETATM   11  C6  UNL     1      34.101  42.793   9.734  1.00  0.00     0.000 C 
HETATM   12  C7  UNL     1      33.027  42.921   8.679  1.00  0.00     0.000 C 
HETATM   13  C8  UNL     1      33.633  43.584   7.480  1.00  0.00     0.001 C 
HETATM   14  C9  UNL     1      32.881  44.768   6.994  1.00  0.00     0.008 C 
HETATM   15  C10 UNL     1      32.769  45.918   7.891  1.00  0.00     0.035 C 
HETATM   16  C11 UNL     1      32.695  47.192   7.036  1.00  0.00     0.077 C 
HETATM   17  C12 UNL     1      32.080  46.924   5.689  1.00  0.00     0.024 C 
HETATM   18  C13 UNL     1      31.241  48.170   5.372  1.00  0.00     0.024 C 
HETATM   19  C14 UNL     1      30.625  48.431   6.733  1.00  0.00     0.086 C 
HETATM   20  C15 UNL     1      29.500  47.433   6.886  1.00  0.00     0.030 C 
HETATM   21  C16 UNL     1      28.501  47.873   7.937  1.00  0.00     0.081 C 
HETATM   22  C17 UNL     1      27.856  49.118   7.469  1.00  0.00     0.152 C 
HETATM   23  O3  UNL     1      26.701  49.319   7.766  1.00  0.00    -0.296 OA
HETATM   24  C18 UNL     1      28.648  50.078   6.650  1.00  0.00     0.222 C 
HETATM   25 CL1  UNL     1      28.192  50.001   4.935  1.00  0.00    -0.109 Cl
HETATM   26  C19 UNL     1      30.085  49.792   6.856  1.00  0.00     0.166 C 
HETATM   27  O4  UNL     1      30.814  50.720   7.133  1.00  0.00    -0.295 OA
HETATM   28  C20 UNL     1      31.769  48.172   7.668  1.00  0.00     0.258 A 
HETATM   29  O5  UNL     1      32.442  49.294   8.204  1.00  0.00    -0.192 OA
HETATM   30  O6  UNL     1      31.647  48.434   8.945  1.00  0.00    -0.192 OA
ENDROOT
TORSDOF 0
ENDMDL
MODEL 4
REMARK VINA RESULT: -7.899541433      3.387      6.923
REMARK  0 active torsions:
REMARK  status: ('A' for Active; 'I' for Inactive)
ROOT
HETATM    1  N1  UNL     1      33.783  49.753   6.680  1.00  0.00    -0.397 N 
ATOM      2  H11 UNL     1      34.666  49.966   6.217  1.00  0.00     0.156 HD
ATOM      3  H12 UNL     1      32.986  50.388   6.709  1.00  0.00     0.156 HD
HETATM    4  C1  UNL     1      33.676  48.614   7.261  1.00  0.00     0.093 C 
HETATM    5  C2  UNL     1      32.419  48.311   7.921  1.00  0.00     0.306 C 
HETATM    6  O1  UNL     1      31.587  49.205   8.259  1.00  0.00    -0.258 OA
HETATM    7  O2  UNL     1      32.160  46.948   8.172  1.00  0.00    -0.311 OA
HETATM    8  C3  UNL     1      33.058  46.059   7.498  1.00  0.00     0.137 C 
HETATM    9  C4  UNL     1      32.644  44.635   7.587  1.00  0.00     0.033 C 
HETATM   10  C5  UNL     1      31.849  44.298   8.825  1.00  0.00     0.002 C 
HETATM   11  C6  UNL     1      32.659  43.584   9.865  1.00  0.00     0.000 C 
HETATM   12  C7  UNL     1      34.069  44.114   9.991  1.00  0.00     0.000 C 
HETATM   13  C8  UNL     1      33.986  45.593  10.215  1.00  0.00     0.001 C 
HETATM   14  C9  UNL     1      34.811  46.398   9.279  1.00  0.00     0.008 C 
HETATM   15  C10 UNL     1      34.479  46.338   7.856  1.00  0.00     0.035 C 
HETATM   16  C11 UNL     1      34.838  47.689   7.219  1.00  0.00     0.077 C 
HETATM   17  C12 UNL     1      35.973  48.362   7.943  1.00  0.00     0.024 C 
HETATM   18  C13 UNL     1      36.803  49.046   6.848  1.00  0.00     0.024 C 
HETATM   19  C14 UNL     1      36.779  47.968   5.781  1.00  0.00     0.086 C 
HETATM   20  C15 UNL     1      37.786  46.926   6.211  1.00  0.00     0.030 C 
HETATM   21  C16 UNL     1      38.231  46.063   5.048  1.00  0.00     0.081 C 
HETATM   22  C17 UNL     1      38.948  46.923   4.082  1.00  0.00     0.152 C 
HETATM   23  O3  UNL     1      39.861  46.446   3.449  1.00  0.00    -0.296 OA
HETATM   24  C18 UNL     1      38.524  48.342   3.925  1.00  0.00     0.222 C 
HETATM   25 CL1  UNL     1      39.657  49.453   4.720  1.00  0.00    -0.109 Cl
HETATM   26  C19 UNL     1      37.148  48.479   4.454  1.00  0.00     0.166 C 
HETATM   27  O4  UNL     1      36.324  49.029   3.757  1.00  0.00    -0.295 OA
HETATM   28  C20 UNL     1      35.364  47.475   5.843  1.00  0.00     0.258 A 
HETATM   29  O5  UNL     1      34.472  47.921   4.840  1.00  0.00    -0.192 OA
HETATM   30  O6  UNL     1      34.928  46.617   4.954  1.00  0.00    -0.192 OA
ENDROOT
TORSDOF 0
ENDMDL
MODEL 5
REMARK VINA RESULT: -7.850803700      1.865      2.494
REMARK  0 active torsions:
REMARK  status: ('A' for Active; 'I' for Inactive)
ROOT
HETATM    1  N1  UNL     1      34.999  49.799   6.638  1.00  0.00    -0.397 N 
ATOM      2  H11 UNL     1      33.983  49.880   6.651  1.00  0.00     0.156 HD
ATOM      3  H12 UNL     1      35.636  50.593   6.696  1.00  0.00     0.156 HD
HETATM    4  C1  UNL     1      35.500  48.622   6.542  1.00  0.00     0.093 C 
HETATM    5  C2  UNL     1      36.948  48.506   6.524  1.00  0.00     0.306 C 
HETATM    6  O1  UNL     1      37.712  49.477   6.240  1.00  0.00    -0.258 OA
HETATM    7  O2  UNL     1      37.475  47.239   6.844  1.00  0.00    -0.311 OA
HETATM    8  C3  UNL     1      36.509  46.336   7.395  1.00  0.00     0.137 C 
HETATM    9  C4  UNL     1      37.115  45.091   7.933  1.00  0.00     0.033 C 
HETATM   10  C5  UNL     1      38.399  44.684   7.253  1.00  0.00     0.002 C 
HETATM   11  C6  UNL     1      38.216  43.554   6.284  1.00  0.00     0.000 C 
HETATM   12  C7  UNL     1      36.936  43.654   5.488  1.00  0.00     0.000 C 
HETATM   13  C8  UNL     1      36.900  45.004   4.839  1.00  0.00     0.001 C 
HETATM   14  C9  UNL     1      35.652  45.768   5.093  1.00  0.00     0.008 C 
HETATM   15  C10 UNL     1      35.352  46.142   6.474  1.00  0.00     0.035 C 
HETATM   16  C11 UNL     1      34.572  47.465   6.458  1.00  0.00     0.077 C 
HETATM   17  C12 UNL     1      33.772  47.624   5.194  1.00  0.00     0.024 C 
HETATM   18  C13 UNL     1      32.469  48.312   5.623  1.00  0.00     0.024 C 
HETATM   19  C14 UNL     1      32.186  47.567   6.914  1.00  0.00     0.086 C 
HETATM   20  C15 UNL     1      31.613  46.228   6.512  1.00  0.00     0.030 C 
HETATM   21  C16 UNL     1      30.840  45.586   7.646  1.00  0.00     0.081 C 
HETATM   22  C17 UNL     1      29.668  46.437   7.947  1.00  0.00     0.152 C 
HETATM   23  O3  UNL     1      28.649  45.907   8.322  1.00  0.00    -0.296 OA
HETATM   24  C18 UNL     1      29.784  47.912   7.776  1.00  0.00     0.222 C 
HETATM   25 CL1  UNL     1      28.954  48.464   6.306  1.00  0.00    -0.109 Cl
HETATM   26  C19 UNL     1      31.220  48.270   7.770  1.00  0.00     0.166 C 
HETATM   27  O4  UNL     1      31.584  49.167   8.499  1.00  0.00    -0.295 OA
HETATM   28  C20 UNL     1      33.545  47.460   7.537  1.00  0.00     0.258 A 
HETATM   29  O5  UNL     1      33.855  48.351   8.590  1.00  0.00    -0.192 OA
HETATM   30  O6  UNL     1      33.677  46.986   8.751  1.00  0.00    -0.192 OA
ENDROOT
TORSDOF 0
ENDMDL
