MODEL 1
REMARK VINA RESULT: -7.788880629      0.000      0.000
REMARK  1 active torsions:
REMARK  status: ('A' for Active; 'I' for Inactive)
REMARK    1  A    between atoms: C3_3  and  O1_4 
ROOT
HETATM    1  C1  UNL     1      32.705  43.761  10.224  1.00  0.00     0.018 C 
HETATM    2  C2  UNL     1      32.643  44.327   9.027  1.00  0.00    -0.042 C 
HETATM    3  C3  UNL     1      33.820  45.050   8.460  1.00  0.00     0.150 C 
HETATM    4  C4  UNL     1      33.991  46.415   9.037  1.00  0.00     0.068 C 
HETATM    5  C5  UNL     1      33.952  47.510   7.970  1.00  0.00     0.134 C 
HETATM    6  C6  UNL     1      35.120  48.451   8.109  1.00  0.00     0.070 C 
HETATM    7  C7  UNL     1      35.839  48.709   6.823  1.00  0.00     0.071 A 
HETATM    8  C8  UNL     1      37.155  49.416   7.092  1.00  0.00     0.047 C 
HETATM    9  O2  UNL     1      36.045  47.629   5.997  1.00  0.00    -0.379 OA
HETATM   10  C9  UNL     1      35.329  48.146   4.921  1.00  0.00     0.183 A 
HETATM   11  C10 UNL     1      35.036  49.368   5.771  1.00  0.00     0.030 A 
HETATM   12  C11 UNL     1      35.623  50.630   5.169  1.00  0.00     0.023 C 
HETATM   13  C12 UNL     1      33.593  49.550   6.072  1.00  0.00     0.189 C 
HETATM   14  O3  UNL     1      32.850  48.356   5.944  1.00  0.00    -0.323 OA
HETATM   15  C13 UNL     1      32.006  48.304   7.026  1.00  0.00     0.342 C 
HETATM   16  O4  UNL     1      32.739  48.194   8.178  1.00  0.00    -0.318 OA
HETATM   17  O5  UNL     1      30.996  47.358   6.900  1.00  0.00    -0.292 OA
HETATM   18  C14 UNL     1      29.975  47.702   7.745  1.00  0.00     0.276 C 
HETATM   19  C15 UNL     1      29.399  49.033   7.220  1.00  0.00     0.143 C 
HETATM   20  S1  UNL     1      31.027  49.861   6.984  1.00  0.00    -0.065 SA
HETATM   21  O6  UNL     1      28.974  46.798   7.723  1.00  0.00    -0.360 OA
HETATM   22  C16 UNL     1      29.246  45.514   8.024  1.00  0.00     0.172 C 
HETATM   23  C17 UNL     1      30.408  45.238   8.898  1.00  0.00     0.051 C 
HETATM   24  C18 UNL     1      31.354  44.227   8.246  1.00  0.00     0.115 C 
HETATM   25 CL1  UNL     1      30.616  42.619   8.484  1.00  0.00    -0.120 Cl
ENDROOT
BRANCH   3  26
HETATM   26  O1  UNL     1      33.657  45.050   7.075  1.00  0.00    -0.391 OA
ATOM     27  H1  UNL     1      34.499  45.284   6.703  1.00  0.00     0.210 HD
ENDBRANCH   3  26
TORSDOF 1
ENDMDL
MODEL 2
REMARK VINA RESULT: -7.571896745      2.734      5.032
REMARK  1 active torsions:
REMARK  status: ('A' for Active; 'I' for Inactive)
REMARK    1  A    between atoms: C3_3  and  O1_4 
ROOT
HETATM    1  C1  UNL     1      32.643  49.773   4.914  1.00  0.00     0.018 C 
HETATM    2  C2  UNL     1      32.649  49.222   6.119  1.00  0.00    -0.042 C 
HETATM    3  C3  UNL     1      33.759  48.317   6.540  1.00  0.00     0.150 C 
HETATM    4  C4  UNL     1      33.629  46.943   5.973  1.00  0.00     0.068 C 
HETATM    5  C5  UNL     1      33.556  45.867   7.056  1.00  0.00     0.134 C 
HETATM    6  C6  UNL     1      34.528  44.749   6.784  1.00  0.00     0.070 C 
HETATM    7  C7  UNL     1      35.360  44.375   7.970  1.00  0.00     0.071 A 
HETATM    8  C8  UNL     1      36.498  43.464   7.543  1.00  0.00     0.047 C 
HETATM    9  O2  UNL     1      35.846  45.405   8.740  1.00  0.00    -0.379 OA
HETATM   10  C9  UNL     1      35.204  45.009   9.911  1.00  0.00     0.183 A 
HETATM   11  C10 UNL     1      34.609  43.853   9.130  1.00  0.00     0.030 A 
HETATM   12  C11 UNL     1      35.058  42.511   9.674  1.00  0.00     0.023 C 
HETATM   13  C12 UNL     1      33.127  43.908   9.024  1.00  0.00     0.189 C 
HETATM   14  O3  UNL     1      32.610  45.207   9.226  1.00  0.00    -0.323 OA
HETATM   15  C13 UNL     1      31.650  45.398   8.263  1.00  0.00     0.342 C 
HETATM   16  O4  UNL     1      32.232  45.390   7.023  1.00  0.00    -0.318 OA
HETATM   17  O5  UNL     1      30.831  46.494   8.502  1.00  0.00    -0.292 OA
HETATM   18  C14 UNL     1      29.666  46.323   7.804  1.00  0.00     0.276 C 
HETATM   19  C15 UNL     1      28.957  45.102   8.426  1.00  0.00     0.143 C 
HETATM   20  S1  UNL     1      30.447  44.020   8.462  1.00  0.00    -0.065 SA
HETATM   21  O6  UNL     1      28.836  47.378   7.940  1.00  0.00    -0.360 OA
HETATM   22  C16 UNL     1      29.269  48.601   7.582  1.00  0.00     0.172 C 
HETATM   23  C17 UNL     1      30.334  48.686   6.557  1.00  0.00     0.051 C 
HETATM   24  C18 UNL     1      31.509  49.529   7.060  1.00  0.00     0.115 C 
HETATM   25 CL1  UNL     1      31.014  51.236   6.889  1.00  0.00    -0.120 Cl
ENDROOT
BRANCH   3  26
HETATM   26  O1  UNL     1      33.783  48.340   7.934  1.00  0.00    -0.391 OA
ATOM     27  H1  UNL     1      33.392  47.524   8.225  1.00  0.00     0.210 HD
ENDBRANCH   3  26
TORSDOF 1
ENDMDL
MODEL 3
REMARK VINA RESULT: -7.384729178      2.999      6.122
REMARK  1 active torsions:
REMARK  status: ('A' for Active; 'I' for Inactive)
REMARK    1  A    between atoms: C3_3  and  O1_4 
ROOT
HETATM    1  C1  UNL     1      38.839  45.201   6.662  1.00  0.00     0.018 C 
HETATM    2  C2  UNL     1      37.886  45.468   7.543  1.00  0.00    -0.042 C 
HETATM    3  C3  UNL     1      36.880  44.432   7.919  1.00  0.00     0.150 C 
HETATM    4  C4  UNL     1      35.808  44.269   6.893  1.00  0.00     0.068 C 
HETATM    5  C5  UNL     1      34.412  44.528   7.458  1.00  0.00     0.134 C 
HETATM    6  C6  UNL     1      33.461  43.415   7.101  1.00  0.00     0.070 C 
HETATM    7  C7  UNL     1      32.673  42.903   8.265  1.00  0.00     0.071 A 
HETATM    8  C8  UNL     1      31.970  41.610   7.892  1.00  0.00     0.047 C 
HETATM    9  O2  UNL     1      33.347  42.747   9.453  1.00  0.00    -0.379 OA
HETATM   10  C9  UNL     1      32.556  43.640  10.172  1.00  0.00     0.183 A 
HETATM   11  C10 UNL     1      31.770  43.887   8.898  1.00  0.00     0.030 A 
HETATM   12  C11 UNL     1      30.318  43.474   9.039  1.00  0.00     0.023 C 
HETATM   13  C12 UNL     1      31.874  45.282   8.397  1.00  0.00     0.189 C 
HETATM   14  O3  UNL     1      33.014  45.958   8.885  1.00  0.00    -0.323 OA
HETATM   15  C13 UNL     1      33.552  46.635   7.818  1.00  0.00     0.342 C 
HETATM   16  O4  UNL     1      33.992  45.741   6.879  1.00  0.00    -0.318 OA
HETATM   17  O5  UNL     1      34.493  47.590   8.182  1.00  0.00    -0.292 OA
HETATM   18  C14 UNL     1      34.599  48.501   7.165  1.00  0.00     0.276 C 
HETATM   19  C15 UNL     1      33.241  49.230   7.085  1.00  0.00     0.143 C 
HETATM   20  S1  UNL     1      32.207  47.707   7.165  1.00  0.00    -0.065 SA
HETATM   21  O6  UNL     1      35.538  49.435   7.419  1.00  0.00    -0.360 OA
HETATM   22  C16 UNL     1      36.804  49.041   7.654  1.00  0.00     0.172 C 
HETATM   23  C17 UNL     1      37.248  47.752   7.079  1.00  0.00     0.051 C 
HETATM   24  C18 UNL     1      37.838  46.845   8.161  1.00  0.00     0.115 C 
HETATM   25 CL1  UNL     1      39.494  47.438   8.468  1.00  0.00    -0.120 Cl
ENDROOT
BRANCH   3  26
HETATM   26  O1  UNL     1      36.392  44.789   9.176  1.00  0.00    -0.391 OA
ATOM     27  H1  UNL     1      36.479  44.021   9.729  1.00  0.00     0.210 HD
ENDBRANCH   3  26
TORSDOF 1
ENDMDL
MODEL 4
REMARK VINA RESULT: -7.360041318      2.273      3.963
REMARK  1 active torsions:
REMARK  status: ('A' for Active; 'I' for Inactive)
REMARK    1  A    between atoms: C3_3  and  O1_4 
ROOT
HETATM    1  C1  UNL     1      28.732  47.537   6.985  1.00  0.00     0.018 C 
HETATM    2  C2  UNL     1      29.865  47.388   7.656  1.00  0.00    -0.042 C 
HETATM    3  C3  UNL     1      31.074  48.190   7.303  1.00  0.00     0.150 C 
HETATM    4  C4  UNL     1      31.782  47.666   6.099  1.00  0.00     0.068 C 
HETATM    5  C5  UNL     1      33.234  47.289   6.392  1.00  0.00     0.134 C 
HETATM    6  C6  UNL     1      34.172  47.895   5.381  1.00  0.00     0.070 C 
HETATM    7  C7  UNL     1      35.349  48.587   5.993  1.00  0.00     0.071 A 
HETATM    8  C8  UNL     1      36.074  49.411   4.944  1.00  0.00     0.047 C 
HETATM    9  O2  UNL     1      35.109  49.352   7.110  1.00  0.00    -0.379 OA
HETATM   10  C9  UNL     1      35.951  48.627   7.950  1.00  0.00     0.183 A 
HETATM   11  C10 UNL     1      36.256  47.720   6.773  1.00  0.00     0.030 A 
HETATM   12  C11 UNL     1      37.723  47.764   6.390  1.00  0.00     0.023 C 
HETATM   13  C12 UNL     1      35.806  46.318   6.972  1.00  0.00     0.189 C 
HETATM   14  O3  UNL     1      34.793  46.200   7.948  1.00  0.00    -0.323 OA
HETATM   15  C13 UNL     1      33.858  45.332   7.437  1.00  0.00     0.342 C 
HETATM   16  O4  UNL     1      33.277  45.883   6.325  1.00  0.00    -0.318 OA
HETATM   17  O5  UNL     1      32.954  44.867   8.382  1.00  0.00    -0.292 OA
HETATM   18  C14 UNL     1      32.409  43.699   7.920  1.00  0.00     0.276 C 
HETATM   19  C15 UNL     1      33.556  42.670   7.866  1.00  0.00     0.143 C 
HETATM   20  S1  UNL     1      34.767  43.783   7.036  1.00  0.00    -0.065 SA
HETATM   21  O6  UNL     1      31.474  43.210   8.760  1.00  0.00    -0.360 OA
HETATM   22  C16 UNL     1      30.414  43.977   9.076  1.00  0.00     0.172 C 
HETATM   23  C17 UNL     1      29.998  45.018   8.109  1.00  0.00     0.051 C 
HETATM   24  C18 UNL     1      29.909  46.388   8.786  1.00  0.00     0.115 C 
HETATM   25 CL1  UNL     1      28.366  46.408   9.684  1.00  0.00    -0.120 Cl
ENDROOT
BRANCH   3  26
HETATM   26  O1  UNL     1      31.874  48.224   8.445  1.00  0.00    -0.391 OA
ATOM     27  H1  UNL     1      32.413  49.003   8.374  1.00  0.00     0.210 HD
ENDBRANCH   3  26
TORSDOF 1
ENDMDL
MODEL 5
REMARK VINA RESULT: -7.300880301      2.668      4.439
REMARK  1 active torsions:
REMARK  status: ('A' for Active; 'I' for Inactive)
REMARK    1  A    between atoms: C3_3  and  O1_4 
ROOT
HETATM    1  C1  UNL     1      28.515  49.086   5.748  1.00  0.00     0.018 C 
HETATM    2  C2  UNL     1      29.271  48.765   6.788  1.00  0.00    -0.042 C 
HETATM    3  C3  UNL     1      30.757  48.893   6.721  1.00  0.00     0.150 C 
HETATM    4  C4  UNL     1      31.399  47.770   5.978  1.00  0.00     0.068 C 
HETATM    5  C5  UNL     1      32.411  47.005   6.831  1.00  0.00     0.134 C 
HETATM    6  C6  UNL     1      33.723  46.840   6.109  1.00  0.00     0.070 C 
HETATM    7  C7  UNL     1      34.913  47.211   6.935  1.00  0.00     0.071 A 
HETATM    8  C8  UNL     1      36.150  47.300   6.058  1.00  0.00     0.047 C 
HETATM    9  O2  UNL     1      34.805  48.340   7.712  1.00  0.00    -0.379 OA
HETATM   10  C9  UNL     1      35.010  47.686   8.925  1.00  0.00     0.183 A 
HETATM   11  C10 UNL     1      35.124  46.390   8.145  1.00  0.00     0.030 A 
HETATM   12  C11 UNL     1      36.493  45.756   8.298  1.00  0.00     0.023 C 
HETATM   13  C12 UNL     1      34.052  45.411   8.461  1.00  0.00     0.189 C 
HETATM   14  O3  UNL     1      32.905  46.014   9.024  1.00  0.00    -0.323 OA
HETATM   15  C13 UNL     1      31.820  45.436   8.411  1.00  0.00     0.342 C 
HETATM   16  O4  UNL     1      31.822  45.750   7.078  1.00  0.00    -0.318 OA
HETATM   17  O5  UNL     1      30.617  45.688   9.056  1.00  0.00    -0.292 OA
HETATM   18  C14 UNL     1      29.718  44.722   8.686  1.00  0.00     0.276 C 
HETATM   19  C15 UNL     1      30.249  43.389   9.253  1.00  0.00     0.143 C 
HETATM   20  S1  UNL     1      31.986  43.624   8.686  1.00  0.00    -0.065 SA
HETATM   21  O6  UNL     1      28.501  44.930   9.229  1.00  0.00    -0.360 OA
HETATM   22  C16 UNL     1      27.867  46.092   8.988  1.00  0.00     0.172 C 
HETATM   23  C17 UNL     1      28.202  46.819   7.743  1.00  0.00     0.051 C 
HETATM   24  C18 UNL     1      28.598  48.267   8.045  1.00  0.00     0.115 C 
HETATM   25 CL1  UNL     1      27.077  49.159   8.322  1.00  0.00    -0.120 Cl
ENDROOT
BRANCH   3  26
HETATM   26  O1  UNL     1      31.204  49.012   8.037  1.00  0.00    -0.391 OA
ATOM     27  H1  UNL     1      31.704  49.820   8.080  1.00  0.00     0.210 HD
ENDBRANCH   3  26
TORSDOF 1
ENDMDL
