MODEL 1
REMARK VINA RESULT: -7.605941540      0.000      0.000
REMARK  4 active torsions:
REMARK  status: ('A' for Active; 'I' for Inactive)
REMARK    1  A    between atoms: O1_2  and  C2_3 
REMARK    2  A    between atoms: C4_5  and  N1_6 
REMARK       I    between atoms: N1_6  and  C5_8 
REMARK    3  A    between atoms: C5_8  and  C6_10 
REMARK       I    between atoms: N2_19  and  C15_20 
REMARK       I    between atoms: C15_20  and  N3_22 
REMARK    4  A    between atoms: N3_22  and  C16_24 
ROOT
HETATM    1  C2  UNL     1      -7.677  -7.457  14.614  1.00  0.00     0.228 C 
HETATM    2  C3  UNL     1      -7.869  -5.983  14.285  1.00  0.00     0.079 C 
HETATM    3  C4  UNL     1      -8.976  -5.846  13.290  1.00  0.00     0.090 C 
HETATM    4  C13 UNL     1      -9.264  -7.137  12.556  1.00  0.00     0.045 C 
HETATM    5  C14 UNL     1      -7.955  -7.769  12.172  1.00  0.00     0.132 C 
HETATM    6  N2  UNL     1      -7.236  -8.091  13.387  1.00  0.00    -0.307 N 
HETATM    7  C15 UNL     1      -6.155  -8.991  13.332  1.00  0.00     0.320 C 
HETATM    8  O3  UNL     1      -5.527  -9.291  14.369  1.00  0.00    -0.247 OA
HETATM    9  N3  UNL     1      -5.750  -9.578  12.117  1.00  0.00    -0.339 N 
ATOM     10  H3  UNL     1      -6.263  -9.332  11.271  1.00  0.00     0.164 HD
ENDROOT
BRANCH   3  11
HETATM   11  N1  UNL     1      -8.662  -4.843  12.290  1.00  0.00    -0.356 N 
HETATM   12  C5  UNL     1      -9.256  -3.552  12.299  1.00  0.00     0.222 C 
HETATM   13  O2  UNL     1     -10.084  -3.318  13.237  1.00  0.00    -0.273 OA
ATOM     14  H1  UNL     1      -7.993  -5.072  11.555  1.00  0.00     0.162 HD
BRANCH  12  15
HETATM   15  C6  UNL     1      -8.929  -2.534  11.268  1.00  0.00     0.078 C 
HETATM   16  C7  UNL     1      -7.690  -1.831  11.665  1.00  0.00     0.014 C 
HETATM   17  C8  UNL     1      -6.891  -1.409  10.476  1.00  0.00     0.005 C 
HETATM   18  C9  UNL     1      -7.858  -0.990   9.393  1.00  0.00    -0.019 C 
HETATM   19  C10 UNL     1      -7.107  -0.193   8.367  1.00  0.00     0.010 C 
HETATM   20  C11 UNL     1      -8.510  -2.229   8.821  1.00  0.00     0.005 C 
HETATM   21  C12 UNL     1      -8.933  -3.178   9.913  1.00  0.00     0.014 C 
ENDBRANCH  12  15
ENDBRANCH   3  11
BRANCH   1  22
HETATM   22  O1  UNL     1      -6.723  -7.647  15.582  1.00  0.00    -0.371 OA
HETATM   23  C1  UNL     1      -7.210  -7.463  16.874  1.00  0.00     0.204 C 
ENDBRANCH   1  22
BRANCH   9  24
HETATM   24  C16 UNL     1      -4.653 -10.506  11.998  1.00  0.00     0.078 C 
HETATM   25  C17 UNL     1      -3.916 -10.328  10.697  1.00  0.00     0.032 C 
HETATM   26  C18 UNL     1      -5.088 -11.923  12.248  1.00  0.00     0.032 C 
ENDBRANCH   9  24
TORSDOF 4
ENDMDL
MODEL 2
REMARK VINA RESULT: -7.602335784      3.015      7.055
REMARK  4 active torsions:
REMARK  status: ('A' for Active; 'I' for Inactive)
REMARK    1  A    between atoms: O1_2  and  C2_3 
REMARK    2  A    between atoms: C4_5  and  N1_6 
REMARK       I    between atoms: N1_6  and  C5_8 
REMARK    3  A    between atoms: C5_8  and  C6_10 
REMARK       I    between atoms: N2_19  and  C15_20 
REMARK       I    between atoms: C15_20  and  N3_22 
REMARK    4  A    between atoms: N3_22  and  C16_24 
ROOT
HETATM    1  C2  UNL     1      -7.873  -3.142  13.130  1.00  0.00     0.228 C 
HETATM    2  C3  UNL     1      -8.713  -4.366  13.468  1.00  0.00     0.079 C 
HETATM    3  C4  UNL     1      -7.922  -5.271  14.356  1.00  0.00     0.090 C 
HETATM    4  C13 UNL     1      -6.435  -4.997  14.292  1.00  0.00     0.045 C 
HETATM    5  C14 UNL     1      -6.050  -4.796  12.853  1.00  0.00     0.132 C 
HETATM    6  N2  UNL     1      -6.745  -3.627  12.358  1.00  0.00    -0.307 N 
HETATM    7  C15 UNL     1      -6.309  -3.017  11.167  1.00  0.00     0.320 C 
HETATM    8  O3  UNL     1      -6.888  -2.001  10.726  1.00  0.00    -0.247 OA
HETATM    9  N3  UNL     1      -5.216  -3.525  10.438  1.00  0.00    -0.339 N 
ATOM     10  H3  UNL     1      -4.745  -4.354  10.799  1.00  0.00     0.164 HD
ENDROOT
BRANCH   3  11
HETATM   11  N1  UNL     1      -8.119  -6.663  13.997  1.00  0.00    -0.356 N 
HETATM   12  C5  UNL     1      -9.380  -7.166  13.579  1.00  0.00     0.222 C 
HETATM   13  O2  UNL     1     -10.336  -6.327  13.535  1.00  0.00    -0.273 OA
ATOM     14  H1  UNL     1      -7.325  -7.302  14.047  1.00  0.00     0.162 HD
BRANCH  12  15
HETATM   15  C6  UNL     1      -9.570  -8.594  13.216  1.00  0.00     0.078 C 
HETATM   16  C7  UNL     1      -9.107  -8.801  11.828  1.00  0.00     0.014 C 
HETATM   17  C8  UNL     1      -8.542 -10.170  11.634  1.00  0.00     0.005 C 
HETATM   18  C9  UNL     1      -9.361 -11.131  12.465  1.00  0.00    -0.019 C 
HETATM   19  C10 UNL     1      -9.089 -12.526  11.984  1.00  0.00     0.010 C 
HETATM   20  C11 UNL     1      -9.013 -10.927  13.922  1.00  0.00     0.005 C 
HETATM   21  C12 UNL     1      -8.950  -9.462  14.271  1.00  0.00     0.014 C 
ENDBRANCH  12  15
ENDBRANCH   3  11
BRANCH   1  22
HETATM   22  O1  UNL     1      -8.570  -2.232  12.377  1.00  0.00    -0.371 OA
HETATM   23  C1  UNL     1      -9.951  -2.383  12.476  1.00  0.00     0.204 C 
ENDBRANCH   1  22
BRANCH   9  24
HETATM   24  C16 UNL     1      -4.724  -2.944   9.215  1.00  0.00     0.078 C 
HETATM   25  C17 UNL     1      -3.848  -3.906   8.457  1.00  0.00     0.032 C 
HETATM   26  C18 UNL     1      -4.077  -1.607   9.450  1.00  0.00     0.032 C 
ENDBRANCH   9  24
TORSDOF 4
ENDMDL
MODEL 3
REMARK VINA RESULT: -7.574316056      2.934      4.288
REMARK  4 active torsions:
REMARK  status: ('A' for Active; 'I' for Inactive)
REMARK    1  A    between atoms: O1_2  and  C2_3 
REMARK    2  A    between atoms: C4_5  and  N1_6 
REMARK       I    between atoms: N1_6  and  C5_8 
REMARK    3  A    between atoms: C5_8  and  C6_10 
REMARK       I    between atoms: N2_19  and  C15_20 
REMARK       I    between atoms: C15_20  and  N3_22 
REMARK    4  A    between atoms: N3_22  and  C16_24 
ROOT
HETATM    1  C2  UNL     1      -4.700  -5.811  11.454  1.00  0.00     0.228 C 
HETATM    2  C3  UNL     1      -4.941  -4.597  10.568  1.00  0.00     0.079 C 
HETATM    3  C4  UNL     1      -5.261  -3.419  11.431  1.00  0.00     0.090 C 
HETATM    4  C13 UNL     1      -5.712  -3.818  12.819  1.00  0.00     0.045 C 
HETATM    5  C14 UNL     1      -6.672  -4.968  12.694  1.00  0.00     0.132 C 
HETATM    6  N2  UNL     1      -5.963  -6.087  12.111  1.00  0.00    -0.307 N 
HETATM    7  C15 UNL     1      -6.516  -7.379  12.202  1.00  0.00     0.320 C 
HETATM    8  O3  UNL     1      -5.917  -8.360  11.715  1.00  0.00    -0.247 OA
HETATM    9  N3  UNL     1      -7.752  -7.606  12.839  1.00  0.00    -0.339 N 
ATOM     10  H3  UNL     1      -8.240  -6.803  13.236  1.00  0.00     0.164 HD
ENDROOT
BRANCH   3  11
HETATM   11  N1  UNL     1      -6.318  -2.613  10.849  1.00  0.00    -0.356 N 
HETATM   12  C5  UNL     1      -6.047  -1.465  10.058  1.00  0.00     0.222 C 
HETATM   13  O2  UNL     1      -4.820  -1.177   9.882  1.00  0.00    -0.273 OA
ATOM     14  H1  UNL     1      -7.288  -2.880  11.015  1.00  0.00     0.162 HD
BRANCH  12  15
HETATM   15  C6  UNL     1      -7.138  -0.646   9.469  1.00  0.00     0.078 C 
HETATM   16  C7  UNL     1      -6.611   0.698   9.154  1.00  0.00     0.014 C 
HETATM   17  C8  UNL     1      -7.281   1.286   7.956  1.00  0.00     0.005 C 
HETATM   18  C9  UNL     1      -8.734   0.870   7.986  1.00  0.00    -0.019 C 
HETATM   19  C10 UNL     1      -9.502   1.757   7.051  1.00  0.00     0.010 C 
HETATM   20  C11 UNL     1      -8.825  -0.595   7.623  1.00  0.00     0.005 C 
HETATM   21  C12 UNL     1      -7.772  -1.403   8.339  1.00  0.00     0.014 C 
ENDBRANCH  12  15
ENDBRANCH   3  11
BRANCH   1  22
HETATM   22  O1  UNL     1      -4.326  -6.912  10.726  1.00  0.00    -0.371 OA
HETATM   23  C1  UNL     1      -3.046  -6.803  10.188  1.00  0.00     0.204 C 
ENDBRANCH   1  22
BRANCH   9  24
HETATM   24  C16 UNL     1      -8.367  -8.903  12.964  1.00  0.00     0.078 C 
HETATM   25  C17 UNL     1      -9.363  -9.151  11.862  1.00  0.00     0.032 C 
HETATM   26  C18 UNL     1      -8.931  -9.125  14.339  1.00  0.00     0.032 C 
ENDBRANCH   9  24
TORSDOF 4
ENDMDL
MODEL 4
REMARK VINA RESULT: -7.483595838      3.482      5.061
REMARK  4 active torsions:
REMARK  status: ('A' for Active; 'I' for Inactive)
REMARK    1  A    between atoms: O1_2  and  C2_3 
REMARK    2  A    between atoms: C4_5  and  N1_6 
REMARK       I    between atoms: N1_6  and  C5_8 
REMARK    3  A    between atoms: C5_8  and  C6_10 
REMARK       I    between atoms: N2_19  and  C15_20 
REMARK       I    between atoms: C15_20  and  N3_22 
REMARK    4  A    between atoms: N3_22  and  C16_24 
ROOT
HETATM    1  C2  UNL     1      -8.116  -4.722  10.271  1.00  0.00     0.228 C 
HETATM    2  C3  UNL     1      -8.493  -3.259  10.452  1.00  0.00     0.079 C 
HETATM    3  C4  UNL     1      -8.121  -2.502   9.218  1.00  0.00     0.090 C 
HETATM    4  C13 UNL     1      -7.100  -3.231   8.373  1.00  0.00     0.045 C 
HETATM    5  C14 UNL     1      -6.043  -3.793   9.283  1.00  0.00     0.132 C 
HETATM    6  N2  UNL     1      -6.671  -4.756  10.163  1.00  0.00    -0.307 N 
HETATM    7  C15 UNL     1      -5.868  -5.672  10.869  1.00  0.00     0.320 C 
HETATM    8  O3  UNL     1      -6.388  -6.518  11.626  1.00  0.00    -0.247 OA
HETATM    9  N3  UNL     1      -4.464  -5.666  10.746  1.00  0.00    -0.339 N 
ATOM     10  H3  UNL     1      -4.041  -4.975  10.128  1.00  0.00     0.164 HD
ENDROOT
BRANCH   3  11
HETATM   11  N1  UNL     1      -7.561  -1.204   9.546  1.00  0.00    -0.356 N 
HETATM   12  C5  UNL     1      -7.842  -0.043   8.778  1.00  0.00     0.222 C 
HETATM   13  O2  UNL     1      -8.616  -0.199   7.780  1.00  0.00    -0.273 OA
ATOM     14  H1  UNL     1      -6.945  -1.123  10.354  1.00  0.00     0.162 HD
BRANCH  12  15
HETATM   15  C6  UNL     1      -7.261   1.281   9.121  1.00  0.00     0.078 C 
HETATM   16  C7  UNL     1      -8.225   2.338   8.750  1.00  0.00     0.014 C 
HETATM   17  C8  UNL     1      -8.140   3.510   9.672  1.00  0.00     0.005 C 
HETATM   18  C9  UNL     1      -6.687   3.703  10.043  1.00  0.00    -0.019 C 
HETATM   19  C10 UNL     1      -6.522   5.079  10.618  1.00  0.00     0.010 C 
HETATM   20  C11 UNL     1      -6.284   2.607  11.003  1.00  0.00     0.005 C 
HETATM   21  C12 UNL     1      -6.795   1.264  10.547  1.00  0.00     0.014 C 
ENDBRANCH  12  15
ENDBRANCH   3  11
BRANCH   1  22
HETATM   22  O1  UNL     1      -8.501  -5.488  11.342  1.00  0.00    -0.371 OA
HETATM   23  C1  UNL     1      -8.957  -4.732  12.420  1.00  0.00     0.204 C 
ENDBRANCH   1  22
BRANCH   9  24
HETATM   24  C16 UNL     1      -3.592  -6.578  11.441  1.00  0.00     0.078 C 
HETATM   25  C17 UNL     1      -2.303  -5.912  11.845  1.00  0.00     0.032 C 
HETATM   26  C18 UNL     1      -3.388  -7.854  10.673  1.00  0.00     0.032 C 
ENDBRANCH   9  24
TORSDOF 4
ENDMDL
MODEL 5
REMARK VINA RESULT: -7.428228686      1.571      1.943
REMARK  4 active torsions:
REMARK  status: ('A' for Active; 'I' for Inactive)
REMARK    1  A    between atoms: O1_2  and  C2_3 
REMARK    2  A    between atoms: C4_5  and  N1_6 
REMARK       I    between atoms: N1_6  and  C5_8 
REMARK    3  A    between atoms: C5_8  and  C6_10 
REMARK       I    between atoms: N2_19  and  C15_20 
REMARK       I    between atoms: C15_20  and  N3_22 
REMARK    4  A    between atoms: N3_22  and  C16_24 
ROOT
HETATM    1  C2  UNL     1      -6.461  -8.686  14.328  1.00  0.00     0.228 C 
HETATM    2  C3  UNL     1      -6.852  -7.334  13.749  1.00  0.00     0.079 C 
HETATM    3  C4  UNL     1      -8.116  -7.485  12.966  1.00  0.00     0.090 C 
HETATM    4  C13 UNL     1      -8.390  -8.920  12.572  1.00  0.00     0.045 C 
HETATM    5  C14 UNL     1      -7.105  -9.535  12.092  1.00  0.00     0.132 C 
HETATM    6  N2  UNL     1      -6.167  -9.541  13.195  1.00  0.00    -0.307 N 
HETATM    7  C15 UNL     1      -5.024 -10.361  13.126  1.00  0.00     0.320 C 
HETATM    8  O3  UNL     1      -4.207 -10.390  14.070  1.00  0.00    -0.247 OA
HETATM    9  N3  UNL     1      -4.767 -11.170  12.001  1.00  0.00    -0.339 N 
ATOM     10  H3  UNL     1      -5.435 -11.145  11.231  1.00  0.00     0.164 HD
ENDROOT
BRANCH   3  11
HETATM   11  N1  UNL     1      -8.073  -6.704  11.744  1.00  0.00    -0.356 N 
HETATM   12  C5  UNL     1      -8.504  -5.351  11.694  1.00  0.00     0.222 C 
HETATM   13  O2  UNL     1      -8.933  -4.855  12.785  1.00  0.00    -0.273 OA
ATOM     14  H1  UNL     1      -7.723  -7.141  10.891  1.00  0.00     0.162 HD
BRANCH  12  15
HETATM   15  C6  UNL     1      -8.458  -4.562  10.437  1.00  0.00     0.078 C 
HETATM   16  C7  UNL     1      -9.070  -3.239  10.679  1.00  0.00     0.014 C 
HETATM   17  C8  UNL     1      -8.434  -2.176   9.845  1.00  0.00     0.005 C 
HETATM   18  C9  UNL     1      -8.096  -2.781   8.502  1.00  0.00    -0.019 C 
HETATM   19  C10 UNL     1      -7.843  -1.668   7.528  1.00  0.00     0.010 C 
HETATM   20  C11 UNL     1      -6.909  -3.702   8.672  1.00  0.00     0.005 C 
HETATM   21  C12 UNL     1      -7.059  -4.569   9.897  1.00  0.00     0.014 C 
ENDBRANCH  12  15
ENDBRANCH   3  11
BRANCH   1  22
HETATM   22  O1  UNL     1      -5.346  -8.602  15.123  1.00  0.00    -0.371 OA
HETATM   23  C1  UNL     1      -5.629  -8.173  16.419  1.00  0.00     0.204 C 
ENDBRANCH   1  22
BRANCH   9  24
HETATM   24  C16 UNL     1      -3.618 -12.030  11.874  1.00  0.00     0.078 C 
HETATM   25  C17 UNL     1      -2.539 -11.391  11.039  1.00  0.00     0.032 C 
HETATM   26  C18 UNL     1      -3.997 -13.407  11.406  1.00  0.00     0.032 C 
ENDBRANCH   9  24
TORSDOF 4
ENDMDL
