MODEL 1
REMARK VINA RESULT: -7.772111829      0.000      0.000
REMARK  4 active torsions:
REMARK  status: ('A' for Active; 'I' for Inactive)
REMARK    1  A    between atoms: C2_2  and  C3_3 
REMARK       I    between atoms: C3_3  and  N1_5 
REMARK    2  A    between atoms: C4_7  and  C5_9 
REMARK    3  A    between atoms: C6_10  and  C7_11 
REMARK    4  A    between atoms: C17_22  and  O3_23 
ROOT
HETATM    1  C7  UNL     1      -6.820  -2.953   9.669  1.00  0.00    -0.012 C 
HETATM    2  C8  UNL     1      -6.895  -3.858   8.421  1.00  0.00     0.021 C 
HETATM    3  C9  UNL     1      -5.468  -2.965  10.248  1.00  0.00     0.014 C 
HETATM    4  C10 UNL     1      -4.382  -2.806   9.202  1.00  0.00     0.014 C 
HETATM    5  C11 UNL     1      -3.909  -4.227   8.869  1.00  0.00     0.079 C 
HETATM    6  C12 UNL     1      -4.309  -5.054  10.021  1.00  0.00     0.135 C 
HETATM    7  O2  UNL     1      -4.139  -6.229  10.135  1.00  0.00    -0.297 OA
HETATM    8  C13 UNL     1      -4.947  -4.128  10.975  1.00  0.00     0.021 C 
HETATM    9  C14 UNL     1      -3.739  -3.576  11.792  1.00  0.00     0.024 C 
HETATM   10  C15 UNL     1      -5.761  -4.846  11.955  1.00  0.00     0.020 C 
HETATM   11  C16 UNL     1      -6.922  -5.528  11.360  1.00  0.00     0.034 C 
HETATM   12  C17 UNL     1      -8.067  -4.783  10.881  1.00  0.00     0.127 C 
HETATM   13  C18 UNL     1      -7.946  -3.337  10.536  1.00  0.00    -0.011 C 
HETATM   14  C19 UNL     1      -9.257  -2.999   9.846  1.00  0.00     0.018 C 
HETATM   15  C20 UNL     1      -7.945  -2.464  11.803  1.00  0.00     0.018 C 
ENDROOT
BRANCH   1  16
HETATM   16  C6  UNL     1      -7.115  -1.584   9.177  1.00  0.00    -0.013 C 
HETATM   17  C5  UNL     1      -6.483  -0.476   9.450  1.00  0.00     0.042 C 
BRANCH  17  18
HETATM   18  C4  UNL     1      -6.850   0.827   8.914  1.00  0.00     0.118 C 
HETATM   19  N1  UNL     1      -7.735   1.576   9.474  1.00  0.00    -0.312 N 
HETATM   20  C3  UNL     1      -8.061   2.823   8.929  1.00  0.00     0.245 C 
ATOM     21  H1  UNL     1      -8.202   1.258  10.322  1.00  0.00     0.170 HD
HETATM   22  O1  UNL     1      -7.683   3.865   9.517  1.00  0.00    -0.268 OA
HETATM   23  N2  UNL     1      -6.167   1.238   7.716  1.00  0.00    -0.083 NA
BRANCH  20  24
HETATM   24  C2  UNL     1      -8.830   2.889   7.695  1.00  0.00     0.064 C 
HETATM   25  C1  UNL     1      -9.677   1.943   7.392  1.00  0.00     0.017 C 
ENDBRANCH  20  24
ENDBRANCH  17  18
ENDBRANCH   1  16
BRANCH  12  26
HETATM   26  O3  UNL     1      -8.636  -5.456   9.783  1.00  0.00    -0.395 OA
ATOM     27  H3  UNL     1      -9.305  -4.907   9.390  1.00  0.00     0.210 HD
ENDBRANCH  12  26
TORSDOF 4
ENDMDL
MODEL 2
REMARK VINA RESULT: -7.390368464      4.361      7.683
REMARK  4 active torsions:
REMARK  status: ('A' for Active; 'I' for Inactive)
REMARK    1  A    between atoms: C2_2  and  C3_3 
REMARK       I    between atoms: C3_3  and  N1_5 
REMARK    2  A    between atoms: C4_7  and  C5_9 
REMARK    3  A    between atoms: C6_10  and  C7_11 
REMARK    4  A    between atoms: C17_22  and  O3_23 
ROOT
HETATM    1  C7  UNL     1      -7.525  -4.172  11.773  1.00  0.00    -0.012 C 
HETATM    2  C8  UNL     1      -6.001  -4.375  11.918  1.00  0.00     0.021 C 
HETATM    3  C9  UNL     1      -7.866  -3.690  10.426  1.00  0.00     0.014 C 
HETATM    4  C10 UNL     1      -7.156  -4.460   9.330  1.00  0.00     0.014 C 
HETATM    5  C11 UNL     1      -5.918  -3.631   8.969  1.00  0.00     0.079 C 
HETATM    6  C12 UNL     1      -6.212  -2.263   9.432  1.00  0.00     0.135 C 
HETATM    7  O2  UNL     1      -5.482  -1.322   9.354  1.00  0.00    -0.297 OA
HETATM    8  C13 UNL     1      -7.573  -2.317   9.997  1.00  0.00     0.021 C 
HETATM    9  C14 UNL     1      -8.481  -2.090   8.751  1.00  0.00     0.024 C 
HETATM   10  C15 UNL     1      -7.839  -1.170  10.864  1.00  0.00     0.020 C 
HETATM   11  C16 UNL     1      -7.001  -1.149  12.075  1.00  0.00     0.034 C 
HETATM   12  C17 UNL     1      -7.222  -2.083  13.158  1.00  0.00     0.127 C 
HETATM   13  C18 UNL     1      -7.953  -3.363  12.925  1.00  0.00    -0.011 C 
HETATM   14  C19 UNL     1      -7.751  -4.155  14.206  1.00  0.00     0.018 C 
HETATM   15  C20 UNL     1      -9.472  -3.128  12.858  1.00  0.00     0.018 C 
ENDROOT
BRANCH   1  16
HETATM   16  C6  UNL     1      -8.118  -5.519  11.960  1.00  0.00    -0.013 C 
HETATM   17  C5  UNL     1      -7.504  -6.644  12.199  1.00  0.00     0.042 C 
BRANCH  17  18
HETATM   18  C4  UNL     1      -8.178  -7.923  12.369  1.00  0.00     0.118 C 
HETATM   19  N1  UNL     1      -7.876  -8.739  13.318  1.00  0.00    -0.312 N 
HETATM   20  C3  UNL     1      -8.547  -9.961  13.448  1.00  0.00     0.245 C 
ATOM     21  H1  UNL     1      -7.142  -8.493  13.981  1.00  0.00     0.170 HD
HETATM   22  O1  UNL     1      -9.360 -10.114  14.392  1.00  0.00    -0.268 OA
HETATM   23  N2  UNL     1      -9.207  -8.233  11.411  1.00  0.00    -0.083 NA
BRANCH  20  24
HETATM   24  C2  UNL     1      -8.289 -11.027  12.492  1.00  0.00     0.064 C 
HETATM   25  C1  UNL     1      -9.185 -11.951  12.273  1.00  0.00     0.017 C 
ENDBRANCH  20  24
ENDBRANCH  17  18
ENDBRANCH   1  16
BRANCH  12  26
HETATM   26  O3  UNL     1      -5.993  -2.380  13.777  1.00  0.00    -0.395 OA
ATOM     27  H3  UNL     1      -6.064  -3.208  14.238  1.00  0.00     0.210 HD
ENDBRANCH  12  26
TORSDOF 4
ENDMDL
MODEL 3
REMARK VINA RESULT: -7.347269423      3.970      7.471
REMARK  4 active torsions:
REMARK  status: ('A' for Active; 'I' for Inactive)
REMARK    1  A    between atoms: C2_2  and  C3_3 
REMARK       I    between atoms: C3_3  and  N1_5 
REMARK    2  A    between atoms: C4_7  and  C5_9 
REMARK    3  A    between atoms: C6_10  and  C7_11 
REMARK    4  A    between atoms: C17_22  and  O3_23 
ROOT
HETATM    1  C7  UNL     1      -6.798  -4.230  11.084  1.00  0.00    -0.012 C 
HETATM    2  C8  UNL     1      -7.316  -4.738   9.722  1.00  0.00     0.021 C 
HETATM    3  C9  UNL     1      -7.339  -2.897  11.389  1.00  0.00     0.014 C 
HETATM    4  C10 UNL     1      -8.828  -2.793  11.124  1.00  0.00     0.014 C 
HETATM    5  C11 UNL     1      -8.963  -2.180   9.725  1.00  0.00     0.079 C 
HETATM    6  C12 UNL     1      -7.681  -1.500   9.467  1.00  0.00     0.135 C 
HETATM    7  O2  UNL     1      -7.383  -0.918   8.470  1.00  0.00    -0.297 OA
HETATM    8  C13 UNL     1      -6.875  -1.694  10.687  1.00  0.00     0.021 C 
HETATM    9  C14 UNL     1      -7.321  -0.509  11.596  1.00  0.00     0.024 C 
HETATM   10  C15 UNL     1      -5.455  -1.454  10.434  1.00  0.00     0.020 C 
HETATM   11  C16 UNL     1      -4.856  -2.429   9.507  1.00  0.00     0.034 C 
HETATM   12  C17 UNL     1      -4.604  -3.795   9.913  1.00  0.00     0.127 C 
HETATM   13  C18 UNL     1      -5.336  -4.395  11.067  1.00  0.00    -0.011 C 
HETATM   14  C19 UNL     1      -4.992  -5.874  11.007  1.00  0.00     0.018 C 
HETATM   15  C20 UNL     1      -4.745  -3.920  12.405  1.00  0.00     0.018 C 
ENDROOT
BRANCH   1  16
HETATM   16  C6  UNL     1      -7.320  -5.195  12.084  1.00  0.00    -0.013 C 
HETATM   17  C5  UNL     1      -8.261  -6.084  11.932  1.00  0.00     0.042 C 
BRANCH  17  18
HETATM   18  C4  UNL     1      -8.705  -6.991  12.980  1.00  0.00     0.118 C 
HETATM   19  N1  UNL     1      -7.922  -7.864  13.512  1.00  0.00    -0.312 N 
HETATM   20  C3  UNL     1      -8.387  -8.720  14.518  1.00  0.00     0.245 C 
ATOM     21  H1  UNL     1      -6.955  -7.933  13.197  1.00  0.00     0.170 HD
HETATM   22  O1  UNL     1      -8.000  -8.542  15.698  1.00  0.00    -0.268 OA
HETATM   23  N2  UNL     1     -10.078  -6.862  13.394  1.00  0.00    -0.083 NA
BRANCH  20  24
HETATM   24  C2  UNL     1      -9.305  -9.797  14.177  1.00  0.00     0.064 C 
HETATM   25  C1  UNL     1      -8.902 -10.807  13.456  1.00  0.00     0.017 C 
ENDBRANCH  20  24
ENDBRANCH  17  18
ENDBRANCH   1  16
BRANCH  12  26
HETATM   26  O3  UNL     1      -4.750  -4.647   8.803  1.00  0.00    -0.395 OA
ATOM     27  H3  UNL     1      -3.995  -5.222   8.745  1.00  0.00     0.210 HD
ENDBRANCH  12  26
TORSDOF 4
ENDMDL
MODEL 4
REMARK VINA RESULT: -7.338378058      3.870      7.258
REMARK  4 active torsions:
REMARK  status: ('A' for Active; 'I' for Inactive)
REMARK    1  A    between atoms: C2_2  and  C3_3 
REMARK       I    between atoms: C3_3  and  N1_5 
REMARK    2  A    between atoms: C4_7  and  C5_9 
REMARK    3  A    between atoms: C6_10  and  C7_11 
REMARK    4  A    between atoms: C17_22  and  O3_23 
ROOT
HETATM    1  C7  UNL     1      -7.587  -3.221  11.288  1.00  0.00    -0.012 C 
HETATM    2  C8  UNL     1      -8.951  -2.504  11.379  1.00  0.00     0.021 C 
HETATM    3  C9  UNL     1      -6.537  -2.441  11.961  1.00  0.00     0.014 C 
HETATM    4  C10 UNL     1      -6.969  -1.928  13.321  1.00  0.00     0.014 C 
HETATM    5  C11 UNL     1      -7.449  -0.489  13.093  1.00  0.00     0.079 C 
HETATM    6  C12 UNL     1      -6.825  -0.062  11.827  1.00  0.00     0.135 C 
HETATM    7  O2  UNL     1      -6.971   0.994  11.293  1.00  0.00    -0.297 OA
HETATM    8  C13 UNL     1      -6.002  -1.203  11.384  1.00  0.00     0.021 C 
HETATM    9  C14 UNL     1      -4.651  -0.972  12.127  1.00  0.00     0.024 C 
HETATM   10  C15 UNL     1      -5.667  -1.101   9.964  1.00  0.00     0.020 C 
HETATM   11  C16 UNL     1      -6.840  -1.203   9.080  1.00  0.00     0.034 C 
HETATM   12  C17 UNL     1      -7.523  -2.463   8.881  1.00  0.00     0.127 C 
HETATM   13  C18 UNL     1      -7.388  -3.570   9.873  1.00  0.00    -0.011 C 
HETATM   14  C19 UNL     1      -8.432  -4.589   9.449  1.00  0.00     0.018 C 
HETATM   15  C20 UNL     1      -6.047  -4.304   9.704  1.00  0.00     0.018 C 
ENDROOT
BRANCH   1  16
HETATM   16  C6  UNL     1      -7.770  -4.501  12.017  1.00  0.00    -0.013 C 
HETATM   17  C5  UNL     1      -8.737  -4.838  12.823  1.00  0.00     0.042 C 
BRANCH  17  18
HETATM   18  C4  UNL     1      -8.829  -6.126  13.495  1.00  0.00     0.118 C 
HETATM   19  N1  UNL     1      -7.816  -6.679  14.065  1.00  0.00    -0.312 N 
HETATM   20  C3  UNL     1      -7.944  -7.920  14.700  1.00  0.00     0.245 C 
ATOM     21  H1  UNL     1      -6.911  -6.209  14.053  1.00  0.00     0.170 HD
HETATM   22  O1  UNL     1      -7.912  -7.970  15.953  1.00  0.00    -0.268 OA
HETATM   23  N2  UNL     1     -10.124  -6.757  13.488  1.00  0.00    -0.083 NA
BRANCH  20  24
HETATM   24  C2  UNL     1      -8.111  -9.123  13.899  1.00  0.00     0.064 C 
HETATM   25  C1  UNL     1      -8.951 -10.052  14.267  1.00  0.00     0.017 C 
ENDBRANCH  20  24
ENDBRANCH  17  18
ENDBRANCH   1  16
BRANCH  12  26
HETATM   26  O3  UNL     1      -8.893  -2.224   8.666  1.00  0.00    -0.395 OA
ATOM     27  H3  UNL     1      -9.067  -2.200   7.732  1.00  0.00     0.210 HD
ENDBRANCH  12  26
TORSDOF 4
ENDMDL
MODEL 5
REMARK VINA RESULT: -7.334168904      3.694      7.231
REMARK  4 active torsions:
REMARK  status: ('A' for Active; 'I' for Inactive)
REMARK    1  A    between atoms: C2_2  and  C3_3 
REMARK       I    between atoms: C3_3  and  N1_5 
REMARK    2  A    between atoms: C4_7  and  C5_9 
REMARK    3  A    between atoms: C6_10  and  C7_11 
REMARK    4  A    between atoms: C17_22  and  O3_23 
ROOT
HETATM    1  C7  UNL     1      -7.376  -3.099  11.008  1.00  0.00    -0.012 C 
HETATM    2  C8  UNL     1      -8.793  -2.517  11.199  1.00  0.00     0.021 C 
HETATM    3  C9  UNL     1      -6.372  -2.283  11.708  1.00  0.00     0.014 C 
HETATM    4  C10 UNL     1      -6.794  -1.917  13.117  1.00  0.00     0.014 C 
HETATM    5  C11 UNL     1      -7.407  -0.514  13.021  1.00  0.00     0.079 C 
HETATM    6  C12 UNL     1      -6.872   0.064  11.775  1.00  0.00     0.135 C 
HETATM    7  O2  UNL     1      -7.131   1.141  11.333  1.00  0.00    -0.297 OA
HETATM    8  C13 UNL     1      -5.970  -0.960  11.215  1.00  0.00     0.021 C 
HETATM    9  C14 UNL     1      -4.617  -0.666  11.932  1.00  0.00     0.024 C 
HETATM   10  C15 UNL     1      -5.701  -0.719   9.799  1.00  0.00     0.020 C 
HETATM   11  C16 UNL     1      -6.894  -0.857   8.947  1.00  0.00     0.034 C 
HETATM   12  C17 UNL     1      -7.471  -2.155   8.669  1.00  0.00     0.127 C 
HETATM   13  C18 UNL     1      -7.202  -3.318   9.564  1.00  0.00    -0.011 C 
HETATM   14  C19 UNL     1      -8.169  -4.392   9.093  1.00  0.00     0.018 C 
HETATM   15  C20 UNL     1      -5.809  -3.913   9.293  1.00  0.00     0.018 C 
ENDROOT
BRANCH   1  16
HETATM   16  C6  UNL     1      -7.418  -4.443  11.637  1.00  0.00    -0.013 C 
HETATM   17  C5  UNL     1      -8.382  -4.978  12.333  1.00  0.00     0.042 C 
BRANCH  17  18
HETATM   18  C4  UNL     1      -8.328  -6.312  12.912  1.00  0.00     0.118 C 
HETATM   19  N1  UNL     1      -8.104  -7.362  12.202  1.00  0.00    -0.312 N 
HETATM   20  C3  UNL     1      -8.061  -8.629  12.795  1.00  0.00     0.245 C 
ATOM     21  H1  UNL     1      -7.956  -7.269  11.197  1.00  0.00     0.170 HD
HETATM   22  O1  UNL     1      -6.955  -9.210  12.914  1.00  0.00    -0.268 OA
HETATM   23  N2  UNL     1      -8.543  -6.398  14.333  1.00  0.00    -0.083 NA
BRANCH  20  24
HETATM   24  C2  UNL     1      -9.293  -9.246  13.261  1.00  0.00     0.064 C 
HETATM   25  C1  UNL     1      -9.293 -10.008  14.320  1.00  0.00     0.017 C 
ENDBRANCH  20  24
ENDBRANCH  17  18
ENDBRANCH   1  16
BRANCH  12  26
HETATM   26  O3  UNL     1      -8.865  -2.024   8.518  1.00  0.00    -0.395 OA
ATOM     27  H3  UNL     1      -9.072  -1.896   7.599  1.00  0.00     0.210 HD
ENDBRANCH  12  26
TORSDOF 4
ENDMDL
