MODEL 1
REMARK VINA RESULT: -7.204064828      0.000      0.000
REMARK  4 active torsions:
REMARK  status: ('A' for Active; 'I' for Inactive)
REMARK    1  A    between atoms: C12_12  and  N1_13 
REMARK    2  A    between atoms: N1_13  and  S1_15 
REMARK    3  A    between atoms: S1_15  and  N2_18 
REMARK    4  A    between atoms: N2_18  and  C13_20 
ROOT
HETATM    1  N1  UNL     1      -7.736  -4.185  12.301  1.00  0.00    -0.297 N 
ATOM      2  H1  UNL     1      -6.717  -4.168  12.271  1.00  0.00     0.174 HD
ENDROOT
BRANCH   1   3
HETATM    3  C12 UNL     1      -8.529  -3.264  11.569  1.00  0.00     0.102 C 
HETATM    4  C2  UNL     1      -7.878  -1.910  11.539  1.00  0.00     0.009 C 
HETATM    5  C1  UNL     1      -7.251  -1.626  12.887  1.00  0.00     0.012 C 
HETATM    6  C3  UNL     1      -6.939  -1.675  10.403  1.00  0.00    -0.008 C 
HETATM    7  C4  UNL     1      -6.204  -2.850   9.893  1.00  0.00     0.010 C 
HETATM    8  C8  UNL     1      -7.639  -0.902   9.290  1.00  0.00     0.010 C 
HETATM    9  C5  UNL     1      -6.896  -3.702   8.903  1.00  0.00    -0.013 C 
HETATM   10  C6  UNL     1      -7.520  -2.817   7.826  1.00  0.00     0.009 C 
HETATM   11  C11 UNL     1      -8.019  -4.536   9.436  1.00  0.00     0.011 C 
HETATM   12  C7  UNL     1      -8.480  -1.910   8.542  1.00  0.00    -0.013 C 
HETATM   13  C9  UNL     1      -9.486  -2.597   9.379  1.00  0.00     0.011 C 
HETATM   14  C10 UNL     1      -8.992  -3.716  10.230  1.00  0.00     0.010 C 
ENDBRANCH   1   3
BRANCH   1  15
HETATM   15  S1  UNL     1      -8.598  -5.320  13.236  1.00  0.00     0.321 S 
HETATM   16  O1  UNL     1      -7.672  -5.777  14.355  1.00  0.00    -0.182 OA
HETATM   17  O2  UNL     1      -9.868  -4.781  13.817  1.00  0.00    -0.182 OA
BRANCH  15  18
HETATM   18  N2  UNL     1      -8.953  -6.686  12.285  1.00  0.00    -0.247 N 
ATOM     19  H2  UNL     1      -9.175  -6.553  11.298  1.00  0.00     0.182 HD
BRANCH  18  20
HETATM   20  C13 UNL     1      -8.952  -7.907  12.775  1.00  0.00     0.159 A 
HETATM   21  N3  UNL     1      -8.973  -8.260  14.066  1.00  0.00    -0.345 N 
HETATM   22  C14 UNL     1      -8.968  -9.526  14.364  1.00  0.00     0.097 A 
ATOM     23  H3  UNL     1      -8.993  -7.551  14.799  1.00  0.00     0.167 HD
HETATM   24  C15 UNL     1      -8.943 -10.429  13.334  1.00  0.00     0.070 A 
HETATM   25  S2  UNL     1      -8.926  -9.405  11.967  1.00  0.00    -0.064 SA
ENDBRANCH  18  20
ENDBRANCH  15  18
ENDBRANCH   1  15
TORSDOF 4
ENDMDL
MODEL 2
REMARK VINA RESULT: -7.089029572      1.222      2.016
REMARK  4 active torsions:
REMARK  status: ('A' for Active; 'I' for Inactive)
REMARK    1  A    between atoms: C12_12  and  N1_13 
REMARK    2  A    between atoms: N1_13  and  S1_15 
REMARK    3  A    between atoms: S1_15  and  N2_18 
REMARK    4  A    between atoms: N2_18  and  C13_20 
ROOT
HETATM    1  N1  UNL     1      -7.862  -5.321  10.827  1.00  0.00    -0.297 N 
ATOM      2  H1  UNL     1      -7.983  -5.613   9.858  1.00  0.00     0.174 HD
ENDROOT
BRANCH   1   3
HETATM    3  C12 UNL     1      -7.292  -4.069  11.174  1.00  0.00     0.102 C 
HETATM    4  C2  UNL     1      -5.998  -3.854  10.440  1.00  0.00     0.009 C 
HETATM    5  C1  UNL     1      -5.236  -5.159  10.376  1.00  0.00     0.012 C 
HETATM    6  C3  UNL     1      -6.119  -3.189   9.110  1.00  0.00    -0.008 C 
HETATM    7  C4  UNL     1      -7.357  -3.445   8.347  1.00  0.00     0.010 C 
HETATM    8  C8  UNL     1      -5.814  -1.699   9.234  1.00  0.00     0.010 C 
HETATM    9  C5  UNL     1      -8.532  -2.608   8.665  1.00  0.00    -0.013 C 
HETATM   10  C6  UNL     1      -8.106  -1.143   8.724  1.00  0.00     0.009 C 
HETATM   11  C11 UNL     1      -9.191  -2.887   9.980  1.00  0.00     0.011 C 
HETATM   12  C7  UNL     1      -7.060  -1.060   9.799  1.00  0.00    -0.013 C 
HETATM   13  C9  UNL     1      -7.471  -1.595  11.114  1.00  0.00     0.011 C 
HETATM   14  C10 UNL     1      -8.201  -2.894  11.107  1.00  0.00     0.010 C 
ENDBRANCH   1   3
BRANCH   1  15
HETATM   15  S1  UNL     1      -8.330  -6.306  12.137  1.00  0.00     0.321 S 
HETATM   16  O1  UNL     1      -7.079  -6.584  12.961  1.00  0.00    -0.182 OA
HETATM   17  O2  UNL     1      -9.382  -5.692  13.005  1.00  0.00    -0.182 OA
BRANCH  15  18
HETATM   18  N2  UNL     1      -8.892  -7.802  11.550  1.00  0.00    -0.247 N 
ATOM     19  H2  UNL     1      -9.180  -7.869  10.574  1.00  0.00     0.182 HD
BRANCH  18  20
HETATM   20  C13 UNL     1      -8.968  -8.874  12.309  1.00  0.00     0.159 A 
HETATM   21  N3  UNL     1      -9.172  -8.915  13.631  1.00  0.00    -0.345 N 
HETATM   22  C14 UNL     1      -9.219 -10.077  14.217  1.00  0.00     0.097 A 
ATOM     23  H3  UNL     1      -9.288  -8.056  14.167  1.00  0.00     0.167 HD
HETATM   24  C15 UNL     1      -9.057 -11.194  13.440  1.00  0.00     0.070 A 
HETATM   25  S2  UNL     1      -8.842 -10.518  11.887  1.00  0.00    -0.064 SA
ENDBRANCH  18  20
ENDBRANCH  15  18
ENDBRANCH   1  15
TORSDOF 4
ENDMDL
MODEL 3
REMARK VINA RESULT: -7.086237484      0.983      1.063
REMARK  4 active torsions:
REMARK  status: ('A' for Active; 'I' for Inactive)
REMARK    1  A    between atoms: C12_12  and  N1_13 
REMARK    2  A    between atoms: N1_13  and  S1_15 
REMARK    3  A    between atoms: S1_15  and  N2_18 
REMARK    4  A    between atoms: N2_18  and  C13_20 
ROOT
HETATM    1  N1  UNL     1      -7.991  -4.073  12.537  1.00  0.00    -0.297 N 
ATOM      2  H1  UNL     1      -6.973  -4.124  12.583  1.00  0.00     0.174 HD
ENDROOT
BRANCH   1   3
HETATM    3  C12 UNL     1      -8.665  -3.170  11.675  1.00  0.00     0.102 C 
HETATM    4  C2  UNL     1      -7.919  -1.869  11.582  1.00  0.00     0.009 C 
HETATM    5  C1  UNL     1      -7.367  -1.511  12.945  1.00  0.00     0.012 C 
HETATM    6  C3  UNL     1      -6.891  -1.796  10.504  1.00  0.00    -0.008 C 
HETATM    7  C4  UNL     1      -6.208  -3.055  10.147  1.00  0.00     0.010 C 
HETATM    8  C8  UNL     1      -7.457  -1.079   9.282  1.00  0.00     0.010 C 
HETATM    9  C5  UNL     1      -6.888  -3.944   9.182  1.00  0.00    -0.013 C 
HETATM   10  C6  UNL     1      -7.374  -3.118   7.993  1.00  0.00     0.009 C 
HETATM   11  C11 UNL     1      -8.101  -4.654   9.698  1.00  0.00     0.011 C 
HETATM   12  C7  UNL     1      -8.314  -2.092   8.559  1.00  0.00    -0.013 C 
HETATM   13  C9  UNL     1      -9.420  -2.637   9.373  1.00  0.00     0.011 C 
HETATM   14  C10 UNL     1      -9.067  -3.707  10.348  1.00  0.00     0.010 C 
ENDBRANCH   1   3
BRANCH   1  15
HETATM   15  S1  UNL     1      -8.992  -5.068  13.493  1.00  0.00     0.321 S 
HETATM   16  O1  UNL     1      -8.186  -5.469  14.722  1.00  0.00    -0.182 OA
HETATM   17  O2  UNL     1     -10.267  -4.408  13.916  1.00  0.00    -0.182 OA
BRANCH  15  18
HETATM   18  N2  UNL     1      -9.357  -6.494  12.640  1.00  0.00    -0.247 N 
ATOM     19  H2  UNL     1     -10.278  -6.589  12.213  1.00  0.00     0.182 HD
BRANCH  18  20
HETATM   20  C13 UNL     1      -8.493  -7.479  12.510  1.00  0.00     0.159 A 
HETATM   21  N3  UNL     1      -7.165  -7.415  12.659  1.00  0.00    -0.345 N 
HETATM   22  C14 UNL     1      -6.467  -8.500  12.490  1.00  0.00     0.097 A 
ATOM     23  H3  UNL     1      -6.711  -6.535  12.900  1.00  0.00     0.167 HD
HETATM   24  C15 UNL     1      -7.138  -9.651  12.169  1.00  0.00     0.070 A 
HETATM   25  S2  UNL     1      -8.758  -9.116  12.122  1.00  0.00    -0.064 SA
ENDBRANCH  18  20
ENDBRANCH  15  18
ENDBRANCH   1  15
TORSDOF 4
ENDMDL
MODEL 4
REMARK VINA RESULT: -7.052636514      1.204      1.580
REMARK  4 active torsions:
REMARK  status: ('A' for Active; 'I' for Inactive)
REMARK    1  A    between atoms: C12_12  and  N1_13 
REMARK    2  A    between atoms: N1_13  and  S1_15 
REMARK    3  A    between atoms: S1_15  and  N2_18 
REMARK    4  A    between atoms: N2_18  and  C13_20 
ROOT
HETATM    1  N1  UNL     1      -7.860  -4.072  13.218  1.00  0.00    -0.297 N 
ATOM      2  H1  UNL     1      -7.322  -3.233  13.435  1.00  0.00     0.174 HD
ENDROOT
BRANCH   1   3
HETATM    3  C12 UNL     1      -8.531  -4.240  11.979  1.00  0.00     0.102 C 
HETATM    4  C2  UNL     1      -9.049  -2.923  11.473  1.00  0.00     0.009 C 
HETATM    5  C1  UNL     1      -9.578  -2.114  12.637  1.00  0.00     0.012 C 
HETATM    6  C3  UNL     1      -8.105  -2.151  10.613  1.00  0.00    -0.008 C 
HETATM    7  C4  UNL     1      -6.665  -2.308  10.896  1.00  0.00     0.010 C 
HETATM    8  C8  UNL     1      -8.433  -2.372   9.139  1.00  0.00     0.010 C 
HETATM    9  C5  UNL     1      -5.979  -3.467  10.287  1.00  0.00    -0.013 C 
HETATM   10  C6  UNL     1      -6.357  -3.558   8.811  1.00  0.00     0.009 C 
HETATM   11  C11 UNL     1      -6.321  -4.803  10.871  1.00  0.00     0.011 C 
HETATM   12  C7  UNL     1      -7.850  -3.717   8.776  1.00  0.00    -0.013 C 
HETATM   13  C9  UNL     1      -8.379  -4.841   9.576  1.00  0.00     0.011 C 
HETATM   14  C10 UNL     1      -7.804  -5.017  10.940  1.00  0.00     0.010 C 
ENDBRANCH   1   3
BRANCH   1  15
HETATM   15  S1  UNL     1      -8.012  -5.362  14.321  1.00  0.00     0.321 S 
HETATM   16  O1  UNL     1      -6.734  -6.184  14.231  1.00  0.00    -0.182 OA
HETATM   17  O2  UNL     1      -8.233  -4.921  15.734  1.00  0.00    -0.182 OA
BRANCH  15  18
HETATM   18  N2  UNL     1      -9.297  -6.370  13.842  1.00  0.00    -0.247 N 
ATOM     19  H2  UNL     1     -10.230  -5.967  13.751  1.00  0.00     0.182 HD
BRANCH  18  20
HETATM   20  C13 UNL     1      -9.131  -7.650  13.584  1.00  0.00     0.159 A 
HETATM   21  N3  UNL     1      -8.776  -8.609  14.448  1.00  0.00    -0.345 N 
HETATM   22  C14 UNL     1      -8.661  -9.828  14.009  1.00  0.00     0.097 A 
ATOM     23  H3  UNL     1      -8.600  -8.388  15.427  1.00  0.00     0.167 HD
HETATM   24  C15 UNL     1      -8.913 -10.060  12.683  1.00  0.00     0.070 A 
HETATM   25  S2  UNL     1      -9.306  -8.498  12.119  1.00  0.00    -0.064 SA
ENDBRANCH  18  20
ENDBRANCH  15  18
ENDBRANCH   1  15
TORSDOF 4
ENDMDL
MODEL 5
REMARK VINA RESULT: -6.986941315      5.560      7.867
REMARK  4 active torsions:
REMARK  status: ('A' for Active; 'I' for Inactive)
REMARK    1  A    between atoms: C12_12  and  N1_13 
REMARK    2  A    between atoms: N1_13  and  S1_15 
REMARK    3  A    between atoms: S1_15  and  N2_18 
REMARK    4  A    between atoms: N2_18  and  C13_20 
ROOT
HETATM    1  N1  UNL     1      -6.541 -11.156  12.780  1.00  0.00    -0.297 N 
ATOM      2  H1  UNL     1      -7.058 -11.716  13.457  1.00  0.00     0.174 HD
ENDROOT
BRANCH   1   3
HETATM    3  C12 UNL     1      -7.092  -9.994  12.182  1.00  0.00     0.102 C 
HETATM    4  C2  UNL     1      -8.593 -10.065  12.168  1.00  0.00     0.009 C 
HETATM    5  C1  UNL     1      -9.024 -11.481  11.857  1.00  0.00     0.012 C 
HETATM    6  C3  UNL     1      -9.271  -9.505  13.374  1.00  0.00    -0.008 C 
HETATM    7  C4  UNL     1      -8.547  -9.612  14.656  1.00  0.00     0.010 C 
HETATM    8  C8  UNL     1      -9.752  -8.084  13.097  1.00  0.00     0.010 C 
HETATM    9  C5  UNL     1      -7.551  -8.564  14.959  1.00  0.00    -0.013 C 
HETATM   10  C6  UNL     1      -8.162  -7.193  14.679  1.00  0.00     0.009 C 
HETATM   11  C11 UNL     1      -6.291  -8.613  14.152  1.00  0.00     0.011 C 
HETATM   12  C7  UNL     1      -8.536  -7.197  13.224  1.00  0.00    -0.013 C 
HETATM   13  C9  UNL     1      -7.438  -7.539  12.296  1.00  0.00     0.011 C 
HETATM   14  C10 UNL     1      -6.575  -8.691  12.681  1.00  0.00     0.010 C 
ENDBRANCH   1   3
BRANCH   1  15
HETATM   15  S1  UNL     1      -4.958 -11.558  12.292  1.00  0.00     0.321 S 
HETATM   16  O1  UNL     1      -4.950 -13.046  11.970  1.00  0.00    -0.182 OA
HETATM   17  O2  UNL     1      -4.479 -10.780  11.106  1.00  0.00    -0.182 OA
BRANCH  15  18
HETATM   18  N2  UNL     1      -3.885 -11.316  13.591  1.00  0.00    -0.247 N 
ATOM     19  H2  UNL     1      -4.086 -10.575  14.263  1.00  0.00     0.182 HD
BRANCH  18  20
HETATM   20  C13 UNL     1      -2.805 -12.048  13.760  1.00  0.00     0.159 A 
HETATM   21  N3  UNL     1      -2.751 -13.354  14.045  1.00  0.00    -0.345 N 
HETATM   22  C14 UNL     1      -1.583 -13.914  14.177  1.00  0.00     0.097 A 
ATOM     23  H3  UNL     1      -3.606 -13.898  14.157  1.00  0.00     0.167 HD
HETATM   24  C15 UNL     1      -0.473 -13.129  14.013  1.00  0.00     0.070 A 
HETATM   25  S2  UNL     1      -1.163 -11.605  13.675  1.00  0.00    -0.064 SA
ENDBRANCH  18  20
ENDBRANCH  15  18
ENDBRANCH   1  15
TORSDOF 4
ENDMDL
