MODEL 1
REMARK VINA RESULT: -7.626417479      0.000      0.000
REMARK  4 active torsions:
REMARK  status: ('A' for Active; 'I' for Inactive)
REMARK    1  A    between atoms: C2_2  and  O1_3 
REMARK    2  A    between atoms: O1_3  and  C3_4 
REMARK       I    between atoms: C3_4  and  N1_6 
REMARK    3  A    between atoms: C6_9  and  N2_10 
REMARK       I    between atoms: N2_10  and  C7_12 
REMARK       I    between atoms: C7_12  and  N3_14 
REMARK    4  A    between atoms: N3_14  and  C8_16 
ROOT
HETATM    1  N2  UNL     1      -8.544  -5.507  10.314  1.00  0.00    -0.338 N 
ATOM      2  H2  UNL     1      -9.008  -5.804   9.455  1.00  0.00     0.164 HD
HETATM    3  C7  UNL     1      -8.421  -6.467  11.356  1.00  0.00     0.317 C 
HETATM    4  O3  UNL     1      -7.870  -6.156  12.442  1.00  0.00    -0.247 OA
HETATM    5  N3  UNL     1      -8.899  -7.790  11.235  1.00  0.00    -0.334 N 
ATOM      6  H3  UNL     1      -9.342  -8.045  10.353  1.00  0.00     0.165 HD
ENDROOT
BRANCH   1   7
HETATM    7  C6  UNL     1      -8.069  -4.159  10.370  1.00  0.00     0.089 C 
HETATM    8  C5  UNL     1      -8.919  -3.297   9.458  1.00  0.00     0.045 C 
HETATM    9  C4  UNL     1      -8.109  -2.441   8.516  1.00  0.00     0.130 C 
HETATM   10  N1  UNL     1      -7.057  -1.823   9.288  1.00  0.00    -0.328 N 
HETATM   11  C3  UNL     1      -7.017  -0.414   9.393  1.00  0.00     0.362 C 
HETATM   12  C18 UNL     1      -6.099  -2.674   9.920  1.00  0.00     0.130 C 
HETATM   13  O2  UNL     1      -7.909   0.293   8.812  1.00  0.00    -0.238 OA
HETATM   14  C17 UNL     1      -6.603  -4.092  10.090  1.00  0.00     0.045 C 
BRANCH  11  15
HETATM   15  O1  UNL     1      -6.051   0.270  10.103  1.00  0.00    -0.304 OA
BRANCH  15  16
HETATM   16  C2  UNL     1      -6.441   1.031  11.230  1.00  0.00     0.176 C 
HETATM   17  C1  UNL     1      -7.044   0.108  12.244  1.00  0.00     0.034 C 
ENDBRANCH  15  16
ENDBRANCH  11  15
ENDBRANCH   1   7
BRANCH   5  18
HETATM   18  C8  UNL     1      -8.818  -8.799  12.233  1.00  0.00     0.039 C 
HETATM   19  C9  UNL     1      -9.664  -8.531  13.466  1.00  0.00     0.036 C 
HETATM   20  C10 UNL     1      -8.967  -9.462  14.471  1.00  0.00    -0.011 C 
HETATM   21  C11 UNL     1      -9.018 -10.886  14.030  1.00  0.00     0.009 C 
HETATM   22  C15 UNL     1      -7.526  -8.958  14.291  1.00  0.00     0.012 C 
HETATM   23  C12 UNL     1      -8.511 -11.084  12.624  1.00  0.00    -0.011 C 
HETATM   24  C13 UNL     1      -7.109 -10.488  12.458  1.00  0.00     0.012 C 
HETATM   25  C16 UNL     1      -9.294 -10.161  11.708  1.00  0.00     0.036 C 
HETATM   26  C14 UNL     1      -7.426  -9.018  12.774  1.00  0.00     0.014 C 
ENDBRANCH   5  18
TORSDOF 4
ENDMDL
MODEL 2
REMARK VINA RESULT: -7.551833317      0.934      1.188
REMARK  4 active torsions:
REMARK  status: ('A' for Active; 'I' for Inactive)
REMARK    1  A    between atoms: C2_2  and  O1_3 
REMARK    2  A    between atoms: O1_3  and  C3_4 
REMARK       I    between atoms: C3_4  and  N1_6 
REMARK    3  A    between atoms: C6_9  and  N2_10 
REMARK       I    between atoms: N2_10  and  C7_12 
REMARK       I    between atoms: C7_12  and  N3_14 
REMARK    4  A    between atoms: N3_14  and  C8_16 
ROOT
HETATM    1  N2  UNL     1      -8.485  -5.413  10.288  1.00  0.00    -0.338 N 
ATOM      2  H2  UNL     1      -9.050  -5.673   9.479  1.00  0.00     0.164 HD
HETATM    3  C7  UNL     1      -8.340  -6.379  11.322  1.00  0.00     0.317 C 
HETATM    4  O3  UNL     1      -7.668  -6.111  12.350  1.00  0.00    -0.247 OA
HETATM    5  N3  UNL     1      -8.928  -7.661  11.257  1.00  0.00    -0.334 N 
ATOM      6  H3  UNL     1      -9.471  -7.882  10.422  1.00  0.00     0.165 HD
ENDROOT
BRANCH   1   7
HETATM    7  C6  UNL     1      -7.905  -4.107  10.289  1.00  0.00     0.089 C 
HETATM    8  C5  UNL     1      -8.882  -3.129   9.668  1.00  0.00     0.045 C 
HETATM    9  C4  UNL     1      -8.267  -2.266   8.595  1.00  0.00     0.130 C 
HETATM   10  N1  UNL     1      -7.010  -1.773   9.105  1.00  0.00    -0.328 N 
HETATM   11  C3  UNL     1      -6.831  -0.380   9.266  1.00  0.00     0.362 C 
HETATM   12  C18 UNL     1      -5.997  -2.726   9.429  1.00  0.00     0.130 C 
HETATM   13  O2  UNL     1      -7.780   0.422   8.966  1.00  0.00    -0.238 OA
HETATM   14  C17 UNL     1      -6.555  -4.116   9.650  1.00  0.00     0.045 C 
BRANCH  11  15
HETATM   15  O1  UNL     1      -5.667   0.189   9.741  1.00  0.00    -0.304 OA
BRANCH  15  16
HETATM   16  C2  UNL     1      -5.015   1.168   8.956  1.00  0.00     0.176 C 
HETATM   17  C1  UNL     1      -3.685   0.629   8.529  1.00  0.00     0.034 C 
ENDBRANCH  15  16
ENDBRANCH  11  15
ENDBRANCH   1   7
BRANCH   5  18
HETATM   18  C8  UNL     1      -8.833  -8.672  12.250  1.00  0.00     0.039 C 
HETATM   19  C9  UNL     1      -9.646  -8.399  13.504  1.00  0.00     0.036 C 
HETATM   20  C10 UNL     1      -8.934  -9.339  14.490  1.00  0.00    -0.011 C 
HETATM   21  C11 UNL     1      -9.009 -10.761  14.048  1.00  0.00     0.009 C 
HETATM   22  C15 UNL     1      -7.493  -8.849  14.276  1.00  0.00     0.012 C 
HETATM   23  C12 UNL     1      -8.539 -10.961  12.630  1.00  0.00    -0.011 C 
HETATM   24  C13 UNL     1      -7.136 -10.379  12.430  1.00  0.00     0.012 C 
HETATM   25  C16 UNL     1      -9.335 -10.029  11.735  1.00  0.00     0.036 C 
HETATM   26  C14 UNL     1      -7.430  -8.907  12.756  1.00  0.00     0.014 C 
ENDBRANCH   5  18
TORSDOF 4
ENDMDL
MODEL 3
REMARK VINA RESULT: -7.548931328      1.413      2.349
REMARK  4 active torsions:
REMARK  status: ('A' for Active; 'I' for Inactive)
REMARK    1  A    between atoms: C2_2  and  O1_3 
REMARK    2  A    between atoms: O1_3  and  C3_4 
REMARK       I    between atoms: C3_4  and  N1_6 
REMARK    3  A    between atoms: C6_9  and  N2_10 
REMARK       I    between atoms: N2_10  and  C7_12 
REMARK       I    between atoms: C7_12  and  N3_14 
REMARK    4  A    between atoms: N3_14  and  C8_16 
ROOT
HETATM    1  N2  UNL     1      -6.544  -5.294  10.739  1.00  0.00    -0.338 N 
ATOM      2  H2  UNL     1      -5.600  -5.578  10.477  1.00  0.00     0.164 HD
HETATM    3  C7  UNL     1      -7.341  -6.242  11.440  1.00  0.00     0.317 C 
HETATM    4  O3  UNL     1      -8.517  -5.955  11.777  1.00  0.00    -0.247 OA
HETATM    5  N3  UNL     1      -6.870  -7.527  11.788  1.00  0.00    -0.334 N 
ATOM      6  H3  UNL     1      -5.915  -7.760  11.518  1.00  0.00     0.165 HD
ENDROOT
BRANCH   1   7
HETATM    7  C6  UNL     1      -6.958  -3.977  10.371  1.00  0.00     0.089 C 
HETATM    8  C5  UNL     1      -7.889  -4.064   9.178  1.00  0.00     0.045 C 
HETATM    9  C4  UNL     1      -7.511  -3.134   8.053  1.00  0.00     0.130 C 
HETATM   10  N1  UNL     1      -7.234  -1.842   8.634  1.00  0.00    -0.328 N 
HETATM   11  C3  UNL     1      -8.035  -0.736   8.268  1.00  0.00     0.362 C 
HETATM   12  C18 UNL     1      -6.156  -1.741   9.566  1.00  0.00     0.130 C 
HETATM   13  O2  UNL     1      -8.992  -0.892   7.435  1.00  0.00    -0.238 OA
HETATM   14  C17 UNL     1      -5.781  -3.079  10.168  1.00  0.00     0.045 C 
BRANCH  11  15
HETATM   15  O1  UNL     1      -7.848   0.538   8.763  1.00  0.00    -0.304 OA
BRANCH  15  16
HETATM   16  C2  UNL     1      -7.846   1.629   7.863  1.00  0.00     0.176 C 
HETATM   17  C1  UNL     1      -8.956   2.561   8.239  1.00  0.00     0.034 C 
ENDBRANCH  15  16
ENDBRANCH  11  15
ENDBRANCH   1   7
BRANCH   5  18
HETATM   18  C8  UNL     1      -7.607  -8.525  12.479  1.00  0.00     0.039 C 
HETATM   19  C9  UNL     1      -6.988  -9.911  12.429  1.00  0.00     0.036 C 
HETATM   20  C10 UNL     1      -8.219 -10.764  12.773  1.00  0.00    -0.011 C 
HETATM   21  C11 UNL     1      -8.768 -10.421  14.117  1.00  0.00     0.009 C 
HETATM   22  C15 UNL     1      -9.184 -10.215  11.710  1.00  0.00     0.012 C 
HETATM   23  C12 UNL     1      -9.030  -8.947  14.286  1.00  0.00    -0.011 C 
HETATM   24  C13 UNL     1      -9.921  -8.416  13.158  1.00  0.00     0.012 C 
HETATM   25  C16 UNL     1      -7.746  -8.202  13.973  1.00  0.00     0.036 C 
HETATM   26  C14 UNL     1      -9.011  -8.724  11.959  1.00  0.00     0.014 C 
ENDBRANCH   5  18
TORSDOF 4
ENDMDL
MODEL 4
REMARK VINA RESULT: -7.252388708      1.687      2.098
REMARK  4 active torsions:
REMARK  status: ('A' for Active; 'I' for Inactive)
REMARK    1  A    between atoms: C2_2  and  O1_3 
REMARK    2  A    between atoms: O1_3  and  C3_4 
REMARK       I    between atoms: C3_4  and  N1_6 
REMARK    3  A    between atoms: C6_9  and  N2_10 
REMARK       I    between atoms: N2_10  and  C7_12 
REMARK       I    between atoms: C7_12  and  N3_14 
REMARK    4  A    between atoms: N3_14  and  C8_16 
ROOT
HETATM    1  N2  UNL     1      -6.804  -4.299  10.396  1.00  0.00    -0.338 N 
ATOM      2  H2  UNL     1      -5.986  -4.676   9.916  1.00  0.00     0.164 HD
HETATM    3  C7  UNL     1      -7.518  -5.176  11.259  1.00  0.00     0.317 C 
HETATM    4  O3  UNL     1      -8.542  -4.773  11.866  1.00  0.00    -0.247 OA
HETATM    5  N3  UNL     1      -7.129  -6.516  11.477  1.00  0.00    -0.334 N 
ATOM      6  H3  UNL     1      -6.297  -6.844  10.988  1.00  0.00     0.165 HD
ENDROOT
BRANCH   1   7
HETATM    7  C6  UNL     1      -7.138  -2.932  10.145  1.00  0.00     0.089 C 
HETATM    8  C5  UNL     1      -8.148  -2.868   9.016  1.00  0.00     0.045 C 
HETATM    9  C4  UNL     1      -7.773  -1.890   7.931  1.00  0.00     0.130 C 
HETATM   10  N1  UNL     1      -7.361  -0.665   8.575  1.00  0.00    -0.328 N 
HETATM   11  C3  UNL     1      -8.097   0.518   8.338  1.00  0.00     0.362 C 
HETATM   12  C18 UNL     1      -6.221  -0.709   9.434  1.00  0.00     0.130 C 
HETATM   13  O2  UNL     1      -9.114   0.491   7.565  1.00  0.00    -0.238 OA
HETATM   14  C17 UNL     1      -5.912  -2.109   9.920  1.00  0.00     0.045 C 
BRANCH  11  15
HETATM   15  O1  UNL     1      -7.782   1.738   8.902  1.00  0.00    -0.304 OA
BRANCH  15  16
HETATM   16  C2  UNL     1      -8.529   2.878   8.528  1.00  0.00     0.176 C 
HETATM   17  C1  UNL     1      -8.511   3.854   9.663  1.00  0.00     0.034 C 
ENDBRANCH  15  16
ENDBRANCH  11  15
ENDBRANCH   1   7
BRANCH   5  18
HETATM   18  C8  UNL     1      -7.794  -7.450  12.316  1.00  0.00     0.039 C 
HETATM   19  C9  UNL     1      -8.018  -6.966  13.739  1.00  0.00     0.036 C 
HETATM   20  C10 UNL     1      -8.240  -8.314  14.444  1.00  0.00    -0.011 C 
HETATM   21  C11 UNL     1      -9.417  -9.040  13.885  1.00  0.00     0.009 C 
HETATM   22  C15 UNL     1      -6.968  -9.034  13.971  1.00  0.00     0.012 C 
HETATM   23  C12 UNL     1      -9.362  -9.183  12.386  1.00  0.00    -0.011 C 
HETATM   24  C13 UNL     1      -8.041  -9.821  11.945  1.00  0.00     0.012 C 
HETATM   25  C16 UNL     1      -9.192  -7.799  11.787  1.00  0.00     0.036 C 
HETATM   26  C14 UNL     1      -7.064  -8.761  12.477  1.00  0.00     0.014 C 
ENDBRANCH   5  18
TORSDOF 4
ENDMDL
MODEL 5
REMARK VINA RESULT: -7.162478957      1.009      1.446
REMARK  4 active torsions:
REMARK  status: ('A' for Active; 'I' for Inactive)
REMARK    1  A    between atoms: C2_2  and  O1_3 
REMARK    2  A    between atoms: O1_3  and  C3_4 
REMARK       I    between atoms: C3_4  and  N1_6 
REMARK    3  A    between atoms: C6_9  and  N2_10 
REMARK       I    between atoms: N2_10  and  C7_12 
REMARK       I    between atoms: C7_12  and  N3_14 
REMARK    4  A    between atoms: N3_14  and  C8_16 
ROOT
HETATM    1  N2  UNL     1      -8.451  -5.661  10.441  1.00  0.00    -0.338 N 
ATOM      2  H2  UNL     1      -9.128  -5.829   9.696  1.00  0.00     0.164 HD
HETATM    3  C7  UNL     1      -8.271  -6.692  11.404  1.00  0.00     0.317 C 
HETATM    4  O3  UNL     1      -7.461  -6.537  12.353  1.00  0.00    -0.247 OA
HETATM    5  N3  UNL     1      -8.973  -7.917  11.354  1.00  0.00    -0.334 N 
ATOM      6  H3  UNL     1      -9.627  -8.045  10.582  1.00  0.00     0.165 HD
ENDROOT
BRANCH   1   7
HETATM    7  C6  UNL     1      -7.763  -4.409  10.431  1.00  0.00     0.089 C 
HETATM    8  C5  UNL     1      -8.352  -3.510  11.499  1.00  0.00     0.045 C 
HETATM    9  C4  UNL     1      -8.709  -2.134  10.995  1.00  0.00     0.130 C 
HETATM   10  N1  UNL     1      -7.593  -1.656  10.214  1.00  0.00    -0.328 N 
HETATM   11  C3  UNL     1      -6.904  -0.496  10.635  1.00  0.00     0.362 C 
HETATM   12  C18 UNL     1      -7.231  -2.389   9.042  1.00  0.00     0.130 C 
HETATM   13  O2  UNL     1      -7.270   0.111  11.698  1.00  0.00    -0.238 OA
HETATM   14  C17 UNL     1      -7.752  -3.811   9.061  1.00  0.00     0.045 C 
BRANCH  11  15
HETATM   15  O1  UNL     1      -5.829   0.041   9.955  1.00  0.00    -0.304 OA
BRANCH  15  16
HETATM   16  C2  UNL     1      -5.971   1.307   9.342  1.00  0.00     0.176 C 
HETATM   17  C1  UNL     1      -6.897   1.170   8.173  1.00  0.00     0.034 C 
ENDBRANCH  15  16
ENDBRANCH  11  15
ENDBRANCH   1   7
BRANCH   5  18
HETATM   18  C8  UNL     1      -8.850  -8.986  12.281  1.00  0.00     0.039 C 
HETATM   19  C9  UNL     1      -9.627  -8.790  13.571  1.00  0.00     0.036 C 
HETATM   20  C10 UNL     1      -8.888  -9.786  14.478  1.00  0.00    -0.011 C 
HETATM   21  C11 UNL     1      -8.976 -11.179  13.953  1.00  0.00     0.009 C 
HETATM   22  C15 UNL     1      -7.454  -9.282  14.255  1.00  0.00     0.012 C 
HETATM   23  C12 UNL     1      -8.545 -11.292  12.513  1.00  0.00    -0.011 C 
HETATM   24  C13 UNL     1      -7.148 -10.697  12.310  1.00  0.00     0.012 C 
HETATM   25  C16 UNL     1      -9.366 -10.309  11.699  1.00  0.00     0.036 C 
HETATM   26  C14 UNL     1      -7.433  -9.248  12.733  1.00  0.00     0.014 C 
ENDBRANCH   5  18
TORSDOF 4
ENDMDL
