MODEL 1
REMARK VINA RESULT: -8.416747574      0.000      0.000
REMARK  6 active torsions:
REMARK  status: ('A' for Active; 'I' for Inactive)
REMARK    1  A    between atoms: C1_2  and  C2_3 
REMARK       I    between atoms: C1_2  and  N1_17 
REMARK    2  A    between atoms: C2_3  and  C3_4 
REMARK    3  A    between atoms: C3_4  and  C4_5 
REMARK    4  A    between atoms: C4_5  and  C5_6 
REMARK    5  A    between atoms: C5_6  and  C6_7 
REMARK    6  A    between atoms: N1_17  and  C16_19 
ROOT
HETATM    1  C2  UNL     1      58.278   5.945  20.089  1.00  0.00     0.103 C 
ENDROOT
BRANCH   1   2
HETATM    2  C1  UNL     1      58.071   5.890  18.632  1.00  0.00     0.217 C 
HETATM    3  O1  UNL     1      57.001   6.305  18.150  1.00  0.00    -0.274 OA
HETATM    4  N1  UNL     1      59.069   5.375  17.790  1.00  0.00    -0.356 N 
ATOM      5  H1  UNL     1      59.938   5.040  18.205  1.00  0.00     0.162 HD
BRANCH   4   6
HETATM    6  C16 UNL     1      58.904   5.302  16.330  1.00  0.00     0.084 C 
HETATM    7  C17 UNL     1      58.219   3.997  16.049  1.00  0.00     0.025 C 
HETATM    8  C18 UNL     1      57.632   3.865  14.699  1.00  0.00     0.002 C 
HETATM    9  C19 UNL     1      58.507   3.528  13.575  1.00  0.00     0.000 C 
HETATM   10  C20 UNL     1      59.538   2.486  13.790  1.00  0.00     0.000 C 
HETATM   11  C21 UNL     1      60.915   2.925  13.370  1.00  0.00     0.000 C 
HETATM   12  C22 UNL     1      61.367   4.211  13.953  1.00  0.00     0.000 C 
HETATM   13  C23 UNL     1      61.069   4.374  15.424  1.00  0.00     0.002 C 
HETATM   14  C24 UNL     1      60.172   5.545  15.624  1.00  0.00     0.025 C 
ENDBRANCH   4   6
ENDBRANCH   1   2
BRANCH   1  15
HETATM   15  C3  UNL     1      58.494   4.584  20.689  1.00  0.00     0.009 C 
BRANCH  15  16
HETATM   16  C4  UNL     1      57.583   3.557  20.078  1.00  0.00     0.001 C 
BRANCH  16  17
HETATM   17  C5  UNL     1      58.091   2.194  20.106  1.00  0.00     0.005 C 
BRANCH  17  18
HETATM   18  C6  UNL     1      59.520   1.920  19.811  1.00  0.00    -0.006 C 
HETATM   19  C7  UNL     1      60.099   0.638  20.283  1.00  0.00    -0.009 C 
HETATM   20  C8  UNL     1      60.067  -0.482  19.274  1.00  0.00     0.010 C 
HETATM   21  C12 UNL     1      61.608   0.913  20.486  1.00  0.00     0.010 C 
HETATM   22  C9  UNL     1      60.699  -0.083  17.975  1.00  0.00    -0.013 C 
HETATM   23  C10 UNL     1      62.152   0.236  18.216  1.00  0.00     0.009 C 
HETATM   24  C15 UNL     1      59.941   1.114  17.443  1.00  0.00     0.010 C 
HETATM   25  C11 UNL     1      62.202   1.389  19.198  1.00  0.00    -0.013 C 
HETATM   26  C13 UNL     1      61.504   2.565  18.581  1.00  0.00     0.010 C 
HETATM   27  C14 UNL     1      59.997   2.227  18.427  1.00  0.00    -0.009 C 
ENDBRANCH  17  18
ENDBRANCH  16  17
ENDBRANCH  15  16
ENDBRANCH   1  15
TORSDOF 6
ENDMDL
MODEL 2
REMARK VINA RESULT: -8.300537425      1.916      6.443
REMARK  6 active torsions:
REMARK  status: ('A' for Active; 'I' for Inactive)
REMARK    1  A    between atoms: C1_2  and  C2_3 
REMARK       I    between atoms: C1_2  and  N1_17 
REMARK    2  A    between atoms: C2_3  and  C3_4 
REMARK    3  A    between atoms: C3_4  and  C4_5 
REMARK    4  A    between atoms: C4_5  and  C5_6 
REMARK    5  A    between atoms: C5_6  and  C6_7 
REMARK    6  A    between atoms: N1_17  and  C16_19 
ROOT
HETATM    1  C2  UNL     1      61.054   3.525  13.672  1.00  0.00     0.103 C 
ENDROOT
BRANCH   1   2
HETATM    2  C1  UNL     1      61.235   3.562  15.133  1.00  0.00     0.217 C 
HETATM    3  O1  UNL     1      61.497   4.643  15.690  1.00  0.00    -0.274 OA
HETATM    4  N1  UNL     1      61.113   2.390  15.895  1.00  0.00    -0.356 N 
ATOM      5  H1  UNL     1      60.897   1.514  15.420  1.00  0.00     0.162 HD
BRANCH   4   6
HETATM    6  C16 UNL     1      61.284   2.382  17.357  1.00  0.00     0.084 C 
HETATM    7  C17 UNL     1      61.656   0.977  17.728  1.00  0.00     0.025 C 
HETATM    8  C18 UNL     1      62.223   0.806  19.082  1.00  0.00     0.002 C 
HETATM    9  C19 UNL     1      61.316   0.758  20.230  1.00  0.00     0.000 C 
HETATM   10  C20 UNL     1      60.069  -0.030  20.093  1.00  0.00     0.000 C 
HETATM   11  C21 UNL     1      58.838   0.743  20.485  1.00  0.00     0.000 C 
HETATM   12  C22 UNL     1      58.683   2.056  19.813  1.00  0.00     0.000 C 
HETATM   13  C23 UNL     1      58.982   2.044  18.334  1.00  0.00     0.002 C 
HETATM   14  C24 UNL     1      60.120   2.960  18.048  1.00  0.00     0.025 C 
ENDBRANCH   4   6
ENDBRANCH   1   2
BRANCH   1  15
HETATM   15  C3  UNL     1      59.605   3.522  13.272  1.00  0.00     0.009 C 
BRANCH  15  16
HETATM   16  C4  UNL     1      58.728   2.996  14.373  1.00  0.00     0.001 C 
BRANCH  16  17
HETATM   17  C5  UNL     1      57.669   3.899  14.797  1.00  0.00     0.005 C 
BRANCH  17  18
HETATM   18  C6  UNL     1      57.882   4.822  15.940  1.00  0.00    -0.006 C 
HETATM   19  C7  UNL     1      58.459   6.159  15.661  1.00  0.00    -0.009 C 
HETATM   20  C8  UNL     1      57.447   7.257  15.453  1.00  0.00     0.010 C 
HETATM   21  C12 UNL     1      59.196   6.573  16.957  1.00  0.00     0.010 C 
HETATM   22  C9  UNL     1      56.478   7.346  16.592  1.00  0.00    -0.013 C 
HETATM   23  C10 UNL     1      57.231   7.691  17.851  1.00  0.00     0.009 C 
HETATM   24  C15 UNL     1      55.776   6.010  16.704  1.00  0.00     0.010 C 
HETATM   25  C11 UNL     1      58.227   6.576  18.098  1.00  0.00    -0.013 C 
HETATM   26  C13 UNL     1      57.466   5.295  18.278  1.00  0.00     0.010 C 
HETATM   27  C14 UNL     1      56.772   4.933  16.937  1.00  0.00    -0.009 C 
ENDBRANCH  17  18
ENDBRANCH  16  17
ENDBRANCH  15  16
ENDBRANCH   1  15
TORSDOF 6
ENDMDL
MODEL 3
REMARK VINA RESULT: -7.923144470      1.987      6.569
REMARK  6 active torsions:
REMARK  status: ('A' for Active; 'I' for Inactive)
REMARK    1  A    between atoms: C1_2  and  C2_3 
REMARK       I    between atoms: C1_2  and  N1_17 
REMARK    2  A    between atoms: C2_3  and  C3_4 
REMARK    3  A    between atoms: C3_4  and  C4_5 
REMARK    4  A    between atoms: C4_5  and  C5_6 
REMARK    5  A    between atoms: C5_6  and  C6_7 
REMARK    6  A    between atoms: N1_17  and  C16_19 
ROOT
HETATM    1  C2  UNL     1      61.046   3.641  13.863  1.00  0.00     0.103 C 
ENDROOT
BRANCH   1   2
HETATM    2  C1  UNL     1      61.283   3.579  15.315  1.00  0.00     0.217 C 
HETATM    3  O1  UNL     1      61.608   4.613  15.927  1.00  0.00    -0.274 OA
HETATM    4  N1  UNL     1      61.145   2.367  16.008  1.00  0.00    -0.356 N 
ATOM      5  H1  UNL     1      60.878   1.530  15.489  1.00  0.00     0.162 HD
BRANCH   4   6
HETATM    6  C16 UNL     1      61.371   2.260  17.459  1.00  0.00     0.084 C 
HETATM    7  C17 UNL     1      61.598   0.804  17.743  1.00  0.00     0.025 C 
HETATM    8  C18 UNL     1      62.195   0.499  19.060  1.00  0.00     0.002 C 
HETATM    9  C19 UNL     1      61.332   0.488  20.243  1.00  0.00     0.000 C 
HETATM   10  C20 UNL     1      60.001  -0.150  20.123  1.00  0.00     0.000 C 
HETATM   11  C21 UNL     1      58.880   0.730  20.607  1.00  0.00     0.000 C 
HETATM   12  C22 UNL     1      58.846   2.086  20.009  1.00  0.00     0.000 C 
HETATM   13  C23 UNL     1      59.084   2.123  18.519  1.00  0.00     0.002 C 
HETATM   14  C24 UNL     1      60.306   2.923  18.229  1.00  0.00     0.025 C 
ENDBRANCH   4   6
ENDBRANCH   1   2
BRANCH   1  15
HETATM   15  C3  UNL     1      59.677   4.161  13.526  1.00  0.00     0.009 C 
BRANCH  15  16
HETATM   16  C4  UNL     1      58.596   3.267  14.066  1.00  0.00     0.001 C 
BRANCH  16  17
HETATM   17  C5  UNL     1      57.942   3.757  15.270  1.00  0.00     0.005 C 
BRANCH  17  18
HETATM   18  C6  UNL     1      57.903   5.212  15.564  1.00  0.00    -0.006 C 
HETATM   19  C7  UNL     1      56.581   5.883  15.596  1.00  0.00    -0.009 C 
HETATM   20  C8  UNL     1      55.949   5.976  16.962  1.00  0.00     0.010 C 
HETATM   21  C12 UNL     1      56.854   7.357  15.212  1.00  0.00     0.010 C 
HETATM   22  C9  UNL     1      56.868   6.608  17.962  1.00  0.00    -0.013 C 
HETATM   23  C10 UNL     1      57.163   8.021  17.530  1.00  0.00     0.009 C 
HETATM   24  C15 UNL     1      58.124   5.766  18.029  1.00  0.00     0.010 C 
HETATM   25  C11 UNL     1      57.837   7.946  16.175  1.00  0.00    -0.013 C 
HETATM   26  C13 UNL     1      59.112   7.168  16.324  1.00  0.00     0.010 C 
HETATM   27  C14 UNL     1      58.761   5.700  16.688  1.00  0.00    -0.009 C 
ENDBRANCH  17  18
ENDBRANCH  16  17
ENDBRANCH  15  16
ENDBRANCH   1  15
TORSDOF 6
ENDMDL
MODEL 4
REMARK VINA RESULT: -7.864354055      0.226      1.668
REMARK  6 active torsions:
REMARK  status: ('A' for Active; 'I' for Inactive)
REMARK    1  A    between atoms: C1_2  and  C2_3 
REMARK       I    between atoms: C1_2  and  N1_17 
REMARK    2  A    between atoms: C2_3  and  C3_4 
REMARK    3  A    between atoms: C3_4  and  C4_5 
REMARK    4  A    between atoms: C4_5  and  C5_6 
REMARK    5  A    between atoms: C5_6  and  C6_7 
REMARK    6  A    between atoms: N1_17  and  C16_19 
ROOT
HETATM    1  C2  UNL     1      58.225   6.047  20.069  1.00  0.00     0.103 C 
ENDROOT
BRANCH   1   2
HETATM    2  C1  UNL     1      58.014   5.944  18.616  1.00  0.00     0.217 C 
HETATM    3  O1  UNL     1      56.917   6.277  18.131  1.00  0.00    -0.274 OA
HETATM    4  N1  UNL     1      59.038   5.473  17.779  1.00  0.00    -0.356 N 
ATOM      5  H1  UNL     1      59.929   5.204  18.195  1.00  0.00     0.162 HD
BRANCH   4   6
HETATM    6  C16 UNL     1      58.870   5.354  16.322  1.00  0.00     0.084 C 
HETATM    7  C17 UNL     1      58.210   4.028  16.082  1.00  0.00     0.025 C 
HETATM    8  C18 UNL     1      57.621   3.845  14.739  1.00  0.00     0.002 C 
HETATM    9  C19 UNL     1      58.499   3.492  13.622  1.00  0.00     0.000 C 
HETATM   10  C20 UNL     1      59.551   2.477  13.864  1.00  0.00     0.000 C 
HETATM   11  C21 UNL     1      60.918   2.931  13.425  1.00  0.00     0.000 C 
HETATM   12  C22 UNL     1      61.346   4.242  13.969  1.00  0.00     0.000 C 
HETATM   13  C23 UNL     1      61.050   4.443  15.435  1.00  0.00     0.002 C 
HETATM   14  C24 UNL     1      60.131   5.601  15.604  1.00  0.00     0.025 C 
ENDBRANCH   4   6
ENDBRANCH   1   2
BRANCH   1  15
HETATM   15  C3  UNL     1      58.477   4.710  20.709  1.00  0.00     0.009 C 
BRANCH  15  16
HETATM   16  C4  UNL     1      57.760   3.606  19.985  1.00  0.00     0.001 C 
BRANCH  16  17
HETATM   17  C5  UNL     1      58.152   2.261  20.379  1.00  0.00     0.005 C 
BRANCH  17  18
HETATM   18  C6  UNL     1      59.038   1.451  19.506  1.00  0.00    -0.006 C 
HETATM   19  C7  UNL     1      59.752   2.140  18.403  1.00  0.00    -0.009 C 
HETATM   20  C8  UNL     1      61.145   2.607  18.741  1.00  0.00     0.010 C 
HETATM   21  C12 UNL     1      59.976   1.062  17.315  1.00  0.00     0.010 C 
HETATM   22  C9  UNL     1      61.991   1.495  19.283  1.00  0.00    -0.013 C 
HETATM   23  C10 UNL     1      62.141   0.434  18.223  1.00  0.00     0.009 C 
HETATM   24  C15 UNL     1      61.309   0.960  20.523  1.00  0.00     0.010 C 
HETATM   25  C11 UNL     1      60.752  -0.077  17.899  1.00  0.00    -0.013 C 
HETATM   26  C13 UNL     1      60.162  -0.664  19.147  1.00  0.00     0.010 C 
HETATM   27  C14 UNL     1      59.947   0.474  20.182  1.00  0.00    -0.009 C 
ENDBRANCH  17  18
ENDBRANCH  16  17
ENDBRANCH  15  16
ENDBRANCH   1  15
TORSDOF 6
ENDMDL
MODEL 5
REMARK VINA RESULT: -7.695520236      2.640      3.963
REMARK  6 active torsions:
REMARK  status: ('A' for Active; 'I' for Inactive)
REMARK    1  A    between atoms: C1_2  and  C2_3 
REMARK       I    between atoms: C1_2  and  N1_17 
REMARK    2  A    between atoms: C2_3  and  C3_4 
REMARK    3  A    between atoms: C3_4  and  C4_5 
REMARK    4  A    between atoms: C4_5  and  C5_6 
REMARK    5  A    between atoms: C5_6  and  C6_7 
REMARK    6  A    between atoms: N1_17  and  C16_19 
ROOT
HETATM    1  C2  UNL     1      59.866   5.485  15.522  1.00  0.00     0.103 C 
ENDROOT
BRANCH   1   2
HETATM    2  C1  UNL     1      60.651   4.817  14.470  1.00  0.00     0.217 C 
HETATM    3  O1  UNL     1      61.849   4.549  14.677  1.00  0.00    -0.274 OA
HETATM    4  N1  UNL     1      60.058   4.482  13.243  1.00  0.00    -0.356 N 
ATOM      5  H1  UNL     1      59.075   4.709  13.093  1.00  0.00     0.162 HD
BRANCH   4   6
HETATM    6  C16 UNL     1      60.805   3.814  12.165  1.00  0.00     0.084 C 
HETATM    7  C17 UNL     1      60.133   4.205  10.882  1.00  0.00     0.025 C 
HETATM    8  C18 UNL     1      60.911   3.950   9.653  1.00  0.00     0.002 C 
HETATM    9  C19 UNL     1      60.941   2.594   9.102  1.00  0.00     0.000 C 
HETATM   10  C20 UNL     1      59.671   1.831   9.072  1.00  0.00     0.000 C 
HETATM   11  C21 UNL     1      59.795   0.459   9.679  1.00  0.00     0.000 C 
HETATM   12  C22 UNL     1      60.372   0.428  11.045  1.00  0.00     0.000 C 
HETATM   13  C23 UNL     1      59.840   1.489  11.977  1.00  0.00     0.002 C 
HETATM   14  C24 UNL     1      60.955   2.371  12.417  1.00  0.00     0.025 C 
ENDBRANCH   4   6
ENDBRANCH   1   2
BRANCH   1  15
HETATM   15  C3  UNL     1      58.689   4.663  15.969  1.00  0.00     0.009 C 
BRANCH  15  16
HETATM   16  C4  UNL     1      58.466   4.775  17.450  1.00  0.00     0.001 C 
BRANCH  16  17
HETATM   17  C5  UNL     1      59.675   4.710  18.258  1.00  0.00     0.005 C 
BRANCH  17  18
HETATM   18  C6  UNL     1      60.218   3.397  18.690  1.00  0.00    -0.006 C 
HETATM   19  C7  UNL     1      59.260   2.355  19.132  1.00  0.00    -0.009 C 
HETATM   20  C8  UNL     1      58.826   1.394  18.054  1.00  0.00     0.010 C 
HETATM   21  C12 UNL     1      60.041   1.467  20.130  1.00  0.00     0.010 C 
HETATM   22  C9  UNL     1      59.997   0.756  17.371  1.00  0.00    -0.013 C 
HETATM   23  C10 UNL     1      60.772  -0.052  18.379  1.00  0.00     0.009 C 
HETATM   24  C15 UNL     1      60.837   1.861  16.769  1.00  0.00     0.010 C 
HETATM   25  C11 UNL     1      61.251   0.906  19.450  1.00  0.00    -0.013 C 
HETATM   26  C13 UNL     1      62.140   1.928  18.805  1.00  0.00     0.010 C 
HETATM   27  C14 UNL     1      61.287   2.792  17.837  1.00  0.00    -0.009 C 
ENDBRANCH  17  18
ENDBRANCH  16  17
ENDBRANCH  15  16
ENDBRANCH   1  15
TORSDOF 6
ENDMDL
