MODEL 1
REMARK VINA RESULT: -8.965583145      0.000      0.000
REMARK  6 active torsions:
REMARK  status: ('A' for Active; 'I' for Inactive)
REMARK    1  A    between atoms: C3_3  and  C4_4 
REMARK    2  A    between atoms: C8_8  and  C9_9 
REMARK    3  A    between atoms: C9_9  and  C10_10 
REMARK    4  A    between atoms: C10_10  and  C11_11 
REMARK    5  A    between atoms: C11_11  and  N1_12 
REMARK    6  A    between atoms: C21_25  and  C22_26 
ROOT
HETATM    1  C1  UNL     1      59.621   2.158  12.557  1.00  0.00     0.096 C 
HETATM    2  C2  UNL     1      59.508   2.458  13.743  1.00  0.00    -0.186 C 
HETATM    3  C3  UNL     1      59.371   2.787  15.168  1.00  0.00     0.093 C 
ENDROOT
BRANCH   3   4
HETATM    4  C4  UNL     1      60.028   4.085  15.415  1.00  0.00    -0.010 C 
HETATM    5  C5  UNL     1      61.429   4.034  14.781  1.00  0.00     0.021 C 
HETATM    6  C6  UNL     1      59.282   5.087  14.556  1.00  0.00     0.015 C 
HETATM    7  C7  UNL     1      57.936   5.401  15.107  1.00  0.00     0.007 C 
HETATM    8  C8  UNL     1      58.238   6.189  16.376  1.00  0.00    -0.002 C 
HETATM    9  C12 UNL     1      58.975   5.352  17.376  1.00  0.00    -0.016 C 
HETATM   10  C13 UNL     1      59.535   6.403  18.357  1.00  0.00     0.020 C 
HETATM   11  C14 UNL     1      57.934   4.558  18.125  1.00  0.00     0.015 C 
HETATM   12  C25 UNL     1      60.104   4.544  16.833  1.00  0.00    -0.059 C 
HETATM   13  C15 UNL     1      58.542   3.699  19.243  1.00  0.00     0.011 C 
HETATM   14  C16 UNL     1      59.418   2.730  18.481  1.00  0.00     0.023 C 
HETATM   15  C17 UNL     1      60.522   3.561  17.853  1.00  0.00    -0.071 C 
HETATM   16  C21 UNL     1      60.250   1.865  19.406  1.00  0.00     0.025 C 
HETATM   17  C18 UNL     1      61.652   2.677  17.641  1.00  0.00     0.040 C 
HETATM   18  C19 UNL     1      61.330   1.424  18.477  1.00  0.00    -0.006 C 
HETATM   19  C20 UNL     1      62.571   0.923  19.173  1.00  0.00     0.011 C 
BRANCH   8  20
HETATM   20  C9  UNL     1      56.920   6.677  16.868  1.00  0.00     0.007 C 
BRANCH  20  21
HETATM   21  C10 UNL     1      56.504   8.012  16.314  1.00  0.00     0.027 C 
BRANCH  21  22
HETATM   22  C11 UNL     1      57.641   8.976  16.269  1.00  0.00     0.229 C 
BRANCH  22  23
HETATM   23  N1  UNL     1      58.312   8.939  14.972  1.00  0.00    -0.079 N 
ATOM     24  H13 UNL     1      58.623   7.997  14.736  1.00  0.00     0.274 HD
ATOM     25  H12 UNL     1      57.654   9.083  14.205  1.00  0.00     0.274 HD
ATOM     26  H11 UNL     1      59.081   9.608  14.936  1.00  0.00     0.274 HD
ENDBRANCH  22  23
ENDBRANCH  21  22
ENDBRANCH  20  21
ENDBRANCH   8  20
BRANCH  16  27
HETATM   27  C22 UNL     1      59.510   0.802  20.080  1.00  0.00    -0.088 C 
HETATM   28  C23 UNL     1      58.208   0.928  20.262  1.00  0.00     0.014 C 
HETATM   29  C24 UNL     1      60.154  -0.454  20.579  1.00  0.00     0.043 C 
ENDBRANCH  16  27
ENDBRANCH   3   4
TORSDOF 6
ENDMDL
MODEL 2
REMARK VINA RESULT: -8.498977627      2.110      4.620
REMARK  6 active torsions:
REMARK  status: ('A' for Active; 'I' for Inactive)
REMARK    1  A    between atoms: C3_3  and  C4_4 
REMARK    2  A    between atoms: C8_8  and  C9_9 
REMARK    3  A    between atoms: C9_9  and  C10_10 
REMARK    4  A    between atoms: C10_10  and  C11_11 
REMARK    5  A    between atoms: C11_11  and  N1_12 
REMARK    6  A    between atoms: C21_25  and  C22_26 
ROOT
HETATM    1  C1  UNL     1      58.329   5.982  20.279  1.00  0.00     0.096 C 
HETATM    2  C2  UNL     1      58.852   5.851  19.175  1.00  0.00    -0.186 C 
HETATM    3  C3  UNL     1      59.505   5.689  17.868  1.00  0.00     0.093 C 
ENDROOT
BRANCH   3   4
HETATM    4  C4  UNL     1      58.494   5.236  16.893  1.00  0.00    -0.010 C 
HETATM    5  C5  UNL     1      57.104   5.511  17.489  1.00  0.00     0.021 C 
HETATM    6  C6  UNL     1      58.586   6.209  15.733  1.00  0.00     0.015 C 
HETATM    7  C7  UNL     1      59.810   5.990  14.916  1.00  0.00     0.007 C 
HETATM    8  C8  UNL     1      59.554   4.655  14.229  1.00  0.00    -0.002 C 
HETATM    9  C12 UNL     1      59.444   3.540  15.225  1.00  0.00    -0.016 C 
HETATM   10  C13 UNL     1      58.790   2.410  14.403  1.00  0.00     0.020 C 
HETATM   11  C14 UNL     1      60.852   3.102  15.538  1.00  0.00     0.015 C 
HETATM   12  C25 UNL     1      58.599   3.824  16.419  1.00  0.00    -0.059 C 
HETATM   13  C15 UNL     1      60.894   1.906  16.500  1.00  0.00     0.011 C 
HETATM   14  C16 UNL     1      60.284   2.471  17.762  1.00  0.00     0.023 C 
HETATM   15  C17 UNL     1      58.834   2.776  17.431  1.00  0.00    -0.071 C 
HETATM   16  C21 UNL     1      60.080   1.406  18.822  1.00  0.00     0.025 C 
HETATM   17  C18 UNL     1      58.095   2.742  18.679  1.00  0.00     0.040 C 
HETATM   18  C19 UNL     1      59.050   2.061  19.679  1.00  0.00    -0.006 C 
HETATM   19  C20 UNL     1      58.289   1.105  20.564  1.00  0.00     0.011 C 
BRANCH   8  20
HETATM   20  C9  UNL     1      60.675   4.480  13.265  1.00  0.00     0.007 C 
BRANCH  20  21
HETATM   21  C10 UNL     1      60.252   4.023  11.895  1.00  0.00     0.027 C 
BRANCH  21  22
HETATM   22  C11 UNL     1      60.976   2.790  11.471  1.00  0.00     0.229 C 
BRANCH  22  23
HETATM   23  N1  UNL     1      60.040   1.734  11.095  1.00  0.00    -0.079 N 
ATOM     24  H13 UNL     1      60.512   0.837  10.982  1.00  0.00     0.274 HD
ATOM     25  H12 UNL     1      59.421   1.488  11.868  1.00  0.00     0.274 HD
ATOM     26  H11 UNL     1      59.514   1.989  10.259  1.00  0.00     0.274 HD
ENDBRANCH  22  23
ENDBRANCH  21  22
ENDBRANCH  20  21
ENDBRANCH   8  20
BRANCH  16  27
HETATM   27  C22 UNL     1      61.300   0.978  19.501  1.00  0.00    -0.088 C 
HETATM   28  C23 UNL     1      62.465   1.473  19.124  1.00  0.00     0.014 C 
HETATM   29  C24 UNL     1      61.306  -0.005  20.630  1.00  0.00     0.043 C 
ENDBRANCH  16  27
ENDBRANCH   3   4
TORSDOF 6
ENDMDL
MODEL 3
REMARK VINA RESULT: -8.165616585      2.606      6.240
REMARK  6 active torsions:
REMARK  status: ('A' for Active; 'I' for Inactive)
REMARK    1  A    between atoms: C3_3  and  C4_4 
REMARK    2  A    between atoms: C8_8  and  C9_9 
REMARK    3  A    between atoms: C9_9  and  C10_10 
REMARK    4  A    between atoms: C10_10  and  C11_11 
REMARK    5  A    between atoms: C11_11  and  N1_12 
REMARK    6  A    between atoms: C21_25  and  C22_26 
ROOT
HETATM    1  C1  UNL     1      56.568   7.631  15.413  1.00  0.00     0.096 C 
HETATM    2  C2  UNL     1      57.057   6.505  15.451  1.00  0.00    -0.186 C 
HETATM    3  C3  UNL     1      57.632   5.153  15.469  1.00  0.00     0.093 C 
ENDROOT
BRANCH   3   4
HETATM    4  C4  UNL     1      58.801   5.152  16.371  1.00  0.00    -0.010 C 
HETATM    5  C5  UNL     1      59.405   6.567  16.363  1.00  0.00     0.021 C 
HETATM    6  C6  UNL     1      58.233   5.012  17.770  1.00  0.00     0.015 C 
HETATM    7  C7  UNL     1      57.736   3.634  18.035  1.00  0.00     0.007 C 
HETATM    8  C8  UNL     1      59.006   2.795  18.089  1.00  0.00    -0.002 C 
HETATM    9  C12 UNL     1      59.719   2.795  16.772  1.00  0.00    -0.016 C 
HETATM   10  C13 UNL     1      61.124   2.274  17.141  1.00  0.00     0.020 C 
HETATM   11  C14 UNL     1      59.062   1.734  15.926  1.00  0.00     0.015 C 
HETATM   12  C25 UNL     1      59.852   4.125  16.112  1.00  0.00    -0.059 C 
HETATM   13  C15 UNL     1      59.741   1.569  14.558  1.00  0.00     0.011 C 
HETATM   14  C16 UNL     1      59.502   2.911  13.903  1.00  0.00     0.023 C 
HETATM   15  C17 UNL     1      60.288   3.924  14.716  1.00  0.00    -0.071 C 
HETATM   16  C21 UNL     1      60.228   3.035  12.578  1.00  0.00     0.025 C 
HETATM   17  C18 UNL     1      60.575   5.043  13.839  1.00  0.00     0.040 C 
HETATM   18  C19 UNL     1      60.271   4.517  12.423  1.00  0.00    -0.006 C 
HETATM   19  C20 UNL     1      61.313   5.002  11.447  1.00  0.00     0.011 C 
BRANCH   8  20
HETATM   20  C9  UNL     1      58.571   1.440  18.528  1.00  0.00     0.007 C 
BRANCH  20  21
HETATM   21  C10 UNL     1      58.724   1.183  20.002  1.00  0.00     0.027 C 
BRANCH  21  22
HETATM   22  C11 UNL     1      60.070   0.634  20.335  1.00  0.00     0.229 C 
BRANCH  22  23
HETATM   23  N1  UNL     1      60.059  -0.826  20.332  1.00  0.00    -0.079 N 
ATOM     24  H13 UNL     1      60.362  -1.206  21.229  1.00  0.00     0.274 HD
ATOM     25  H12 UNL     1      59.107  -1.194  20.321  1.00  0.00     0.274 HD
ATOM     26  H11 UNL     1      60.614  -1.197  19.561  1.00  0.00     0.274 HD
ENDBRANCH  22  23
ENDBRANCH  21  22
ENDBRANCH  20  21
ENDBRANCH   8  20
BRANCH  16  27
HETATM   27  C22 UNL     1      59.622   2.291  11.477  1.00  0.00    -0.088 C 
HETATM   28  C23 UNL     1      58.700   2.869  10.728  1.00  0.00     0.014 C 
HETATM   29  C24 UNL     1      60.001   0.884  11.134  1.00  0.00     0.043 C 
ENDBRANCH  16  27
ENDBRANCH   3   4
TORSDOF 6
ENDMDL
MODEL 4
REMARK VINA RESULT: -7.711966974      1.588      4.189
REMARK  6 active torsions:
REMARK  status: ('A' for Active; 'I' for Inactive)
REMARK    1  A    between atoms: C3_3  and  C4_4 
REMARK    2  A    between atoms: C8_8  and  C9_9 
REMARK    3  A    between atoms: C9_9  and  C10_10 
REMARK    4  A    between atoms: C10_10  and  C11_11 
REMARK    5  A    between atoms: C11_11  and  N1_12 
REMARK    6  A    between atoms: C21_25  and  C22_26 
ROOT
HETATM    1  C1  UNL     1      58.637   6.959  21.856  1.00  0.00     0.096 C 
HETATM    2  C2  UNL     1      58.865   6.088  21.020  1.00  0.00    -0.186 C 
HETATM    3  C3  UNL     1      59.158   5.035  20.038  1.00  0.00     0.093 C 
ENDROOT
BRANCH   3   4
HETATM    4  C4  UNL     1      57.942   4.786  19.240  1.00  0.00    -0.010 C 
HETATM    5  C5  UNL     1      56.828   4.340  20.203  1.00  0.00     0.021 C 
HETATM    6  C6  UNL     1      57.482   6.151  18.766  1.00  0.00     0.015 C 
HETATM    7  C7  UNL     1      58.357   6.691  17.690  1.00  0.00     0.007 C 
HETATM    8  C8  UNL     1      58.063   5.792  16.497  1.00  0.00    -0.002 C 
HETATM    9  C12 UNL     1      58.467   4.374  16.767  1.00  0.00    -0.016 C 
HETATM   10  C13 UNL     1      57.728   3.590  15.663  1.00  0.00     0.020 C 
HETATM   11  C14 UNL     1      59.941   4.282  16.466  1.00  0.00     0.015 C 
HETATM   12  C25 UNL     1      58.067   3.833  18.097  1.00  0.00    -0.059 C 
HETATM   13  C15 UNL     1      60.486   2.856  16.631  1.00  0.00     0.011 C 
HETATM   14  C16 UNL     1      60.289   2.592  18.106  1.00  0.00     0.023 C 
HETATM   15  C17 UNL     1      58.788   2.567  18.334  1.00  0.00    -0.071 C 
HETATM   16  C21 UNL     1      60.622   1.161  18.479  1.00  0.00     0.025 C 
HETATM   17  C18 UNL     1      58.550   1.765  19.519  1.00  0.00     0.040 C 
HETATM   18  C19 UNL     1      59.881   1.029  19.765  1.00  0.00    -0.006 C 
HETATM   19  C20 UNL     1      59.623  -0.398  20.181  1.00  0.00     0.011 C 
BRANCH   8  20
HETATM   20  C9  UNL     1      58.783   6.404  15.347  1.00  0.00     0.007 C 
BRANCH  20  21
HETATM   21  C10 UNL     1      58.925   7.899  15.425  1.00  0.00     0.027 C 
BRANCH  21  22
HETATM   22  C11 UNL     1      57.901   8.601  14.597  1.00  0.00     0.229 C 
BRANCH  22  23
HETATM   23  N1  UNL     1      56.551   8.185  14.967  1.00  0.00    -0.079 N 
ATOM     24  H13 UNL     1      56.084   7.701  14.200  1.00  0.00     0.274 HD
ATOM     25  H12 UNL     1      56.565   7.423  15.646  1.00  0.00     0.274 HD
ATOM     26  H11 UNL     1      56.001   8.976  15.302  1.00  0.00     0.274 HD
ENDBRANCH  22  23
ENDBRANCH  21  22
ENDBRANCH  20  21
ENDBRANCH   8  20
BRANCH  16  27
HETATM   27  C22 UNL     1      62.051   0.859  18.527  1.00  0.00    -0.088 C 
HETATM   28  C23 UNL     1      62.467  -0.368  18.273  1.00  0.00     0.014 C 
HETATM   29  C24 UNL     1      63.093   1.885  18.845  1.00  0.00     0.043 C 
ENDBRANCH  16  27
ENDBRANCH   3   4
TORSDOF 6
ENDMDL
MODEL 5
REMARK VINA RESULT: -7.578056635      2.496      6.071
REMARK  6 active torsions:
REMARK  status: ('A' for Active; 'I' for Inactive)
REMARK    1  A    between atoms: C3_3  and  C4_4 
REMARK    2  A    between atoms: C8_8  and  C9_9 
REMARK    3  A    between atoms: C9_9  and  C10_10 
REMARK    4  A    between atoms: C10_10  and  C11_11 
REMARK    5  A    between atoms: C11_11  and  N1_12 
REMARK    6  A    between atoms: C21_25  and  C22_26 
ROOT
HETATM    1  C1  UNL     1      56.643   7.150  15.434  1.00  0.00     0.096 C 
HETATM    2  C2  UNL     1      56.946   6.080  15.957  1.00  0.00    -0.186 C 
HETATM    3  C3  UNL     1      57.300   4.786  16.556  1.00  0.00     0.093 C 
ENDROOT
BRANCH   3   4
HETATM    4  C4  UNL     1      58.366   5.006  17.552  1.00  0.00    -0.010 C 
HETATM    5  C5  UNL     1      58.637   6.518  17.629  1.00  0.00     0.021 C 
HETATM    6  C6  UNL     1      57.739   4.685  18.895  1.00  0.00     0.015 C 
HETATM    7  C7  UNL     1      57.545   3.222  19.085  1.00  0.00     0.007 C 
HETATM    8  C8  UNL     1      58.962   2.683  19.226  1.00  0.00    -0.002 C 
HETATM    9  C12 UNL     1      59.756   2.896  17.973  1.00  0.00    -0.016 C 
HETATM   10  C13 UNL     1      61.209   2.684  18.447  1.00  0.00     0.020 C 
HETATM   11  C14 UNL     1      59.420   1.752  17.050  1.00  0.00     0.015 C 
HETATM   12  C25 UNL     1      59.638   4.249  17.359  1.00  0.00    -0.059 C 
HETATM   13  C15 UNL     1      60.221   1.799  15.741  1.00  0.00     0.011 C 
HETATM   14  C16 UNL     1      59.739   3.081  15.100  1.00  0.00     0.023 C 
HETATM   15  C17 UNL     1      60.213   4.208  15.999  1.00  0.00    -0.071 C 
HETATM   16  C21 UNL     1      60.517   3.418  13.844  1.00  0.00     0.025 C 
HETATM   17  C18 UNL     1      60.308   5.398  15.176  1.00  0.00     0.040 C 
HETATM   18  C19 UNL     1      60.238   4.877  13.728  1.00  0.00    -0.006 C 
HETATM   19  C20 UNL     1      61.217   5.622  12.854  1.00  0.00     0.011 C 
BRANCH   8  20
HETATM   20  C9  UNL     1      58.810   1.248  19.594  1.00  0.00     0.007 C 
BRANCH  20  21
HETATM   21  C10 UNL     1      59.774   0.769  20.645  1.00  0.00     0.027 C 
BRANCH  21  22
HETATM   22  C11 UNL     1      60.398  -0.534  20.276  1.00  0.00     0.229 C 
BRANCH  22  23
HETATM   23  N1  UNL     1      61.845  -0.403  20.133  1.00  0.00    -0.079 N 
ATOM     24  H13 UNL     1      62.285  -1.299  19.926  1.00  0.00     0.274 HD
ATOM     25  H12 UNL     1      62.094   0.095  19.277  1.00  0.00     0.274 HD
ATOM     26  H11 UNL     1      62.258   0.037  20.956  1.00  0.00     0.274 HD
ENDBRANCH  22  23
ENDBRANCH  21  22
ENDBRANCH  20  21
ENDBRANCH   8  20
BRANCH  16  27
HETATM   27  C22 UNL     1      60.179   2.604  12.679  1.00  0.00    -0.088 C 
HETATM   28  C23 UNL     1      58.924   2.532  12.275  1.00  0.00     0.014 C 
HETATM   29  C24 UNL     1      61.198   1.839  11.892  1.00  0.00     0.043 C 
ENDBRANCH  16  27
ENDBRANCH   3   4
TORSDOF 6
ENDMDL
