MODEL 1
REMARK VINA RESULT: -7.140710124      0.000      0.000
REMARK  6 active torsions:
REMARK  status: ('A' for Active; 'I' for Inactive)
REMARK    1  A    between atoms: C2_2  and  C3_3 
REMARK    2  A    between atoms: C3_3  and  C4_4 
REMARK    3  A    between atoms: C4_4  and  C5_5 
REMARK    4  A    between atoms: C5_5  and  C6_6 
REMARK    5  A    between atoms: C6_6  and  C8_8 
REMARK    6  A    between atoms: C17_17  and  N1_18 
ROOT
HETATM    1  C8  UNL     1      59.465   2.630  18.393  1.00  0.00    -0.003 C 
HETATM    2  C9  UNL     1      59.454   1.497  17.375  1.00  0.00     0.006 C 
HETATM    3  C10 UNL     1      58.639   1.766  16.146  1.00  0.00     0.006 C 
HETATM    4  C11 UNL     1      58.762   3.117  15.550  1.00  0.00    -0.005 C 
HETATM    5  C12 UNL     1      59.653   4.000  16.419  1.00  0.00    -0.002 C 
HETATM    6  C13 UNL     1      59.817   5.367  15.891  1.00  0.00     0.006 C 
HETATM    7  C14 UNL     1      59.576   5.492  14.395  1.00  0.00     0.012 C 
HETATM    8  C15 UNL     1      60.076   4.274  13.725  1.00  0.00    -0.020 C 
HETATM    9  C16 UNL     1      61.481   3.880  14.040  1.00  0.00     0.018 C 
HETATM   10  C17 UNL     1      59.912   4.177  12.245  1.00  0.00     0.084 C 
HETATM   11  C19 UNL     1      59.920   2.645  12.048  1.00  0.00     0.026 C 
HETATM   12  C20 UNL     1      59.555   2.033  13.385  1.00  0.00     0.008 C 
HETATM   13  C21 UNL     1      59.042   3.196  14.120  1.00  0.00     0.000 C 
HETATM   14  C22 UNL     1      59.072   3.942  17.853  1.00  0.00    -0.040 C 
HETATM   15  C23 UNL     1      59.804   5.052  18.621  1.00  0.00     0.015 C 
HETATM   16  C24 UNL     1      57.639   4.294  17.776  1.00  0.00     0.015 C 
ENDROOT
BRANCH   1  17
HETATM   17  C6  UNL     1      58.825   2.111  19.639  1.00  0.00    -0.014 C 
HETATM   18  C7  UNL     1      57.794   1.102  19.201  1.00  0.00     0.010 C 
BRANCH  17  19
HETATM   19  C5  UNL     1      59.693   1.549  20.685  1.00  0.00     0.005 C 
BRANCH  19  20
HETATM   20  C4  UNL     1      60.318   0.238  20.467  1.00  0.00     0.000 C 
BRANCH  20  21
HETATM   21  C3  UNL     1      61.747   0.048  20.234  1.00  0.00    -0.000 C 
BRANCH  21  22
HETATM   22  C2  UNL     1      62.228   0.218  18.806  1.00  0.00    -0.005 C 
HETATM   23  C1  UNL     1      62.840   1.606  18.637  1.00  0.00     0.005 C 
ENDBRANCH  21  22
ENDBRANCH  20  21
ENDBRANCH  19  20
ENDBRANCH  17  19
ENDBRANCH   1  17
BRANCH  10  24
HETATM   24  N1  UNL     1      60.969   4.772  11.511  1.00  0.00    -0.420 N 
HETATM   25  C18 UNL     1      60.808   4.967  10.130  1.00  0.00     0.140 C 
ATOM     26  H1  UNL     1      61.831   5.052  11.978  1.00  0.00     0.153 HD
ENDBRANCH  10  24
TORSDOF 6
ENDMDL
MODEL 2
REMARK VINA RESULT: -6.939929896      2.411      3.839
REMARK  6 active torsions:
REMARK  status: ('A' for Active; 'I' for Inactive)
REMARK    1  A    between atoms: C2_2  and  C3_3 
REMARK    2  A    between atoms: C3_3  and  C4_4 
REMARK    3  A    between atoms: C4_4  and  C5_5 
REMARK    4  A    between atoms: C5_5  and  C6_6 
REMARK    5  A    between atoms: C6_6  and  C8_8 
REMARK    6  A    between atoms: C17_17  and  N1_18 
ROOT
HETATM    1  C8  UNL     1      58.429   2.662  18.729  1.00  0.00    -0.003 C 
HETATM    2  C9  UNL     1      57.595   3.783  19.338  1.00  0.00     0.006 C 
HETATM    3  C10 UNL     1      58.252   5.130  19.325  1.00  0.00     0.006 C 
HETATM    4  C11 UNL     1      58.966   5.510  18.084  1.00  0.00    -0.005 C 
HETATM    5  C12 UNL     1      58.956   4.351  17.092  1.00  0.00    -0.002 C 
HETATM    6  C13 UNL     1      59.656   4.654  15.830  1.00  0.00     0.006 C 
HETATM    7  C14 UNL     1      59.757   6.136  15.511  1.00  0.00     0.012 C 
HETATM    8  C15 UNL     1      58.520   6.809  15.960  1.00  0.00    -0.020 C 
HETATM    9  C16 UNL     1      57.238   6.214  15.481  1.00  0.00     0.018 C 
HETATM   10  C17 UNL     1      58.421   8.285  15.766  1.00  0.00     0.084 C 
HETATM   11  C19 UNL     1      57.405   8.659  16.868  1.00  0.00     0.026 C 
HETATM   12  C20 UNL     1      57.432   7.534  17.883  1.00  0.00     0.008 C 
HETATM   13  C21 UNL     1      58.649   6.810  17.500  1.00  0.00     0.000 C 
HETATM   14  C22 UNL     1      59.514   3.118  17.845  1.00  0.00    -0.040 C 
HETATM   15  C23 UNL     1      59.760   2.067  16.753  1.00  0.00     0.015 C 
HETATM   16  C24 UNL     1      60.816   3.497  18.431  1.00  0.00     0.015 C 
ENDROOT
BRANCH   1  17
HETATM   17  C6  UNL     1      58.713   1.681  19.819  1.00  0.00    -0.014 C 
HETATM   18  C7  UNL     1      57.566   1.780  20.793  1.00  0.00     0.010 C 
BRANCH  17  19
HETATM   19  C5  UNL     1      58.962   0.280  19.446  1.00  0.00     0.005 C 
BRANCH  19  20
HETATM   20  C4  UNL     1      60.157  -0.396  19.967  1.00  0.00     0.000 C 
BRANCH  20  21
HETATM   21  C3  UNL     1      61.297   0.305  20.552  1.00  0.00    -0.000 C 
BRANCH  21  22
HETATM   22  C2  UNL     1      62.398   0.722  19.596  1.00  0.00    -0.005 C 
HETATM   23  C1  UNL     1      62.230  -0.020  18.271  1.00  0.00     0.005 C 
ENDBRANCH  21  22
ENDBRANCH  20  21
ENDBRANCH  19  20
ENDBRANCH  17  19
ENDBRANCH   1  17
BRANCH  10  24
HETATM   24  N1  UNL     1      57.925   8.663  14.492  1.00  0.00    -0.420 N 
HETATM   25  C18 UNL     1      58.841   9.018  13.488  1.00  0.00     0.140 C 
ATOM     26  H1  UNL     1      56.922   8.677  14.309  1.00  0.00     0.153 HD
ENDBRANCH  10  24
TORSDOF 6
ENDMDL
MODEL 3
REMARK VINA RESULT: -6.600584495      2.757      6.538
REMARK  6 active torsions:
REMARK  status: ('A' for Active; 'I' for Inactive)
REMARK    1  A    between atoms: C2_2  and  C3_3 
REMARK    2  A    between atoms: C3_3  and  C4_4 
REMARK    3  A    between atoms: C4_4  and  C5_5 
REMARK    4  A    between atoms: C5_5  and  C6_6 
REMARK    5  A    between atoms: C6_6  and  C8_8 
REMARK    6  A    between atoms: C17_17  and  N1_18 
ROOT
HETATM    1  C8  UNL     1      57.662   5.040  16.718  1.00  0.00    -0.003 C 
HETATM    2  C9  UNL     1      57.218   4.494  18.070  1.00  0.00     0.006 C 
HETATM    3  C10 UNL     1      57.195   2.999  18.163  1.00  0.00     0.006 C 
HETATM    4  C11 UNL     1      58.340   2.277  17.563  1.00  0.00    -0.005 C 
HETATM    5  C12 UNL     1      59.277   3.258  16.866  1.00  0.00    -0.002 C 
HETATM    6  C13 UNL     1      60.443   2.609  16.236  1.00  0.00     0.006 C 
HETATM    7  C14 UNL     1      60.804   1.259  16.832  1.00  0.00     0.012 C 
HETATM    8  C15 UNL     1      60.556   1.295  18.289  1.00  0.00    -0.020 C 
HETATM    9  C16 UNL     1      61.181   2.427  19.034  1.00  0.00     0.018 C 
HETATM   10  C17 UNL     1      60.820   0.052  19.072  1.00  0.00     0.084 C 
HETATM   11  C19 UNL     1      59.884   0.262  20.282  1.00  0.00     0.026 C 
HETATM   12  C20 UNL     1      58.831   1.261  19.848  1.00  0.00     0.008 C 
HETATM   13  C21 UNL     1      59.014   1.282  18.392  1.00  0.00     0.000 C 
HETATM   14  C22 UNL     1      58.406   4.082  15.885  1.00  0.00    -0.040 C 
HETATM   15  C23 UNL     1      59.411   4.840  15.007  1.00  0.00     0.015 C 
HETATM   16  C24 UNL     1      57.663   3.132  15.032  1.00  0.00     0.015 C 
ENDROOT
BRANCH   1  17
HETATM   17  C6  UNL     1      56.505   5.791  16.143  1.00  0.00    -0.014 C 
HETATM   18  C7  UNL     1      55.716   6.321  17.314  1.00  0.00     0.010 C 
BRANCH  17  19
HETATM   19  C5  UNL     1      56.783   6.861  15.173  1.00  0.00     0.005 C 
BRANCH  19  20
HETATM   20  C4  UNL     1      56.713   8.261  15.614  1.00  0.00     0.000 C 
BRANCH  20  21
HETATM   21  C3  UNL     1      57.808   8.955  16.288  1.00  0.00    -0.000 C 
BRANCH  21  22
HETATM   22  C2  UNL     1      59.196   8.376  16.094  1.00  0.00    -0.005 C 
HETATM   23  C1  UNL     1      59.600   7.593  17.342  1.00  0.00     0.005 C 
ENDBRANCH  21  22
ENDBRANCH  20  21
ENDBRANCH  19  20
ENDBRANCH  17  19
ENDBRANCH   1  17
BRANCH  10  24
HETATM   24  N1  UNL     1      62.164  -0.075  19.506  1.00  0.00    -0.420 N 
HETATM   25  C18 UNL     1      62.426  -0.136  20.885  1.00  0.00     0.140 C 
ATOM     26  H1  UNL     1      62.926  -0.121  18.831  1.00  0.00     0.153 HD
ENDBRANCH  10  24
TORSDOF 6
ENDMDL
MODEL 4
REMARK VINA RESULT: -6.442488596      1.760      2.909
REMARK  6 active torsions:
REMARK  status: ('A' for Active; 'I' for Inactive)
REMARK    1  A    between atoms: C2_2  and  C3_3 
REMARK    2  A    between atoms: C3_3  and  C4_4 
REMARK    3  A    between atoms: C4_4  and  C5_5 
REMARK    4  A    between atoms: C5_5  and  C6_6 
REMARK    5  A    between atoms: C6_6  and  C8_8 
REMARK    6  A    between atoms: C17_17  and  N1_18 
ROOT
HETATM    1  C8  UNL     1      60.392   3.045  16.066  1.00  0.00    -0.003 C 
HETATM    2  C9  UNL     1      60.004   1.661  15.560  1.00  0.00     0.006 C 
HETATM    3  C10 UNL     1      59.070   1.662  14.387  1.00  0.00     0.006 C 
HETATM    4  C11 UNL     1      59.350   2.644  13.314  1.00  0.00    -0.005 C 
HETATM    5  C12 UNL     1      60.520   3.541  13.710  1.00  0.00    -0.002 C 
HETATM    6  C13 UNL     1      60.855   4.552  12.690  1.00  0.00     0.006 C 
HETATM    7  C14 UNL     1      60.408   4.192  11.283  1.00  0.00     0.012 C 
HETATM    8  C15 UNL     1      60.554   2.734  11.091  1.00  0.00    -0.020 C 
HETATM    9  C16 UNL     1      61.889   2.158  11.424  1.00  0.00     0.018 C 
HETATM   10  C17 UNL     1      60.140   2.161   9.777  1.00  0.00     0.084 C 
HETATM   11  C19 UNL     1      59.825   0.703  10.178  1.00  0.00     0.026 C 
HETATM   12  C20 UNL     1      59.568   0.709  11.671  1.00  0.00     0.008 C 
HETATM   13  C21 UNL     1      59.409   2.143  11.945  1.00  0.00     0.000 C 
HETATM   14  C22 UNL     1      60.174   4.134  15.099  1.00  0.00    -0.040 C 
HETATM   15  C23 UNL     1      61.216   5.237  15.327  1.00  0.00     0.015 C 
HETATM   16  C24 UNL     1      58.841   4.763  15.003  1.00  0.00     0.015 C 
ENDROOT
BRANCH   1  17
HETATM   17  C6  UNL     1      59.871   3.168  17.461  1.00  0.00    -0.014 C 
HETATM   18  C7  UNL     1      58.808   2.110  17.614  1.00  0.00     0.010 C 
BRANCH  17  19
HETATM   19  C5  UNL     1      60.834   3.105  18.571  1.00  0.00     0.005 C 
BRANCH  19  20
HETATM   20  C4  UNL     1      62.006   2.228  18.450  1.00  0.00     0.000 C 
BRANCH  20  21
HETATM   21  C3  UNL     1      61.960   0.781  18.641  1.00  0.00    -0.000 C 
BRANCH  21  22
HETATM   22  C2  UNL     1      61.732   0.292  20.058  1.00  0.00    -0.005 C 
HETATM   23  C1  UNL     1      60.274  -0.131  20.223  1.00  0.00     0.005 C 
ENDBRANCH  21  22
ENDBRANCH  20  21
ENDBRANCH  19  20
ENDBRANCH  17  19
ENDBRANCH   1  17
BRANCH  10  24
HETATM   24  N1  UNL     1      61.161   2.190   8.793  1.00  0.00    -0.420 N 
HETATM   25  C18 UNL     1      61.160   1.209   7.788  1.00  0.00     0.140 C 
ATOM     26  H1  UNL     1      61.884   2.909   8.816  1.00  0.00     0.153 HD
ENDBRANCH  10  24
TORSDOF 6
ENDMDL
MODEL 5
REMARK VINA RESULT: -6.205646295      2.001      3.816
REMARK  6 active torsions:
REMARK  status: ('A' for Active; 'I' for Inactive)
REMARK    1  A    between atoms: C2_2  and  C3_3 
REMARK    2  A    between atoms: C3_3  and  C4_4 
REMARK    3  A    between atoms: C4_4  and  C5_5 
REMARK    4  A    between atoms: C5_5  and  C6_6 
REMARK    5  A    between atoms: C6_6  and  C8_8 
REMARK    6  A    between atoms: C17_17  and  N1_18 
ROOT
HETATM    1  C8  UNL     1      59.943   3.285  16.359  1.00  0.00    -0.003 C 
HETATM    2  C9  UNL     1      59.693   1.858  15.888  1.00  0.00     0.006 C 
HETATM    3  C10 UNL     1      58.874   1.746  14.638  1.00  0.00     0.006 C 
HETATM    4  C11 UNL     1      59.189   2.699  13.548  1.00  0.00    -0.005 C 
HETATM    5  C12 UNL     1      60.257   3.689  14.004  1.00  0.00    -0.002 C 
HETATM    6  C13 UNL     1      60.619   4.677  12.971  1.00  0.00     0.006 C 
HETATM    7  C14 UNL     1      60.327   4.229  11.548  1.00  0.00     0.012 C 
HETATM    8  C15 UNL     1      60.584   2.778  11.440  1.00  0.00    -0.020 C 
HETATM    9  C16 UNL     1      61.918   2.308  11.918  1.00  0.00     0.018 C 
HETATM   10  C17 UNL     1      60.332   2.123  10.123  1.00  0.00     0.084 C 
HETATM   11  C19 UNL     1      60.075   0.664  10.564  1.00  0.00     0.026 C 
HETATM   12  C20 UNL     1      59.681   0.716  12.026  1.00  0.00     0.008 C 
HETATM   13  C21 UNL     1      59.406   2.145  12.215  1.00  0.00     0.000 C 
HETATM   14  C22 UNL     1      59.746   4.314  15.326  1.00  0.00    -0.040 C 
HETATM   15  C23 UNL     1      60.690   5.496  15.593  1.00  0.00     0.015 C 
HETATM   16  C24 UNL     1      58.389   4.846  15.081  1.00  0.00     0.015 C 
ENDROOT
BRANCH   1  17
HETATM   17  C6  UNL     1      59.288   3.430  17.695  1.00  0.00    -0.014 C 
HETATM   18  C7  UNL     1      58.996   2.033  18.180  1.00  0.00     0.010 C 
BRANCH  17  19
HETATM   19  C5  UNL     1      59.986   4.208  18.730  1.00  0.00     0.005 C 
BRANCH  19  20
HETATM   20  C4  UNL     1      59.381   5.455  19.216  1.00  0.00     0.000 C 
BRANCH  20  21
HETATM   21  C3  UNL     1      57.949   5.738  19.161  1.00  0.00    -0.000 C 
BRANCH  21  22
HETATM   22  C2  UNL     1      57.504   6.780  18.154  1.00  0.00    -0.005 C 
HETATM   23  C1  UNL     1      56.205   6.327  17.491  1.00  0.00     0.005 C 
ENDBRANCH  21  22
ENDBRANCH  20  21
ENDBRANCH  19  20
ENDBRANCH  17  19
ENDBRANCH   1  17
BRANCH  10  24
HETATM   24  N1  UNL     1      61.435   2.180   9.235  1.00  0.00    -0.420 N 
HETATM   25  C18 UNL     1      61.378   1.450   8.036  1.00  0.00     0.140 C 
ATOM     26  H1  UNL     1      62.256   2.741   9.462  1.00  0.00     0.153 HD
ENDBRANCH  10  24
TORSDOF 6
ENDMDL
