MODEL 1
REMARK VINA RESULT: -5.426531815      0.000      0.000
REMARK  6 active torsions:
REMARK  status: ('A' for Active; 'I' for Inactive)
REMARK    1  A    between atoms: C1_2  and  C2_3 
REMARK       I    between atoms: C1_2  and  N1_5 
REMARK       I    between atoms: N1_5  and  C3_7 
REMARK       I    between atoms: C3_7  and  N6_21 
REMARK    2  A    between atoms: N2_8  and  C4_10 
REMARK    3  A    between atoms: C4_10  and  N3_12 
REMARK    4  A    between atoms: N3_12  and  C5_14 
REMARK    5  A    between atoms: N6_21  and  C8_23 
REMARK    6  A    between atoms: C8_23  and  C9_24 
ROOT
HETATM    1  O1  UNL     1      88.806 101.418 -41.732  1.00  0.00    -0.272 OA
HETATM    2  C1  UNL     1      88.381 100.306 -42.121  1.00  0.00     0.245 C 
HETATM    3  N1  UNL     1      89.297  99.200 -42.135  1.00  0.00    -0.159 N 
ATOM      4  H1  UNL     1      88.965  98.288 -42.450  1.00  0.00     0.187 HD
HETATM    5  C3  UNL     1      90.638  99.334 -41.730  1.00  0.00     0.683 C 
HETATM    6  N2  UNL     1      91.418  98.322 -41.759  1.00  0.00    -0.166 N 
ATOM      7  H2  UNL     1      92.386  98.441 -41.461  1.00  0.00     0.186 HD
HETATM    8  N6  UNL     1      91.126 100.586 -41.288  1.00  0.00    -0.225 N 
ATOM      9  H6  UNL     1      90.808 100.933 -40.384  1.00  0.00     0.177 HD
ENDROOT
BRANCH   6  10
HETATM   10  C4  UNL     1      90.989  97.034 -42.191  1.00  0.00     0.205 C 
HETATM   11  S1  UNL     1      90.642  96.707 -43.752  1.00  0.00    -0.040 SA
BRANCH  10  12
HETATM   12  N3  UNL     1      90.847  95.968 -41.263  1.00  0.00    -0.165 N 
ATOM     13  H3  UNL     1      90.264  96.132 -40.442  1.00  0.00     0.186 HD
BRANCH  12  14
HETATM   14  C5  UNL     1      91.396  94.818 -41.379  1.00  0.00     0.684 A 
HETATM   15  N4  UNL     1      92.639  94.567 -40.917  1.00  0.00    -0.200 N 
HETATM   16  C6  UNL     1      92.930  93.297 -41.180  1.00  0.00     0.123 A 
ATOM     17  H4  UNL     1      93.249  95.236 -40.447  1.00  0.00     0.183 HD
HETATM   18  C7  UNL     1      91.840  92.756 -41.819  1.00  0.00     0.123 A 
HETATM   19  N5  UNL     1      90.920  93.704 -41.928  1.00  0.00    -0.200 N 
ATOM     20  H5  UNL     1      90.002  93.598 -42.360  1.00  0.00     0.183 HD
ENDBRANCH  12  14
ENDBRANCH  10  12
ENDBRANCH   6  10
BRANCH   8  21
HETATM   21  C8  UNL     1      92.045 101.398 -42.043  1.00  0.00     0.149 C 
BRANCH  21  22
HETATM   22  C9  UNL     1      92.678 102.502 -41.201  1.00  0.00     0.105 C 
HETATM   23 BR2  UNL     1      93.184 101.851 -39.468  1.00  0.00    -0.095 Br
ENDBRANCH  21  22
ENDBRANCH   8  21
BRANCH   2  24
HETATM   24  C2  UNL     1      86.971 100.186 -42.543  1.00  0.00     0.188 C 
HETATM   25 BR1  UNL     1      86.761  98.643 -43.682  1.00  0.00    -0.087 Br
ENDBRANCH   2  24
TORSDOF 6
ENDMDL
MODEL 2
REMARK VINA RESULT: -5.165862124      3.339      4.280
REMARK  6 active torsions:
REMARK  status: ('A' for Active; 'I' for Inactive)
REMARK    1  A    between atoms: C1_2  and  C2_3 
REMARK       I    between atoms: C1_2  and  N1_5 
REMARK       I    between atoms: N1_5  and  C3_7 
REMARK       I    between atoms: C3_7  and  N6_21 
REMARK    2  A    between atoms: N2_8  and  C4_10 
REMARK    3  A    between atoms: C4_10  and  N3_12 
REMARK    4  A    between atoms: N3_12  and  C5_14 
REMARK    5  A    between atoms: N6_21  and  C8_23 
REMARK    6  A    between atoms: C8_23  and  C9_24 
ROOT
HETATM    1  O1  UNL     1      92.210  97.009 -40.346  1.00  0.00    -0.272 OA
HETATM    2  C1  UNL     1      91.304  96.483 -41.032  1.00  0.00     0.245 C 
HETATM    3  N1  UNL     1      90.628  97.303 -41.999  1.00  0.00    -0.159 N 
ATOM      4  H1  UNL     1      89.887  96.888 -42.565  1.00  0.00     0.187 HD
HETATM    5  C3  UNL     1      90.953  98.659 -42.190  1.00  0.00     0.683 C 
HETATM    6  N2  UNL     1      90.325  99.350 -43.061  1.00  0.00    -0.166 N 
ATOM      7  H2  UNL     1      90.577 100.330 -43.183  1.00  0.00     0.186 HD
HETATM    8  N6  UNL     1      91.976  99.259 -41.419  1.00  0.00    -0.225 N 
ATOM      9  H6  UNL     1      92.941  98.991 -41.610  1.00  0.00     0.177 HD
ENDROOT
BRANCH   6  10
HETATM   10  C4  UNL     1      89.286  98.805 -43.870  1.00  0.00     0.205 C 
HETATM   11  S1  UNL     1      87.715  98.868 -43.434  1.00  0.00    -0.040 SA
BRANCH  10  12
HETATM   12  N3  UNL     1      89.586  98.177 -45.108  1.00  0.00    -0.165 N 
ATOM     13  H3  UNL     1      89.452  98.723 -45.959  1.00  0.00     0.186 HD
BRANCH  12  14
HETATM   14  C5  UNL     1      90.011  96.977 -45.237  1.00  0.00     0.684 A 
HETATM   15  N4  UNL     1      89.200  95.965 -45.609  1.00  0.00    -0.200 N 
HETATM   16  C6  UNL     1      89.923  94.849 -45.656  1.00  0.00     0.123 A 
ATOM     17  H4  UNL     1      88.204  96.042 -45.818  1.00  0.00     0.183 HD
HETATM   18  C7  UNL     1      91.208  95.186 -45.303  1.00  0.00     0.123 A 
HETATM   19  N5  UNL     1      91.234  96.487 -45.053  1.00  0.00    -0.200 N 
ATOM     20  H5  UNL     1      92.053  97.024 -44.767  1.00  0.00     0.183 HD
ENDBRANCH  12  14
ENDBRANCH  10  12
ENDBRANCH   6  10
BRANCH   8  21
HETATM   21  C8  UNL     1      91.732 100.227 -40.381  1.00  0.00     0.149 C 
BRANCH  21  22
HETATM   22  C9  UNL     1      92.358 101.584 -40.688  1.00  0.00     0.105 C 
HETATM   23 BR2  UNL     1      92.740 102.555 -39.077  1.00  0.00    -0.095 Br
ENDBRANCH  21  22
ENDBRANCH   8  21
BRANCH   2  24
HETATM   24  C2  UNL     1      90.977  95.060 -40.817  1.00  0.00     0.188 C 
HETATM   25 BR1  UNL     1      92.394  93.953 -41.517  1.00  0.00    -0.087 Br
ENDBRANCH   2  24
TORSDOF 6
ENDMDL
MODEL 3
REMARK VINA RESULT: -5.066626191      3.869      6.547
REMARK  6 active torsions:
REMARK  status: ('A' for Active; 'I' for Inactive)
REMARK    1  A    between atoms: C1_2  and  C2_3 
REMARK       I    between atoms: C1_2  and  N1_5 
REMARK       I    between atoms: N1_5  and  C3_7 
REMARK       I    between atoms: C3_7  and  N6_21 
REMARK    2  A    between atoms: N2_8  and  C4_10 
REMARK    3  A    between atoms: C4_10  and  N3_12 
REMARK    4  A    between atoms: N3_12  and  C5_14 
REMARK    5  A    between atoms: N6_21  and  C8_23 
REMARK    6  A    between atoms: C8_23  and  C9_24 
ROOT
HETATM    1  O1  UNL     1      89.564  95.154 -46.289  1.00  0.00    -0.272 OA
HETATM    2  C1  UNL     1      89.007  96.262 -46.112  1.00  0.00     0.245 C 
HETATM    3  N1  UNL     1      89.426  97.057 -44.992  1.00  0.00    -0.159 N 
ATOM      4  H1  UNL     1      88.981  97.961 -44.835  1.00  0.00     0.187 HD
HETATM    5  C3  UNL     1      90.429  96.628 -44.102  1.00  0.00     0.683 C 
HETATM    6  N2  UNL     1      90.769  97.368 -43.119  1.00  0.00    -0.166 N 
ATOM      7  H2  UNL     1      91.498  97.038 -42.487  1.00  0.00     0.186 HD
HETATM    8  N6  UNL     1      91.063  95.378 -44.296  1.00  0.00    -0.225 N 
ATOM      9  H6  UNL     1      91.705  95.282 -45.082  1.00  0.00     0.177 HD
ENDROOT
BRANCH   6  10
HETATM   10  C4  UNL     1      90.171  98.637 -42.869  1.00  0.00     0.205 C 
HETATM   11  S1  UNL     1      90.788 100.025 -43.463  1.00  0.00    -0.040 SA
BRANCH  10  12
HETATM   12  N3  UNL     1      88.994  98.740 -42.080  1.00  0.00    -0.165 N 
ATOM     13  H3  UNL     1      88.991  98.272 -41.174  1.00  0.00     0.186 HD
BRANCH  12  14
HETATM   14  C5  UNL     1      87.938  99.377 -42.421  1.00  0.00     0.684 A 
HETATM   15  N4  UNL     1      87.172  98.990 -43.462  1.00  0.00    -0.200 N 
HETATM   16  C6  UNL     1      86.154  99.840 -43.566  1.00  0.00     0.123 A 
ATOM     17  H4  UNL     1      87.344  98.185 -44.064  1.00  0.00     0.183 HD
HETATM   18  C7  UNL     1      86.301 100.771 -42.566  1.00  0.00     0.123 A 
HETATM   19  N5  UNL     1      87.396 100.466 -41.883  1.00  0.00    -0.200 N 
ATOM     20  H5  UNL     1      87.761 100.979 -41.081  1.00  0.00     0.183 HD
ENDBRANCH  12  14
ENDBRANCH  10  12
ENDBRANCH   6  10
BRANCH   8  21
HETATM   21  C8  UNL     1      90.852  94.234 -43.446  1.00  0.00     0.149 C 
BRANCH  21  22
HETATM   22  C9  UNL     1      92.122  93.411 -43.249  1.00  0.00     0.105 C 
HETATM   23 BR2  UNL     1      92.445  93.065 -41.390  1.00  0.00    -0.095 Br
ENDBRANCH  21  22
ENDBRANCH   8  21
BRANCH   2  24
HETATM   24  C2  UNL     1      87.957  96.694 -47.055  1.00  0.00     0.188 C 
HETATM   25 BR1  UNL     1      87.858  95.456 -48.532  1.00  0.00    -0.087 Br
ENDBRANCH   2  24
TORSDOF 6
ENDMDL
MODEL 4
REMARK VINA RESULT: -5.042609269      2.682      5.767
REMARK  6 active torsions:
REMARK  status: ('A' for Active; 'I' for Inactive)
REMARK    1  A    between atoms: C1_2  and  C2_3 
REMARK       I    between atoms: C1_2  and  N1_5 
REMARK       I    between atoms: N1_5  and  C3_7 
REMARK       I    between atoms: C3_7  and  N6_21 
REMARK    2  A    between atoms: N2_8  and  C4_10 
REMARK    3  A    between atoms: C4_10  and  N3_12 
REMARK    4  A    between atoms: N3_12  and  C5_14 
REMARK    5  A    between atoms: N6_21  and  C8_23 
REMARK    6  A    between atoms: C8_23  and  C9_24 
ROOT
HETATM    1  O1  UNL     1      92.320  97.283 -40.521  1.00  0.00    -0.272 OA
HETATM    2  C1  UNL     1      91.398  96.667 -41.103  1.00  0.00     0.245 C 
HETATM    3  N1  UNL     1      90.563  97.401 -42.012  1.00  0.00    -0.159 N 
ATOM      4  H1  UNL     1      89.808  96.912 -42.493  1.00  0.00     0.187 HD
HETATM    5  C3  UNL     1      90.752  98.775 -42.259  1.00  0.00     0.683 C 
HETATM    6  N2  UNL     1      89.984  99.387 -43.075  1.00  0.00    -0.166 N 
ATOM      7  H2  UNL     1      90.138 100.382 -43.239  1.00  0.00     0.186 HD
HETATM    8  N6  UNL     1      91.791  99.477 -41.606  1.00  0.00    -0.225 N 
ATOM      9  H6  UNL     1      92.752  99.285 -41.887  1.00  0.00     0.177 HD
ENDROOT
BRANCH   6  10
HETATM   10  C4  UNL     1      88.921  98.738 -43.765  1.00  0.00     0.205 C 
HETATM   11  S1  UNL     1      89.133  98.008 -45.209  1.00  0.00    -0.040 SA
BRANCH  10  12
HETATM   12  N3  UNL     1      87.613  98.700 -43.211  1.00  0.00    -0.165 N 
ATOM     13  H3  UNL     1      87.281  97.807 -42.847  1.00  0.00     0.186 HD
BRANCH  12  14
HETATM   14  C5  UNL     1      86.821  99.702 -43.135  1.00  0.00     0.684 A 
HETATM   15  N4  UNL     1      86.001 100.046 -44.150  1.00  0.00    -0.200 N 
HETATM   16  C6  UNL     1      85.306 101.117 -43.777  1.00  0.00     0.123 A 
ATOM     17  H4  UNL     1      85.928  99.568 -45.048  1.00  0.00     0.183 HD
HETATM   18  C7  UNL     1      85.710 101.437 -42.503  1.00  0.00     0.123 A 
HETATM   19  N5  UNL     1      86.633 100.559 -42.136  1.00  0.00    -0.200 N 
ATOM     20  H5  UNL     1      87.119 100.544 -41.238  1.00  0.00     0.183 HD
ENDBRANCH  12  14
ENDBRANCH  10  12
ENDBRANCH   6  10
BRANCH   8  21
HETATM   21  C8  UNL     1      91.569 100.449 -40.566  1.00  0.00     0.149 C 
BRANCH  21  22
HETATM   22  C9  UNL     1      92.333 101.748 -40.806  1.00  0.00     0.105 C 
HETATM   23 BR2  UNL     1      93.432 102.198 -39.299  1.00  0.00    -0.095 Br
ENDBRANCH  21  22
ENDBRANCH   8  21
BRANCH   2  24
HETATM   24  C2  UNL     1      91.216  95.228 -40.831  1.00  0.00     0.188 C 
HETATM   25 BR1  UNL     1      91.243  94.242 -42.490  1.00  0.00    -0.087 Br
ENDBRANCH   2  24
TORSDOF 6
ENDMDL
MODEL 5
REMARK VINA RESULT: -5.031999873      4.037      6.106
REMARK  6 active torsions:
REMARK  status: ('A' for Active; 'I' for Inactive)
REMARK    1  A    between atoms: C1_2  and  C2_3 
REMARK       I    between atoms: C1_2  and  N1_5 
REMARK       I    between atoms: N1_5  and  C3_7 
REMARK       I    between atoms: C3_7  and  N6_21 
REMARK    2  A    between atoms: N2_8  and  C4_10 
REMARK    3  A    between atoms: C4_10  and  N3_12 
REMARK    4  A    between atoms: N3_12  and  C5_14 
REMARK    5  A    between atoms: N6_21  and  C8_23 
REMARK    6  A    between atoms: C8_23  and  C9_24 
ROOT
HETATM    1  O1  UNL     1      88.006  97.104 -45.212  1.00  0.00    -0.272 OA
HETATM    2  C1  UNL     1      87.987  98.112 -44.468  1.00  0.00     0.245 C 
HETATM    3  N1  UNL     1      89.242  98.635 -44.007  1.00  0.00    -0.159 N 
ATOM      4  H1  UNL     1      89.241  99.456 -43.401  1.00  0.00     0.187 HD
HETATM    5  C3  UNL     1      90.473  98.053 -44.363  1.00  0.00     0.683 C 
HETATM    6  N2  UNL     1      91.565  98.552 -43.929  1.00  0.00    -0.166 N 
ATOM      7  H2  UNL     1      92.446  98.114 -44.199  1.00  0.00     0.186 HD
HETATM    8  N6  UNL     1      90.503  96.915 -45.203  1.00  0.00    -0.225 N 
ATOM      9  H6  UNL     1      90.266  97.037 -46.187  1.00  0.00     0.177 HD
ENDROOT
BRANCH   6  10
HETATM   10  C4  UNL     1      91.603  99.697 -43.082  1.00  0.00     0.205 C 
HETATM   11  S1  UNL     1      91.715 101.215 -43.669  1.00  0.00    -0.040 SA
BRANCH  10  12
HETATM   12  N3  UNL     1      91.543  99.556 -41.670  1.00  0.00    -0.165 N 
ATOM     13  H3  UNL     1      91.387  98.619 -41.295  1.00  0.00     0.186 HD
BRANCH  12  14
HETATM   14  C5  UNL     1      91.668 100.514 -40.831  1.00  0.00     0.684 A 
HETATM   15  N4  UNL     1      90.603 101.180 -40.339  1.00  0.00    -0.200 N 
HETATM   16  C6  UNL     1      91.048 102.110 -39.499  1.00  0.00     0.123 A 
ATOM     17  H4  UNL     1      89.626 101.000 -40.570  1.00  0.00     0.183 HD
HETATM   18  C7  UNL     1      92.418 102.013 -39.477  1.00  0.00     0.123 A 
HETATM   19  N5  UNL     1      92.770 101.033 -40.298  1.00  0.00    -0.200 N 
ATOM     20  H5  UNL     1      93.725 100.728 -40.488  1.00  0.00     0.183 HD
ENDBRANCH  12  14
ENDBRANCH  10  12
ENDBRANCH   6  10
BRANCH   8  21
HETATM   21  C8  UNL     1      90.851  95.593 -44.747  1.00  0.00     0.149 C 
BRANCH  21  22
HETATM   22  C9  UNL     1      90.287  94.497 -45.647  1.00  0.00     0.105 C 
HETATM   23 BR2  UNL     1      91.110  92.803 -45.279  1.00  0.00    -0.095 Br
ENDBRANCH  21  22
ENDBRANCH   8  21
BRANCH   2  24
HETATM   24  C2  UNL     1      86.686  98.708 -44.105  1.00  0.00     0.188 C 
HETATM   25 BR1  UNL     1      85.307  97.361 -44.186  1.00  0.00    -0.087 Br
ENDBRANCH   2  24
TORSDOF 6
ENDMDL
