MODEL 1
REMARK VINA RESULT: -4.602714341      0.000      0.000
REMARK  5 active torsions:
REMARK  status: ('A' for Active; 'I' for Inactive)
REMARK       I    between atoms: N1_2  and  C2_4 
REMARK       I    between atoms: C2_4  and  N2_6 
REMARK       I    between atoms: N2_6  and  C3_7 
REMARK       I    between atoms: C3_7  and  N4_9 
REMARK    1  A    between atoms: C4_11  and  C5_12 
REMARK    2  A    between atoms: C4_11  and  N5_14 
REMARK    3  A    between atoms: N5_14  and  C6_16 
REMARK    4  A    between atoms: N6_18  and  C7_20 
REMARK    5  A    between atoms: C7_20  and  C8_21 
ROOT
HETATM    1  C1  UNL     1      88.941 104.740 -39.197  1.00  0.00     0.152 C 
HETATM    2  N1  UNL     1      89.780 103.647 -39.668  1.00  0.00    -0.335 N 
ATOM      3  H1  UNL     1      89.537 103.155 -40.528  1.00  0.00     0.164 HD
HETATM    4  C2  UNL     1      90.950 103.258 -38.928  1.00  0.00     0.396 C 
HETATM    5  O1  UNL     1      91.150 103.957 -37.852  1.00  0.00    -0.230 OA
HETATM    6  N2  UNL     1      91.740 102.278 -39.336  1.00  0.00    -0.319 NA
HETATM    7  C3  UNL     1      92.415 101.399 -39.713  1.00  0.00     0.273 C 
HETATM    8  N3  UNL     1      93.818 101.323 -39.276  1.00  0.00    -0.049 NA
HETATM    9  N4  UNL     1      92.085 100.312 -40.608  1.00  0.00    -0.307 N 
ATOM     10  H4  UNL     1      92.160  99.367 -40.232  1.00  0.00     0.171 HD
HETATM   11  C4  UNL     1      91.719 100.415 -41.793  1.00  0.00     0.096 C 
ENDROOT
BRANCH  11  12
HETATM   12  C5  UNL     1      91.527 101.659 -42.557  1.00  0.00     0.161 C 
HETATM   13 BR1  UNL     1      93.181 102.514 -43.053  1.00  0.00    -0.088 Br
ENDBRANCH  11  12
BRANCH  11  14
HETATM   14  N5  UNL     1      91.558  99.160 -42.541  1.00  0.00    -0.322 N 
ATOM     15  H5  UNL     1      92.240  98.867 -43.241  1.00  0.00     0.169 HD
BRANCH  14  16
HETATM   16  C6  UNL     1      90.425  98.380 -42.253  1.00  0.00     0.173 C 
HETATM   17  S1  UNL     1      88.966  98.966 -42.812  1.00  0.00    -0.041 SA
HETATM   18  N6  UNL     1      90.408  97.189 -41.587  1.00  0.00    -0.366 N 
ATOM     19  H6  UNL     1      89.498  96.752 -41.448  1.00  0.00     0.161 HD
BRANCH  18  20
HETATM   20  C7  UNL     1      91.542  96.499 -41.068  1.00  0.00     0.133 C 
BRANCH  20  21
HETATM   21  C8  UNL     1      91.265  95.003 -40.931  1.00  0.00     0.104 C 
HETATM   22 BR2  UNL     1      91.315  94.081 -42.606  1.00  0.00    -0.095 Br
ENDBRANCH  20  21
ENDBRANCH  18  20
ENDBRANCH  14  16
ENDBRANCH  11  14
TORSDOF 5
ENDMDL
MODEL 2
REMARK VINA RESULT: -4.542532484      3.812      6.399
REMARK  5 active torsions:
REMARK  status: ('A' for Active; 'I' for Inactive)
REMARK       I    between atoms: N1_2  and  C2_4 
REMARK       I    between atoms: C2_4  and  N2_6 
REMARK       I    between atoms: N2_6  and  C3_7 
REMARK       I    between atoms: C3_7  and  N4_9 
REMARK    1  A    between atoms: C4_11  and  C5_12 
REMARK    2  A    between atoms: C4_11  and  N5_14 
REMARK    3  A    between atoms: N5_14  and  C6_16 
REMARK    4  A    between atoms: N6_18  and  C7_20 
REMARK    5  A    between atoms: C7_20  and  C8_21 
ROOT
HETATM    1  C1  UNL     1      92.661 101.037 -46.735  1.00  0.00     0.152 C 
HETATM    2  N1  UNL     1      92.311 100.691 -45.364  1.00  0.00    -0.335 N 
ATOM      3  H1  UNL     1      92.262 101.421 -44.653  1.00  0.00     0.164 HD
HETATM    4  C2  UNL     1      92.033  99.325 -45.007  1.00  0.00     0.396 C 
HETATM    5  O1  UNL     1      92.131  98.491 -45.997  1.00  0.00    -0.230 OA
HETATM    6  N2  UNL     1      91.700  98.981 -43.774  1.00  0.00    -0.319 NA
HETATM    7  C3  UNL     1      91.419  98.701 -42.672  1.00  0.00     0.273 C 
HETATM    8  N3  UNL     1      90.672  97.462 -42.405  1.00  0.00    -0.049 NA
HETATM    9  N4  UNL     1      91.687  99.426 -41.448  1.00  0.00    -0.307 N 
ATOM     10  H4  UNL     1      92.262  98.953 -40.751  1.00  0.00     0.171 HD
HETATM   11  C4  UNL     1      91.284 100.567 -41.162  1.00  0.00     0.096 C 
ENDROOT
BRANCH  11  12
HETATM   12  C5  UNL     1      90.455 101.451 -41.998  1.00  0.00     0.161 C 
HETATM   13 BR1  UNL     1      88.580 101.005 -41.955  1.00  0.00    -0.088 Br
ENDBRANCH  11  12
BRANCH  11  14
HETATM   14  N5  UNL     1      91.584 101.048 -39.806  1.00  0.00    -0.322 N 
ATOM     15  H5  UNL     1      91.614 100.409 -39.011  1.00  0.00     0.169 HD
BRANCH  14  16
HETATM   16  C6  UNL     1      91.828 102.422 -39.648  1.00  0.00     0.173 C 
HETATM   17  S1  UNL     1      90.614 103.307 -38.921  1.00  0.00    -0.041 SA
HETATM   18  N6  UNL     1      92.961 103.092 -40.009  1.00  0.00    -0.366 N 
ATOM     19  H6  UNL     1      92.977 104.097 -39.837  1.00  0.00     0.161 HD
BRANCH  18  20
HETATM   20  C7  UNL     1      94.124 102.519 -40.603  1.00  0.00     0.133 C 
BRANCH  20  21
HETATM   21  C8  UNL     1      94.119 102.704 -42.120  1.00  0.00     0.104 C 
HETATM   22 BR2  UNL     1      95.385 104.009 -42.714  1.00  0.00    -0.095 Br
ENDBRANCH  20  21
ENDBRANCH  18  20
ENDBRANCH  14  16
ENDBRANCH  11  14
TORSDOF 5
ENDMDL
MODEL 3
REMARK VINA RESULT: -4.460322349      3.939      6.863
REMARK  5 active torsions:
REMARK  status: ('A' for Active; 'I' for Inactive)
REMARK       I    between atoms: N1_2  and  C2_4 
REMARK       I    between atoms: C2_4  and  N2_6 
REMARK       I    between atoms: N2_6  and  C3_7 
REMARK       I    between atoms: C3_7  and  N4_9 
REMARK    1  A    between atoms: C4_11  and  C5_12 
REMARK    2  A    between atoms: C4_11  and  N5_14 
REMARK    3  A    between atoms: N5_14  and  C6_16 
REMARK    4  A    between atoms: N6_18  and  C7_20 
REMARK    5  A    between atoms: C7_20  and  C8_21 
ROOT
HETATM    1  C1  UNL     1      86.551  97.017 -45.669  1.00  0.00     0.152 C 
HETATM    2  N1  UNL     1      87.790  97.519 -45.091  1.00  0.00    -0.335 N 
ATOM      3  H1  UNL     1      87.866  97.639 -44.081  1.00  0.00     0.164 HD
HETATM    4  C2  UNL     1      88.907  97.845 -45.937  1.00  0.00     0.396 C 
HETATM    5  O1  UNL     1      88.684  97.652 -47.201  1.00  0.00    -0.230 OA
HETATM    6  N2  UNL     1      90.050  98.290 -45.442  1.00  0.00    -0.319 NA
HETATM    7  C3  UNL     1      91.046  98.694 -44.979  1.00  0.00     0.273 C 
HETATM    8  N3  UNL     1      92.304  98.556 -45.729  1.00  0.00    -0.049 NA
HETATM    9  N4  UNL     1      91.267  99.334 -43.700  1.00  0.00    -0.307 N 
ATOM     10  H4  UNL     1      91.632 100.286 -43.719  1.00  0.00     0.171 HD
HETATM   11  C4  UNL     1      91.057  98.838 -42.578  1.00  0.00     0.096 C 
ENDROOT
BRANCH  11  12
HETATM   12  C5  UNL     1      90.527  97.495 -42.288  1.00  0.00     0.161 C 
HETATM   13 BR1  UNL     1      91.532  96.553 -40.940  1.00  0.00    -0.088 Br
ENDBRANCH  11  12
BRANCH  11  14
HETATM   14  N5  UNL     1      91.473  99.638 -41.419  1.00  0.00    -0.322 N 
ATOM     15  H5  UNL     1      92.076  99.248 -40.693  1.00  0.00     0.169 HD
BRANCH  14  16
HETATM   16  C6  UNL     1      91.008 100.961 -41.349  1.00  0.00     0.173 C 
HETATM   17  S1  UNL     1      89.355 101.168 -41.454  1.00  0.00    -0.041 SA
HETATM   18  N6  UNL     1      91.770 102.081 -41.181  1.00  0.00    -0.366 N 
ATOM     19  H6  UNL     1      91.278 102.975 -41.162  1.00  0.00     0.161 HD
BRANCH  18  20
HETATM   20  C7  UNL     1      93.186 102.121 -41.029  1.00  0.00     0.133 C 
BRANCH  20  21
HETATM   21  C8  UNL     1      93.592 101.932 -39.568  1.00  0.00     0.104 C 
HETATM   22 BR2  UNL     1      92.696 103.137 -38.385  1.00  0.00    -0.095 Br
ENDBRANCH  20  21
ENDBRANCH  18  20
ENDBRANCH  14  16
ENDBRANCH  11  14
TORSDOF 5
ENDMDL
MODEL 4
REMARK VINA RESULT: -4.448652021      4.779      7.500
REMARK  5 active torsions:
REMARK  status: ('A' for Active; 'I' for Inactive)
REMARK       I    between atoms: N1_2  and  C2_4 
REMARK       I    between atoms: C2_4  and  N2_6 
REMARK       I    between atoms: N2_6  and  C3_7 
REMARK       I    between atoms: C3_7  and  N4_9 
REMARK    1  A    between atoms: C4_11  and  C5_12 
REMARK    2  A    between atoms: C4_11  and  N5_14 
REMARK    3  A    between atoms: N5_14  and  C6_16 
REMARK    4  A    between atoms: N6_18  and  C7_20 
REMARK    5  A    between atoms: C7_20  and  C8_21 
ROOT
HETATM    1  C1  UNL     1      91.468  92.998 -43.672  1.00  0.00     0.152 C 
HETATM    2  N1  UNL     1      90.990  94.374 -43.658  1.00  0.00    -0.335 N 
ATOM      3  H1  UNL     1      90.981  94.899 -42.783  1.00  0.00     0.164 HD
HETATM    4  C2  UNL     1      90.533  94.997 -44.871  1.00  0.00     0.396 C 
HETATM    5  O1  UNL     1      90.591  94.226 -45.914  1.00  0.00    -0.230 OA
HETATM    6  N2  UNL     1      90.105  96.249 -44.894  1.00  0.00    -0.319 NA
HETATM    7  C3  UNL     1      89.721  97.355 -44.884  1.00  0.00     0.273 C 
HETATM    8  N3  UNL     1      89.730  98.137 -46.130  1.00  0.00    -0.049 NA
HETATM    9  N4  UNL     1      89.220  98.139 -43.776  1.00  0.00    -0.307 N 
ATOM     10  H4  UNL     1      88.259  98.474 -43.847  1.00  0.00     0.171 HD
HETATM   11  C4  UNL     1      89.845  98.446 -42.745  1.00  0.00     0.096 C 
ENDROOT
BRANCH  11  12
HETATM   12  C5  UNL     1      91.230  98.078 -42.405  1.00  0.00     0.161 C 
HETATM   13 BR1  UNL     1      91.346  96.701 -41.062  1.00  0.00    -0.088 Br
ENDBRANCH  11  12
BRANCH  11  14
HETATM   14  N5  UNL     1      89.165  99.355 -41.812  1.00  0.00    -0.322 N 
ATOM     15  H5  UNL     1      88.859  99.039 -40.891  1.00  0.00     0.169 HD
BRANCH  14  16
HETATM   16  C6  UNL     1      88.953 100.676 -42.239  1.00  0.00     0.173 C 
HETATM   17  S1  UNL     1      90.314 101.633 -42.376  1.00  0.00    -0.041 SA
HETATM   18  N6  UNL     1      87.756 101.239 -42.570  1.00  0.00    -0.366 N 
ATOM     19  H6  UNL     1      87.769 102.220 -42.851  1.00  0.00     0.161 HD
BRANCH  18  20
HETATM   20  C7  UNL     1      86.488 100.587 -42.562  1.00  0.00     0.133 C 
BRANCH  20  21
HETATM   21  C8  UNL     1      86.194  99.931 -43.910  1.00  0.00     0.104 C 
HETATM   22 BR2  UNL     1      85.552  98.138 -43.741  1.00  0.00    -0.095 Br
ENDBRANCH  20  21
ENDBRANCH  18  20
ENDBRANCH  14  16
ENDBRANCH  11  14
TORSDOF 5
ENDMDL
MODEL 5
REMARK VINA RESULT: -4.431962178      3.917      6.703
REMARK  5 active torsions:
REMARK  status: ('A' for Active; 'I' for Inactive)
REMARK       I    between atoms: N1_2  and  C2_4 
REMARK       I    between atoms: C2_4  and  N2_6 
REMARK       I    between atoms: N2_6  and  C3_7 
REMARK       I    between atoms: C3_7  and  N4_9 
REMARK    1  A    between atoms: C4_11  and  C5_12 
REMARK    2  A    between atoms: C4_11  and  N5_14 
REMARK    3  A    between atoms: N5_14  and  C6_16 
REMARK    4  A    between atoms: N6_18  and  C7_20 
REMARK    5  A    between atoms: C7_20  and  C8_21 
ROOT
HETATM    1  C1  UNL     1      92.652 101.092 -46.684  1.00  0.00     0.152 C 
HETATM    2  N1  UNL     1      92.274 100.744 -45.321  1.00  0.00    -0.335 N 
ATOM      3  H1  UNL     1      92.157 101.478 -44.624  1.00  0.00     0.164 HD
HETATM    4  C2  UNL     1      92.065  99.368 -44.955  1.00  0.00     0.396 C 
HETATM    5  O1  UNL     1      92.247  98.529 -45.928  1.00  0.00    -0.230 OA
HETATM    6  N2  UNL     1      91.708  99.020 -43.729  1.00  0.00    -0.319 NA
HETATM    7  C3  UNL     1      91.406  98.738 -42.634  1.00  0.00     0.273 C 
HETATM    8  N3  UNL     1      90.724  97.461 -42.375  1.00  0.00    -0.049 NA
HETATM    9  N4  UNL     1      91.586  99.493 -41.412  1.00  0.00    -0.307 N 
ATOM     10  H4  UNL     1      92.162  99.064 -40.688  1.00  0.00     0.171 HD
HETATM   11  C4  UNL     1      91.107 100.612 -41.157  1.00  0.00     0.096 C 
ENDROOT
BRANCH  11  12
HETATM   12  C5  UNL     1      90.258 101.435 -42.034  1.00  0.00     0.161 C 
HETATM   13 BR1  UNL     1      88.411 100.883 -42.046  1.00  0.00    -0.088 Br
ENDBRANCH  11  12
BRANCH  11  14
HETATM   14  N5  UNL     1      91.329 101.126 -39.798  1.00  0.00    -0.322 N 
ATOM     15  H5  UNL     1      91.030 100.601 -38.976  1.00  0.00     0.169 HD
BRANCH  14  16
HETATM   16  C6  UNL     1      91.972 102.369 -39.677  1.00  0.00     0.173 C 
HETATM   17  S1  UNL     1      93.618 102.378 -39.951  1.00  0.00    -0.041 SA
HETATM   18  N6  UNL     1      91.380 103.563 -39.383  1.00  0.00    -0.366 N 
ATOM     19  H6  UNL     1      91.990 104.378 -39.319  1.00  0.00     0.161 HD
BRANCH  18  20
HETATM   20  C7  UNL     1      89.989 103.780 -39.156  1.00  0.00     0.133 C 
BRANCH  20  21
HETATM   21  C8  UNL     1      89.755 104.593 -37.884  1.00  0.00     0.104 C 
HETATM   22 BR2  UNL     1      90.145 103.610 -36.290  1.00  0.00    -0.095 Br
ENDBRANCH  20  21
ENDBRANCH  18  20
ENDBRANCH  14  16
ENDBRANCH  11  14
TORSDOF 5
ENDMDL
