MODEL 1
REMARK VINA RESULT: -5.721215512      0.000      0.000
REMARK  8 active torsions:
REMARK  status: ('A' for Active; 'I' for Inactive)
REMARK    1  A    between atoms: N1_1  and  C1_4 
REMARK    2  A    between atoms: C2_5  and  C3_6 
REMARK    3  A    between atoms: C4_7  and  C5_8 
REMARK    4  A    between atoms: C6_9  and  C7_10 
REMARK    5  A    between atoms: C7_10  and  C8_13 
REMARK       I    between atoms: C8_13  and  N2_15 
REMARK    6  A    between atoms: N2_15  and  C9_17 
REMARK    7  A    between atoms: C9_17  and  C10_18 
REMARK    8  A    between atoms: C10_18  and  C11_19 
ROOT
HETATM    1  C8  UNL     1      90.903  97.782 -44.963  1.00  0.00     0.260 C 
HETATM    2  O1  UNL     1      91.998  97.987 -45.537  1.00  0.00    -0.270 OA
HETATM    3  N2  UNL     1      90.514  96.456 -44.686  1.00  0.00    -0.358 N 
ATOM      4  H2  UNL     1      89.617  96.321 -44.219  1.00  0.00     0.162 HD
ENDROOT
BRANCH   1   5
HETATM    5  C7  UNL     1      90.028  98.899 -44.578  1.00  0.00     0.219 C 
HETATM    6 BR1  UNL     1      89.904 100.238 -45.986  1.00  0.00    -0.048 Br
HETATM    7 BR2  UNL     1      88.227  98.287 -44.224  1.00  0.00    -0.048 Br
BRANCH   5   8
HETATM    8  C6  UNL     1      90.610  99.553 -43.384  1.00  0.00    -0.049 C 
HETATM    9  C5  UNL     1      91.090 100.102 -42.422  1.00  0.00    -0.011 C 
BRANCH   9  10
HETATM   10  C4  UNL     1      91.656 100.770 -41.301  1.00  0.00    -0.001 C 
HETATM   11  C3  UNL     1      92.146 101.353 -40.361  1.00  0.00     0.001 C 
BRANCH  11  12
HETATM   12  C2  UNL     1      92.735 102.045 -39.275  1.00  0.00     0.009 C 
HETATM   13  C1  UNL     1      93.254 102.630 -38.355  1.00  0.00     0.017 C 
BRANCH  13  14
HETATM   14  N1  UNL     1      93.878 103.311 -37.296  1.00  0.00    -0.359 N 
ATOM     15  H12 UNL     1      93.288 103.499 -38.106  1.00  0.00     0.166 HD
ATOM     16  H11 UNL     1      94.337 103.791 -36.521  1.00  0.00     0.166 HD
ENDBRANCH  13  14
ENDBRANCH  11  12
ENDBRANCH   9  10
ENDBRANCH   5   8
ENDBRANCH   1   5
BRANCH   3  17
HETATM   17  C9  UNL     1      91.274  95.273 -45.006  1.00  0.00     0.128 C 
BRANCH  17  18
HETATM   18  C10 UNL     1      90.750  94.060 -44.303  1.00  0.00     0.078 C 
BRANCH  18  19
HETATM   19  C11 UNL     1      91.491  93.777 -43.048  1.00  0.00     0.030 A 
HETATM   20  C12 UNL     1      91.086  94.227 -41.816  1.00  0.00     0.118 A 
HETATM   21  N3  UNL     1      91.971  93.801 -40.891  1.00  0.00    -0.317 N 
HETATM   22  C13 UNL     1      92.920  93.094 -41.524  1.00  0.00     0.324 A 
ATOM     23  H3  UNL     1      91.926  93.984 -39.889  1.00  0.00     0.170 HD
HETATM   24  O2  UNL     1      93.941  92.510 -41.048  1.00  0.00    -0.247 OA
HETATM   25  N4  UNL     1      92.617  93.084 -42.841  1.00  0.00    -0.311 N 
ATOM     26  H4  UNL     1      93.164  92.620 -43.566  1.00  0.00     0.170 HD
ENDBRANCH  18  19
ENDBRANCH  17  18
ENDBRANCH   3  17
TORSDOF 8
ENDMDL
MODEL 2
REMARK VINA RESULT: -5.631760872      1.501      1.747
REMARK  8 active torsions:
REMARK  status: ('A' for Active; 'I' for Inactive)
REMARK    1  A    between atoms: N1_1  and  C1_4 
REMARK    2  A    between atoms: C2_5  and  C3_6 
REMARK    3  A    between atoms: C4_7  and  C5_8 
REMARK    4  A    between atoms: C6_9  and  C7_10 
REMARK    5  A    between atoms: C7_10  and  C8_13 
REMARK       I    between atoms: C8_13  and  N2_15 
REMARK    6  A    between atoms: N2_15  and  C9_17 
REMARK    7  A    between atoms: C9_17  and  C10_18 
REMARK    8  A    between atoms: C10_18  and  C11_19 
ROOT
HETATM    1  C8  UNL     1      90.266  98.250 -44.414  1.00  0.00     0.260 C 
HETATM    2  O1  UNL     1      90.060  97.789 -43.267  1.00  0.00    -0.270 OA
HETATM    3  N2  UNL     1      90.193  97.383 -45.523  1.00  0.00    -0.358 N 
ATOM      4  H2  UNL     1      90.367  97.787 -46.444  1.00  0.00     0.162 HD
ENDROOT
BRANCH   1   5
HETATM    5  C7  UNL     1      90.578  99.673 -44.616  1.00  0.00     0.219 C 
HETATM    6 BR1  UNL     1      91.971  99.924 -45.954  1.00  0.00    -0.048 Br
HETATM    7 BR2  UNL     1      89.025 100.649 -45.230  1.00  0.00    -0.048 Br
BRANCH   5   8
HETATM    8  C6  UNL     1      91.078 100.223 -43.335  1.00  0.00    -0.049 C 
HETATM    9  C5  UNL     1      91.500 100.682 -42.302  1.00  0.00    -0.011 C 
BRANCH   9  10
HETATM   10  C4  UNL     1      92.009 101.240 -41.097  1.00  0.00    -0.001 C 
HETATM   11  C3  UNL     1      92.447 101.733 -40.082  1.00  0.00     0.001 C 
BRANCH  11  12
HETATM   12  C2  UNL     1      92.972 102.324 -38.908  1.00  0.00     0.009 C 
HETATM   13  C1  UNL     1      93.417 102.844 -37.913  1.00  0.00     0.017 C 
BRANCH  13  14
HETATM   14  N1  UNL     1      93.925 103.470 -36.761  1.00  0.00    -0.359 N 
ATOM     15  H12 UNL     1      94.252 102.982 -37.595  1.00  0.00     0.166 HD
ATOM     16  H11 UNL     1      94.278 103.927 -35.920  1.00  0.00     0.166 HD
ENDBRANCH  13  14
ENDBRANCH  11  12
ENDBRANCH   9  10
ENDBRANCH   5   8
ENDBRANCH   1   5
BRANCH   3  17
HETATM   17  C9  UNL     1      89.895  95.973 -45.469  1.00  0.00     0.128 C 
BRANCH  17  18
HETATM   18  C10 UNL     1      91.125  95.146 -45.252  1.00  0.00     0.078 C 
BRANCH  18  19
HETATM   19  C11 UNL     1      91.126  94.484 -43.924  1.00  0.00     0.030 A 
HETATM   20  C12 UNL     1      91.217  93.124 -43.760  1.00  0.00     0.118 A 
HETATM   21  N3  UNL     1      91.190  92.848 -42.440  1.00  0.00    -0.317 N 
HETATM   22  C13 UNL     1      91.084  94.011 -41.778  1.00  0.00     0.324 A 
ATOM     23  H3  UNL     1      91.241  91.920 -42.020  1.00  0.00     0.170 HD
HETATM   24  O2  UNL     1      91.026  94.224 -40.529  1.00  0.00    -0.247 OA
HETATM   25  N4  UNL     1      91.046  95.004 -42.693  1.00  0.00    -0.311 N 
ATOM     26  H4  UNL     1      90.969  95.999 -42.478  1.00  0.00     0.170 HD
ENDBRANCH  18  19
ENDBRANCH  17  18
ENDBRANCH   3  17
TORSDOF 8
ENDMDL
MODEL 3
REMARK VINA RESULT: -5.446356959      3.375      8.425
REMARK  8 active torsions:
REMARK  status: ('A' for Active; 'I' for Inactive)
REMARK    1  A    between atoms: N1_1  and  C1_4 
REMARK    2  A    between atoms: C2_5  and  C3_6 
REMARK    3  A    between atoms: C4_7  and  C5_8 
REMARK    4  A    between atoms: C6_9  and  C7_10 
REMARK    5  A    between atoms: C7_10  and  C8_13 
REMARK       I    between atoms: C8_13  and  N2_15 
REMARK    6  A    between atoms: N2_15  and  C9_17 
REMARK    7  A    between atoms: C9_17  and  C10_18 
REMARK    8  A    between atoms: C10_18  and  C11_19 
ROOT
HETATM    1  C8  UNL     1      91.008 100.202 -42.608  1.00  0.00     0.260 C 
HETATM    2  O1  UNL     1      92.090 100.498 -43.169  1.00  0.00    -0.270 OA
HETATM    3  N2  UNL     1      90.921 100.284 -41.204  1.00  0.00    -0.358 N 
ATOM      4  H2  UNL     1      90.028 100.036 -40.777  1.00  0.00     0.162 HD
ENDROOT
BRANCH   1   5
HETATM    5  C7  UNL     1      89.840  99.776 -43.392  1.00  0.00     0.219 C 
HETATM    6 BR1  UNL     1      88.222  99.728 -42.308  1.00  0.00    -0.048 Br
HETATM    7 BR2  UNL     1      89.499 100.993 -44.857  1.00  0.00    -0.048 Br
BRANCH   5   8
HETATM    8  C6  UNL     1      90.090  98.404 -43.889  1.00  0.00    -0.049 C 
HETATM    9  C5  UNL     1      90.284  97.278 -44.277  1.00  0.00    -0.011 C 
BRANCH   9  10
HETATM   10  C4  UNL     1      90.497  95.943 -44.719  1.00  0.00    -0.001 C 
HETATM   11  C3  UNL     1      90.657  94.804 -45.094  1.00  0.00     0.001 C 
BRANCH  11  12
HETATM   12  C2  UNL     1      90.824  93.465 -45.523  1.00  0.00     0.009 C 
HETATM   13  C1  UNL     1      90.949  92.322 -45.892  1.00  0.00     0.017 C 
BRANCH  13  14
HETATM   14  N1  UNL     1      91.075  90.994 -46.335  1.00  0.00    -0.359 N 
ATOM     15  H12 UNL     1      90.496  91.560 -45.715  1.00  0.00     0.166 HD
ATOM     16  H11 UNL     1      91.179  90.034 -46.666  1.00  0.00     0.166 HD
ENDBRANCH  13  14
ENDBRANCH  11  12
ENDBRANCH   9  10
ENDBRANCH   5   8
ENDBRANCH   1   5
BRANCH   3  17
HETATM   17  C9  UNL     1      91.985 100.688 -40.318  1.00  0.00     0.128 C 
BRANCH  17  18
HETATM   18  C10 UNL     1      92.070 102.176 -40.184  1.00  0.00     0.078 C 
BRANCH  18  19
HETATM   19  C11 UNL     1      93.332 102.717 -40.748  1.00  0.00     0.030 A 
HETATM   20  C12 UNL     1      94.408 103.078 -39.976  1.00  0.00     0.118 A 
HETATM   21  N3  UNL     1      95.388 103.527 -40.788  1.00  0.00    -0.317 N 
HETATM   22  C13 UNL     1      94.942 103.452 -42.052  1.00  0.00     0.324 A 
ATOM     23  H3  UNL     1      96.304 103.864 -40.494  1.00  0.00     0.170 HD
HETATM   24  O2  UNL     1      95.527 103.766 -43.132  1.00  0.00    -0.247 OA
HETATM   25  N4  UNL     1      93.685 102.955 -42.017  1.00  0.00    -0.311 N 
ATOM     26  H4  UNL     1      93.096 102.787 -42.833  1.00  0.00     0.170 HD
ENDBRANCH  18  19
ENDBRANCH  17  18
ENDBRANCH   3  17
TORSDOF 8
ENDMDL
MODEL 4
REMARK VINA RESULT: -5.435395689      1.189      1.441
REMARK  8 active torsions:
REMARK  status: ('A' for Active; 'I' for Inactive)
REMARK    1  A    between atoms: N1_1  and  C1_4 
REMARK    2  A    between atoms: C2_5  and  C3_6 
REMARK    3  A    between atoms: C4_7  and  C5_8 
REMARK    4  A    between atoms: C6_9  and  C7_10 
REMARK    5  A    between atoms: C7_10  and  C8_13 
REMARK       I    between atoms: C8_13  and  N2_15 
REMARK    6  A    between atoms: N2_15  and  C9_17 
REMARK    7  A    between atoms: C9_17  and  C10_18 
REMARK    8  A    between atoms: C10_18  and  C11_19 
ROOT
HETATM    1  C8  UNL     1      89.434  96.797 -45.705  1.00  0.00     0.260 C 
HETATM    2  O1  UNL     1      89.035  96.091 -46.661  1.00  0.00    -0.270 OA
HETATM    3  N2  UNL     1      90.543  96.363 -44.950  1.00  0.00    -0.358 N 
ATOM      4  H2  UNL     1      90.843  96.959 -44.178  1.00  0.00     0.162 HD
ENDROOT
BRANCH   1   5
HETATM    5  C7  UNL     1      88.765  98.061 -45.366  1.00  0.00     0.219 C 
HETATM    6 BR1  UNL     1      88.762  99.301 -46.869  1.00  0.00    -0.048 Br
HETATM    7 BR2  UNL     1      86.917  97.766 -44.876  1.00  0.00    -0.048 Br
BRANCH   5   8
HETATM    8  C6  UNL     1      89.513  98.698 -44.259  1.00  0.00    -0.049 C 
HETATM    9  C5  UNL     1      90.117  99.236 -43.363  1.00  0.00    -0.011 C 
BRANCH   9  10
HETATM   10  C4  UNL     1      90.819  99.890 -42.313  1.00  0.00    -0.001 C 
HETATM   11  C3  UNL     1      91.412 100.466 -41.429  1.00  0.00     0.001 C 
BRANCH  11  12
HETATM   12  C2  UNL     1      92.108 101.158 -40.408  1.00  0.00     0.009 C 
HETATM   13  C1  UNL     1      92.717 101.746 -39.548  1.00  0.00     0.017 C 
BRANCH  13  14
HETATM   14  N1  UNL     1      93.443 102.437 -38.562  1.00  0.00    -0.359 N 
ATOM     15  H12 UNL     1      93.421 101.528 -39.024  1.00  0.00     0.166 HD
ATOM     16  H11 UNL     1      93.960 102.951 -37.848  1.00  0.00     0.166 HD
ENDBRANCH  13  14
ENDBRANCH  11  12
ENDBRANCH   9  10
ENDBRANCH   5   8
ENDBRANCH   1   5
BRANCH   3  17
HETATM   17  C9  UNL     1      91.290  95.150 -45.175  1.00  0.00     0.128 C 
BRANCH  17  18
HETATM   18  C10 UNL     1      90.739  93.998 -44.395  1.00  0.00     0.078 C 
BRANCH  18  19
HETATM   19  C11 UNL     1      91.467  93.788 -43.119  1.00  0.00     0.030 A 
HETATM   20  C12 UNL     1      91.108  94.388 -41.939  1.00  0.00     0.118 A 
HETATM   21  N3  UNL     1      91.967  93.992 -40.976  1.00  0.00    -0.317 N 
HETATM   22  C13 UNL     1      92.855  93.155 -41.535  1.00  0.00     0.324 A 
ATOM     23  H3  UNL     1      91.945  94.278 -39.997  1.00  0.00     0.170 HD
HETATM   24  O2  UNL     1      93.833  92.547 -41.005  1.00  0.00    -0.247 OA
HETATM   25  N4  UNL     1      92.541  93.037 -42.845  1.00  0.00    -0.311 N 
ATOM     26  H4  UNL     1      93.045  92.462 -43.520  1.00  0.00     0.170 HD
ENDBRANCH  18  19
ENDBRANCH  17  18
ENDBRANCH   3  17
TORSDOF 8
ENDMDL
MODEL 5
REMARK VINA RESULT: -5.412014962      1.906      2.596
REMARK  8 active torsions:
REMARK  status: ('A' for Active; 'I' for Inactive)
REMARK    1  A    between atoms: N1_1  and  C1_4 
REMARK    2  A    between atoms: C2_5  and  C3_6 
REMARK    3  A    between atoms: C4_7  and  C5_8 
REMARK    4  A    between atoms: C6_9  and  C7_10 
REMARK    5  A    between atoms: C7_10  and  C8_13 
REMARK       I    between atoms: C8_13  and  N2_15 
REMARK    6  A    between atoms: N2_15  and  C9_17 
REMARK    7  A    between atoms: C9_17  and  C10_18 
REMARK    8  A    between atoms: C10_18  and  C11_19 
ROOT
HETATM    1  C8  UNL     1      90.924  99.438 -42.704  1.00  0.00     0.260 C 
HETATM    2  O1  UNL     1      91.864  99.308 -43.523  1.00  0.00    -0.270 OA
HETATM    3  N2  UNL     1      90.377  98.286 -42.103  1.00  0.00    -0.358 N 
ATOM      4  H2  UNL     1      89.612  98.423 -41.442  1.00  0.00     0.162 HD
ENDROOT
BRANCH   1   5
HETATM    5  C7  UNL     1      90.391 100.765 -42.365  1.00  0.00     0.219 C 
HETATM    6 BR1  UNL     1      90.627 102.032 -43.826  1.00  0.00    -0.048 Br
HETATM    7 BR2  UNL     1      88.494 100.683 -41.992  1.00  0.00    -0.048 Br
BRANCH   5   8
HETATM    8  C6  UNL     1      91.140 101.280 -41.197  1.00  0.00    -0.049 C 
HETATM    9  C5  UNL     1      91.759 101.714 -40.256  1.00  0.00    -0.011 C 
BRANCH   9  10
HETATM   10  C4  UNL     1      92.495 102.245 -39.160  1.00  0.00    -0.001 C 
HETATM   11  C3  UNL     1      93.108 102.687 -38.215  1.00  0.00     0.001 C 
BRANCH  11  12
HETATM   12  C2  UNL     1      93.806 103.201 -37.096  1.00  0.00     0.009 C 
HETATM   13  C1  UNL     1      94.388 103.633 -36.130  1.00  0.00     0.017 C 
BRANCH  13  14
HETATM   14  N1  UNL     1      95.055 104.120 -34.993  1.00  0.00    -0.359 N 
ATOM     15  H12 UNL     1      94.701 103.244 -35.376  1.00  0.00     0.166 HD
ATOM     16  H11 UNL     1      95.538 104.489 -34.173  1.00  0.00     0.166 HD
ENDBRANCH  13  14
ENDBRANCH  11  12
ENDBRANCH   9  10
ENDBRANCH   5   8
ENDBRANCH   1   5
BRANCH   3  17
HETATM   17  C9  UNL     1      90.805  96.930 -42.342  1.00  0.00     0.128 C 
BRANCH  17  18
HETATM   18  C10 UNL     1      91.172  96.223 -41.074  1.00  0.00     0.078 C 
BRANCH  18  19
HETATM   19  C11 UNL     1      91.605  94.825 -41.319  1.00  0.00     0.030 A 
HETATM   20  C12 UNL     1      90.882  93.933 -42.071  1.00  0.00     0.118 A 
HETATM   21  N3  UNL     1      91.546  92.758 -42.098  1.00  0.00    -0.317 N 
HETATM   22  C13 UNL     1      92.668  92.902 -41.377  1.00  0.00     0.324 A 
ATOM     23  H3  UNL     1      91.246  91.911 -42.581  1.00  0.00     0.170 HD
HETATM   24  O2  UNL     1      93.584  92.058 -41.135  1.00  0.00    -0.247 OA
HETATM   25  N4  UNL     1      92.696  94.168 -40.905  1.00  0.00    -0.311 N 
ATOM     26  H4  UNL     1      93.435  94.563 -40.324  1.00  0.00     0.170 HD
ENDBRANCH  18  19
ENDBRANCH  17  18
ENDBRANCH   3  17
TORSDOF 8
ENDMDL
