MODEL 1
REMARK VINA RESULT: -5.954979763      0.000      0.000
REMARK  4 active torsions:
REMARK  status: ('A' for Active; 'I' for Inactive)
REMARK       I    between atoms: C3_3  and  N1_5 
REMARK    1  A    between atoms: N1_5  and  C4_7 
REMARK    2  A    between atoms: C5_8  and  C6_10 
REMARK    3  A    between atoms: C6_10  and  N3_14 
REMARK    4  A    between atoms: N3_14  and  C7_16 
ROOT
HETATM    1  C1  UNL     1      88.581  96.190 -47.101  1.00  0.00     0.022 C 
HETATM    2  C2  UNL     1      89.237  95.489 -46.356  1.00  0.00    -0.016 C 
HETATM    3  C3  UNL     1      90.029  94.672 -45.491  1.00  0.00     0.299 C 
HETATM    4  O1  UNL     1      90.442  93.567 -45.886  1.00  0.00    -0.258 OA
HETATM    5  N1  UNL     1      90.316  95.187 -44.171  1.00  0.00    -0.325 N 
ATOM      6  H1  UNL     1      89.952  96.101 -43.902  1.00  0.00     0.169 HD
ENDROOT
BRANCH   5   7
HETATM    7  C4  UNL     1      91.085  94.458 -43.255  1.00  0.00     0.115 C 
HETATM    8  C5  UNL     1      91.444  94.832 -42.086  1.00  0.00     0.069 C 
HETATM    9 BR1  UNL     1      92.519  93.501 -41.121  1.00  0.00    -0.046 Br
BRANCH   8  10
HETATM   10  C6  UNL     1      91.211  96.055 -41.352  1.00  0.00     0.114 C 
HETATM   11  N2  UNL     1      91.646  96.136 -40.108  1.00  0.00    -0.385 N 
ATOM     12  H22 UNL     1      92.117  95.298 -39.770  1.00  0.00     0.157 HD
ATOM     13  H21 UNL     1      91.482  97.000 -39.590  1.00  0.00     0.157 HD
BRANCH  10  14
HETATM   14  N3  UNL     1      90.558  97.217 -41.821  1.00  0.00    -0.370 N 
ATOM     15  H3  UNL     1      89.609  97.385 -41.486  1.00  0.00     0.161 HD
BRANCH  14  16
HETATM   16  C7  UNL     1      91.109  98.172 -42.720  1.00  0.00     0.100 C 
HETATM   17  C8  UNL     1      91.476  99.501 -42.142  1.00  0.00     0.052 C 
HETATM   18  C9  UNL     1      91.578 100.426 -43.350  1.00  0.00     0.100 A 
HETATM   19  N4  UNL     1      92.800 100.251 -44.104  1.00  0.00    -0.355 N 
HETATM   20  C11 UNL     1      90.757  99.785 -44.443  1.00  0.00     0.117 A 
HETATM   21  C10 UNL     1      92.042  99.731 -45.184  1.00  0.00     0.225 A 
ATOM     22  H4  UNL     1      93.789 100.428 -43.931  1.00  0.00     0.162 HD
HETATM   23  O2  UNL     1      92.312  99.353 -46.349  1.00  0.00    -0.273 OA
HETATM   24  C12 UNL     1      90.263  98.452 -43.937  1.00  0.00     0.095 C 
HETATM   25 BR2  UNL     1      88.389  98.465 -43.552  1.00  0.00    -0.088 Br
ENDBRANCH  14  16
ENDBRANCH  10  14
ENDBRANCH   8  10
ENDBRANCH   5   7
TORSDOF 4
ENDMDL
MODEL 2
REMARK VINA RESULT: -5.949813781      2.682      3.825
REMARK  4 active torsions:
REMARK  status: ('A' for Active; 'I' for Inactive)
REMARK       I    between atoms: C3_3  and  N1_5 
REMARK    1  A    between atoms: N1_5  and  C4_7 
REMARK    2  A    between atoms: C5_8  and  C6_10 
REMARK    3  A    between atoms: C6_10  and  N3_14 
REMARK    4  A    between atoms: N3_14  and  C7_16 
ROOT
HETATM    1  C1  UNL     1      93.589  92.874 -41.227  1.00  0.00     0.022 C 
HETATM    2  C2  UNL     1      92.627  93.215 -41.887  1.00  0.00    -0.016 C 
HETATM    3  C3  UNL     1      91.497  93.637 -42.653  1.00  0.00     0.299 C 
HETATM    4  O1  UNL     1      90.371  93.683 -42.127  1.00  0.00    -0.258 OA
HETATM    5  N1  UNL     1      91.729  94.001 -44.033  1.00  0.00    -0.325 N 
ATOM      6  H1  UNL     1      92.674  93.946 -44.411  1.00  0.00     0.169 HD
ENDROOT
BRANCH   5   7
HETATM    7  C4  UNL     1      90.684  94.428 -44.861  1.00  0.00     0.115 C 
HETATM    8  C5  UNL     1      90.331  95.635 -45.091  1.00  0.00     0.069 C 
HETATM    9 BR1  UNL     1      88.808  95.799 -46.321  1.00  0.00    -0.046 Br
BRANCH   8  10
HETATM   10  C6  UNL     1      90.842  96.897 -44.606  1.00  0.00     0.114 C 
HETATM   11  N2  UNL     1      91.707  97.558 -45.354  1.00  0.00    -0.385 N 
ATOM     12  H22 UNL     1      91.944  97.097 -46.232  1.00  0.00     0.157 HD
ATOM     13  H21 UNL     1      92.067  98.448 -45.012  1.00  0.00     0.157 HD
BRANCH  10  14
HETATM   14  N3  UNL     1      90.513  97.536 -43.389  1.00  0.00    -0.370 N 
ATOM     15  H3  UNL     1      89.930  97.017 -42.733  1.00  0.00     0.161 HD
BRANCH  14  16
HETATM   16  C7  UNL     1      90.926  98.841 -43.000  1.00  0.00     0.100 C 
HETATM   17  C8  UNL     1      91.573  98.967 -41.659  1.00  0.00     0.052 C 
HETATM   18  C9  UNL     1      91.471 100.452 -41.326  1.00  0.00     0.100 A 
HETATM   19  N4  UNL     1      92.438 101.264 -42.032  1.00  0.00    -0.355 N 
HETATM   20  C11 UNL     1      90.336 100.996 -42.159  1.00  0.00     0.117 A 
HETATM   21  C10 UNL     1      91.380 101.860 -42.764  1.00  0.00     0.225 A 
ATOM     22  H4  UNL     1      93.452 101.366 -42.011  1.00  0.00     0.162 HD
HETATM   23  O2  UNL     1      91.305 102.777 -43.616  1.00  0.00    -0.273 OA
HETATM   24  C12 UNL     1      89.838  99.886 -43.052  1.00  0.00     0.095 C 
HETATM   25 BR2  UNL     1      88.135  99.213 -42.501  1.00  0.00    -0.088 Br
ENDBRANCH  14  16
ENDBRANCH  10  14
ENDBRANCH   8  10
ENDBRANCH   5   7
TORSDOF 4
ENDMDL
MODEL 3
REMARK VINA RESULT: -5.803695573      3.392      5.753
REMARK  4 active torsions:
REMARK  status: ('A' for Active; 'I' for Inactive)
REMARK       I    between atoms: C3_3  and  N1_5 
REMARK    1  A    between atoms: N1_5  and  C4_7 
REMARK    2  A    between atoms: C5_8  and  C6_10 
REMARK    3  A    between atoms: C6_10  and  N3_14 
REMARK    4  A    between atoms: N3_14  and  C7_16 
ROOT
HETATM    1  C1  UNL     1      92.075  93.057 -41.281  1.00  0.00     0.022 C 
HETATM    2  C2  UNL     1      91.815  94.243 -41.250  1.00  0.00    -0.016 C 
HETATM    3  C3  UNL     1      91.531  95.644 -41.220  1.00  0.00     0.299 C 
HETATM    4  O1  UNL     1      91.886  96.329 -40.244  1.00  0.00    -0.258 OA
HETATM    5  N1  UNL     1      90.833  96.205 -42.354  1.00  0.00    -0.325 N 
ATOM      6  H1  UNL     1      90.567  95.595 -43.128  1.00  0.00     0.169 HD
ENDROOT
BRANCH   5   7
HETATM    7  C4  UNL     1      90.513  97.566 -42.414  1.00  0.00     0.115 C 
HETATM    8  C5  UNL     1      90.365  98.274 -43.469  1.00  0.00     0.069 C 
HETATM    9 BR1  UNL     1      89.914 100.152 -43.110  1.00  0.00    -0.046 Br
BRANCH   8  10
HETATM   10  C6  UNL     1      90.480  97.947 -44.872  1.00  0.00     0.114 C 
HETATM   11  N2  UNL     1      91.685  97.778 -45.384  1.00  0.00    -0.385 N 
ATOM     12  H22 UNL     1      92.448  97.903 -44.719  1.00  0.00     0.157 HD
ATOM     13  H21 UNL     1      91.766  97.547 -46.374  1.00  0.00     0.157 HD
BRANCH  10  14
HETATM   14  N3  UNL     1      89.423  97.774 -45.794  1.00  0.00    -0.370 N 
ATOM     15  H3  UNL     1      89.645  97.887 -46.783  1.00  0.00     0.161 HD
BRANCH  14  16
HETATM   16  C7  UNL     1      88.076  97.457 -45.461  1.00  0.00     0.100 C 
HETATM   17  C8  UNL     1      87.354  96.540 -46.395  1.00  0.00     0.052 C 
HETATM   18  C9  UNL     1      85.880  96.755 -46.073  1.00  0.00     0.100 A 
HETATM   19  N4  UNL     1      85.455  96.092 -44.860  1.00  0.00    -0.355 N 
HETATM   20  C11 UNL     1      85.782  98.113 -45.422  1.00  0.00     0.117 A 
HETATM   21  C10 UNL     1      85.266  97.359 -44.252  1.00  0.00     0.225 A 
ATOM     22  H4  UNL     1      85.341  95.123 -44.565  1.00  0.00     0.162 HD
HETATM   23  O2  UNL     1      84.828  97.748 -43.143  1.00  0.00    -0.273 OA
HETATM   24  C12 UNL     1      87.180  98.655 -45.257  1.00  0.00     0.095 C 
HETATM   25 BR2  UNL     1      87.559 100.082 -46.474  1.00  0.00    -0.088 Br
ENDBRANCH  14  16
ENDBRANCH  10  14
ENDBRANCH   8  10
ENDBRANCH   5   7
TORSDOF 4
ENDMDL
MODEL 4
REMARK VINA RESULT: -5.729214751      3.307      5.215
REMARK  4 active torsions:
REMARK  status: ('A' for Active; 'I' for Inactive)
REMARK       I    between atoms: C3_3  and  N1_5 
REMARK    1  A    between atoms: N1_5  and  C4_7 
REMARK    2  A    between atoms: C5_8  and  C6_10 
REMARK    3  A    between atoms: C6_10  and  N3_14 
REMARK    4  A    between atoms: N3_14  and  C7_16 
ROOT
HETATM    1  C1  UNL     1      91.166  91.493 -46.478  1.00  0.00     0.022 C 
HETATM    2  C2  UNL     1      91.159  92.299 -45.569  1.00  0.00    -0.016 C 
HETATM    3  C3  UNL     1      91.175  93.251 -44.503  1.00  0.00     0.299 C 
HETATM    4  O1  UNL     1      91.506  92.895 -43.358  1.00  0.00    -0.258 OA
HETATM    5  N1  UNL     1      90.798  94.610 -44.819  1.00  0.00    -0.325 N 
ATOM      6  H1  UNL     1      90.535  94.844 -45.777  1.00  0.00     0.169 HD
ENDROOT
BRANCH   5   7
HETATM    7  C4  UNL     1      90.784  95.610 -43.840  1.00  0.00     0.115 C 
HETATM    8  C5  UNL     1      90.590  96.861 -44.023  1.00  0.00     0.069 C 
HETATM    9 BR1  UNL     1      90.650  97.926 -42.374  1.00  0.00    -0.046 Br
BRANCH   8  10
HETATM   10  C6  UNL     1      90.344  97.632 -45.221  1.00  0.00     0.114 C 
HETATM   11  N2  UNL     1      91.233  98.540 -45.580  1.00  0.00    -0.385 N 
ATOM     12  H22 UNL     1      92.035  98.616 -44.954  1.00  0.00     0.157 HD
ATOM     13  H21 UNL     1      91.060  99.083 -46.425  1.00  0.00     0.157 HD
BRANCH  10  14
HETATM   14  N3  UNL     1      89.233  97.526 -46.088  1.00  0.00    -0.370 N 
ATOM     15  H3  UNL     1      89.409  97.640 -47.086  1.00  0.00     0.161 HD
BRANCH  14  16
HETATM   16  C7  UNL     1      87.891  97.272 -45.689  1.00  0.00     0.100 C 
HETATM   17  C8  UNL     1      87.027  96.545 -46.667  1.00  0.00     0.052 C 
HETATM   18  C9  UNL     1      85.603  96.828 -46.202  1.00  0.00     0.100 A 
HETATM   19  N4  UNL     1      85.211  96.046 -45.050  1.00  0.00    -0.355 N 
HETATM   20  C11 UNL     1      85.671  98.092 -45.380  1.00  0.00     0.117 A 
HETATM   21  C10 UNL     1      85.176  97.233 -44.275  1.00  0.00     0.225 A 
ATOM     22  H4  UNL     1      85.034  95.058 -44.871  1.00  0.00     0.162 HD
HETATM   23  O2  UNL     1      84.853  97.505 -43.094  1.00  0.00    -0.273 OA
HETATM   24  C12 UNL     1      87.120  98.498 -45.263  1.00  0.00     0.095 C 
HETATM   25 BR2  UNL     1      87.534 100.039 -46.318  1.00  0.00    -0.088 Br
ENDBRANCH  14  16
ENDBRANCH  10  14
ENDBRANCH   8  10
ENDBRANCH   5   7
TORSDOF 4
ENDMDL
MODEL 5
REMARK VINA RESULT: -5.646664337      4.006      5.461
REMARK  4 active torsions:
REMARK  status: ('A' for Active; 'I' for Inactive)
REMARK       I    between atoms: C3_3  and  N1_5 
REMARK    1  A    between atoms: N1_5  and  C4_7 
REMARK    2  A    between atoms: C5_8  and  C6_10 
REMARK    3  A    between atoms: C6_10  and  N3_14 
REMARK    4  A    between atoms: N3_14  and  C7_16 
ROOT
HETATM    1  C1  UNL     1      90.102  94.808 -45.552  1.00  0.00     0.022 C 
HETATM    2  C2  UNL     1      90.539  95.834 -45.069  1.00  0.00    -0.016 C 
HETATM    3  C3  UNL     1      91.034  97.052 -44.509  1.00  0.00     0.299 C 
HETATM    4  O1  UNL     1      91.619  97.877 -45.234  1.00  0.00    -0.258 OA
HETATM    5  N1  UNL     1      90.822  97.268 -43.096  1.00  0.00    -0.325 N 
ATOM      6  H1  UNL     1      90.335  96.557 -42.550  1.00  0.00     0.169 HD
ENDROOT
BRANCH   5   7
HETATM    7  C4  UNL     1      91.270  98.432 -42.460  1.00  0.00     0.115 C 
HETATM    8  C5  UNL     1      90.586  99.484 -42.213  1.00  0.00     0.069 C 
HETATM    9 BR1  UNL     1      91.600 100.896 -41.297  1.00  0.00    -0.046 Br
BRANCH   8  10
HETATM   10  C6  UNL     1      89.210  99.825 -42.492  1.00  0.00     0.114 C 
HETATM   11  N2  UNL     1      88.524 100.481 -41.574  1.00  0.00    -0.385 N 
ATOM     12  H22 UNL     1      89.047 100.687 -40.723  1.00  0.00     0.157 HD
ATOM     13  H21 UNL     1      87.553 100.722 -41.771  1.00  0.00     0.157 HD
BRANCH  10  14
HETATM   14  N3  UNL     1      88.485  99.539 -43.671  1.00  0.00    -0.370 N 
ATOM     15  H3  UNL     1      88.923  99.785 -44.559  1.00  0.00     0.161 HD
BRANCH  14  16
HETATM   16  C7  UNL     1      87.197  98.938 -43.726  1.00  0.00     0.100 C 
HETATM   17  C8  UNL     1      87.038  97.779 -44.657  1.00  0.00     0.052 C 
HETATM   18  C9  UNL     1      85.532  97.657 -44.859  1.00  0.00     0.100 A 
HETATM   19  N4  UNL     1      84.852  97.041 -43.741  1.00  0.00    -0.355 N 
HETATM   20  C11 UNL     1      84.950  99.009 -44.529  1.00  0.00     0.117 A 
HETATM   21  C10 UNL     1      84.218  98.279 -43.464  1.00  0.00     0.225 A 
ATOM     22  H4  UNL     1      84.835  96.109 -43.327  1.00  0.00     0.162 HD
HETATM   23  O2  UNL     1      83.356  98.662 -42.639  1.00  0.00    -0.273 OA
HETATM   24  C12 UNL     1      86.069  99.893 -44.035  1.00  0.00     0.095 C 
HETATM   25 BR2  UNL     1      86.559 101.234 -45.308  1.00  0.00    -0.088 Br
ENDBRANCH  14  16
ENDBRANCH  10  14
ENDBRANCH   8  10
ENDBRANCH   5   7
TORSDOF 4
ENDMDL
