MODEL 1
REMARK VINA RESULT: -6.280951571      0.000      0.000
REMARK  8 active torsions:
REMARK  status: ('A' for Active; 'I' for Inactive)
REMARK    1  A    between atoms: C1_4  and  C2_5 
REMARK    2  A    between atoms: C2_5  and  C3_6 
REMARK    3  A    between atoms: C3_6  and  N2_7 
REMARK    4  A    between atoms: C3_6  and  C4_11 
REMARK    5  A    between atoms: C6_13  and  C7_14 
REMARK    6  A    between atoms: C7_14  and  N3_15 
REMARK    7  A    between atoms: N3_15  and  C8_17 
REMARK    8  A    between atoms: C9_21  and  C10_22 
ROOT
HETATM    1  C4  UNL     1      28.419  52.987 251.747  1.00  0.00    -0.025 A 
HETATM    2  C5  UNL     1      28.582  52.309 250.594  1.00  0.00     0.033 A 
HETATM    3  C6  UNL     1      28.113  50.946 250.701  1.00  0.00     0.024 A 
HETATM    4  N4  UNL     1      27.671  50.814 251.927  1.00  0.00    -0.383 N 
ATOM      5  H4  UNL     1      27.273  49.955 252.308  1.00  0.00     0.160 HD
HETATM    6  C9  UNL     1      27.823  52.045 252.666  1.00  0.00     0.120 A 
ENDROOT
BRANCH   1   7
HETATM    7  C3  UNL     1      28.834  54.405 251.848  1.00  0.00     0.219 C 
BRANCH   7   8
HETATM    8  C2  UNL     1      30.143  54.622 252.499  1.00  0.00     0.081 C 
BRANCH   8   9
HETATM    9  C1  UNL     1      30.385  56.120 252.448  1.00  0.00     0.055 C 
HETATM   10  N1  UNL     1      31.486  56.631 252.094  1.00  0.00    -0.411 N 
ATOM     11  H12 UNL     1      32.238  55.992 251.833  1.00  0.00     0.155 HD
ATOM     12  H11 UNL     1      31.648  57.637 252.059  1.00  0.00     0.155 HD
ENDBRANCH   8   9
ENDBRANCH   7   8
BRANCH   7  13
HETATM   13  N2  UNL     1      28.794  55.057 250.546  1.00  0.00    -0.071 N 
ATOM     14  H23 UNL     1      29.710  55.414 250.273  1.00  0.00     0.275 HD
ATOM     15  H22 UNL     1      28.661  54.385 249.789  1.00  0.00     0.275 HD
ATOM     16  H21 UNL     1      28.083  55.788 250.532  1.00  0.00     0.275 HD
ENDBRANCH   7  13
ENDBRANCH   1   7
BRANCH   6  17
HETATM   17  C10 UNL     1      28.527  51.753 253.952  1.00  0.00     0.048 C 
HETATM   18  C11 UNL     1      27.807  52.641 255.004  1.00  0.00     0.129 C 
HETATM   19  N5  UNL     1      28.680  52.670 256.166  1.00  0.00    -0.386 N 
HETATM   20  C12 UNL     1      29.057  51.501 256.599  1.00  0.00     0.171 C 
ATOM     21  H5  UNL     1      28.975  53.539 256.609  1.00  0.00     0.160 HD
HETATM   22  N6  UNL     1      28.582  50.368 255.902  1.00  0.00    -0.386 N 
HETATM   23  C13 UNL     1      28.379  50.355 254.457  1.00  0.00     0.129 C 
ATOM     24  H6  UNL     1      28.373  49.522 256.431  1.00  0.00     0.160 HD
ENDBRANCH   6  17
BRANCH   3  25
HETATM   25  C7  UNL     1      28.075  49.842 249.680  1.00  0.00     0.178 C 
BRANCH  25  26
HETATM   26  N3  UNL     1      27.651  50.238 248.381  1.00  0.00    -0.363 N 
ATOM     27  H3  UNL     1      26.641  50.300 248.249  1.00  0.00     0.162 HD
BRANCH  26  28
HETATM   28  C8  UNL     1      28.431  50.555 247.255  1.00  0.00     0.348 C 
HETATM   29  O1  UNL     1      28.021  51.175 246.259  1.00  0.00    -0.284 OA
ENDBRANCH  26  28
ENDBRANCH  25  26
ENDBRANCH   3  25
TORSDOF 8
ENDMDL
MODEL 2
REMARK VINA RESULT: -6.205645084      0.791      1.317
REMARK  8 active torsions:
REMARK  status: ('A' for Active; 'I' for Inactive)
REMARK    1  A    between atoms: C1_4  and  C2_5 
REMARK    2  A    between atoms: C2_5  and  C3_6 
REMARK    3  A    between atoms: C3_6  and  N2_7 
REMARK    4  A    between atoms: C3_6  and  C4_11 
REMARK    5  A    between atoms: C6_13  and  C7_14 
REMARK    6  A    between atoms: C7_14  and  N3_15 
REMARK    7  A    between atoms: N3_15  and  C8_17 
REMARK    8  A    between atoms: C9_21  and  C10_22 
ROOT
HETATM    1  C4  UNL     1      28.145  52.827 251.511  1.00  0.00    -0.025 A 
HETATM    2  C5  UNL     1      28.612  52.084 250.490  1.00  0.00     0.033 A 
HETATM    3  C6  UNL     1      27.862  50.859 250.328  1.00  0.00     0.024 A 
HETATM    4  N4  UNL     1      26.943  50.875 251.261  1.00  0.00    -0.383 N 
ATOM      5  H4  UNL     1      26.251  50.139 251.405  1.00  0.00     0.160 HD
HETATM    6  C9  UNL     1      27.040  52.074 252.061  1.00  0.00     0.120 A 
ENDROOT
BRANCH   1   7
HETATM    7  C3  UNL     1      28.775  54.125 251.844  1.00  0.00     0.219 C 
BRANCH   7   8
HETATM    8  C2  UNL     1      30.047  54.022 252.590  1.00  0.00     0.081 C 
BRANCH   8   9
HETATM    9  C1  UNL     1      30.618  55.429 252.624  1.00  0.00     0.055 C 
HETATM   10  N1  UNL     1      31.834  55.675 252.872  1.00  0.00    -0.411 N 
ATOM     11  H12 UNL     1      32.446  54.879 253.055  1.00  0.00     0.155 HD
ATOM     12  H11 UNL     1      32.217  56.619 252.895  1.00  0.00     0.155 HD
ENDBRANCH   8   9
ENDBRANCH   7   8
BRANCH   7  13
HETATM   13  N2  UNL     1      28.942  54.947 250.653  1.00  0.00    -0.071 N 
ATOM     14  H23 UNL     1      28.863  54.396 249.798  1.00  0.00     0.275 HD
ATOM     15  H22 UNL     1      28.147  55.569 250.507  1.00  0.00     0.275 HD
ATOM     16  H21 UNL     1      29.823  55.461 250.692  1.00  0.00     0.275 HD
ENDBRANCH   7  13
ENDBRANCH   1   7
BRANCH   6  17
HETATM   17  C10 UNL     1      27.081  51.690 253.505  1.00  0.00     0.048 C 
HETATM   18  C11 UNL     1      28.419  50.916 253.667  1.00  0.00     0.129 C 
HETATM   19  N5  UNL     1      28.324  50.219 254.939  1.00  0.00    -0.386 N 
HETATM   20  C12 UNL     1      27.996  50.966 255.953  1.00  0.00     0.171 C 
ATOM     21  H5  UNL     1      28.502  49.219 255.030  1.00  0.00     0.160 HD
HETATM   22  N6  UNL     1      27.774  52.338 255.701  1.00  0.00    -0.386 N 
HETATM   23  C13 UNL     1      27.173  52.830 254.466  1.00  0.00     0.129 C 
ATOM     24  H6  UNL     1      28.046  53.015 256.413  1.00  0.00     0.160 HD
ENDBRANCH   6  17
BRANCH   3  25
HETATM   25  C7  UNL     1      28.007  49.749 249.324  1.00  0.00     0.178 C 
BRANCH  25  26
HETATM   26  N3  UNL     1      27.685  50.102 247.985  1.00  0.00    -0.363 N 
ATOM     27  H3  UNL     1      26.777  49.778 247.650  1.00  0.00     0.162 HD
BRANCH  26  28
HETATM   28  C8  UNL     1      28.446  50.837 247.057  1.00  0.00     0.348 C 
HETATM   29  O1  UNL     1      27.993  51.364 246.026  1.00  0.00    -0.284 OA
ENDBRANCH  26  28
ENDBRANCH  25  26
ENDBRANCH   3  25
TORSDOF 8
ENDMDL
MODEL 3
REMARK VINA RESULT: -6.183359691      2.612      5.072
REMARK  8 active torsions:
REMARK  status: ('A' for Active; 'I' for Inactive)
REMARK    1  A    between atoms: C1_4  and  C2_5 
REMARK    2  A    between atoms: C2_5  and  C3_6 
REMARK    3  A    between atoms: C3_6  and  N2_7 
REMARK    4  A    between atoms: C3_6  and  C4_11 
REMARK    5  A    between atoms: C6_13  and  C7_14 
REMARK    6  A    between atoms: C7_14  and  N3_15 
REMARK    7  A    between atoms: N3_15  and  C8_17 
REMARK    8  A    between atoms: C9_21  and  C10_22 
ROOT
HETATM    1  C4  UNL     1      28.283  51.006 249.164  1.00  0.00    -0.025 A 
HETATM    2  C5  UNL     1      28.062  51.114 247.840  1.00  0.00     0.033 A 
HETATM    3  C6  UNL     1      28.476  52.401 247.328  1.00  0.00     0.024 A 
HETATM    4  N4  UNL     1      28.945  53.063 248.357  1.00  0.00    -0.383 N 
ATOM      5  H4  UNL     1      29.316  54.012 248.314  1.00  0.00     0.160 HD
HETATM    6  C9  UNL     1      28.864  52.269 249.561  1.00  0.00     0.120 A 
ENDROOT
BRANCH   1   7
HETATM    7  C3  UNL     1      27.930  49.762 249.884  1.00  0.00     0.219 C 
BRANCH   7   8
HETATM    8  C2  UNL     1      26.550  49.284 249.655  1.00  0.00     0.081 C 
BRANCH   8   9
HETATM    9  C1  UNL     1      25.646  50.296 250.339  1.00  0.00     0.055 C 
HETATM   10  N1  UNL     1      25.832  50.698 251.523  1.00  0.00    -0.411 N 
ATOM     11  H12 UNL     1      26.631  50.315 252.030  1.00  0.00     0.155 HD
ATOM     12  H11 UNL     1      25.225  51.377 251.982  1.00  0.00     0.155 HD
ENDBRANCH   8   9
ENDBRANCH   7   8
BRANCH   7  13
HETATM   13  N2  UNL     1      28.892  48.704 249.605  1.00  0.00    -0.071 N 
ATOM     14  H23 UNL     1      28.723  47.878 250.179  1.00  0.00     0.275 HD
ATOM     15  H22 UNL     1      28.740  48.286 248.687  1.00  0.00     0.275 HD
ATOM     16  H21 UNL     1      29.846  49.049 249.709  1.00  0.00     0.275 HD
ENDBRANCH   7  13
ENDBRANCH   1   7
BRANCH   6  17
HETATM   17  C10 UNL     1      28.183  53.070 250.623  1.00  0.00     0.048 C 
HETATM   18  C11 UNL     1      28.889  52.653 251.943  1.00  0.00     0.129 C 
HETATM   19  N5  UNL     1      28.029  53.116 253.019  1.00  0.00    -0.386 N 
HETATM   20  C12 UNL     1      27.690  54.371 252.951  1.00  0.00     0.171 C 
ATOM     21  H5  UNL     1      27.714  52.504 253.771  1.00  0.00     0.160 HD
HETATM   22  N6  UNL     1      28.189  55.118 251.860  1.00  0.00    -0.386 N 
HETATM   23  C13 UNL     1      28.376  54.548 250.530  1.00  0.00     0.129 C 
ATOM     24  H6  UNL     1      28.428  56.098 252.009  1.00  0.00     0.160 HD
ENDBRANCH   6  17
BRANCH   3  25
HETATM   25  C7  UNL     1      28.440  52.955 245.930  1.00  0.00     0.178 C 
BRANCH  25  26
HETATM   26  N3  UNL     1      29.513  52.544 245.092  1.00  0.00    -0.363 N 
ATOM     27  H3  UNL     1      30.323  52.152 245.575  1.00  0.00     0.162 HD
BRANCH  26  28
HETATM   28  C8  UNL     1      29.612  52.602 243.690  1.00  0.00     0.348 C 
HETATM   29  O1  UNL     1      28.667  52.847 242.922  1.00  0.00    -0.284 OA
ENDBRANCH  26  28
ENDBRANCH  25  26
ENDBRANCH   3  25
TORSDOF 8
ENDMDL
MODEL 4
REMARK VINA RESULT: -6.119299199      1.258      1.393
REMARK  8 active torsions:
REMARK  status: ('A' for Active; 'I' for Inactive)
REMARK    1  A    between atoms: C1_4  and  C2_5 
REMARK    2  A    between atoms: C2_5  and  C3_6 
REMARK    3  A    between atoms: C3_6  and  N2_7 
REMARK    4  A    between atoms: C3_6  and  C4_11 
REMARK    5  A    between atoms: C6_13  and  C7_14 
REMARK    6  A    between atoms: C7_14  and  N3_15 
REMARK    7  A    between atoms: N3_15  and  C8_17 
REMARK    8  A    between atoms: C9_21  and  C10_22 
ROOT
HETATM    1  C4  UNL     1      28.309  53.137 251.291  1.00  0.00    -0.025 A 
HETATM    2  C5  UNL     1      28.586  52.358 250.228  1.00  0.00     0.033 A 
HETATM    3  C6  UNL     1      28.080  51.015 250.398  1.00  0.00     0.024 A 
HETATM    4  N4  UNL     1      27.499  50.996 251.573  1.00  0.00    -0.383 N 
ATOM      5  H4  UNL     1      27.042  50.179 251.979  1.00  0.00     0.160 HD
HETATM    6  C9  UNL     1      27.592  52.286 252.215  1.00  0.00     0.120 A 
ENDROOT
BRANCH   1   7
HETATM    7  C3  UNL     1      28.739  54.553 251.316  1.00  0.00     0.219 C 
BRANCH   7   8
HETATM    8  C2  UNL     1      27.739  55.495 251.862  1.00  0.00     0.081 C 
BRANCH   8   9
HETATM    9  C1  UNL     1      28.375  56.095 253.104  1.00  0.00     0.055 C 
HETATM   10  N1  UNL     1      27.711  56.420 254.131  1.00  0.00    -0.411 N 
ATOM     11  H12 UNL     1      26.703  56.266 254.107  1.00  0.00     0.155 HD
ATOM     12  H11 UNL     1      28.138  56.823 254.965  1.00  0.00     0.155 HD
ENDBRANCH   8   9
ENDBRANCH   7   8
BRANCH   7  13
HETATM   13  N2  UNL     1      30.014  54.702 252.004  1.00  0.00    -0.071 N 
ATOM     14  H23 UNL     1      30.361  53.809 252.357  1.00  0.00     0.275 HD
ATOM     15  H22 UNL     1      30.773  54.913 251.355  1.00  0.00     0.275 HD
ATOM     16  H21 UNL     1      29.944  55.400 252.744  1.00  0.00     0.275 HD
ENDBRANCH   7  13
ENDBRANCH   1   7
BRANCH   6  17
HETATM   17  C10 UNL     1      28.139  52.102 253.593  1.00  0.00     0.048 C 
HETATM   18  C11 UNL     1      27.129  52.834 254.519  1.00  0.00     0.129 C 
HETATM   19  N5  UNL     1      27.803  52.996 255.796  1.00  0.00    -0.386 N 
HETATM   20  C12 UNL     1      28.311  51.905 256.292  1.00  0.00     0.171 C 
ATOM     21  H5  UNL     1      27.873  53.897 256.268  1.00  0.00     0.160 HD
HETATM   22  N6  UNL     1      28.150  50.718 255.544  1.00  0.00    -0.386 N 
HETATM   23  C13 UNL     1      28.166  50.692 254.086  1.00  0.00     0.129 C 
ATOM     24  H6  UNL     1      28.016  49.839 256.046  1.00  0.00     0.160 HD
ENDBRANCH   6  17
BRANCH   3  25
HETATM   25  C7  UNL     1      28.135  49.825 249.479  1.00  0.00     0.178 C 
BRANCH  25  26
HETATM   26  N3  UNL     1      27.730  50.080 248.140  1.00  0.00    -0.363 N 
ATOM     27  H3  UNL     1      26.763  49.840 247.919  1.00  0.00     0.162 HD
BRANCH  26  28
HETATM   28  C8  UNL     1      28.479  50.618 247.078  1.00  0.00     0.348 C 
HETATM   29  O1  UNL     1      28.003  51.267 246.131  1.00  0.00    -0.284 OA
ENDBRANCH  26  28
ENDBRANCH  25  26
ENDBRANCH   3  25
TORSDOF 8
ENDMDL
MODEL 5
REMARK VINA RESULT: -6.008005493      1.297      1.379
REMARK  8 active torsions:
REMARK  status: ('A' for Active; 'I' for Inactive)
REMARK    1  A    between atoms: C1_4  and  C2_5 
REMARK    2  A    between atoms: C2_5  and  C3_6 
REMARK    3  A    between atoms: C3_6  and  N2_7 
REMARK    4  A    between atoms: C3_6  and  C4_11 
REMARK    5  A    between atoms: C6_13  and  C7_14 
REMARK    6  A    between atoms: C7_14  and  N3_15 
REMARK    7  A    between atoms: N3_15  and  C8_17 
REMARK    8  A    between atoms: C9_21  and  C10_22 
ROOT
HETATM    1  C4  UNL     1      27.594  53.304 251.979  1.00  0.00    -0.025 A 
HETATM    2  C5  UNL     1      27.366  52.606 250.849  1.00  0.00     0.033 A 
HETATM    3  C6  UNL     1      26.722  51.340 251.119  1.00  0.00     0.024 A 
HETATM    4  N4  UNL     1      26.569  51.285 252.419  1.00  0.00    -0.383 N 
ATOM      5  H4  UNL     1      26.140  50.506 252.918  1.00  0.00     0.160 HD
HETATM    6  C9  UNL     1      27.089  52.475 253.051  1.00  0.00     0.120 A 
ENDROOT
BRANCH   1   7
HETATM    7  C3  UNL     1      28.244  54.632 251.921  1.00  0.00     0.219 C 
BRANCH   7   8
HETATM    8  C2  UNL     1      29.131  54.938 253.064  1.00  0.00     0.081 C 
BRANCH   8   9
HETATM    9  C1  UNL     1      30.547  54.786 252.537  1.00  0.00     0.055 C 
HETATM   10  N1  UNL     1      31.306  53.828 252.864  1.00  0.00    -0.411 N 
ATOM     11  H12 UNL     1      30.934  53.134 253.512  1.00  0.00     0.155 HD
ATOM     12  H11 UNL     1      32.257  53.726 252.510  1.00  0.00     0.155 HD
ENDBRANCH   8   9
ENDBRANCH   7   8
BRANCH   7  13
HETATM   13  N2  UNL     1      28.949  54.817 250.660  1.00  0.00    -0.071 N 
ATOM     14  H23 UNL     1      29.205  55.793 250.509  1.00  0.00     0.275 HD
ATOM     15  H22 UNL     1      29.887  54.416 250.689  1.00  0.00     0.275 HD
ATOM     16  H21 UNL     1      28.402  54.444 249.884  1.00  0.00     0.275 HD
ENDBRANCH   7  13
ENDBRANCH   1   7
BRANCH   6  17
HETATM   17  C10 UNL     1      28.022  52.073 254.147  1.00  0.00     0.048 C 
HETATM   18  C11 UNL     1      27.451  52.757 255.420  1.00  0.00     0.129 C 
HETATM   19  N5  UNL     1      28.511  52.700 256.412  1.00  0.00    -0.386 N 
HETATM   20  C12 UNL     1      29.021  51.518 256.606  1.00  0.00     0.171 C 
ATOM     21  H5  UNL     1      28.832  53.524 256.920  1.00  0.00     0.160 HD
HETATM   22  N6  UNL     1      28.493  50.452 255.843  1.00  0.00    -0.386 N 
HETATM   23  C13 UNL     1      28.040  50.613 254.465  1.00  0.00     0.129 C 
ATOM     24  H6  UNL     1      28.425  49.530 256.274  1.00  0.00     0.160 HD
ENDBRANCH   6  17
BRANCH   3  25
HETATM   25  C7  UNL     1      26.265  50.256 250.182  1.00  0.00     0.178 C 
BRANCH  25  26
HETATM   26  N3  UNL     1      27.248  49.277 249.870  1.00  0.00    -0.363 N 
ATOM     27  H3  UNL     1      27.053  48.334 250.211  1.00  0.00     0.162 HD
BRANCH  26  28
HETATM   28  C8  UNL     1      28.451  49.427 249.157  1.00  0.00     0.348 C 
HETATM   29  O1  UNL     1      28.532  49.576 247.926  1.00  0.00    -0.284 OA
ENDBRANCH  26  28
ENDBRANCH  25  26
ENDBRANCH   3  25
TORSDOF 8
ENDMDL
