MODEL 1
REMARK VINA RESULT: -7.122810688      0.000      0.000
REMARK  6 active torsions:
REMARK  status: ('A' for Active; 'I' for Inactive)
REMARK    1  A    between atoms: O1_2  and  C2_3 
REMARK    2  A    between atoms: C5_6  and  S1_7 
REMARK    3  A    between atoms: S1_7  and  N1_10 
REMARK    4  A    between atoms: N1_10  and  C6_12 
REMARK    5  A    between atoms: C6_12  and  C7_13 
REMARK    6  A    between atoms: C7_13  and  N2_14 
REMARK       I    between atoms: N2_14  and  C8_16 
REMARK       I    between atoms: C8_16  and  N3_17 
REMARK       I    between atoms: C8_16  and  N4_21 
ROOT
HETATM    1  N1  UNL     1      27.754  50.532 251.710  1.00  0.00    -0.311 N 
ATOM      2  H1  UNL     1      28.157  49.598 251.775  1.00  0.00     0.172 HD
ENDROOT
BRANCH   1   3
HETATM    3  S1  UNL     1      26.610  51.037 250.515  1.00  0.00     0.259 S 
HETATM    4  O2  UNL     1      25.471  50.092 250.363  1.00  0.00    -0.201 OA
HETATM    5  O3  UNL     1      26.046  52.370 250.906  1.00  0.00    -0.201 OA
BRANCH   3   6
HETATM    6  C5  UNL     1      27.450  51.204 249.019  1.00  0.00     0.079 A 
HETATM    7  C4  UNL     1      27.490  52.425 248.396  1.00  0.00     0.028 A 
HETATM    8  C3  UNL     1      28.161  52.579 247.190  1.00  0.00     0.038 A 
HETATM    9  C2  UNL     1      28.790  51.518 246.612  1.00  0.00     0.068 A 
HETATM   10  C10 UNL     1      28.737  50.295 247.260  1.00  0.00     0.038 A 
HETATM   11  C9  UNL     1      28.074  50.121 248.460  1.00  0.00     0.028 A 
BRANCH   9  12
HETATM   12  O1  UNL     1      29.482  51.637 245.389  1.00  0.00    -0.356 OA
HETATM   13  C1  UNL     1      29.064  52.691 244.524  1.00  0.00     0.210 C 
ENDBRANCH   9  12
ENDBRANCH   3   6
ENDBRANCH   1   3
BRANCH   1  14
HETATM   14  C6  UNL     1      28.059  51.645 252.617  1.00  0.00     0.176 C 
BRANCH  14  15
HETATM   15  C7  UNL     1      27.566  51.279 253.965  1.00  0.00     0.079 C 
BRANCH  15  16
HETATM   16  N2  UNL     1      28.191  50.208 254.635  1.00  0.00    -0.353 N 
HETATM   17  C8  UNL     1      28.848  50.500 255.851  1.00  0.00     0.479 C 
HETATM   18  N3  UNL     1      27.928  50.842 256.881  1.00  0.00    -0.033 N 
HETATM   19  N4  UNL     1      29.648  49.325 256.196  1.00  0.00    -0.033 N 
ATOM     20  H33 UNL     1      27.318  51.608 256.595  1.00  0.00     0.278 HD
ATOM     21  H32 UNL     1      27.222  50.115 257.006  1.00  0.00     0.278 HD
ATOM     22  H31 UNL     1      28.403  51.053 257.759  1.00  0.00     0.278 HD
ATOM     23  H43 UNL     1      29.102  48.464 256.233  1.00  0.00     0.278 HD
ATOM     24  H42 UNL     1      30.287  49.042 255.453  1.00  0.00     0.278 HD
ATOM     25  H41 UNL     1      30.124  49.536 257.074  1.00  0.00     0.278 HD
ATOM     26  H2  UNL     1      28.169  49.261 254.259  1.00  0.00     0.162 HD
ENDBRANCH  15  16
ENDBRANCH  14  15
ENDBRANCH   1  14
TORSDOF 6
ENDMDL
MODEL 2
REMARK VINA RESULT: -7.116128461      0.028      1.116
REMARK  6 active torsions:
REMARK  status: ('A' for Active; 'I' for Inactive)
REMARK    1  A    between atoms: O1_2  and  C2_3 
REMARK    2  A    between atoms: C5_6  and  S1_7 
REMARK    3  A    between atoms: S1_7  and  N1_10 
REMARK    4  A    between atoms: N1_10  and  C6_12 
REMARK    5  A    between atoms: C6_12  and  C7_13 
REMARK    6  A    between atoms: C7_13  and  N2_14 
REMARK       I    between atoms: N2_14  and  C8_16 
REMARK       I    between atoms: C8_16  and  N3_17 
REMARK       I    between atoms: C8_16  and  N4_21 
ROOT
HETATM    1  N1  UNL     1      27.743  50.547 251.700  1.00  0.00    -0.311 N 
ATOM      2  H1  UNL     1      28.149  49.614 251.767  1.00  0.00     0.172 HD
ENDROOT
BRANCH   1   3
HETATM    3  S1  UNL     1      26.599  51.046 250.502  1.00  0.00     0.259 S 
HETATM    4  O2  UNL     1      25.470  50.090 250.342  1.00  0.00    -0.201 OA
HETATM    5  O3  UNL     1      26.020  52.372 250.897  1.00  0.00    -0.201 OA
BRANCH   3   6
HETATM    6  C5  UNL     1      27.444  51.228 249.011  1.00  0.00     0.079 A 
HETATM    7  C4  UNL     1      28.073  50.146 248.451  1.00  0.00     0.028 A 
HETATM    8  C3  UNL     1      28.758  50.273 247.250  1.00  0.00     0.038 A 
HETATM    9  C2  UNL     1      28.815  51.476 246.613  1.00  0.00     0.068 A 
HETATM   10  C10 UNL     1      28.172  52.555 247.198  1.00  0.00     0.038 A 
HETATM   11  C9  UNL     1      27.485  52.449 248.392  1.00  0.00     0.028 A 
BRANCH   9  12
HETATM   12  O1  UNL     1      29.502  51.643 245.393  1.00  0.00    -0.356 OA
HETATM   13  C1  UNL     1      29.045  52.697 244.548  1.00  0.00     0.210 C 
ENDBRANCH   9  12
ENDBRANCH   3   6
ENDBRANCH   1   3
BRANCH   1  14
HETATM   14  C6  UNL     1      28.042  51.662 252.606  1.00  0.00     0.176 C 
BRANCH  14  15
HETATM   15  C7  UNL     1      27.557  51.292 253.956  1.00  0.00     0.079 C 
BRANCH  15  16
HETATM   16  N2  UNL     1      28.182  50.216 254.618  1.00  0.00    -0.353 N 
HETATM   17  C8  UNL     1      28.858  50.503 255.825  1.00  0.00     0.479 C 
HETATM   18  N3  UNL     1      27.953  50.851 256.867  1.00  0.00    -0.033 N 
HETATM   19  N4  UNL     1      29.653  49.322 256.159  1.00  0.00    -0.033 N 
ATOM     20  H33 UNL     1      27.345  51.622 256.589  1.00  0.00     0.278 HD
ATOM     21  H32 UNL     1      27.244  50.130 257.001  1.00  0.00     0.278 HD
ATOM     22  H31 UNL     1      28.442  51.059 257.738  1.00  0.00     0.278 HD
ATOM     23  H43 UNL     1      29.101  48.465 256.203  1.00  0.00     0.278 HD
ATOM     24  H42 UNL     1      30.280  49.035 255.407  1.00  0.00     0.278 HD
ATOM     25  H41 UNL     1      30.142  49.529 257.030  1.00  0.00     0.278 HD
ATOM     26  H2  UNL     1      28.148  49.269 254.241  1.00  0.00     0.162 HD
ENDBRANCH  15  16
ENDBRANCH  14  15
ENDBRANCH   1  14
TORSDOF 6
ENDMDL
MODEL 3
REMARK VINA RESULT: -7.041002235      2.008      2.953
REMARK  6 active torsions:
REMARK  status: ('A' for Active; 'I' for Inactive)
REMARK    1  A    between atoms: O1_2  and  C2_3 
REMARK    2  A    between atoms: C5_6  and  S1_7 
REMARK    3  A    between atoms: S1_7  and  N1_10 
REMARK    4  A    between atoms: N1_10  and  C6_12 
REMARK    5  A    between atoms: C6_12  and  C7_13 
REMARK    6  A    between atoms: C7_13  and  N2_14 
REMARK       I    between atoms: N2_14  and  C8_16 
REMARK       I    between atoms: C8_16  and  N3_17 
REMARK       I    between atoms: C8_16  and  N4_21 
ROOT
HETATM    1  N1  UNL     1      27.769  50.563 251.738  1.00  0.00    -0.311 N 
ATOM      2  H1  UNL     1      28.412  49.778 251.642  1.00  0.00     0.172 HD
ENDROOT
BRANCH   1   3
HETATM    3  S1  UNL     1      26.608  51.045 250.549  1.00  0.00     0.259 S 
HETATM    4  O2  UNL     1      25.478  50.086 250.419  1.00  0.00    -0.201 OA
HETATM    5  O3  UNL     1      26.034  52.376 250.932  1.00  0.00    -0.201 OA
BRANCH   3   6
HETATM    6  C5  UNL     1      27.432  51.205 249.043  1.00  0.00     0.079 A 
HETATM    7  C4  UNL     1      27.448  52.418 248.404  1.00  0.00     0.028 A 
HETATM    8  C3  UNL     1      28.105  52.566 247.190  1.00  0.00     0.038 A 
HETATM    9  C2  UNL     1      28.745  51.508 246.620  1.00  0.00     0.068 A 
HETATM   10  C10 UNL     1      28.716  50.292 247.284  1.00  0.00     0.038 A 
HETATM   11  C9  UNL     1      28.067  50.124 248.492  1.00  0.00     0.028 A 
BRANCH   9  12
HETATM   12  O1  UNL     1      29.423  51.621 245.389  1.00  0.00    -0.356 OA
HETATM   13  C1  UNL     1      29.044  52.713 244.554  1.00  0.00     0.210 C 
ENDBRANCH   9  12
ENDBRANCH   3   6
ENDBRANCH   1   3
BRANCH   1  14
HETATM   14  C6  UNL     1      27.692  51.451 252.905  1.00  0.00     0.176 C 
BRANCH  14  15
HETATM   15  C7  UNL     1      28.915  52.284 252.922  1.00  0.00     0.079 C 
BRANCH  15  16
HETATM   16  N2  UNL     1      29.211  53.058 251.781  1.00  0.00    -0.353 N 
HETATM   17  C8  UNL     1      28.777  54.402 251.780  1.00  0.00     0.479 C 
HETATM   18  N3  UNL     1      29.497  55.191 252.721  1.00  0.00    -0.033 N 
HETATM   19  N4  UNL     1      28.933  54.900 250.413  1.00  0.00    -0.033 N 
ATOM     20  H33 UNL     1      29.451  54.786 253.657  1.00  0.00     0.278 HD
ATOM     21  H32 UNL     1      30.504  55.126 252.569  1.00  0.00     0.278 HD
ATOM     22  H31 UNL     1      29.183  56.162 252.720  1.00  0.00     0.278 HD
ATOM     23  H43 UNL     1      29.879  54.783 250.049  1.00  0.00     0.278 HD
ATOM     24  H42 UNL     1      28.456  54.323 249.720  1.00  0.00     0.278 HD
ATOM     25  H41 UNL     1      28.619  55.870 250.412  1.00  0.00     0.278 HD
ATOM     26  H2  UNL     1      29.719  52.664 250.989  1.00  0.00     0.162 HD
ENDBRANCH  15  16
ENDBRANCH  14  15
ENDBRANCH   1  14
TORSDOF 6
ENDMDL
MODEL 4
REMARK VINA RESULT: -7.018542737      2.017      3.161
REMARK  6 active torsions:
REMARK  status: ('A' for Active; 'I' for Inactive)
REMARK    1  A    between atoms: O1_2  and  C2_3 
REMARK    2  A    between atoms: C5_6  and  S1_7 
REMARK    3  A    between atoms: S1_7  and  N1_10 
REMARK    4  A    between atoms: N1_10  and  C6_12 
REMARK    5  A    between atoms: C6_12  and  C7_13 
REMARK    6  A    between atoms: C7_13  and  N2_14 
REMARK       I    between atoms: N2_14  and  C8_16 
REMARK       I    between atoms: C8_16  and  N3_17 
REMARK       I    between atoms: C8_16  and  N4_21 
ROOT
HETATM    1  N1  UNL     1      27.742  50.557 251.722  1.00  0.00    -0.311 N 
ATOM      2  H1  UNL     1      28.368  49.759 251.625  1.00  0.00     0.172 HD
ENDROOT
BRANCH   1   3
HETATM    3  S1  UNL     1      26.589  51.064 250.536  1.00  0.00     0.259 S 
HETATM    4  O2  UNL     1      25.450  50.118 250.391  1.00  0.00    -0.201 OA
HETATM    5  O3  UNL     1      26.027  52.395 250.933  1.00  0.00    -0.201 OA
BRANCH   3   6
HETATM    6  C5  UNL     1      27.419  51.233 249.034  1.00  0.00     0.079 A 
HETATM    7  C4  UNL     1      28.066  50.154 248.491  1.00  0.00     0.028 A 
HETATM    8  C3  UNL     1      28.740  50.271 247.283  1.00  0.00     0.038 A 
HETATM    9  C2  UNL     1      28.765  51.461 246.621  1.00  0.00     0.068 A 
HETATM   10  C10 UNL     1      28.104  52.538 247.189  1.00  0.00     0.038 A 
HETATM   11  C9  UNL     1      27.428  52.442 248.390  1.00  0.00     0.028 A 
BRANCH   9  12
HETATM   12  O1  UNL     1      29.439  51.618 245.393  1.00  0.00    -0.356 OA
HETATM   13  C1  UNL     1      29.025  52.713 244.577  1.00  0.00     0.210 C 
ENDBRANCH   9  12
ENDBRANCH   3   6
ENDBRANCH   1   3
BRANCH   1  14
HETATM   14  C6  UNL     1      27.686  51.446 252.889  1.00  0.00     0.176 C 
BRANCH  14  15
HETATM   15  C7  UNL     1      28.917  52.269 252.891  1.00  0.00     0.079 C 
BRANCH  15  16
HETATM   16  N2  UNL     1      29.201  53.047 251.751  1.00  0.00    -0.353 N 
HETATM   17  C8  UNL     1      28.826  54.409 251.786  1.00  0.00     0.479 C 
HETATM   18  N3  UNL     1      29.616  55.151 252.709  1.00  0.00    -0.033 N 
HETATM   19  N4  UNL     1      28.949  54.921 250.421  1.00  0.00    -0.033 N 
ATOM     20  H33 UNL     1      29.590  54.734 253.640  1.00  0.00     0.278 HD
ATOM     21  H32 UNL     1      30.612  55.045 252.515  1.00  0.00     0.278 HD
ATOM     22  H31 UNL     1      29.344  56.134 252.734  1.00  0.00     0.278 HD
ATOM     23  H43 UNL     1      29.874  54.770 250.018  1.00  0.00     0.278 HD
ATOM     24  H42 UNL     1      28.419  54.377 249.740  1.00  0.00     0.278 HD
ATOM     25  H41 UNL     1      28.677  55.904 250.447  1.00  0.00     0.278 HD
ATOM     26  H2  UNL     1      29.658  52.644 250.934  1.00  0.00     0.162 HD
ENDBRANCH  15  16
ENDBRANCH  14  15
ENDBRANCH   1  14
TORSDOF 6
ENDMDL
MODEL 5
REMARK VINA RESULT: -6.910483807      3.236      6.709
REMARK  6 active torsions:
REMARK  status: ('A' for Active; 'I' for Inactive)
REMARK    1  A    between atoms: O1_2  and  C2_3 
REMARK    2  A    between atoms: C5_6  and  S1_7 
REMARK    3  A    between atoms: S1_7  and  N1_10 
REMARK    4  A    between atoms: N1_10  and  C6_12 
REMARK    5  A    between atoms: C6_12  and  C7_13 
REMARK    6  A    between atoms: C7_13  and  N2_14 
REMARK       I    between atoms: N2_14  and  C8_16 
REMARK       I    between atoms: C8_16  and  N3_17 
REMARK       I    between atoms: C8_16  and  N4_21 
ROOT
HETATM    1  N1  UNL     1      28.040  49.496 249.709  1.00  0.00    -0.311 N 
ATOM      2  H1  UNL     1      28.371  48.797 250.374  1.00  0.00     0.172 HD
ENDROOT
BRANCH   1   3
HETATM    3  S1  UNL     1      26.819  50.676 250.036  1.00  0.00     0.259 S 
HETATM    4  O2  UNL     1      26.548  51.569 248.877  1.00  0.00    -0.201 OA
HETATM    5  O3  UNL     1      25.538  49.977 250.381  1.00  0.00    -0.201 OA
BRANCH   3   6
HETATM    6  C5  UNL     1      27.333  51.603 251.396  1.00  0.00     0.079 A 
HETATM    7  C4  UNL     1      28.522  52.283 251.343  1.00  0.00     0.028 A 
HETATM    8  C3  UNL     1      28.953  53.034 252.429  1.00  0.00     0.038 A 
HETATM    9  C2  UNL     1      28.198  53.105 253.560  1.00  0.00     0.068 A 
HETATM   10  C10 UNL     1      27.000  52.410 253.590  1.00  0.00     0.038 A 
HETATM   11  C9  UNL     1      26.554  51.657 252.521  1.00  0.00     0.028 A 
BRANCH   9  12
HETATM   12  O1  UNL     1      28.603  53.857 254.681  1.00  0.00    -0.356 OA
HETATM   13  C1  UNL     1      27.930  53.580 255.908  1.00  0.00     0.210 C 
ENDBRANCH   9  12
ENDBRANCH   3   6
ENDBRANCH   1   3
BRANCH   1  14
HETATM   14  C6  UNL     1      28.530  49.647 248.334  1.00  0.00     0.176 C 
BRANCH  14  15
HETATM   15  C7  UNL     1      29.852  50.311 248.394  1.00  0.00     0.079 C 
BRANCH  15  16
HETATM   16  N2  UNL     1      30.211  51.180 247.344  1.00  0.00    -0.353 N 
HETATM   17  C8  UNL     1      29.306  52.216 247.022  1.00  0.00     0.479 C 
HETATM   18  N3  UNL     1      29.241  53.198 248.050  1.00  0.00    -0.033 N 
HETATM   19  N4  UNL     1      29.743  52.783 245.747  1.00  0.00    -0.033 N 
ATOM     20  H33 UNL     1      29.018  52.777 248.953  1.00  0.00     0.278 HD
ATOM     21  H32 UNL     1      30.166  53.568 248.271  1.00  0.00     0.278 HD
ATOM     22  H31 UNL     1      28.587  53.946 247.818  1.00  0.00     0.278 HD
ATOM     23  H43 UNL     1      30.716  53.090 245.756  1.00  0.00     0.278 HD
ATOM     24  H42 UNL     1      29.833  52.086 245.008  1.00  0.00     0.278 HD
ATOM     25  H41 UNL     1      29.089  53.532 245.514  1.00  0.00     0.278 HD
ATOM     26  H2  UNL     1      31.088  51.065 246.836  1.00  0.00     0.162 HD
ENDBRANCH  15  16
ENDBRANCH  14  15
ENDBRANCH   1  14
TORSDOF 6
ENDMDL
