MODEL 1
REMARK VINA RESULT: -6.975217717      0.000      0.000
REMARK  11 active torsions:
REMARK  status: ('A' for Active; 'I' for Inactive)
REMARK    1  A    between atoms: C1_4  and  O1_6 
REMARK    2  A    between atoms: O1_6  and  N3_7 
REMARK    3  A    between atoms: C2_9  and  O2_11 
REMARK    4  A    between atoms: O2_11  and  C3_12 
REMARK    5  A    between atoms: C3_12  and  C4_13 
REMARK    6  A    between atoms: C4_13  and  O3_14 
REMARK    7  A    between atoms: C4_13  and  C5_16 
REMARK    8  A    between atoms: C5_16  and  O4_17 
REMARK    9  A    between atoms: O4_17  and  C6_18 
REMARK   10  A    between atoms: C6_18  and  C7_19 
REMARK   11  A    between atoms: C7_19  and  N5_20 
ROOT
HETATM    1  C4  UNL     1      26.403  50.712 250.026  1.00  0.00     0.166 C 
ENDROOT
BRANCH   1   2
HETATM    2  C3  UNL     1      27.852  50.214 249.944  1.00  0.00     0.212 C 
BRANCH   2   3
HETATM    3  O2  UNL     1      28.651  51.380 249.852  1.00  0.00    -0.321 OA
BRANCH   3   4
HETATM    4  C2  UNL     1      29.367  51.541 248.672  1.00  0.00     0.252 C 
HETATM    5  N3  UNL     1      29.069  52.580 247.972  1.00  0.00    -0.224 N 
ATOM      6  H3  UNL     1      28.349  53.230 248.284  1.00  0.00     0.198 HD
HETATM    7  N4  UNL     1      30.372  50.632 248.237  1.00  0.00    -0.054 NA
BRANCH   5   8
HETATM    8  O1  UNL     1      29.744  52.792 246.795  1.00  0.00    -0.202 OA
BRANCH   8   9
HETATM    9  C1  UNL     1      29.075  52.505 245.612  1.00  0.00     0.249 C 
HETATM   10  N1  UNL     1      29.644  52.806 244.496  1.00  0.00    -0.366 N 
ATOM     11  H12 UNL     1      29.153  52.596 243.627  1.00  0.00     0.159 HD
ATOM     12  H11 UNL     1      30.565  53.245 244.520  1.00  0.00     0.159 HD
HETATM   13  N2  UNL     1      27.792  51.893 245.577  1.00  0.00    -0.055 NA
ENDBRANCH   8   9
ENDBRANCH   5   8
ENDBRANCH   3   4
ENDBRANCH   2   3
ENDBRANCH   1   2
BRANCH   1  14
HETATM   14  O3  UNL     1      25.608  49.735 250.579  1.00  0.00    -0.391 OA
ATOM     15  H3  UNL     1      24.901  50.137 251.071  1.00  0.00     0.210 HD
ENDBRANCH   1  14
BRANCH   1  16
HETATM   16  C5  UNL     1      26.365  52.037 250.780  1.00  0.00     0.201 C 
BRANCH  16  17
HETATM   17  O4  UNL     1      26.060  52.010 252.048  1.00  0.00    -0.387 OA
BRANCH  17  18
HETATM   18  C6  UNL     1      26.797  51.851 253.119  1.00  0.00     0.187 C 
BRANCH  18  19
HETATM   19  C7  UNL     1      28.183  52.306 253.290  1.00  0.00     0.154 C 
BRANCH  19  20
HETATM   20  N5  UNL     1      29.059  51.668 254.210  1.00  0.00    -0.364 N 
HETATM   21  C8  UNL     1      28.759  50.461 254.776  1.00  0.00     0.090 A 
HETATM   22  C9  UNL     1      29.616  49.802 255.615  1.00  0.00     0.017 A 
HETATM   23  C10 UNL     1      30.838  50.352 255.920  1.00  0.00     0.003 A 
HETATM   24  C11 UNL     1      31.164  51.570 255.361  1.00  0.00     0.017 A 
HETATM   25  C12 UNL     1      30.269  52.180 254.531  1.00  0.00     0.090 A 
ENDBRANCH  19  20
ENDBRANCH  18  19
ENDBRANCH  17  18
ENDBRANCH  16  17
ENDBRANCH   1  16
TORSDOF 11
ENDMDL
MODEL 2
REMARK VINA RESULT: -6.836597750      1.461      1.940
REMARK  11 active torsions:
REMARK  status: ('A' for Active; 'I' for Inactive)
REMARK    1  A    between atoms: C1_4  and  O1_6 
REMARK    2  A    between atoms: O1_6  and  N3_7 
REMARK    3  A    between atoms: C2_9  and  O2_11 
REMARK    4  A    between atoms: O2_11  and  C3_12 
REMARK    5  A    between atoms: C3_12  and  C4_13 
REMARK    6  A    between atoms: C4_13  and  O3_14 
REMARK    7  A    between atoms: C4_13  and  C5_16 
REMARK    8  A    between atoms: C5_16  and  O4_17 
REMARK    9  A    between atoms: O4_17  and  C6_18 
REMARK   10  A    between atoms: C6_18  and  C7_19 
REMARK   11  A    between atoms: C7_19  and  N5_20 
ROOT
HETATM    1  C4  UNL     1      28.331  52.869 250.412  1.00  0.00     0.166 C 
ENDROOT
BRANCH   1   2
HETATM    2  C3  UNL     1      27.113  52.110 249.870  1.00  0.00     0.212 C 
BRANCH   2   3
HETATM    3  O2  UNL     1      27.575  50.802 249.583  1.00  0.00    -0.321 OA
BRANCH   3   4
HETATM    4  C2  UNL     1      27.978  50.568 248.275  1.00  0.00     0.252 C 
HETATM    5  N3  UNL     1      27.699  51.496 247.427  1.00  0.00    -0.224 N 
ATOM      6  H3  UNL     1      27.212  52.342 247.721  1.00  0.00     0.198 HD
HETATM    7  N4  UNL     1      28.656  49.385 247.865  1.00  0.00    -0.054 NA
BRANCH   5   8
HETATM    8  O1  UNL     1      28.073  51.320 246.117  1.00  0.00    -0.202 OA
BRANCH   8   9
HETATM    9  C1  UNL     1      28.993  52.217 245.587  1.00  0.00     0.249 C 
HETATM   10  N1  UNL     1      29.825  52.788 246.388  1.00  0.00    -0.366 N 
ATOM     11  H12 UNL     1      30.500  53.447 245.999  1.00  0.00     0.159 HD
ATOM     12  H11 UNL     1      29.780  52.562 247.381  1.00  0.00     0.159 HD
HETATM   13  N2  UNL     1      29.056  52.532 244.203  1.00  0.00    -0.055 NA
ENDBRANCH   8   9
ENDBRANCH   5   8
ENDBRANCH   3   4
ENDBRANCH   2   3
ENDBRANCH   1   2
BRANCH   1  14
HETATM   14  O3  UNL     1      28.932  53.569 249.392  1.00  0.00    -0.391 OA
ATOM     15  H3  UNL     1      29.244  52.964 248.728  1.00  0.00     0.210 HD
ENDBRANCH   1  14
BRANCH   1  16
HETATM   16  C5  UNL     1      27.903  53.741 251.589  1.00  0.00     0.201 C 
BRANCH  16  17
HETATM   17  O4  UNL     1      27.011  53.261 252.410  1.00  0.00    -0.387 OA
BRANCH  17  18
HETATM   18  C6  UNL     1      27.125  52.661 253.569  1.00  0.00     0.187 C 
BRANCH  18  19
HETATM   19  C7  UNL     1      27.731  51.344 253.804  1.00  0.00     0.154 C 
BRANCH  19  20
HETATM   20  N5  UNL     1      28.957  51.212 254.512  1.00  0.00    -0.364 N 
HETATM   21  C8  UNL     1      29.233  50.117 255.281  1.00  0.00     0.090 A 
HETATM   22  C9  UNL     1      30.430  49.944 255.921  1.00  0.00     0.017 A 
HETATM   23  C10 UNL     1      31.416  50.894 255.803  1.00  0.00     0.003 A 
HETATM   24  C11 UNL     1      31.160  52.008 255.032  1.00  0.00     0.017 A 
HETATM   25  C12 UNL     1      29.948  52.127 254.418  1.00  0.00     0.090 A 
ENDBRANCH  19  20
ENDBRANCH  18  19
ENDBRANCH  17  18
ENDBRANCH  16  17
ENDBRANCH   1  16
TORSDOF 11
ENDMDL
MODEL 3
REMARK VINA RESULT: -6.813747790      1.006      1.316
REMARK  11 active torsions:
REMARK  status: ('A' for Active; 'I' for Inactive)
REMARK    1  A    between atoms: C1_4  and  O1_6 
REMARK    2  A    between atoms: O1_6  and  N3_7 
REMARK    3  A    between atoms: C2_9  and  O2_11 
REMARK    4  A    between atoms: O2_11  and  C3_12 
REMARK    5  A    between atoms: C3_12  and  C4_13 
REMARK    6  A    between atoms: C4_13  and  O3_14 
REMARK    7  A    between atoms: C4_13  and  C5_16 
REMARK    8  A    between atoms: C5_16  and  O4_17 
REMARK    9  A    between atoms: O4_17  and  C6_18 
REMARK   10  A    between atoms: C6_18  and  C7_19 
REMARK   11  A    between atoms: C7_19  and  N5_20 
ROOT
HETATM    1  C4  UNL     1      26.415  50.819 250.224  1.00  0.00     0.166 C 
ENDROOT
BRANCH   1   2
HETATM    2  C3  UNL     1      27.827  50.256 250.011  1.00  0.00     0.212 C 
BRANCH   2   3
HETATM    3  O2  UNL     1      28.683  51.384 249.955  1.00  0.00    -0.321 OA
BRANCH   3   4
HETATM    4  C2  UNL     1      29.399  51.552 248.777  1.00  0.00     0.252 C 
HETATM    5  N3  UNL     1      29.065  52.565 248.056  1.00  0.00    -0.224 N 
ATOM      6  H3  UNL     1      28.317  53.192 248.352  1.00  0.00     0.198 HD
HETATM    7  N4  UNL     1      30.441  50.675 248.363  1.00  0.00    -0.054 NA
BRANCH   5   8
HETATM    8  O1  UNL     1      29.738  52.782 246.879  1.00  0.00    -0.202 OA
BRANCH   8   9
HETATM    9  C1  UNL     1      29.077  52.475 245.696  1.00  0.00     0.249 C 
HETATM   10  N1  UNL     1      29.608  52.844 244.582  1.00  0.00    -0.366 N 
ATOM     11  H12 UNL     1      29.123  52.619 243.714  1.00  0.00     0.159 HD
ATOM     12  H11 UNL     1      30.494  53.349 244.608  1.00  0.00     0.159 HD
HETATM   13  N2  UNL     1      27.842  51.771 245.661  1.00  0.00    -0.055 NA
ENDBRANCH   8   9
ENDBRANCH   5   8
ENDBRANCH   3   4
ENDBRANCH   2   3
ENDBRANCH   1   2
BRANCH   1  14
HETATM   14  O3  UNL     1      25.581  49.821 250.669  1.00  0.00    -0.391 OA
ATOM     15  H3  UNL     1      24.712  50.174 250.823  1.00  0.00     0.210 HD
ENDBRANCH   1  14
BRANCH   1  16
HETATM   16  C5  UNL     1      26.486  52.025 251.156  1.00  0.00     0.201 C 
BRANCH  16  17
HETATM   17  O4  UNL     1      26.320  51.820 252.433  1.00  0.00    -0.387 OA
BRANCH  17  18
HETATM   18  C6  UNL     1      27.143  51.924 253.447  1.00  0.00     0.187 C 
BRANCH  18  19
HETATM   19  C7  UNL     1      28.227  50.990 253.781  1.00  0.00     0.154 C 
BRANCH  19  20
HETATM   20  N5  UNL     1      28.561  50.703 255.133  1.00  0.00    -0.364 N 
HETATM   21  C8  UNL     1      29.624  49.909 255.461  1.00  0.00     0.090 A 
HETATM   22  C9  UNL     1      29.998  49.671 256.755  1.00  0.00     0.017 A 
HETATM   23  C10 UNL     1      29.296  50.240 257.790  1.00  0.00     0.003 A 
HETATM   24  C11 UNL     1      28.219  51.045 257.484  1.00  0.00     0.017 A 
HETATM   25  C12 UNL     1      27.892  51.246 256.174  1.00  0.00     0.090 A 
ENDBRANCH  19  20
ENDBRANCH  18  19
ENDBRANCH  17  18
ENDBRANCH  16  17
ENDBRANCH   1  16
TORSDOF 11
ENDMDL
MODEL 4
REMARK VINA RESULT: -6.731217794      1.095      1.255
REMARK  11 active torsions:
REMARK  status: ('A' for Active; 'I' for Inactive)
REMARK    1  A    between atoms: C1_4  and  O1_6 
REMARK    2  A    between atoms: O1_6  and  N3_7 
REMARK    3  A    between atoms: C2_9  and  O2_11 
REMARK    4  A    between atoms: O2_11  and  C3_12 
REMARK    5  A    between atoms: C3_12  and  C4_13 
REMARK    6  A    between atoms: C4_13  and  O3_14 
REMARK    7  A    between atoms: C4_13  and  C5_16 
REMARK    8  A    between atoms: C5_16  and  O4_17 
REMARK    9  A    between atoms: O4_17  and  C6_18 
REMARK   10  A    between atoms: C6_18  and  C7_19 
REMARK   11  A    between atoms: C7_19  and  N5_20 
ROOT
HETATM    1  C4  UNL     1      26.459  50.784 250.255  1.00  0.00     0.166 C 
ENDROOT
BRANCH   1   2
HETATM    2  C3  UNL     1      27.786  50.127 249.849  1.00  0.00     0.212 C 
BRANCH   2   3
HETATM    3  O2  UNL     1      28.746  51.168 249.860  1.00  0.00    -0.321 OA
BRANCH   3   4
HETATM    4  C2  UNL     1      29.430  51.384 248.671  1.00  0.00     0.252 C 
HETATM    5  N3  UNL     1      29.110  52.451 248.025  1.00  0.00    -0.224 N 
ATOM      6  H3  UNL     1      28.396  53.084 248.384  1.00  0.00     0.198 HD
HETATM    7  N4  UNL     1      30.426  50.499 248.169  1.00  0.00    -0.054 NA
BRANCH   5   8
HETATM    8  O1  UNL     1      29.753  52.718 246.841  1.00  0.00    -0.202 OA
BRANCH   8   9
HETATM    9  C1  UNL     1      29.066  52.450 245.664  1.00  0.00     0.249 C 
HETATM   10  N1  UNL     1      29.622  52.758 244.544  1.00  0.00    -0.366 N 
ATOM     11  H12 UNL     1      29.117  52.562 243.680  1.00  0.00     0.159 HD
ATOM     12  H11 UNL     1      30.547  53.187 244.561  1.00  0.00     0.159 HD
HETATM   13  N2  UNL     1      27.776  51.852 245.640  1.00  0.00    -0.055 NA
ENDBRANCH   8   9
ENDBRANCH   5   8
ENDBRANCH   3   4
ENDBRANCH   2   3
ENDBRANCH   1   2
BRANCH   1  14
HETATM   14  O3  UNL     1      25.569  49.819 250.663  1.00  0.00    -0.391 OA
ATOM     15  H3  UNL     1      24.707  50.203 250.771  1.00  0.00     0.210 HD
ENDBRANCH   1  14
BRANCH   1  16
HETATM   16  C5  UNL     1      26.727  51.860 251.303  1.00  0.00     0.201 C 
BRANCH  16  17
HETATM   17  O4  UNL     1      26.745  51.499 252.557  1.00  0.00    -0.387 OA
BRANCH  17  18
HETATM   18  C6  UNL     1      27.734  51.304 253.394  1.00  0.00     0.187 C 
BRANCH  18  19
HETATM   19  C7  UNL     1      27.789  51.761 254.788  1.00  0.00     0.154 C 
BRANCH  19  20
HETATM   20  N5  UNL     1      28.593  51.091 255.752  1.00  0.00    -0.364 N 
HETATM   21  C8  UNL     1      28.211  50.979 257.058  1.00  0.00     0.090 A 
HETATM   22  C9  UNL     1      28.940  50.286 257.986  1.00  0.00     0.017 A 
HETATM   23  C10 UNL     1      30.109  49.666 257.618  1.00  0.00     0.003 A 
HETATM   24  C11 UNL     1      30.516  49.766 256.304  1.00  0.00     0.017 A 
HETATM   25  C12 UNL     1      29.748  50.470 255.423  1.00  0.00     0.090 A 
ENDBRANCH  19  20
ENDBRANCH  18  19
ENDBRANCH  17  18
ENDBRANCH  16  17
ENDBRANCH   1  16
TORSDOF 11
ENDMDL
MODEL 5
REMARK VINA RESULT: -6.730938956      1.675      2.247
REMARK  11 active torsions:
REMARK  status: ('A' for Active; 'I' for Inactive)
REMARK    1  A    between atoms: C1_4  and  O1_6 
REMARK    2  A    between atoms: O1_6  and  N3_7 
REMARK    3  A    between atoms: C2_9  and  O2_11 
REMARK    4  A    between atoms: O2_11  and  C3_12 
REMARK    5  A    between atoms: C3_12  and  C4_13 
REMARK    6  A    between atoms: C4_13  and  O3_14 
REMARK    7  A    between atoms: C4_13  and  C5_16 
REMARK    8  A    between atoms: C5_16  and  O4_17 
REMARK    9  A    between atoms: O4_17  and  C6_18 
REMARK   10  A    between atoms: C6_18  and  C7_19 
REMARK   11  A    between atoms: C7_19  and  N5_20 
ROOT
HETATM    1  C4  UNL     1      28.322  52.778 250.553  1.00  0.00     0.166 C 
ENDROOT
BRANCH   1   2
HETATM    2  C3  UNL     1      27.100  52.051 249.975  1.00  0.00     0.212 C 
BRANCH   2   3
HETATM    3  O2  UNL     1      27.545  50.741 249.670  1.00  0.00    -0.321 OA
BRANCH   3   4
HETATM    4  C2  UNL     1      27.954  50.523 248.361  1.00  0.00     0.252 C 
HETATM    5  N3  UNL     1      27.696  51.469 247.526  1.00  0.00    -0.224 N 
ATOM      6  H3  UNL     1      27.219  52.317 247.831  1.00  0.00     0.198 HD
HETATM    7  N4  UNL     1      28.618  49.337 247.936  1.00  0.00    -0.054 NA
BRANCH   5   8
HETATM    8  O1  UNL     1      28.077  51.310 246.217  1.00  0.00    -0.202 OA
BRANCH   8   9
HETATM    9  C1  UNL     1      29.004  52.209 245.705  1.00  0.00     0.249 C 
HETATM   10  N1  UNL     1      29.825  52.776 246.520  1.00  0.00    -0.366 N 
ATOM     11  H12 UNL     1      30.505  53.436 246.144  1.00  0.00     0.159 HD
ATOM     12  H11 UNL     1      29.766  52.544 247.512  1.00  0.00     0.159 HD
HETATM   13  N2  UNL     1      29.087  52.532 244.323  1.00  0.00    -0.055 NA
ENDBRANCH   8   9
ENDBRANCH   5   8
ENDBRANCH   3   4
ENDBRANCH   2   3
ENDBRANCH   1   2
BRANCH   1  14
HETATM   14  O3  UNL     1      28.888  53.575 249.586  1.00  0.00    -0.391 OA
ATOM     15  H3  UNL     1      29.828  53.619 249.717  1.00  0.00     0.210 HD
ENDBRANCH   1  14
BRANCH   1  16
HETATM   16  C5  UNL     1      27.912  53.534 251.813  1.00  0.00     0.201 C 
BRANCH  16  17
HETATM   17  O4  UNL     1      27.026  52.983 252.596  1.00  0.00    -0.387 OA
BRANCH  17  18
HETATM   18  C6  UNL     1      27.150  52.259 253.681  1.00  0.00     0.187 C 
BRANCH  18  19
HETATM   19  C7  UNL     1      28.153  51.211 253.911  1.00  0.00     0.154 C 
BRANCH  19  20
HETATM   20  N5  UNL     1      28.574  50.871 255.226  1.00  0.00    -0.364 N 
HETATM   21  C8  UNL     1      27.889  51.283 256.333  1.00  0.00     0.090 A 
HETATM   22  C9  UNL     1      28.242  50.915 257.603  1.00  0.00     0.017 A 
HETATM   23  C10 UNL     1      29.327  50.096 257.804  1.00  0.00     0.003 A 
HETATM   24  C11 UNL     1      30.035  49.667 256.701  1.00  0.00     0.017 A 
HETATM   25  C12 UNL     1      29.636  50.067 255.459  1.00  0.00     0.090 A 
ENDBRANCH  19  20
ENDBRANCH  18  19
ENDBRANCH  17  18
ENDBRANCH  16  17
ENDBRANCH   1  16
TORSDOF 11
ENDMDL
