MODEL 1
REMARK VINA RESULT: -7.150180811      0.000      0.000
REMARK  9 active torsions:
REMARK  status: ('A' for Active; 'I' for Inactive)
REMARK    1  A    between atoms: C1_2  and  C2_4 
REMARK    2  A    between atoms: C2_4  and  N2_5 
REMARK    3  A    between atoms: C2_4  and  N3_9 
REMARK    4  A    between atoms: N3_9  and  C3_11 
REMARK    5  A    between atoms: C3_11  and  C4_12 
REMARK    6  A    between atoms: C3_11  and  C12_22 
REMARK    7  A    between atoms: C4_12  and  O2_13 
REMARK    8  A    between atoms: O2_13  and  C5_14 
REMARK    9  A    between atoms: C5_14  and  C6_16 
ROOT
HETATM    1  C3  UNL     1      27.715  52.187 249.134  1.00  0.00     0.205 C 
ENDROOT
BRANCH   1   2
HETATM    2  N3  UNL     1      28.081  52.789 247.912  1.00  0.00    -0.373 N 
ATOM      3  H3  UNL     1      27.586  53.620 247.588  1.00  0.00     0.156 HD
BRANCH   2   4
HETATM    4  C2  UNL     1      29.124  52.250 247.138  1.00  0.00     0.368 C 
BRANCH   4   5
HETATM    5  C1  UNL     1      28.656  52.262 245.704  1.00  0.00     0.281 C 
HETATM    6  N1  UNL     1      29.483  52.930 244.767  1.00  0.00    -0.059 NA
HETATM    7  O1  UNL     1      27.602  51.727 245.306  1.00  0.00    -0.273 OA
ENDBRANCH   4   5
BRANCH   4   8
HETATM    8  N2  UNL     1      30.305  53.119 247.133  1.00  0.00    -0.050 N 
ATOM      9  H23 UNL     1      31.194  52.619 247.168  1.00  0.00     0.277 HD
ATOM     10  H22 UNL     1      30.477  53.588 246.244  1.00  0.00     0.277 HD
ATOM     11  H21 UNL     1      30.149  53.752 247.918  1.00  0.00     0.277 HD
ENDBRANCH   4   8
ENDBRANCH   2   4
ENDBRANCH   1   2
BRANCH   1  12
HETATM   12  C4  UNL     1      28.480  52.828 250.278  1.00  0.00     0.214 C 
BRANCH  12  13
HETATM   13  O2  UNL     1      27.726  53.135 251.393  1.00  0.00    -0.315 OA
BRANCH  13  14
HETATM   14  C5  UNL     1      27.421  52.377 252.487  1.00  0.00     0.293 C 
HETATM   15  O3  UNL     1      26.223  52.043 252.638  1.00  0.00    -0.259 OA
BRANCH  14  16
HETATM   16  C6  UNL     1      28.389  51.942 253.476  1.00  0.00     0.039 A 
HETATM   17  C7  UNL     1      28.187  50.751 254.125  1.00  0.00     0.017 A 
HETATM   18  C8  UNL     1      29.060  50.267 255.076  1.00  0.00     0.001 A 
HETATM   19  C9  UNL     1      30.180  50.986 255.401  1.00  0.00     0.000 A 
HETATM   20  C10 UNL     1      30.397  52.189 254.755  1.00  0.00     0.001 A 
HETATM   21  C11 UNL     1      29.520  52.660 253.809  1.00  0.00     0.017 A 
ENDBRANCH  14  16
ENDBRANCH  13  14
ENDBRANCH  12  13
ENDBRANCH   1  12
BRANCH   1  22
HETATM   22  C12 UNL     1      27.842  50.729 249.209  1.00  0.00     0.198 C 
HETATM   23  O4  UNL     1      27.040  49.971 248.625  1.00  0.00    -0.646 OA
HETATM   24  O5  UNL     1      28.865  50.158 249.936  1.00  0.00    -0.646 OA
ENDBRANCH   1  22
TORSDOF 9
ENDMDL
MODEL 2
REMARK VINA RESULT: -7.122604512      1.536      1.963
REMARK  9 active torsions:
REMARK  status: ('A' for Active; 'I' for Inactive)
REMARK    1  A    between atoms: C1_2  and  C2_4 
REMARK    2  A    between atoms: C2_4  and  N2_5 
REMARK    3  A    between atoms: C2_4  and  N3_9 
REMARK    4  A    between atoms: N3_9  and  C3_11 
REMARK    5  A    between atoms: C3_11  and  C4_12 
REMARK    6  A    between atoms: C3_11  and  C12_22 
REMARK    7  A    between atoms: C4_12  and  O2_13 
REMARK    8  A    between atoms: O2_13  and  C5_14 
REMARK    9  A    between atoms: C5_14  and  C6_16 
ROOT
HETATM    1  C3  UNL     1      26.914  51.367 249.893  1.00  0.00     0.205 C 
ENDROOT
BRANCH   1   2
HETATM    2  N3  UNL     1      27.464  51.884 248.701  1.00  0.00    -0.373 N 
ATOM      3  H3  UNL     1      26.849  52.261 247.980  1.00  0.00     0.156 HD
BRANCH   2   4
HETATM    4  C2  UNL     1      28.857  51.883 248.501  1.00  0.00     0.368 C 
BRANCH   4   5
HETATM    5  C1  UNL     1      29.117  51.098 247.240  1.00  0.00     0.281 C 
HETATM    6  N1  UNL     1      28.164  51.226 246.200  1.00  0.00    -0.059 NA
HETATM    7  O1  UNL     1      30.106  50.357 247.067  1.00  0.00    -0.273 OA
ENDBRANCH   4   5
BRANCH   4   8
HETATM    8  N2  UNL     1      29.365  53.225 248.195  1.00  0.00    -0.050 N 
ATOM      9  H23 UNL     1      29.195  53.915 248.928  1.00  0.00     0.277 HD
ATOM     10  H22 UNL     1      30.382  53.300 248.206  1.00  0.00     0.277 HD
ATOM     11  H21 UNL     1      28.937  53.452 247.297  1.00  0.00     0.277 HD
ENDBRANCH   4   8
ENDBRANCH   2   4
ENDBRANCH   1   2
BRANCH   1  12
HETATM   12  C4  UNL     1      27.954  51.395 250.999  1.00  0.00     0.214 C 
BRANCH  12  13
HETATM   13  O2  UNL     1      27.766  52.367 251.960  1.00  0.00    -0.315 OA
BRANCH  13  14
HETATM   14  C5  UNL     1      27.687  52.261 253.319  1.00  0.00     0.293 C 
HETATM   15  O3  UNL     1      26.666  52.731 253.872  1.00  0.00    -0.259 OA
BRANCH  14  16
HETATM   16  C6  UNL     1      28.702  51.645 254.151  1.00  0.00     0.039 A 
HETATM   17  C7  UNL     1      29.874  52.320 254.379  1.00  0.00     0.017 A 
HETATM   18  C8  UNL     1      30.888  51.803 255.158  1.00  0.00     0.001 A 
HETATM   19  C9  UNL     1      30.742  50.571 255.737  1.00  0.00     0.000 A 
HETATM   20  C10 UNL     1      29.566  49.879 255.516  1.00  0.00     0.001 A 
HETATM   21  C11 UNL     1      28.563  50.404 254.738  1.00  0.00     0.017 A 
ENDBRANCH  14  16
ENDBRANCH  13  14
ENDBRANCH  12  13
ENDBRANCH   1  12
BRANCH   1  22
HETATM   22  C12 UNL     1      26.314  50.033 249.810  1.00  0.00     0.198 C 
HETATM   23  O4  UNL     1      25.191  49.789 250.299  1.00  0.00    -0.646 OA
HETATM   24  O5  UNL     1      26.988  49.006 249.183  1.00  0.00    -0.646 OA
ENDBRANCH   1  22
TORSDOF 9
ENDMDL
MODEL 3
REMARK VINA RESULT: -7.097450358      0.076      1.056
REMARK  9 active torsions:
REMARK  status: ('A' for Active; 'I' for Inactive)
REMARK    1  A    between atoms: C1_2  and  C2_4 
REMARK    2  A    between atoms: C2_4  and  N2_5 
REMARK    3  A    between atoms: C2_4  and  N3_9 
REMARK    4  A    between atoms: N3_9  and  C3_11 
REMARK    5  A    between atoms: C3_11  and  C4_12 
REMARK    6  A    between atoms: C3_11  and  C12_22 
REMARK    7  A    between atoms: C4_12  and  O2_13 
REMARK    8  A    between atoms: O2_13  and  C5_14 
REMARK    9  A    between atoms: C5_14  and  C6_16 
ROOT
HETATM    1  C3  UNL     1      27.755  52.124 249.166  1.00  0.00     0.205 C 
ENDROOT
BRANCH   1   2
HETATM    2  N3  UNL     1      28.113  52.751 247.954  1.00  0.00    -0.373 N 
ATOM      3  H3  UNL     1      27.619  53.591 247.651  1.00  0.00     0.156 HD
BRANCH   2   4
HETATM    4  C2  UNL     1      29.149  52.225 247.160  1.00  0.00     0.368 C 
BRANCH   4   5
HETATM    5  C1  UNL     1      28.663  52.252 245.733  1.00  0.00     0.281 C 
HETATM    6  N1  UNL     1      29.486  52.917 244.790  1.00  0.00    -0.059 NA
HETATM    7  O1  UNL     1      27.599  51.731 245.345  1.00  0.00    -0.273 OA
ENDBRANCH   4   5
BRANCH   4   8
HETATM    8  N2  UNL     1      30.327  53.100 247.151  1.00  0.00    -0.050 N 
ATOM      9  H23 UNL     1      30.773  53.211 248.062  1.00  0.00     0.277 HD
ATOM     10  H22 UNL     1      31.139  52.704 246.678  1.00  0.00     0.277 HD
ATOM     11  H21 UNL     1      29.985  53.970 246.742  1.00  0.00     0.277 HD
ENDBRANCH   4   8
ENDBRANCH   2   4
ENDBRANCH   1   2
BRANCH   1  12
HETATM   12  C4  UNL     1      28.548  52.722 250.314  1.00  0.00     0.214 C 
BRANCH  12  13
HETATM   13  O2  UNL     1      27.805  53.080 251.420  1.00  0.00    -0.315 OA
BRANCH  13  14
HETATM   14  C5  UNL     1      27.437  52.346 252.511  1.00  0.00     0.293 C 
HETATM   15  O3  UNL     1      26.218  52.092 252.646  1.00  0.00    -0.259 OA
BRANCH  14  16
HETATM   16  C6  UNL     1      28.362  51.851 253.513  1.00  0.00     0.039 A 
HETATM   17  C7  UNL     1      29.477  52.591 253.811  1.00  0.00     0.017 A 
HETATM   18  C8  UNL     1      30.403  52.190 254.750  1.00  0.00     0.001 A 
HETATM   19  C9  UNL     1      30.224  51.011 255.424  1.00  0.00     0.000 A 
HETATM   20  C10 UNL     1      29.104  50.254 255.134  1.00  0.00     0.001 A 
HETATM   21  C11 UNL     1      28.188  50.664 254.196  1.00  0.00     0.017 A 
ENDBRANCH  14  16
ENDBRANCH  13  14
ENDBRANCH  12  13
ENDBRANCH   1  12
BRANCH   1  22
HETATM   22  C12 UNL     1      27.857  50.663 249.201  1.00  0.00     0.198 C 
HETATM   23  O4  UNL     1      27.001  49.934 248.658  1.00  0.00    -0.646 OA
HETATM   24  O5  UNL     1      28.915  50.056 249.844  1.00  0.00    -0.646 OA
ENDBRANCH   1  22
TORSDOF 9
ENDMDL
MODEL 4
REMARK VINA RESULT: -7.075751311      1.200      1.742
REMARK  9 active torsions:
REMARK  status: ('A' for Active; 'I' for Inactive)
REMARK    1  A    between atoms: C1_2  and  C2_4 
REMARK    2  A    between atoms: C2_4  and  N2_5 
REMARK    3  A    between atoms: C2_4  and  N3_9 
REMARK    4  A    between atoms: N3_9  and  C3_11 
REMARK    5  A    between atoms: C3_11  and  C4_12 
REMARK    6  A    between atoms: C3_11  and  C12_22 
REMARK    7  A    between atoms: C4_12  and  O2_13 
REMARK    8  A    between atoms: O2_13  and  C5_14 
REMARK    9  A    between atoms: C5_14  and  C6_16 
ROOT
HETATM    1  C3  UNL     1      27.599  52.518 249.844  1.00  0.00     0.205 C 
ENDROOT
BRANCH   1   2
HETATM    2  N3  UNL     1      28.089  52.844 248.562  1.00  0.00    -0.373 N 
ATOM      3  H3  UNL     1      27.670  53.613 248.039  1.00  0.00     0.156 HD
BRANCH   2   4
HETATM    4  C2  UNL     1      29.153  52.114 248.001  1.00  0.00     0.368 C 
BRANCH   4   5
HETATM    5  C1  UNL     1      28.551  51.172 246.989  1.00  0.00     0.281 C 
HETATM    6  N1  UNL     1      28.036  51.753 245.803  1.00  0.00    -0.059 NA
HETATM    7  O1  UNL     1      28.483  49.936 247.135  1.00  0.00    -0.273 OA
ENDBRANCH   4   5
BRANCH   4   8
HETATM    8  N2  UNL     1      30.042  52.968 247.207  1.00  0.00    -0.050 N 
ATOM      9  H23 UNL     1      31.025  52.916 247.475  1.00  0.00     0.277 HD
ATOM     10  H22 UNL     1      30.174  52.657 246.245  1.00  0.00     0.277 HD
ATOM     11  H21 UNL     1      29.633  53.899 247.294  1.00  0.00     0.277 HD
ENDBRANCH   4   8
ENDBRANCH   2   4
ENDBRANCH   1   2
BRANCH   1  12
HETATM   12  C4  UNL     1      28.667  52.779 250.891  1.00  0.00     0.214 C 
BRANCH  12  13
HETATM   13  O2  UNL     1      28.208  53.287 252.088  1.00  0.00    -0.315 OA
BRANCH  13  14
HETATM   14  C5  UNL     1      27.826  52.644 253.231  1.00  0.00     0.293 C 
HETATM   15  O3  UNL     1      26.625  52.740 253.570  1.00  0.00    -0.259 OA
BRANCH  14  16
HETATM   16  C6  UNL     1      28.721  51.866 254.068  1.00  0.00     0.039 A 
HETATM   17  C7  UNL     1      29.931  52.404 254.426  1.00  0.00     0.017 A 
HETATM   18  C8  UNL     1      30.836  51.730 255.219  1.00  0.00     0.001 A 
HETATM   19  C9  UNL     1      30.537  50.476 255.679  1.00  0.00     0.000 A 
HETATM   20  C10 UNL     1      29.321  49.921 255.326  1.00  0.00     0.001 A 
HETATM   21  C11 UNL     1      28.427  50.602 254.536  1.00  0.00     0.017 A 
ENDBRANCH  14  16
ENDBRANCH  13  14
ENDBRANCH  12  13
ENDBRANCH   1  12
BRANCH   1  22
HETATM   22  C12 UNL     1      27.059  51.167 250.014  1.00  0.00     0.198 C 
HETATM   23  O4  UNL     1      27.684  50.285 250.639  1.00  0.00    -0.646 OA
HETATM   24  O5  UNL     1      25.832  50.837 249.476  1.00  0.00    -0.646 OA
ENDBRANCH   1  22
TORSDOF 9
ENDMDL
MODEL 5
REMARK VINA RESULT: -7.072405240      1.508      1.687
REMARK  9 active torsions:
REMARK  status: ('A' for Active; 'I' for Inactive)
REMARK    1  A    between atoms: C1_2  and  C2_4 
REMARK    2  A    between atoms: C2_4  and  N2_5 
REMARK    3  A    between atoms: C2_4  and  N3_9 
REMARK    4  A    between atoms: N3_9  and  C3_11 
REMARK    5  A    between atoms: C3_11  and  C4_12 
REMARK    6  A    between atoms: C3_11  and  C12_22 
REMARK    7  A    between atoms: C4_12  and  O2_13 
REMARK    8  A    between atoms: O2_13  and  C5_14 
REMARK    9  A    between atoms: C5_14  and  C6_16 
ROOT
HETATM    1  C3  UNL     1      26.961  51.363 249.854  1.00  0.00     0.205 C 
ENDROOT
BRANCH   1   2
HETATM    2  N3  UNL     1      27.501  51.896 248.665  1.00  0.00    -0.373 N 
ATOM      3  H3  UNL     1      26.880  52.297 247.961  1.00  0.00     0.156 HD
BRANCH   2   4
HETATM    4  C2  UNL     1      28.890  51.879 248.443  1.00  0.00     0.368 C 
BRANCH   4   5
HETATM    5  C1  UNL     1      29.121  51.090 247.179  1.00  0.00     0.281 C 
HETATM    6  N1  UNL     1      28.160  51.240 246.147  1.00  0.00    -0.059 NA
HETATM    7  O1  UNL     1      30.091  50.329 246.994  1.00  0.00    -0.273 OA
ENDBRANCH   4   5
BRANCH   4   8
HETATM    8  N2  UNL     1      29.409  53.215 248.128  1.00  0.00    -0.050 N 
ATOM      9  H23 UNL     1      29.933  53.650 248.887  1.00  0.00     0.277 HD
ATOM     10  H22 UNL     1      30.171  53.219 247.450  1.00  0.00     0.277 HD
ATOM     11  H21 UNL     1      28.583  53.737 247.835  1.00  0.00     0.277 HD
ENDBRANCH   4   8
ENDBRANCH   2   4
ENDBRANCH   1   2
BRANCH   1  12
HETATM   12  C4  UNL     1      28.009  51.382 250.953  1.00  0.00     0.214 C 
BRANCH  12  13
HETATM   13  O2  UNL     1      27.831  52.351 251.920  1.00  0.00    -0.315 OA
BRANCH  13  14
HETATM   14  C5  UNL     1      27.733  52.236 253.277  1.00  0.00     0.293 C 
HETATM   15  O3  UNL     1      26.679  52.647 253.813  1.00  0.00    -0.259 OA
BRANCH  14  16
HETATM   16  C6  UNL     1      28.767  51.674 254.126  1.00  0.00     0.039 A 
HETATM   17  C7  UNL     1      28.564  50.441 254.691  1.00  0.00     0.017 A 
HETATM   18  C8  UNL     1      29.498  49.838 255.508  1.00  0.00     0.001 A 
HETATM   19  C9  UNL     1      30.679  50.475 255.779  1.00  0.00     0.000 A 
HETATM   20  C10 UNL     1      30.897  51.719 255.216  1.00  0.00     0.001 A 
HETATM   21  C11 UNL     1      29.960  52.310 254.404  1.00  0.00     0.017 A 
ENDBRANCH  14  16
ENDBRANCH  13  14
ENDBRANCH  12  13
ENDBRANCH   1  12
BRANCH   1  22
HETATM   22  C12 UNL     1      26.366  50.028 249.760  1.00  0.00     0.198 C 
HETATM   23  O4  UNL     1      26.954  49.088 249.185  1.00  0.00    -0.646 OA
HETATM   24  O5  UNL     1      25.128  49.779 250.313  1.00  0.00    -0.646 OA
ENDBRANCH   1  22
TORSDOF 9
ENDMDL
