MODEL 1
REMARK VINA RESULT: -6.886424061      0.000      0.000
REMARK  8 active torsions:
REMARK  status: ('A' for Active; 'I' for Inactive)
REMARK    1  A    between atoms: C2_2  and  C3_3 
REMARK    2  A    between atoms: C3_3  and  O1_4 
REMARK    3  A    between atoms: O1_4  and  C4_5 
REMARK       I    between atoms: N2_12  and  C9_14 
REMARK       I    between atoms: C9_14  and  N3_16 
REMARK    4  A    between atoms: N3_16  and  C10_18 
REMARK    5  A    between atoms: C10_18  and  C11_19 
REMARK    6  A    between atoms: C10_18  and  C12_21 
REMARK    7  A    between atoms: C12_21  and  N4_22 
REMARK    8  A    between atoms: C12_21  and  O4_26 
ROOT
HETATM    1  C4  UNL     1      28.036  52.299 248.835  1.00  0.00     0.113 A 
HETATM    2  C5  UNL     1      27.469  51.052 248.616  1.00  0.00     0.042 A 
HETATM    3  C6  UNL     1      27.039  50.338 249.739  1.00  0.00     0.020 A 
HETATM    4  C7  UNL     1      27.190  50.887 250.991  1.00  0.00     0.090 A 
HETATM    5  N1  UNL     1      27.748  52.104 251.168  1.00  0.00    -0.350 N 
ATOM      6  H1  UNL     1      27.848  52.485 252.109  1.00  0.00     0.166 HD
HETATM    7  C8  UNL     1      28.174  52.821 250.104  1.00  0.00     0.143 A 
HETATM    8  N2  UNL     1      28.703  53.975 250.250  1.00  0.00    -0.292 N 
ATOM      9  H2  UNL     1      29.005  54.464 249.407  1.00  0.00     0.172 HD
HETATM   10  C9  UNL     1      28.903  54.621 251.480  1.00  0.00     0.322 C 
HETATM   11  O2  UNL     1      29.998  54.534 252.072  1.00  0.00    -0.247 OA
HETATM   12  N3  UNL     1      27.846  55.372 252.043  1.00  0.00    -0.328 N 
ATOM     13  H3  UNL     1      26.962  55.425 251.538  1.00  0.00     0.165 HD
ENDROOT
BRANCH  12  14
HETATM   14  C10 UNL     1      27.967  56.073 253.316  1.00  0.00     0.203 C 
BRANCH  14  15
HETATM   15  C11 UNL     1      27.195  57.329 253.274  1.00  0.00     0.260 C 
HETATM   16  O3  UNL     1      27.501  58.282 253.970  1.00  0.00    -0.304 OA
ENDBRANCH  14  15
BRANCH  14  17
HETATM   17  C12 UNL     1      27.473  55.130 254.393  1.00  0.00     0.346 C 
BRANCH  17  18
HETATM   18  N4  UNL     1      26.514  55.714 255.262  1.00  0.00    -0.051 N 
ATOM     19  H43 UNL     1      26.285  56.662 254.962  1.00  0.00     0.277 HD
ATOM     20  H42 UNL     1      25.601  55.273 255.141  1.00  0.00     0.277 HD
ATOM     21  H41 UNL     1      26.793  55.703 256.243  1.00  0.00     0.277 HD
ENDBRANCH  17  18
BRANCH  17  22
HETATM   22  O4  UNL     1      26.920  53.974 253.845  1.00  0.00    -0.368 OA
ATOM     23  H4  UNL     1      26.806  53.297 254.502  1.00  0.00     0.212 HD
ENDBRANCH  17  22
ENDBRANCH  14  17
ENDBRANCH  12  14
BRANCH   1  24
HETATM   24  O1  UNL     1      28.483  53.058 247.764  1.00  0.00    -0.344 OA
BRANCH  24  25
HETATM   25  C3  UNL     1      29.324  52.452 246.772  1.00  0.00     0.202 C 
BRANCH  25  26
HETATM   26  C2  UNL     1      28.610  52.346 245.475  1.00  0.00    -0.011 C 
HETATM   27  C1  UNL     1      29.216  52.671 244.348  1.00  0.00     0.009 C 
ENDBRANCH  25  26
ENDBRANCH  24  25
ENDBRANCH   1  24
TORSDOF 8
ENDMDL
MODEL 2
REMARK VINA RESULT: -6.631196573      2.437      6.644
REMARK  8 active torsions:
REMARK  status: ('A' for Active; 'I' for Inactive)
REMARK    1  A    between atoms: C2_2  and  C3_3 
REMARK    2  A    between atoms: C3_3  and  O1_4 
REMARK    3  A    between atoms: O1_4  and  C4_5 
REMARK       I    between atoms: N2_12  and  C9_14 
REMARK       I    between atoms: C9_14  and  N3_16 
REMARK    4  A    between atoms: N3_16  and  C10_18 
REMARK    5  A    between atoms: C10_18  and  C11_19 
REMARK    6  A    between atoms: C10_18  and  C12_21 
REMARK    7  A    between atoms: C12_21  and  N4_22 
REMARK    8  A    between atoms: C12_21  and  O4_26 
ROOT
HETATM    1  C4  UNL     1      27.388  52.996 254.005  1.00  0.00     0.113 A 
HETATM    2  C5  UNL     1      27.848  52.651 255.268  1.00  0.00     0.042 A 
HETATM    3  C6  UNL     1      28.376  51.365 255.428  1.00  0.00     0.020 A 
HETATM    4  C7  UNL     1      28.421  50.511 254.351  1.00  0.00     0.090 A 
HETATM    5  N1  UNL     1      27.963  50.880 253.135  1.00  0.00    -0.350 N 
ATOM      6  H1  UNL     1      28.008  50.224 252.355  1.00  0.00     0.166 HD
HETATM    7  C8  UNL     1      27.447  52.115 252.946  1.00  0.00     0.143 A 
HETATM    8  N2  UNL     1      27.009  52.484 251.803  1.00  0.00    -0.292 N 
ATOM      9  H2  UNL     1      26.631  53.428 251.726  1.00  0.00     0.172 HD
HETATM   10  C9  UNL     1      27.009  51.690 250.645  1.00  0.00     0.322 C 
HETATM   11  O2  UNL     1      25.996  51.035 250.325  1.00  0.00    -0.247 OA
HETATM   12  N3  UNL     1      28.172  51.640 249.844  1.00  0.00    -0.328 N 
ATOM     13  H3  UNL     1      28.985  52.186 250.129  1.00  0.00     0.165 HD
ENDROOT
BRANCH  12  14
HETATM   14  C10 UNL     1      28.258  50.842 248.626  1.00  0.00     0.203 C 
BRANCH  14  15
HETATM   15  C11 UNL     1      28.251  51.724 247.444  1.00  0.00     0.260 C 
HETATM   16  O3  UNL     1      27.984  51.293 246.336  1.00  0.00    -0.304 OA
ENDBRANCH  14  15
BRANCH  14  17
HETATM   17  C12 UNL     1      29.525  50.019 248.722  1.00  0.00     0.346 C 
BRANCH  17  18
HETATM   18  N4  UNL     1      29.329  48.745 249.319  1.00  0.00    -0.051 N 
ATOM     19  H43 UNL     1      28.515  48.755 249.932  1.00  0.00     0.277 HD
ATOM     20  H42 UNL     1      29.011  48.067 248.626  1.00  0.00     0.277 HD
ATOM     21  H41 UNL     1      30.151  48.397 249.815  1.00  0.00     0.277 HD
ENDBRANCH  17  18
BRANCH  17  22
HETATM   22  O4  UNL     1      30.109  49.831 247.471  1.00  0.00    -0.368 OA
ATOM     23  H4  UNL     1      30.780  49.160 247.497  1.00  0.00     0.212 HD
ENDBRANCH  17  22
ENDBRANCH  14  17
ENDBRANCH  12  14
BRANCH   1  24
HETATM   24  O1  UNL     1      26.852  54.255 253.780  1.00  0.00    -0.344 OA
BRANCH  24  25
HETATM   25  C3  UNL     1      27.706  55.406 253.839  1.00  0.00     0.202 C 
BRANCH  25  26
HETATM   26  C2  UNL     1      28.137  55.808 252.477  1.00  0.00    -0.011 C 
HETATM   27  C1  UNL     1      29.323  55.454 252.017  1.00  0.00     0.009 C 
ENDBRANCH  25  26
ENDBRANCH  24  25
ENDBRANCH   1  24
TORSDOF 8
ENDMDL
MODEL 3
REMARK VINA RESULT: -6.497133035      2.679      7.181
REMARK  8 active torsions:
REMARK  status: ('A' for Active; 'I' for Inactive)
REMARK    1  A    between atoms: C2_2  and  C3_3 
REMARK    2  A    between atoms: C3_3  and  O1_4 
REMARK    3  A    between atoms: O1_4  and  C4_5 
REMARK       I    between atoms: N2_12  and  C9_14 
REMARK       I    between atoms: C9_14  and  N3_16 
REMARK    4  A    between atoms: N3_16  and  C10_18 
REMARK    5  A    between atoms: C10_18  and  C11_19 
REMARK    6  A    between atoms: C10_18  and  C12_21 
REMARK    7  A    between atoms: C12_21  and  N4_22 
REMARK    8  A    between atoms: C12_21  and  O4_26 
ROOT
HETATM    1  C4  UNL     1      28.024  52.879 254.878  1.00  0.00     0.113 A 
HETATM    2  C5  UNL     1      28.654  52.222 255.926  1.00  0.00     0.042 A 
HETATM    3  C6  UNL     1      28.926  50.860 255.756  1.00  0.00     0.020 A 
HETATM    4  C7  UNL     1      28.568  50.237 254.583  1.00  0.00     0.090 A 
HETATM    5  N1  UNL     1      27.956  50.908 253.583  1.00  0.00    -0.350 N 
ATOM      6  H1  UNL     1      27.702  50.418 252.725  1.00  0.00     0.166 HD
HETATM    7  C8  UNL     1      27.678  52.224 253.714  1.00  0.00     0.143 A 
HETATM    8  N2  UNL     1      27.099  52.877 252.780  1.00  0.00    -0.292 N 
ATOM      9  H2  UNL     1      26.917  53.867 252.941  1.00  0.00     0.172 HD
HETATM   10  C9  UNL     1      26.695  52.335 251.549  1.00  0.00     0.322 C 
HETATM   11  O2  UNL     1      25.525  51.934 251.387  1.00  0.00    -0.247 OA
HETATM   12  N3  UNL     1      27.631  52.249 250.494  1.00  0.00    -0.328 N 
ATOM     13  H3  UNL     1      28.580  52.585 250.654  1.00  0.00     0.165 HD
ENDROOT
BRANCH  12  14
HETATM   14  C10 UNL     1      27.296  51.701 249.185  1.00  0.00     0.203 C 
BRANCH  14  15
HETATM   15  C11 UNL     1      27.963  52.482 248.126  1.00  0.00     0.260 C 
HETATM   16  O3  UNL     1      27.432  52.661 247.043  1.00  0.00    -0.304 OA
ENDBRANCH  14  15
BRANCH  14  17
HETATM   17  C12 UNL     1      27.726  50.249 249.187  1.00  0.00     0.346 C 
BRANCH  17  18
HETATM   18  N4  UNL     1      26.867  49.405 249.939  1.00  0.00    -0.051 N 
ATOM     19  H43 UNL     1      26.529  49.884 250.774  1.00  0.00     0.277 HD
ATOM     20  H42 UNL     1      25.980  49.267 249.453  1.00  0.00     0.277 HD
ATOM     21  H41 UNL     1      27.288  48.508 250.183  1.00  0.00     0.277 HD
ENDBRANCH  17  18
BRANCH  17  22
HETATM   22  O4  UNL     1      27.815  49.741 247.892  1.00  0.00    -0.368 OA
ATOM     23  H4  UNL     1      27.485  50.359 247.251  1.00  0.00     0.212 HD
ENDBRANCH  17  22
ENDBRANCH  14  17
ENDBRANCH  12  14
BRANCH   1  24
HETATM   24  O1  UNL     1      27.725  54.229 254.982  1.00  0.00    -0.344 OA
BRANCH  24  25
HETATM   25  C3  UNL     1      27.001  54.705 256.125  1.00  0.00     0.202 C 
BRANCH  25  26
HETATM   26  C2  UNL     1      25.592  54.240 256.082  1.00  0.00    -0.011 C 
HETATM   27  C1  UNL     1      24.955  53.931 257.197  1.00  0.00     0.009 C 
ENDBRANCH  25  26
ENDBRANCH  24  25
ENDBRANCH   1  24
TORSDOF 8
ENDMDL
MODEL 4
REMARK VINA RESULT: -6.456203509      2.512      6.494
REMARK  8 active torsions:
REMARK  status: ('A' for Active; 'I' for Inactive)
REMARK    1  A    between atoms: C2_2  and  C3_3 
REMARK    2  A    between atoms: C3_3  and  O1_4 
REMARK    3  A    between atoms: O1_4  and  C4_5 
REMARK       I    between atoms: N2_12  and  C9_14 
REMARK       I    between atoms: C9_14  and  N3_16 
REMARK    4  A    between atoms: N3_16  and  C10_18 
REMARK    5  A    between atoms: C10_18  and  C11_19 
REMARK    6  A    between atoms: C10_18  and  C12_21 
REMARK    7  A    between atoms: C12_21  and  N4_22 
REMARK    8  A    between atoms: C12_21  and  O4_26 
ROOT
HETATM    1  C4  UNL     1      28.294  52.898 254.778  1.00  0.00     0.113 A 
HETATM    2  C5  UNL     1      28.900  52.215 255.823  1.00  0.00     0.042 A 
HETATM    3  C6  UNL     1      29.063  50.834 255.676  1.00  0.00     0.020 A 
HETATM    4  C7  UNL     1      28.628  50.217 254.525  1.00  0.00     0.090 A 
HETATM    5  N1  UNL     1      28.041  50.914 253.528  1.00  0.00    -0.350 N 
ATOM      6  H1  UNL     1      27.727  50.428 252.687  1.00  0.00     0.166 HD
HETATM    7  C8  UNL     1      27.868  52.250 253.638  1.00  0.00     0.143 A 
HETATM    8  N2  UNL     1      27.316  52.926 252.705  1.00  0.00    -0.292 N 
ATOM      9  H2  UNL     1      27.213  53.931 252.850  1.00  0.00     0.172 HD
HETATM   10  C9  UNL     1      26.838  52.394 251.496  1.00  0.00     0.322 C 
HETATM   11  O2  UNL     1      25.637  52.080 251.373  1.00  0.00    -0.247 OA
HETATM   12  N3  UNL     1      27.735  52.217 250.420  1.00  0.00    -0.328 N 
ATOM     13  H3  UNL     1      28.712  52.482 250.549  1.00  0.00     0.165 HD
ENDROOT
BRANCH  12  14
HETATM   14  C10 UNL     1      27.325  51.671 249.132  1.00  0.00     0.203 C 
BRANCH  14  15
HETATM   15  C11 UNL     1      27.975  52.417 248.038  1.00  0.00     0.260 C 
HETATM   16  O3  UNL     1      27.400  52.618 246.982  1.00  0.00    -0.304 OA
ENDBRANCH  14  15
BRANCH  14  17
HETATM   17  C12 UNL     1      27.699  50.204 249.130  1.00  0.00     0.346 C 
BRANCH  17  18
HETATM   18  N4  UNL     1      26.831  49.396 249.910  1.00  0.00    -0.051 N 
ATOM     19  H43 UNL     1      26.310  48.749 249.318  1.00  0.00     0.277 HD
ATOM     20  H42 UNL     1      27.363  48.725 250.465  1.00  0.00     0.277 HD
ATOM     21  H41 UNL     1      26.197  49.933 250.503  1.00  0.00     0.277 HD
ENDBRANCH  17  18
BRANCH  17  22
HETATM   22  O4  UNL     1      27.734  49.686 247.836  1.00  0.00    -0.368 OA
ATOM     23  H4  UNL     1      27.674  50.374 247.184  1.00  0.00     0.212 HD
ENDBRANCH  17  22
ENDBRANCH  14  17
ENDBRANCH  12  14
BRANCH   1  24
HETATM   24  O1  UNL     1      28.102  54.269 254.861  1.00  0.00    -0.344 OA
BRANCH  24  25
HETATM   25  C3  UNL     1      29.236  55.145 254.799  1.00  0.00     0.202 C 
BRANCH  25  26
HETATM   26  C2  UNL     1      29.281  55.850 253.493  1.00  0.00    -0.011 C 
HETATM   27  C1  UNL     1      30.010  55.376 252.500  1.00  0.00     0.009 C 
ENDBRANCH  25  26
ENDBRANCH  24  25
ENDBRANCH   1  24
TORSDOF 8
ENDMDL
MODEL 5
REMARK VINA RESULT: -6.418144643      2.490      6.821
REMARK  8 active torsions:
REMARK  status: ('A' for Active; 'I' for Inactive)
REMARK    1  A    between atoms: C2_2  and  C3_3 
REMARK    2  A    between atoms: C3_3  and  O1_4 
REMARK    3  A    between atoms: O1_4  and  C4_5 
REMARK       I    between atoms: N2_12  and  C9_14 
REMARK       I    between atoms: C9_14  and  N3_16 
REMARK    4  A    between atoms: N3_16  and  C10_18 
REMARK    5  A    between atoms: C10_18  and  C11_19 
REMARK    6  A    between atoms: C10_18  and  C12_21 
REMARK    7  A    between atoms: C12_21  and  N4_22 
REMARK    8  A    between atoms: C12_21  and  O4_26 
ROOT
HETATM    1  C4  UNL     1      28.945  53.910 252.109  1.00  0.00     0.113 A 
HETATM    2  C5  UNL     1      28.793  53.444 253.408  1.00  0.00     0.042 A 
HETATM    3  C6  UNL     1      28.349  52.128 253.568  1.00  0.00     0.020 A 
HETATM    4  C7  UNL     1      28.086  51.360 252.457  1.00  0.00     0.090 A 
HETATM    5  N1  UNL     1      28.244  51.846 251.207  1.00  0.00    -0.350 N 
ATOM      6  H1  UNL     1      28.040  51.253 250.402  1.00  0.00     0.166 HD
HETATM    7  C8  UNL     1      28.672  53.114 251.017  1.00  0.00     0.143 A 
HETATM    8  N2  UNL     1      28.829  53.593 249.842  1.00  0.00    -0.292 N 
ATOM      9  H2  UNL     1      29.154  54.557 249.766  1.00  0.00     0.172 HD
HETATM   10  C9  UNL     1      28.589  52.895 248.648  1.00  0.00     0.322 C 
HETATM   11  O2  UNL     1      27.492  53.000 248.062  1.00  0.00    -0.247 OA
HETATM   12  N3  UNL     1      29.605  52.069 248.116  1.00  0.00    -0.328 N 
ATOM     13  H3  UNL     1      30.492  52.002 248.616  1.00  0.00     0.165 HD
ENDROOT
BRANCH  12  14
HETATM   14  C10 UNL     1      29.440  51.309 246.883  1.00  0.00     0.203 C 
BRANCH  14  15
HETATM   15  C11 UNL     1      28.591  50.128 247.128  1.00  0.00     0.260 C 
HETATM   16  O3  UNL     1      28.669  49.500 248.170  1.00  0.00    -0.304 OA
ENDBRANCH  14  15
BRANCH  14  17
HETATM   17  C12 UNL     1      28.838  52.248 245.858  1.00  0.00     0.346 C 
BRANCH  17  18
HETATM   18  N4  UNL     1      29.685  52.490 244.745  1.00  0.00    -0.051 N 
ATOM     19  H43 UNL     1      30.374  51.744 244.646  1.00  0.00     0.277 HD
ATOM     20  H42 UNL     1      29.175  52.367 243.869  1.00  0.00     0.277 HD
ATOM     21  H41 UNL     1      30.142  53.402 244.771  1.00  0.00     0.277 HD
ENDBRANCH  17  18
BRANCH  17  22
HETATM   22  O4  UNL     1      27.617  51.772 245.384  1.00  0.00    -0.368 OA
ATOM     23  H4  UNL     1      27.526  51.917 244.450  1.00  0.00     0.212 HD
ENDBRANCH  17  22
ENDBRANCH  14  17
ENDBRANCH  12  14
BRANCH   1  24
HETATM   24  O1  UNL     1      29.382  55.206 251.882  1.00  0.00    -0.344 OA
BRANCH  24  25
HETATM   25  C3  UNL     1      30.078  55.909 252.921  1.00  0.00     0.202 C 
BRANCH  25  26
HETATM   26  C2  UNL     1      31.503  56.107 252.554  1.00  0.00    -0.011 C 
HETATM   27  C1  UNL     1      31.936  57.293 252.168  1.00  0.00     0.009 C 
ENDBRANCH  25  26
ENDBRANCH  24  25
ENDBRANCH   1  24
TORSDOF 8
ENDMDL
