MODEL 1
REMARK VINA RESULT: -6.816305494      0.000      0.000
REMARK  9 active torsions:
REMARK  status: ('A' for Active; 'I' for Inactive)
REMARK    1  A    between atoms: N1_1  and  C1_5 
REMARK    2  A    between atoms: C1_5  and  C2_6 
REMARK    3  A    between atoms: C2_6  and  O1_7 
REMARK    4  A    between atoms: C2_6  and  C3_9 
REMARK    5  A    between atoms: C3_9  and  C4_10 
REMARK    6  A    between atoms: C3_9  and  N3_15 
REMARK    7  A    between atoms: C4_10  and  N2_11 
REMARK    8  A    between atoms: N2_11  and  C5_13 
REMARK    9  A    between atoms: N3_15  and  C6_17 
ROOT
HETATM    1  C3  UNL     1      27.389   1.405 289.976  1.00  0.00     0.125 C 
ENDROOT
BRANCH   1   2
HETATM    2  C2  UNL     1      27.471   2.914 290.318  1.00  0.00     0.167 C 
BRANCH   2   3
HETATM    3  C1  UNL     1      26.414   3.706 289.597  1.00  0.00     0.263 C 
BRANCH   3   4
HETATM    4  N1  UNL     1      25.123   3.048 289.714  1.00  0.00    -0.077 N 
ATOM      5  H13 UNL     1      25.128   2.122 289.284  1.00  0.00     0.274 HD
ATOM      6  H12 UNL     1      24.924   2.767 290.674  1.00  0.00     0.274 HD
ATOM      7  H11 UNL     1      24.386   3.641 289.331  1.00  0.00     0.274 HD
ENDBRANCH   3   4
ENDBRANCH   2   3
BRANCH   2   8
HETATM    8  O1  UNL     1      27.231   3.118 291.679  1.00  0.00    -0.392 OA
ATOM      9  H1  UNL     1      27.466   2.302 292.105  1.00  0.00     0.210 HD
ENDBRANCH   2   8
ENDBRANCH   1   2
BRANCH   1  10
HETATM   10  C4  UNL     1      27.399   0.744 291.305  1.00  0.00     0.149 C 
BRANCH  10  11
HETATM   11  N2  UNL     1      28.627   0.604 291.985  1.00  0.00    -0.366 N 
ATOM     12  H2  UNL     1      29.472   0.317 291.491  1.00  0.00     0.161 HD
BRANCH  11  13
HETATM   13  C5  UNL     1      28.652   0.878 293.390  1.00  0.00     0.348 C 
HETATM   14  O2  UNL     1      27.605   1.296 293.998  1.00  0.00    -0.284 OA
ENDBRANCH  11  13
ENDBRANCH  10  11
ENDBRANCH   1  10
BRANCH   1  15
HETATM   15  N3  UNL     1      28.427   1.101 289.067  1.00  0.00    -0.402 N 
ATOM     16  H3  UNL     1      29.382   1.385 289.288  1.00  0.00     0.154 HD
BRANCH  15  17
HETATM   17  C6  UNL     1      28.176   0.422 287.881  1.00  0.00     0.156 C 
HETATM   18  C7  UNL     1      26.981   1.076 287.171  1.00  0.00     0.072 C 
HETATM   19  C8  UNL     1      26.680   0.058 286.132  1.00  0.00    -0.042 A 
HETATM   20  C9  UNL     1      26.123   0.109 284.873  1.00  0.00     0.008 A 
HETATM   21  C13 UNL     1      27.084  -1.196 286.619  1.00  0.00     0.018 A 
HETATM   22  C10 UNL     1      25.971  -1.043 284.119  1.00  0.00     0.001 A 
HETATM   23  C11 UNL     1      26.371  -2.289 284.595  1.00  0.00     0.001 A 
HETATM   24  C12 UNL     1      26.936  -2.348 285.873  1.00  0.00     0.016 A 
HETATM   25  C14 UNL     1      27.633  -0.966 287.976  1.00  0.00     0.182 C 
HETATM   26  O3  UNL     1      27.589  -1.799 288.878  1.00  0.00    -0.290 OA
ENDBRANCH  15  17
ENDBRANCH   1  15
TORSDOF 9
ENDMDL
MODEL 2
REMARK VINA RESULT: -6.606284111      1.886      2.101
REMARK  9 active torsions:
REMARK  status: ('A' for Active; 'I' for Inactive)
REMARK    1  A    between atoms: N1_1  and  C1_5 
REMARK    2  A    between atoms: C1_5  and  C2_6 
REMARK    3  A    between atoms: C2_6  and  O1_7 
REMARK    4  A    between atoms: C2_6  and  C3_9 
REMARK    5  A    between atoms: C3_9  and  C4_10 
REMARK    6  A    between atoms: C3_9  and  N3_15 
REMARK    7  A    between atoms: C4_10  and  N2_11 
REMARK    8  A    between atoms: N2_11  and  C5_13 
REMARK    9  A    between atoms: N3_15  and  C6_17 
ROOT
HETATM    1  C3  UNL     1      27.693   1.434 291.392  1.00  0.00     0.125 C 
ENDROOT
BRANCH   1   2
HETATM    2  C2  UNL     1      27.913   2.967 291.422  1.00  0.00     0.167 C 
BRANCH   2   3
HETATM    3  C1  UNL     1      29.164   3.364 290.686  1.00  0.00     0.263 C 
BRANCH   3   4
HETATM    4  N1  UNL     1      28.877   4.431 289.741  1.00  0.00    -0.077 N 
ATOM      5  H13 UNL     1      27.897   4.711 289.771  1.00  0.00     0.274 HD
ATOM      6  H12 UNL     1      29.296   5.316 290.029  1.00  0.00     0.274 HD
ATOM      7  H11 UNL     1      29.168   4.161 288.802  1.00  0.00     0.274 HD
ENDBRANCH   3   4
ENDBRANCH   2   3
BRANCH   2   8
HETATM    8  O1  UNL     1      26.867   3.621 290.766  1.00  0.00    -0.392 OA
ATOM      9  H1  UNL     1      27.282   4.215 290.152  1.00  0.00     0.210 HD
ENDBRANCH   2   8
ENDBRANCH   1   2
BRANCH   1  10
HETATM   10  C4  UNL     1      29.048   0.881 291.645  1.00  0.00     0.149 C 
BRANCH  10  11
HETATM   11  N2  UNL     1      29.405   0.539 292.966  1.00  0.00    -0.366 N 
ATOM     12  H2  UNL     1      30.290   0.072 293.167  1.00  0.00     0.161 HD
BRANCH  11  13
HETATM   13  C5  UNL     1      28.489   0.866 294.017  1.00  0.00     0.348 C 
HETATM   14  O2  UNL     1      28.755   0.579 295.236  1.00  0.00    -0.284 OA
ENDBRANCH  11  13
ENDBRANCH  10  11
ENDBRANCH   1  10
BRANCH   1  15
HETATM   15  N3  UNL     1      27.050   1.102 290.179  1.00  0.00    -0.402 N 
ATOM     16  H3  UNL     1      26.044   0.930 290.179  1.00  0.00     0.154 HD
BRANCH  15  17
HETATM   17  C6  UNL     1      27.756   1.006 288.986  1.00  0.00     0.156 C 
HETATM   18  C7  UNL     1      26.988   1.751 287.884  1.00  0.00     0.072 C 
HETATM   19  C8  UNL     1      27.707   1.281 286.673  1.00  0.00    -0.042 A 
HETATM   20  C9  UNL     1      27.945   1.823 285.428  1.00  0.00     0.008 A 
HETATM   21  C13 UNL     1      28.230   0.006 286.941  1.00  0.00     0.018 A 
HETATM   22  C10 UNL     1      28.675   1.126 284.480  1.00  0.00     0.001 A 
HETATM   23  C11 UNL     1      29.196  -0.138 284.741  1.00  0.00     0.001 A 
HETATM   24  C12 UNL     1      28.959  -0.694 286.002  1.00  0.00     0.016 A 
HETATM   25  C14 UNL     1      27.828  -0.333 288.326  1.00  0.00     0.182 C 
HETATM   26  O3  UNL     1      27.629  -1.481 288.717  1.00  0.00    -0.290 OA
ENDBRANCH  15  17
ENDBRANCH   1  15
TORSDOF 9
ENDMDL
MODEL 3
REMARK VINA RESULT: -6.518651269      2.070      2.367
REMARK  9 active torsions:
REMARK  status: ('A' for Active; 'I' for Inactive)
REMARK    1  A    between atoms: N1_1  and  C1_5 
REMARK    2  A    between atoms: C1_5  and  C2_6 
REMARK    3  A    between atoms: C2_6  and  O1_7 
REMARK    4  A    between atoms: C2_6  and  C3_9 
REMARK    5  A    between atoms: C3_9  and  C4_10 
REMARK    6  A    between atoms: C3_9  and  N3_15 
REMARK    7  A    between atoms: C4_10  and  N2_11 
REMARK    8  A    between atoms: N2_11  and  C5_13 
REMARK    9  A    between atoms: N3_15  and  C6_17 
ROOT
HETATM    1  C3  UNL     1      27.278   1.098 289.941  1.00  0.00     0.125 C 
ENDROOT
BRANCH   1   2
HETATM    2  C2  UNL     1      26.786   2.565 289.853  1.00  0.00     0.167 C 
BRANCH   2   3
HETATM    3  C1  UNL     1      25.292   2.642 289.686  1.00  0.00     0.263 C 
BRANCH   3   4
HETATM    4  N1  UNL     1      24.948   3.617 288.664  1.00  0.00    -0.077 N 
ATOM      5  H13 UNL     1      24.500   4.442 289.062  1.00  0.00     0.274 HD
ATOM      6  H12 UNL     1      25.776   4.068 288.274  1.00  0.00     0.274 HD
ATOM      7  H11 UNL     1      24.374   3.185 287.940  1.00  0.00     0.274 HD
ENDBRANCH   3   4
ENDBRANCH   2   3
BRANCH   2   8
HETATM    8  O1  UNL     1      27.067   3.244 291.040  1.00  0.00    -0.392 OA
ATOM      9  H1  UNL     1      27.989   3.470 290.995  1.00  0.00     0.210 HD
ENDBRANCH   2   8
ENDBRANCH   1   2
BRANCH   1  10
HETATM   10  C4  UNL     1      28.632   1.218 290.538  1.00  0.00     0.149 C 
BRANCH  10  11
HETATM   11  N2  UNL     1      28.933   0.469 291.694  1.00  0.00    -0.366 N 
ATOM     12  H2  UNL     1      29.248  -0.499 291.626  1.00  0.00     0.161 HD
BRANCH  11  13
HETATM   13  C5  UNL     1      28.785   1.108 292.966  1.00  0.00     0.348 C 
HETATM   14  O2  UNL     1      27.660   1.603 293.327  1.00  0.00    -0.284 OA
ENDBRANCH  11  13
ENDBRANCH  10  11
ENDBRANCH   1  10
BRANCH   1  15
HETATM   15  N3  UNL     1      27.158   0.513 288.661  1.00  0.00    -0.402 N 
ATOM     16  H3  UNL     1      26.509  -0.262 288.526  1.00  0.00     0.154 HD
BRANCH  15  17
HETATM   17  C6  UNL     1      27.905   0.971 287.582  1.00  0.00     0.156 C 
HETATM   18  C7  UNL     1      26.957   1.576 286.535  1.00  0.00     0.072 C 
HETATM   19  C8  UNL     1      27.872   1.711 285.373  1.00  0.00    -0.042 A 
HETATM   20  C9  UNL     1      27.929   2.564 284.291  1.00  0.00     0.008 A 
HETATM   21  C13 UNL     1      28.862   0.721 285.478  1.00  0.00     0.018 A 
HETATM   22  C10 UNL     1      28.934   2.441 283.346  1.00  0.00     0.001 A 
HETATM   23  C11 UNL     1      29.919   1.463 283.446  1.00  0.00     0.001 A 
HETATM   24  C12 UNL     1      29.866   0.594 284.540  1.00  0.00     0.016 A 
HETATM   25  C14 UNL     1      28.563  -0.047 286.709  1.00  0.00     0.182 C 
HETATM   26  O3  UNL     1      28.839  -1.235 286.855  1.00  0.00    -0.290 OA
ENDBRANCH  15  17
ENDBRANCH   1  15
TORSDOF 9
ENDMDL
MODEL 4
REMARK VINA RESULT: -6.464788445      1.175      2.798
REMARK  9 active torsions:
REMARK  status: ('A' for Active; 'I' for Inactive)
REMARK    1  A    between atoms: N1_1  and  C1_5 
REMARK    2  A    between atoms: C1_5  and  C2_6 
REMARK    3  A    between atoms: C2_6  and  O1_7 
REMARK    4  A    between atoms: C2_6  and  C3_9 
REMARK    5  A    between atoms: C3_9  and  C4_10 
REMARK    6  A    between atoms: C3_9  and  N3_15 
REMARK    7  A    between atoms: C4_10  and  N2_11 
REMARK    8  A    between atoms: N2_11  and  C5_13 
REMARK    9  A    between atoms: N3_15  and  C6_17 
ROOT
HETATM    1  C3  UNL     1      28.183   1.558 290.361  1.00  0.00     0.125 C 
ENDROOT
BRANCH   1   2
HETATM    2  C2  UNL     1      27.772   1.510 291.854  1.00  0.00     0.167 C 
BRANCH   2   3
HETATM    3  C1  UNL     1      28.868   0.938 292.714  1.00  0.00     0.263 C 
BRANCH   3   4
HETATM    4  N1  UNL     1      29.873   0.291 291.887  1.00  0.00    -0.077 N 
ATOM      5  H13 UNL     1      29.454  -0.213 291.105  1.00  0.00     0.274 HD
ATOM      6  H12 UNL     1      30.420   0.967 291.354  1.00  0.00     0.274 HD
ATOM      7  H11 UNL     1      30.465  -0.314 292.456  1.00  0.00     0.274 HD
ENDBRANCH   3   4
ENDBRANCH   2   3
BRANCH   2   8
HETATM    8  O1  UNL     1      27.549   2.801 292.339  1.00  0.00    -0.392 OA
ATOM      9  H1  UNL     1      28.338   3.037 292.812  1.00  0.00     0.210 HD
ENDBRANCH   2   8
ENDBRANCH   1   2
BRANCH   1  10
HETATM   10  C4  UNL     1      28.231   3.011 290.058  1.00  0.00     0.149 C 
BRANCH  10  11
HETATM   11  N2  UNL     1      27.294   3.546 289.149  1.00  0.00    -0.366 N 
ATOM     12  H2  UNL     1      27.547   3.723 288.176  1.00  0.00     0.161 HD
BRANCH  11  13
HETATM   13  C5  UNL     1      25.978   3.834 289.632  1.00  0.00     0.348 C 
HETATM   14  O2  UNL     1      25.046   2.958 289.567  1.00  0.00    -0.284 OA
ENDBRANCH  11  13
ENDBRANCH  10  11
ENDBRANCH   1  10
BRANCH   1  15
HETATM   15  N3  UNL     1      27.285   0.749 289.629  1.00  0.00    -0.402 N 
ATOM     16  H3  UNL     1      26.412   0.453 290.065  1.00  0.00     0.154 HD
BRANCH  15  17
HETATM   17  C6  UNL     1      27.566   0.348 288.329  1.00  0.00     0.156 C 
HETATM   18  C7  UNL     1      26.366   0.683 287.429  1.00  0.00     0.072 C 
HETATM   19  C8  UNL     1      26.714  -0.078 286.202  1.00  0.00    -0.042 A 
HETATM   20  C9  UNL     1      26.436   0.084 284.862  1.00  0.00     0.008 A 
HETATM   21  C13 UNL     1      27.498  -1.181 286.578  1.00  0.00     0.018 A 
HETATM   22  C10 UNL     1      26.918  -0.815 283.925  1.00  0.00     0.001 A 
HETATM   23  C11 UNL     1      27.696  -1.909 284.292  1.00  0.00     0.001 A 
HETATM   24  C12 UNL     1      27.982  -2.080 285.651  1.00  0.00     0.016 A 
HETATM   25  C14 UNL     1      27.635  -1.118 288.053  1.00  0.00     0.182 C 
HETATM   26  O3  UNL     1      27.768  -2.109 288.767  1.00  0.00    -0.290 OA
ENDBRANCH  15  17
ENDBRANCH   1  15
TORSDOF 9
ENDMDL
MODEL 5
REMARK VINA RESULT: -6.454264534      1.204      1.770
REMARK  9 active torsions:
REMARK  status: ('A' for Active; 'I' for Inactive)
REMARK    1  A    between atoms: N1_1  and  C1_5 
REMARK    2  A    between atoms: C1_5  and  C2_6 
REMARK    3  A    between atoms: C2_6  and  O1_7 
REMARK    4  A    between atoms: C2_6  and  C3_9 
REMARK    5  A    between atoms: C3_9  and  C4_10 
REMARK    6  A    between atoms: C3_9  and  N3_15 
REMARK    7  A    between atoms: C4_10  and  N2_11 
REMARK    8  A    between atoms: N2_11  and  C5_13 
REMARK    9  A    between atoms: N3_15  and  C6_17 
ROOT
HETATM    1  C3  UNL     1      27.447   1.311 290.373  1.00  0.00     0.125 C 
ENDROOT
BRANCH   1   2
HETATM    2  C2  UNL     1      28.150   2.656 290.681  1.00  0.00     0.167 C 
BRANCH   2   3
HETATM    3  C1  UNL     1      27.965   3.649 289.565  1.00  0.00     0.263 C 
BRANCH   3   4
HETATM    4  N1  UNL     1      26.565   3.721 289.180  1.00  0.00    -0.077 N 
ATOM      5  H13 UNL     1      26.010   2.993 289.629  1.00  0.00     0.274 HD
ATOM      6  H12 UNL     1      26.101   4.535 289.582  1.00  0.00     0.274 HD
ATOM      7  H11 UNL     1      26.475   3.696 288.164  1.00  0.00     0.274 HD
ENDBRANCH   3   4
ENDBRANCH   2   3
BRANCH   2   8
HETATM    8  O1  UNL     1      27.584   3.253 291.811  1.00  0.00    -0.392 OA
ATOM      9  H1  UNL     1      27.027   3.948 291.482  1.00  0.00     0.210 HD
ENDBRANCH   2   8
ENDBRANCH   1   2
BRANCH   1  10
HETATM   10  C4  UNL     1      27.499   0.584 291.667  1.00  0.00     0.149 C 
BRANCH  10  11
HETATM   11  N2  UNL     1      28.700   0.597 292.405  1.00  0.00    -0.366 N 
ATOM     12  H2  UNL     1      29.599   0.441 291.949  1.00  0.00     0.161 HD
BRANCH  11  13
HETATM   13  C5  UNL     1      28.621   0.835 293.814  1.00  0.00     0.348 C 
HETATM   14  O2  UNL     1      27.566   1.337 294.339  1.00  0.00    -0.284 OA
ENDBRANCH  11  13
ENDBRANCH  10  11
ENDBRANCH   1  10
BRANCH   1  15
HETATM   15  N3  UNL     1      28.078   0.729 289.251  1.00  0.00    -0.402 N 
ATOM     16  H3  UNL     1      29.097   0.702 289.211  1.00  0.00     0.154 HD
BRANCH  15  17
HETATM   17  C6  UNL     1      27.342   0.192 288.202  1.00  0.00     0.156 C 
HETATM   18  C7  UNL     1      27.988  -1.130 287.759  1.00  0.00     0.072 C 
HETATM   19  C8  UNL     1      27.276  -1.374 286.478  1.00  0.00    -0.042 A 
HETATM   20  C9  UNL     1      26.938  -2.508 285.770  1.00  0.00     0.008 A 
HETATM   21  C13 UNL     1      26.900  -0.133 285.943  1.00  0.00     0.018 A 
HETATM   22  C10 UNL     1      26.250  -2.415 284.572  1.00  0.00     0.001 A 
HETATM   23  C11 UNL     1      25.873  -1.187 284.037  1.00  0.00     0.001 A 
HETATM   24  C12 UNL     1      26.213  -0.032 284.750  1.00  0.00     0.016 A 
HETATM   25  C14 UNL     1      27.386   0.900 286.888  1.00  0.00     0.182 C 
HETATM   26  O3  UNL     1      27.717   2.034 286.547  1.00  0.00    -0.290 OA
ENDBRANCH  15  17
ENDBRANCH   1  15
TORSDOF 9
ENDMDL
