MODEL 1
REMARK VINA RESULT: -6.933649489      0.000      0.000
REMARK  10 active torsions:
REMARK  status: ('A' for Active; 'I' for Inactive)
REMARK    1  A    between atoms: N1_1  and  C1_5 
REMARK    2  A    between atoms: C1_5  and  C2_6 
REMARK    3  A    between atoms: C2_6  and  O1_7 
REMARK    4  A    between atoms: O1_7  and  C3_8 
REMARK    5  A    between atoms: C3_8  and  C4_10 
REMARK    6  A    between atoms: C5_11  and  C6_12 
REMARK    7  A    between atoms: C10_16  and  C11_17 
REMARK    8  A    between atoms: C11_17  and  C12_18 
REMARK    9  A    between atoms: C12_18  and  N2_19 
REMARK   10  A    between atoms: C12_18  and  C13_23 
ROOT
HETATM    1  C6  UNL     1      26.611   1.700 287.722  1.00  0.00    -0.036 A 
HETATM    2  C7  UNL     1      25.299   2.019 288.070  1.00  0.00     0.011 A 
HETATM    3  C8  UNL     1      25.037   2.845 289.120  1.00  0.00     0.001 A 
HETATM    4  C9  UNL     1      26.102   3.378 289.855  1.00  0.00     0.007 A 
HETATM    5  C10 UNL     1      27.405   3.084 289.541  1.00  0.00    -0.055 A 
HETATM    6  C14 UNL     1      27.619   2.240 288.465  1.00  0.00     0.018 A 
ENDROOT
BRANCH   1   7
HETATM    7  C5  UNL     1      26.812   0.812 286.589  1.00  0.00     0.017 C 
HETATM    8  C4  UNL     1      25.986   0.762 285.576  1.00  0.00     0.083 C 
BRANCH   8   9
HETATM    9  C3  UNL     1      26.248  -0.160 284.458  1.00  0.00     0.282 C 
HETATM   10  O2  UNL     1      25.699  -1.264 284.436  1.00  0.00    -0.260 OA
BRANCH   9  11
HETATM   11  O1  UNL     1      27.088   0.196 283.460  1.00  0.00    -0.317 OA
BRANCH  11  12
HETATM   12  C2  UNL     1      27.361   1.386 282.852  1.00  0.00     0.206 C 
BRANCH  12  13
HETATM   13  C1  UNL     1      28.492   2.179 283.418  1.00  0.00     0.256 C 
BRANCH  13  14
HETATM   14  N1  UNL     1      28.130   3.260 284.246  1.00  0.00    -0.077 N 
ATOM     15  H13 UNL     1      28.138   4.127 283.709  1.00  0.00     0.274 HD
ATOM     16  H12 UNL     1      27.139   3.200 284.482  1.00  0.00     0.274 HD
ATOM     17  H11 UNL     1      28.682   3.373 285.097  1.00  0.00     0.274 HD
ENDBRANCH  13  14
ENDBRANCH  12  13
ENDBRANCH  11  12
ENDBRANCH   9  11
ENDBRANCH   8   9
ENDBRANCH   1   7
BRANCH   5  18
HETATM   18  C11 UNL     1      28.529   3.629 290.298  1.00  0.00     0.080 C 
BRANCH  18  19
HETATM   19  C12 UNL     1      29.169   2.676 291.264  1.00  0.00     0.276 C 
BRANCH  19  20
HETATM   20  N2  UNL     1      30.263   1.932 290.649  1.00  0.00    -0.067 N 
ATOM     21  H23 UNL     1      30.080   1.749 289.663  1.00  0.00     0.275 HD
ATOM     22  H22 UNL     1      31.097   2.510 290.553  1.00  0.00     0.275 HD
ATOM     23  H21 UNL     1      30.467   1.069 291.153  1.00  0.00     0.275 HD
ENDBRANCH  19  20
BRANCH  19  24
HETATM   24  C13 UNL     1      28.245   1.812 291.992  1.00  0.00     0.262 C 
HETATM   25  N3  UNL     1      27.981   0.477 291.599  1.00  0.00    -0.060 NA
HETATM   26  O3  UNL     1      27.651   2.250 293.008  1.00  0.00    -0.275 OA
ENDBRANCH  19  24
ENDBRANCH  18  19
ENDBRANCH   5  18
TORSDOF 10
ENDMDL
MODEL 2
REMARK VINA RESULT: -6.810801553      1.933      2.385
REMARK  10 active torsions:
REMARK  status: ('A' for Active; 'I' for Inactive)
REMARK    1  A    between atoms: N1_1  and  C1_5 
REMARK    2  A    between atoms: C1_5  and  C2_6 
REMARK    3  A    between atoms: C2_6  and  O1_7 
REMARK    4  A    between atoms: O1_7  and  C3_8 
REMARK    5  A    between atoms: C3_8  and  C4_10 
REMARK    6  A    between atoms: C5_11  and  C6_12 
REMARK    7  A    between atoms: C10_16  and  C11_17 
REMARK    8  A    between atoms: C11_17  and  C12_18 
REMARK    9  A    between atoms: C12_18  and  N2_19 
REMARK   10  A    between atoms: C12_18  and  C13_23 
ROOT
HETATM    1  C6  UNL     1      26.225   1.474 288.051  1.00  0.00    -0.036 A 
HETATM    2  C7  UNL     1      25.029   2.122 288.357  1.00  0.00     0.011 A 
HETATM    3  C8  UNL     1      25.010   3.184 289.209  1.00  0.00     0.001 A 
HETATM    4  C9  UNL     1      26.208   3.625 289.782  1.00  0.00     0.007 A 
HETATM    5  C10 UNL     1      27.403   3.010 289.503  1.00  0.00    -0.055 A 
HETATM    6  C14 UNL     1      27.370   1.935 288.631  1.00  0.00     0.018 A 
ENDROOT
BRANCH   1   7
HETATM    7  C5  UNL     1      26.167   0.348 287.133  1.00  0.00     0.017 C 
HETATM    8  C4  UNL     1      26.621   0.412 285.908  1.00  0.00     0.083 C 
BRANCH   8   9
HETATM    9  C3  UNL     1      26.531  -0.766 285.029  1.00  0.00     0.282 C 
HETATM   10  O2  UNL     1      25.576  -0.881 284.258  1.00  0.00    -0.260 OA
BRANCH   9  11
HETATM   11  O1  UNL     1      27.489  -1.720 285.063  1.00  0.00    -0.317 OA
BRANCH  11  12
HETATM   12  C2  UNL     1      27.823  -2.672 285.980  1.00  0.00     0.206 C 
BRANCH  12  13
HETATM   13  C1  UNL     1      28.901  -2.317 286.949  1.00  0.00     0.256 C 
BRANCH  13  14
HETATM   14  N1  UNL     1      28.477  -2.030 288.262  1.00  0.00    -0.077 N 
ATOM     15  H13 UNL     1      28.477  -2.883 288.822  1.00  0.00     0.274 HD
ATOM     16  H12 UNL     1      29.194  -1.493 288.749  1.00  0.00     0.274 HD
ATOM     17  H11 UNL     1      27.576  -1.560 288.345  1.00  0.00     0.274 HD
ENDBRANCH  13  14
ENDBRANCH  12  13
ENDBRANCH  11  12
ENDBRANCH   9  11
ENDBRANCH   8   9
ENDBRANCH   1   7
BRANCH   5  18
HETATM   18  C11 UNL     1      28.663   3.455 290.092  1.00  0.00     0.080 C 
BRANCH  18  19
HETATM   19  C12 UNL     1      29.173   2.609 291.221  1.00  0.00     0.276 C 
BRANCH  19  20
HETATM   20  N2  UNL     1      30.230   1.702 290.787  1.00  0.00    -0.067 N 
ATOM     21  H23 UNL     1      30.332   0.917 291.429  1.00  0.00     0.275 HD
ATOM     22  H22 UNL     1      29.957   1.189 289.949  1.00  0.00     0.275 HD
ATOM     23  H21 UNL     1      31.117   2.188 290.652  1.00  0.00     0.275 HD
ENDBRANCH  19  20
BRANCH  19  24
HETATM   24  C13 UNL     1      28.146   1.933 292.008  1.00  0.00     0.262 C 
HETATM   25  N3  UNL     1      27.724   0.609 291.733  1.00  0.00    -0.060 NA
HETATM   26  O3  UNL     1      27.603   2.531 292.969  1.00  0.00    -0.275 OA
ENDBRANCH  19  24
ENDBRANCH  18  19
ENDBRANCH   5  18
TORSDOF 10
ENDMDL
MODEL 3
REMARK VINA RESULT: -6.800152065      1.857      2.327
REMARK  10 active torsions:
REMARK  status: ('A' for Active; 'I' for Inactive)
REMARK    1  A    between atoms: N1_1  and  C1_5 
REMARK    2  A    between atoms: C1_5  and  C2_6 
REMARK    3  A    between atoms: C2_6  and  O1_7 
REMARK    4  A    between atoms: O1_7  and  C3_8 
REMARK    5  A    between atoms: C3_8  and  C4_10 
REMARK    6  A    between atoms: C5_11  and  C6_12 
REMARK    7  A    between atoms: C10_16  and  C11_17 
REMARK    8  A    between atoms: C11_17  and  C12_18 
REMARK    9  A    between atoms: C12_18  and  N2_19 
REMARK   10  A    between atoms: C12_18  and  C13_23 
ROOT
HETATM    1  C6  UNL     1      26.383   1.606 287.831  1.00  0.00    -0.036 A 
HETATM    2  C7  UNL     1      25.126   2.096 288.184  1.00  0.00     0.011 A 
HETATM    3  C8  UNL     1      24.994   3.034 289.162  1.00  0.00     0.001 A 
HETATM    4  C9  UNL     1      26.136   3.508 289.817  1.00  0.00     0.007 A 
HETATM    5  C10 UNL     1      27.387   3.047 289.494  1.00  0.00    -0.055 A 
HETATM    6  C14 UNL     1      27.470   2.094 288.494  1.00  0.00     0.018 A 
ENDROOT
BRANCH   1   7
HETATM    7  C5  UNL     1      26.446   0.605 286.778  1.00  0.00     0.017 C 
HETATM    8  C4  UNL     1      26.113   0.863 285.539  1.00  0.00     0.083 C 
BRANCH   8   9
HETATM    9  C3  UNL     1      26.200  -0.197 284.520  1.00  0.00     0.282 C 
HETATM   10  O2  UNL     1      27.303  -0.535 284.083  1.00  0.00    -0.260 OA
BRANCH   9  11
HETATM   11  O1  UNL     1      25.079  -0.798 284.060  1.00  0.00    -0.317 OA
BRANCH  11  12
HETATM   12  C2  UNL     1      24.572  -0.992 282.809  1.00  0.00     0.206 C 
BRANCH  12  13
HETATM   13  C1  UNL     1      23.095  -0.847 282.659  1.00  0.00     0.256 C 
BRANCH  13  14
HETATM   14  N1  UNL     1      22.665   0.066 281.674  1.00  0.00    -0.077 N 
ATOM     15  H13 UNL     1      21.664   0.237 281.772  1.00  0.00     0.274 HD
ATOM     16  H12 UNL     1      23.029   0.996 281.880  1.00  0.00     0.274 HD
ATOM     17  H11 UNL     1      22.882  -0.186 280.710  1.00  0.00     0.274 HD
ENDBRANCH  13  14
ENDBRANCH  12  13
ENDBRANCH  11  12
ENDBRANCH   9  11
ENDBRANCH   8   9
ENDBRANCH   1   7
BRANCH   5  18
HETATM   18  C11 UNL     1      28.591   3.530 290.167  1.00  0.00     0.080 C 
BRANCH  18  19
HETATM   19  C12 UNL     1      29.137   2.619 291.226  1.00  0.00     0.276 C 
BRANCH  19  20
HETATM   20  N2  UNL     1      30.181   1.742 290.704  1.00  0.00    -0.067 N 
ATOM     21  H23 UNL     1      30.811   2.246 290.081  1.00  0.00     0.275 HD
ATOM     22  H22 UNL     1      30.847   1.485 291.433  1.00  0.00     0.275 HD
ATOM     23  H21 UNL     1      29.792   0.917 290.249  1.00  0.00     0.275 HD
ENDBRANCH  19  20
BRANCH  19  24
HETATM   24  C13 UNL     1      28.136   1.893 292.003  1.00  0.00     0.262 C 
HETATM   25  N3  UNL     1      27.726   0.577 291.678  1.00  0.00    -0.060 NA
HETATM   26  O3  UNL     1      27.606   2.440 293.001  1.00  0.00    -0.275 OA
ENDBRANCH  19  24
ENDBRANCH  18  19
ENDBRANCH   5  18
TORSDOF 10
ENDMDL
MODEL 4
REMARK VINA RESULT: -6.764874338      1.483      1.551
REMARK  10 active torsions:
REMARK  status: ('A' for Active; 'I' for Inactive)
REMARK    1  A    between atoms: N1_1  and  C1_5 
REMARK    2  A    between atoms: C1_5  and  C2_6 
REMARK    3  A    between atoms: C2_6  and  O1_7 
REMARK    4  A    between atoms: O1_7  and  C3_8 
REMARK    5  A    between atoms: C3_8  and  C4_10 
REMARK    6  A    between atoms: C5_11  and  C6_12 
REMARK    7  A    between atoms: C10_16  and  C11_17 
REMARK    8  A    between atoms: C11_17  and  C12_18 
REMARK    9  A    between atoms: C12_18  and  N2_19 
REMARK   10  A    between atoms: C12_18  and  C13_23 
ROOT
HETATM    1  C6  UNL     1      26.382   1.571 287.834  1.00  0.00    -0.036 A 
HETATM    2  C7  UNL     1      25.125   2.072 288.169  1.00  0.00     0.011 A 
HETATM    3  C8  UNL     1      24.989   3.028 289.129  1.00  0.00     0.001 A 
HETATM    4  C9  UNL     1      26.128   3.509 289.784  1.00  0.00     0.007 A 
HETATM    5  C10 UNL     1      27.380   3.037 289.479  1.00  0.00    -0.055 A 
HETATM    6  C14 UNL     1      27.466   2.066 288.496  1.00  0.00     0.018 A 
ENDROOT
BRANCH   1   7
HETATM    7  C5  UNL     1      26.448   0.552 286.799  1.00  0.00     0.017 C 
HETATM    8  C4  UNL     1      26.313   0.827 285.528  1.00  0.00     0.083 C 
BRANCH   8   9
HETATM    9  C3  UNL     1      26.391  -0.253 284.529  1.00  0.00     0.282 C 
HETATM   10  O2  UNL     1      25.371  -0.868 284.215  1.00  0.00    -0.260 OA
BRANCH   9  11
HETATM   11  O1  UNL     1      27.575  -0.572 283.958  1.00  0.00    -0.317 OA
BRANCH  11  12
HETATM   12  C2  UNL     1      28.649  -1.297 284.383  1.00  0.00     0.206 C 
BRANCH  12  13
HETATM   13  C1  UNL     1      29.752  -0.533 285.036  1.00  0.00     0.256 C 
BRANCH  13  14
HETATM   14  N1  UNL     1      29.842  -0.661 286.437  1.00  0.00    -0.077 N 
ATOM     15  H13 UNL     1      29.049  -0.196 286.880  1.00  0.00     0.274 HD
ATOM     16  H12 UNL     1      29.662  -1.627 286.710  1.00  0.00     0.274 HD
ATOM     17  H11 UNL     1      30.713  -0.338 286.858  1.00  0.00     0.274 HD
ENDBRANCH  13  14
ENDBRANCH  12  13
ENDBRANCH  11  12
ENDBRANCH   9  11
ENDBRANCH   8   9
ENDBRANCH   1   7
BRANCH   5  18
HETATM   18  C11 UNL     1      28.580   3.526 290.153  1.00  0.00     0.080 C 
BRANCH  18  19
HETATM   19  C12 UNL     1      29.128   2.621 291.216  1.00  0.00     0.276 C 
BRANCH  19  20
HETATM   20  N2  UNL     1      30.174   1.745 290.699  1.00  0.00    -0.067 N 
ATOM     21  H23 UNL     1      30.342   1.913 289.707  1.00  0.00     0.275 HD
ATOM     22  H22 UNL     1      31.090   2.006 291.063  1.00  0.00     0.275 HD
ATOM     23  H21 UNL     1      29.970   0.762 290.878  1.00  0.00     0.275 HD
ENDBRANCH  19  20
BRANCH  19  24
HETATM   24  C13 UNL     1      28.128   1.897 291.995  1.00  0.00     0.262 C 
HETATM   25  N3  UNL     1      27.713   0.583 291.668  1.00  0.00    -0.060 NA
HETATM   26  O3  UNL     1      27.603   2.442 292.997  1.00  0.00    -0.275 OA
ENDBRANCH  19  24
ENDBRANCH  18  19
ENDBRANCH   5  18
TORSDOF 10
ENDMDL
MODEL 5
REMARK VINA RESULT: -6.745541091      0.986      1.002
REMARK  10 active torsions:
REMARK  status: ('A' for Active; 'I' for Inactive)
REMARK    1  A    between atoms: N1_1  and  C1_5 
REMARK    2  A    between atoms: C1_5  and  C2_6 
REMARK    3  A    between atoms: C2_6  and  O1_7 
REMARK    4  A    between atoms: O1_7  and  C3_8 
REMARK    5  A    between atoms: C3_8  and  C4_10 
REMARK    6  A    between atoms: C5_11  and  C6_12 
REMARK    7  A    between atoms: C10_16  and  C11_17 
REMARK    8  A    between atoms: C11_17  and  C12_18 
REMARK    9  A    between atoms: C12_18  and  N2_19 
REMARK   10  A    between atoms: C12_18  and  C13_23 
ROOT
HETATM    1  C6  UNL     1      26.573   1.735 287.611  1.00  0.00    -0.036 A 
HETATM    2  C7  UNL     1      25.264   2.016 288.001  1.00  0.00     0.011 A 
HETATM    3  C8  UNL     1      25.012   2.797 289.087  1.00  0.00     0.001 A 
HETATM    4  C9  UNL     1      26.084   3.322 289.817  1.00  0.00     0.007 A 
HETATM    5  C10 UNL     1      27.384   3.065 289.462  1.00  0.00    -0.055 A 
HETATM    6  C14 UNL     1      27.589   2.265 288.350  1.00  0.00     0.018 A 
ENDROOT
BRANCH   1   7
HETATM    7  C5  UNL     1      26.762   0.893 286.441  1.00  0.00     0.017 C 
HETATM    8  C4  UNL     1      26.911   1.382 285.237  1.00  0.00     0.083 C 
BRANCH   8   9
HETATM    9  C3  UNL     1      27.100   0.473 284.093  1.00  0.00     0.282 C 
HETATM   10  O2  UNL     1      26.778  -0.713 284.196  1.00  0.00    -0.260 OA
BRANCH   9  11
HETATM   11  O1  UNL     1      27.624   0.932 282.934  1.00  0.00    -0.317 OA
BRANCH  11  12
HETATM   12  C2  UNL     1      27.180   1.819 281.998  1.00  0.00     0.206 C 
BRANCH  12  13
HETATM   13  C1  UNL     1      28.217   2.434 281.118  1.00  0.00     0.256 C 
BRANCH  13  14
HETATM   14  N1  UNL     1      28.590   3.755 281.440  1.00  0.00    -0.077 N 
ATOM     15  H13 UNL     1      27.885   4.408 281.099  1.00  0.00     0.274 HD
ATOM     16  H12 UNL     1      28.506   3.904 282.445  1.00  0.00     0.274 HD
ATOM     17  H11 UNL     1      29.516   4.045 281.123  1.00  0.00     0.274 HD
ENDBRANCH  13  14
ENDBRANCH  12  13
ENDBRANCH  11  12
ENDBRANCH   9  11
ENDBRANCH   8   9
ENDBRANCH   1   7
BRANCH   5  18
HETATM   18  C11 UNL     1      28.517   3.602 290.213  1.00  0.00     0.080 C 
BRANCH  18  19
HETATM   19  C12 UNL     1      29.140   2.653 291.193  1.00  0.00     0.276 C 
BRANCH  19  20
HETATM   20  N2  UNL     1      30.221   1.881 290.591  1.00  0.00    -0.067 N 
ATOM     21  H23 UNL     1      31.129   2.163 290.961  1.00  0.00     0.275 HD
ATOM     22  H22 UNL     1      30.210   0.914 290.913  1.00  0.00     0.275 HD
ATOM     23  H21 UNL     1      30.205   1.933 289.573  1.00  0.00     0.275 HD
ENDBRANCH  19  20
BRANCH  19  24
HETATM   24  C13 UNL     1      28.200   1.815 291.934  1.00  0.00     0.262 C 
HETATM   25  N3  UNL     1      27.883   0.493 291.536  1.00  0.00    -0.060 NA
HETATM   26  O3  UNL     1      27.642   2.265 292.964  1.00  0.00    -0.275 OA
ENDBRANCH  19  24
ENDBRANCH  18  19
ENDBRANCH   5  18
TORSDOF 10
ENDMDL
