MODEL 1
REMARK VINA RESULT: -8.170109541      0.000      0.000
REMARK  7 active torsions:
REMARK  status: ('A' for Active; 'I' for Inactive)
REMARK    1  A    between atoms: C2_2  and  C3_3 
REMARK    2  A    between atoms: C2_2  and  C10_13 
REMARK    3  A    between atoms: C3_3  and  N1_4 
REMARK       I    between atoms: N1_4  and  C4_6 
REMARK    4  A    between atoms: C4_6  and  C5_8 
REMARK    5  A    between atoms: C5_8  and  C6_9 
REMARK    6  A    between atoms: C13_16  and  O2_17 
REMARK    7  A    between atoms: C15_20  and  N2_21 
ROOT
HETATM    1  C10 UNL     1      -1.695  -9.005  19.339  1.00  0.00     0.002 C 
HETATM    2  C11 UNL     1      -1.655 -10.114  20.362  1.00  0.00     0.009 C 
HETATM    3  C12 UNL     1      -0.809  -9.402  21.434  1.00  0.00     0.039 C 
HETATM    4  C13 UNL     1      -1.328  -7.966  21.475  1.00  0.00     0.067 C 
HETATM    5  C14 UNL     1      -0.321  -7.061  22.020  1.00  0.00     0.072 C 
HETATM    6  C15 UNL     1      -0.088  -5.751  21.395  1.00  0.00     0.193 C 
HETATM    7  C26 UNL     1      -1.066  -5.436  20.257  1.00  0.00     0.034 C 
HETATM    8  C27 UNL     1      -1.087  -6.637  19.377  1.00  0.00     0.014 C 
HETATM    9  C28 UNL     1      -1.867  -7.735  20.097  1.00  0.00    -0.009 C 
HETATM   10  C29 UNL     1      -3.273  -7.236  20.242  1.00  0.00     0.019 C 
ENDROOT
BRANCH   1  11
HETATM   11  C2  UNL     1      -2.403  -9.252  18.093  1.00  0.00     0.004 C 
HETATM   12  C1  UNL     1      -1.839 -10.575  17.473  1.00  0.00     0.012 C 
BRANCH  11  13
HETATM   13  C3  UNL     1      -3.879  -9.541  18.147  1.00  0.00     0.127 C 
BRANCH  13  14
HETATM   14  N1  UNL     1      -4.657  -8.413  17.637  1.00  0.00    -0.361 N 
HETATM   15  C4  UNL     1      -4.887  -8.308  16.243  1.00  0.00     0.218 C 
HETATM   16  O1  UNL     1      -4.407  -9.196  15.476  1.00  0.00    -0.274 OA
ATOM     17  H1  UNL     1      -5.030  -7.711  18.277  1.00  0.00     0.162 HD
BRANCH  15  18
HETATM   18  C5  UNL     1      -5.670  -7.196  15.643  1.00  0.00     0.111 C 
BRANCH  18  19
HETATM   19  C6  UNL     1      -4.866  -5.905  15.682  1.00  0.00    -0.043 C 
HETATM   20  C7  UNL     1      -5.783  -4.697  15.715  1.00  0.00     0.015 C 
HETATM   21  C8  UNL     1      -4.053  -5.858  14.412  1.00  0.00     0.015 C 
HETATM   22  C9  UNL     1      -3.946  -5.835  16.867  1.00  0.00     0.015 C 
ENDBRANCH  18  19
ENDBRANCH  15  18
ENDBRANCH  13  14
ENDBRANCH  11  13
ENDBRANCH   1  11
BRANCH   4  23
HETATM   23  O2  UNL     1      -2.448  -8.084  22.343  1.00  0.00    -0.389 OA
ATOM     24  H2  UNL     1      -3.039  -7.429  21.992  1.00  0.00     0.210 HD
ENDBRANCH   4  23
BRANCH   6  25
HETATM   25  N2  UNL     1       0.018  -4.644  22.315  1.00  0.00    -0.061 N 
HETATM   26  C16 UNL     1       0.104  -5.058  23.688  1.00  0.00     0.273 C 
HETATM   27  C17 UNL     1      -1.180  -3.795  22.215  1.00  0.00     0.239 C 
HETATM   28  C18 UNL     1      -0.830  -2.477  22.839  1.00  0.00     0.039 C 
HETATM   29  C19 UNL     1       0.656  -2.384  22.593  1.00  0.00    -0.010 C 
HETATM   30  C20 UNL     1       1.422  -2.064  23.852  1.00  0.00     0.018 C 
HETATM   31  C21 UNL     1       0.887  -1.351  21.535  1.00  0.00    -0.008 C 
HETATM   32  C25 UNL     1       1.061  -3.727  22.017  1.00  0.00     0.199 C 
HETATM   33  C22 UNL     1       1.381  -0.038  22.065  1.00  0.00     0.011 C 
HETATM   34  C23 UNL     1       1.854  -2.031  20.601  1.00  0.00     0.007 C 
HETATM   35  C24 UNL     1       1.249  -3.440  20.552  1.00  0.00     0.035 C 
ENDBRANCH   6  25
TORSDOF 7
ENDMDL
MODEL 2
REMARK VINA RESULT: -7.809310801      3.395      8.928
REMARK  7 active torsions:
REMARK  status: ('A' for Active; 'I' for Inactive)
REMARK    1  A    between atoms: C2_2  and  C3_3 
REMARK    2  A    between atoms: C2_2  and  C10_13 
REMARK    3  A    between atoms: C3_3  and  N1_4 
REMARK       I    between atoms: N1_4  and  C4_6 
REMARK    4  A    between atoms: C4_6  and  C5_8 
REMARK    5  A    between atoms: C5_8  and  C6_9 
REMARK    6  A    between atoms: C13_16  and  O2_17 
REMARK    7  A    between atoms: C15_20  and  N2_21 
ROOT
HETATM    1  C10 UNL     1       1.225  -2.453  21.810  1.00  0.00     0.002 C 
HETATM    2  C11 UNL     1       1.173  -1.995  20.373  1.00  0.00     0.009 C 
HETATM    3  C12 UNL     1       0.864  -3.353  19.715  1.00  0.00     0.039 C 
HETATM    4  C13 UNL     1      -0.156  -4.027  20.629  1.00  0.00     0.067 C 
HETATM    5  C14 UNL     1      -0.143  -5.475  20.451  1.00  0.00     0.072 C 
HETATM    6  C15 UNL     1      -0.208  -6.366  21.618  1.00  0.00     0.193 C 
HETATM    7  C26 UNL     1      -0.406  -5.620  22.943  1.00  0.00     0.034 C 
HETATM    8  C27 UNL     1       0.594  -4.518  22.959  1.00  0.00     0.014 C 
HETATM    9  C28 UNL     1       0.125  -3.443  21.980  1.00  0.00    -0.009 C 
HETATM   10  C29 UNL     1      -1.168  -2.910  22.517  1.00  0.00     0.019 C 
ENDROOT
BRANCH   1  11
HETATM   11  C2  UNL     1       1.524  -1.462  22.831  1.00  0.00     0.004 C 
HETATM   12  C1  UNL     1       2.998  -1.692  23.308  1.00  0.00     0.012 C 
BRANCH  11  13
HETATM   13  C3  UNL     1       1.549  -0.009  22.440  1.00  0.00     0.127 C 
BRANCH  13  14
HETATM   14  N1  UNL     1       0.369   0.694  22.941  1.00  0.00    -0.361 N 
HETATM   15  C4  UNL     1       0.429   1.323  24.209  1.00  0.00     0.218 C 
HETATM   16  O1  UNL     1       1.505   1.257  24.875  1.00  0.00    -0.274 OA
ATOM     17  H1  UNL     1      -0.486   0.730  22.386  1.00  0.00     0.162 HD
BRANCH  15  18
HETATM   18  C5  UNL     1      -0.724   2.061  24.790  1.00  0.00     0.111 C 
BRANCH  18  19
HETATM   19  C6  UNL     1      -1.818   1.088  25.202  1.00  0.00    -0.043 C 
HETATM   20  C7  UNL     1      -2.885   0.987  24.128  1.00  0.00     0.015 C 
HETATM   21  C8  UNL     1      -2.449   1.644  26.455  1.00  0.00     0.015 C 
HETATM   22  C9  UNL     1      -1.289  -0.290  25.478  1.00  0.00     0.015 C 
ENDBRANCH  18  19
ENDBRANCH  15  18
ENDBRANCH  13  14
ENDBRANCH  11  13
ENDBRANCH   1  11
BRANCH   4  23
HETATM   23  O2  UNL     1      -1.377  -3.456  20.178  1.00  0.00    -0.389 OA
ATOM     24  H2  UNL     1      -2.010  -4.114  20.438  1.00  0.00     0.210 HD
ENDBRANCH   4  23
BRANCH   6  25
HETATM   25  N2  UNL     1      -1.129  -7.470  21.496  1.00  0.00    -0.061 N 
HETATM   26  C16 UNL     1      -2.159  -7.240  20.522  1.00  0.00     0.273 C 
HETATM   27  C17 UNL     1      -1.816  -7.691  22.778  1.00  0.00     0.239 C 
HETATM   28  C18 UNL     1      -2.403  -9.070  22.724  1.00  0.00     0.039 C 
HETATM   29  C19 UNL     1      -1.451  -9.793  21.801  1.00  0.00    -0.010 C 
HETATM   30  C20 UNL     1      -2.173 -10.512  20.689  1.00  0.00     0.018 C 
HETATM   31  C21 UNL     1      -0.636 -10.739  22.626  1.00  0.00    -0.008 C 
HETATM   32  C25 UNL     1      -0.513  -8.729  21.265  1.00  0.00     0.199 C 
HETATM   33  C22 UNL     1      -1.069 -12.171  22.513  1.00  0.00     0.011 C 
HETATM   34  C23 UNL     1       0.768 -10.491  22.141  1.00  0.00     0.007 C 
HETATM   35  C24 UNL     1       0.759  -8.961  22.035  1.00  0.00     0.035 C 
ENDBRANCH   6  25
TORSDOF 7
ENDMDL
MODEL 3
REMARK VINA RESULT: -7.796569365      4.089      8.458
REMARK  7 active torsions:
REMARK  status: ('A' for Active; 'I' for Inactive)
REMARK    1  A    between atoms: C2_2  and  C3_3 
REMARK    2  A    between atoms: C2_2  and  C10_13 
REMARK    3  A    between atoms: C3_3  and  N1_4 
REMARK       I    between atoms: N1_4  and  C4_6 
REMARK    4  A    between atoms: C4_6  and  C5_8 
REMARK    5  A    between atoms: C5_8  and  C6_9 
REMARK    6  A    between atoms: C13_16  and  O2_17 
REMARK    7  A    between atoms: C15_20  and  N2_21 
ROOT
HETATM    1  C10 UNL     1       1.139 -11.977  21.603  1.00  0.00     0.002 C 
HETATM    2  C11 UNL     1       1.985 -11.128  22.520  1.00  0.00     0.009 C 
HETATM    3  C12 UNL     1       1.705  -9.756  21.880  1.00  0.00     0.039 C 
HETATM    4  C13 UNL     1       0.216  -9.759  21.545  1.00  0.00     0.067 C 
HETATM    5  C14 UNL     1      -0.086  -8.797  20.490  1.00  0.00     0.072 C 
HETATM    6  C15 UNL     1      -1.004  -9.157  19.400  1.00  0.00     0.193 C 
HETATM    7  C26 UNL     1      -1.654 -10.534  19.581  1.00  0.00     0.034 C 
HETATM    8  C27 UNL     1      -0.551 -11.479  19.907  1.00  0.00     0.014 C 
HETATM    9  C28 UNL     1      -0.109 -11.207  21.344  1.00  0.00    -0.009 C 
HETATM   10  C29 UNL     1      -1.280 -11.532  22.221  1.00  0.00     0.019 C 
ENDROOT
BRANCH   1  11
HETATM   11  C2  UNL     1       1.118 -13.413  21.829  1.00  0.00     0.004 C 
HETATM   12  C1  UNL     1       1.966 -14.091  20.701  1.00  0.00     0.012 C 
BRANCH  11  13
HETATM   13  C3  UNL     1       1.768 -13.956  23.073  1.00  0.00     0.127 C 
BRANCH  13  14
HETATM   14  N1  UNL     1       0.806 -14.685  23.897  1.00  0.00    -0.361 N 
HETATM   15  C4  UNL     1       0.121 -13.998  24.929  1.00  0.00     0.218 C 
HETATM   16  O1  UNL     1       0.366 -12.767  25.111  1.00  0.00    -0.274 OA
ATOM     17  H1  UNL     1       0.629 -15.676  23.731  1.00  0.00     0.162 HD
BRANCH  15  18
HETATM   18  C5  UNL     1      -0.875 -14.663  25.810  1.00  0.00     0.111 C 
BRANCH  18  19
HETATM   19  C6  UNL     1      -2.259 -14.595  25.184  1.00  0.00    -0.043 C 
HETATM   20  C7  UNL     1      -2.916 -13.256  25.466  1.00  0.00     0.015 C 
HETATM   21  C8  UNL     1      -3.085 -15.680  25.830  1.00  0.00     0.015 C 
HETATM   22  C9  UNL     1      -2.231 -14.806  23.697  1.00  0.00     0.015 C 
ENDBRANCH  18  19
ENDBRANCH  15  18
ENDBRANCH  13  14
ENDBRANCH  11  13
ENDBRANCH   1  11
BRANCH   4  23
HETATM   23  O2  UNL     1      -0.365  -9.373  22.785  1.00  0.00    -0.389 OA
ATOM     24  H2  UNL     1      -0.788  -8.554  22.557  1.00  0.00     0.210 HD
ENDBRANCH   4  23
BRANCH   6  25
HETATM   25  N2  UNL     1      -1.987  -8.153  19.070  1.00  0.00    -0.061 N 
HETATM   26  C16 UNL     1      -1.544  -6.816  19.351  1.00  0.00     0.273 C 
HETATM   27  C17 UNL     1      -3.202  -8.362  19.874  1.00  0.00     0.239 C 
HETATM   28  C18 UNL     1      -4.304  -7.600  19.199  1.00  0.00     0.039 C 
HETATM   29  C19 UNL     1      -3.877  -7.623  17.751  1.00  0.00    -0.010 C 
HETATM   30  C20 UNL     1      -3.887  -6.247  17.133  1.00  0.00     0.018 C 
HETATM   31  C21 UNL     1      -4.784  -8.559  17.016  1.00  0.00    -0.008 C 
HETATM   32  C25 UNL     1      -2.488  -8.231  17.743  1.00  0.00     0.199 C 
HETATM   33  C22 UNL     1      -5.832  -7.869  16.194  1.00  0.00     0.011 C 
HETATM   34  C23 UNL     1      -3.827  -9.392  16.204  1.00  0.00     0.007 C 
HETATM   35  C24 UNL     1      -2.719  -9.629  17.237  1.00  0.00     0.035 C 
ENDBRANCH   6  25
TORSDOF 7
ENDMDL
MODEL 4
REMARK VINA RESULT: -7.692782751      3.410      8.978
REMARK  7 active torsions:
REMARK  status: ('A' for Active; 'I' for Inactive)
REMARK    1  A    between atoms: C2_2  and  C3_3 
REMARK    2  A    between atoms: C2_2  and  C10_13 
REMARK    3  A    between atoms: C3_3  and  N1_4 
REMARK       I    between atoms: N1_4  and  C4_6 
REMARK    4  A    between atoms: C4_6  and  C5_8 
REMARK    5  A    between atoms: C5_8  and  C6_9 
REMARK    6  A    between atoms: C13_16  and  O2_17 
REMARK    7  A    between atoms: C15_20  and  N2_21 
ROOT
HETATM    1  C10 UNL     1       1.162  -2.490  21.930  1.00  0.00     0.002 C 
HETATM    2  C11 UNL     1       1.127  -2.018  20.497  1.00  0.00     0.009 C 
HETATM    3  C12 UNL     1       0.856  -3.374  19.819  1.00  0.00     0.039 C 
HETATM    4  C13 UNL     1      -0.167  -4.077  20.709  1.00  0.00     0.067 C 
HETATM    5  C14 UNL     1      -0.124  -5.523  20.516  1.00  0.00     0.072 C 
HETATM    6  C15 UNL     1      -0.193  -6.427  21.673  1.00  0.00     0.193 C 
HETATM    7  C26 UNL     1      -0.428  -5.698  23.001  1.00  0.00     0.034 C 
HETATM    8  C27 UNL     1       0.551  -4.578  23.046  1.00  0.00     0.014 C 
HETATM    9  C28 UNL     1       0.079  -3.502  22.070  1.00  0.00    -0.009 C 
HETATM   10  C29 UNL     1      -1.234  -2.999  22.590  1.00  0.00     0.019 C 
ENDROOT
BRANCH   1  11
HETATM   11  C2  UNL     1       1.424  -1.504  22.966  1.00  0.00     0.004 C 
HETATM   12  C1  UNL     1       2.975  -1.314  23.068  1.00  0.00     0.012 C 
BRANCH  11  13
HETATM   13  C3  UNL     1       0.953  -0.091  22.752  1.00  0.00     0.127 C 
BRANCH  13  14
HETATM   14  N1  UNL     1       0.516   0.516  24.008  1.00  0.00    -0.361 N 
HETATM   15  C4  UNL     1      -0.865   0.527  24.325  1.00  0.00     0.218 C 
HETATM   16  O1  UNL     1      -1.684   0.012  23.506  1.00  0.00    -0.274 OA
ATOM     17  H1  UNL     1       1.196   0.925  24.649  1.00  0.00     0.162 HD
BRANCH  15  18
HETATM   18  C5  UNL     1      -1.393   1.120  25.581  1.00  0.00     0.111 C 
BRANCH  18  19
HETATM   19  C6  UNL     1      -1.202   0.154  26.741  1.00  0.00    -0.043 C 
HETATM   20  C7  UNL     1      -2.529  -0.171  27.399  1.00  0.00     0.015 C 
HETATM   21  C8  UNL     1      -0.322   0.850  27.750  1.00  0.00     0.015 C 
HETATM   22  C9  UNL     1      -0.554  -1.133  26.317  1.00  0.00     0.015 C 
ENDBRANCH  18  19
ENDBRANCH  15  18
ENDBRANCH  13  14
ENDBRANCH  11  13
ENDBRANCH   1  11
BRANCH   4  23
HETATM   23  O2  UNL     1      -1.391  -3.524  20.241  1.00  0.00    -0.389 OA
ATOM     24  H2  UNL     1      -1.765  -4.252  19.760  1.00  0.00     0.210 HD
ENDBRANCH   4  23
BRANCH   6  25
HETATM   25  N2  UNL     1      -1.090  -7.547  21.523  1.00  0.00    -0.061 N 
HETATM   26  C16 UNL     1      -2.097  -7.333  20.521  1.00  0.00     0.273 C 
HETATM   27  C17 UNL     1      -1.809  -7.783  22.785  1.00  0.00     0.239 C 
HETATM   28  C18 UNL     1      -2.370  -9.172  22.712  1.00  0.00     0.039 C 
HETATM   29  C19 UNL     1      -1.380  -9.875  21.815  1.00  0.00    -0.010 C 
HETATM   30  C20 UNL     1      -2.058 -10.604  20.681  1.00  0.00     0.018 C 
HETATM   31  C21 UNL     1      -0.572 -10.809  22.660  1.00  0.00    -0.008 C 
HETATM   32  C25 UNL     1      -0.446  -8.794  21.306  1.00  0.00     0.199 C 
HETATM   33  C22 UNL     1      -0.976 -12.249  22.532  1.00  0.00     0.011 C 
HETATM   34  C23 UNL     1       0.840 -10.535  22.214  1.00  0.00     0.007 C 
HETATM   35  C24 UNL     1       0.807  -9.005  22.112  1.00  0.00     0.035 C 
ENDBRANCH   6  25
TORSDOF 7
ENDMDL
MODEL 5
REMARK VINA RESULT: -7.570999603      3.396      8.916
REMARK  7 active torsions:
REMARK  status: ('A' for Active; 'I' for Inactive)
REMARK    1  A    between atoms: C2_2  and  C3_3 
REMARK    2  A    between atoms: C2_2  and  C10_13 
REMARK    3  A    between atoms: C3_3  and  N1_4 
REMARK       I    between atoms: N1_4  and  C4_6 
REMARK    4  A    between atoms: C4_6  and  C5_8 
REMARK    5  A    between atoms: C5_8  and  C6_9 
REMARK    6  A    between atoms: C13_16  and  O2_17 
REMARK    7  A    between atoms: C15_20  and  N2_21 
ROOT
HETATM    1  C10 UNL     1       1.260  -2.519  21.980  1.00  0.00     0.002 C 
HETATM    2  C11 UNL     1       1.214  -2.017  20.558  1.00  0.00     0.009 C 
HETATM    3  C12 UNL     1       0.899  -3.351  19.857  1.00  0.00     0.039 C 
HETATM    4  C13 UNL     1      -0.126  -4.048  20.748  1.00  0.00     0.067 C 
HETATM    5  C14 UNL     1      -0.121  -5.490  20.524  1.00  0.00     0.072 C 
HETATM    6  C15 UNL     1      -0.193  -6.416  21.663  1.00  0.00     0.193 C 
HETATM    7  C26 UNL     1      -0.391  -5.711  23.010  1.00  0.00     0.034 C 
HETATM    8  C27 UNL     1       0.616  -4.616  23.062  1.00  0.00     0.014 C 
HETATM    9  C28 UNL     1       0.155  -3.508  22.117  1.00  0.00    -0.009 C 
HETATM   10  C29 UNL     1      -1.136  -2.985  22.668  1.00  0.00     0.019 C 
ENDROOT
BRANCH   1  11
HETATM   11  C2  UNL     1       1.563  -1.563  23.032  1.00  0.00     0.004 C 
HETATM   12  C1  UNL     1       3.116  -1.540  23.230  1.00  0.00     0.012 C 
BRANCH  11  13
HETATM   13  C3  UNL     1       1.261  -0.108  22.792  1.00  0.00     0.127 C 
BRANCH  13  14
HETATM   14  N1  UNL     1       2.434   0.597  22.280  1.00  0.00    -0.361 N 
HETATM   15  C4  UNL     1       2.250   1.731  21.450  1.00  0.00     0.218 C 
HETATM   16  O1  UNL     1       1.070   2.100  21.172  1.00  0.00    -0.274 OA
ATOM     17  H1  UNL     1       3.374   0.278  22.517  1.00  0.00     0.162 HD
BRANCH  15  18
HETATM   18  C5  UNL     1       3.389   2.506  20.890  1.00  0.00     0.111 C 
BRANCH  18  19
HETATM   19  C6  UNL     1       3.818   1.921  19.553  1.00  0.00    -0.043 C 
HETATM   20  C7  UNL     1       3.917   0.409  19.630  1.00  0.00     0.015 C 
HETATM   21  C8  UNL     1       5.187   2.478  19.252  1.00  0.00     0.015 C 
HETATM   22  C9  UNL     1       2.876   2.280  18.439  1.00  0.00     0.015 C 
ENDBRANCH  18  19
ENDBRANCH  15  18
ENDBRANCH  13  14
ENDBRANCH  11  13
ENDBRANCH   1  11
BRANCH   4  23
HETATM   23  O2  UNL     1      -1.344  -3.456  20.312  1.00  0.00    -0.389 OA
ATOM     24  H2  UNL     1      -1.972  -4.146  20.489  1.00  0.00     0.210 HD
ENDBRANCH   4  23
BRANCH   6  25
HETATM   25  N2  UNL     1      -1.120  -7.511  21.504  1.00  0.00    -0.061 N 
HETATM   26  C16 UNL     1      -2.161  -7.236  20.554  1.00  0.00     0.273 C 
HETATM   27  C17 UNL     1      -1.793  -7.785  22.784  1.00  0.00     0.239 C 
HETATM   28  C18 UNL     1      -2.386  -9.158  22.677  1.00  0.00     0.039 C 
HETATM   29  C19 UNL     1      -1.448  -9.844  21.713  1.00  0.00    -0.010 C 
HETATM   30  C20 UNL     1      -2.186 -10.511  20.580  1.00  0.00     0.018 C 
HETATM   31  C21 UNL     1      -0.628 -10.828  22.487  1.00  0.00    -0.008 C 
HETATM   32  C25 UNL     1      -0.512  -8.761  21.212  1.00  0.00     0.199 C 
HETATM   33  C22 UNL     1      -1.068 -12.252  22.318  1.00  0.00     0.011 C 
HETATM   34  C23 UNL     1       0.772 -10.564  21.996  1.00  0.00     0.007 C 
HETATM   35  C24 UNL     1       0.767  -9.030  21.957  1.00  0.00     0.035 C 
ENDBRANCH   6  25
TORSDOF 7
ENDMDL
