MODEL 1
REMARK VINA RESULT: -8.063623415      0.000      0.000
REMARK  7 active torsions:
REMARK  status: ('A' for Active; 'I' for Inactive)
REMARK    1  A    between atoms: C4_4  and  C5_5 
REMARK    2  A    between atoms: C5_5  and  C6_6 
REMARK    3  A    between atoms: C6_6  and  C7_7 
REMARK    4  A    between atoms: C7_7  and  N1_8 
REMARK    5  A    between atoms: C8_10  and  O1_12 
REMARK    6  A    between atoms: C18_23  and  C20_25 
REMARK       I    between atoms: C20_25  and  N3_27 
REMARK    7  A    between atoms: N3_27  and  C21_29 
ROOT
HETATM    1  C1  UNL     1      -3.695  -9.208  17.439  1.00  0.00     0.043 C 
HETATM    2  C2  UNL     1      -2.632  -8.788  18.419  1.00  0.00    -0.083 C 
HETATM    3  C3  UNL     1      -2.420  -7.548  18.765  1.00  0.00    -0.019 C 
HETATM    4  C4  UNL     1      -1.314  -7.484  19.740  1.00  0.00     0.013 C 
HETATM    5  C9  UNL     1      -0.619  -8.805  19.584  1.00  0.00     0.002 C 
HETATM    6  C10 UNL     1       0.161  -9.279  20.737  1.00  0.00     0.016 C 
HETATM    7  C11 UNL     1      -0.032 -10.724  21.087  1.00  0.00    -0.032 C 
HETATM    8  C12 UNL     1      -1.509 -10.982  21.254  1.00  0.00     0.011 C 
HETATM    9  C13 UNL     1      -2.322 -10.599  20.066  1.00  0.00     0.010 C 
HETATM   10  C14 UNL     1      -1.694  -9.709  19.084  1.00  0.00     0.018 C 
HETATM   11  C15 UNL     1       0.499 -11.684  20.093  1.00  0.00     0.011 C 
HETATM   12  C16 UNL     1       0.957 -12.871  20.882  1.00  0.00     0.007 C 
HETATM   13  C17 UNL     1       0.807 -12.546  22.336  1.00  0.00     0.012 C 
HETATM   14  C18 UNL     1       1.909 -13.192  23.098  1.00  0.00     0.042 C 
HETATM   15  C19 UNL     1       2.213 -14.545  22.426  1.00  0.00     0.026 C 
HETATM   16  C24 UNL     1       3.197 -12.446  23.103  1.00  0.00     0.019 C 
HETATM   17  C25 UNL     1       3.085 -10.956  23.207  1.00  0.00     0.002 C 
HETATM   18  C26 UNL     1       2.073 -10.386  22.242  1.00  0.00     0.010 C 
HETATM   19  C27 UNL     1       0.731 -11.069  22.351  1.00  0.00    -0.032 C 
HETATM   20  C28 UNL     1       0.036 -10.517  23.582  1.00  0.00     0.016 C 
ENDROOT
BRANCH   4  21
HETATM   21  C5  UNL     1      -1.992  -7.293  21.087  1.00  0.00     0.010 C 
BRANCH  21  22
HETATM   22  C6  UNL     1      -1.330  -6.107  21.817  1.00  0.00     0.020 C 
BRANCH  22  23
HETATM   23  C7  UNL     1      -0.377  -5.396  20.874  1.00  0.00     0.123 C 
BRANCH  23  24
HETATM   24  N1  UNL     1      -1.096  -4.423  20.076  1.00  0.00    -0.359 N 
HETATM   25  C8  UNL     1      -0.485  -3.621  19.256  1.00  0.00     0.225 C 
HETATM   26  N2  UNL     1       0.924  -3.621  19.068  1.00  0.00    -0.057 NA
ATOM     27  H1  UNL     1      -2.110  -4.366  20.160  1.00  0.00     0.162 HD
BRANCH  25  28
HETATM   28  O1  UNL     1      -1.234  -2.713  18.523  1.00  0.00    -0.335 OA
ATOM     29  H1  UNL     1      -1.422  -1.861  18.900  1.00  0.00     0.220 HD
ENDBRANCH  25  28
ENDBRANCH  23  24
ENDBRANCH  22  23
ENDBRANCH  21  22
ENDBRANCH   4  21
BRANCH  14  30
HETATM   30  C20 UNL     1       1.547 -13.551  24.494  1.00  0.00     0.226 C 
HETATM   31  O2  UNL     1       2.369 -13.576  25.442  1.00  0.00    -0.273 OA
HETATM   32  N3  UNL     1       0.220 -13.897  24.868  1.00  0.00    -0.357 N 
ATOM     33  H3  UNL     1      -0.498 -13.895  24.144  1.00  0.00     0.162 HD
BRANCH  32  34
HETATM   34  C21 UNL     1      -0.172 -14.250  26.212  1.00  0.00     0.076 C 
HETATM   35  C22 UNL     1      -1.317 -13.432  26.739  1.00  0.00     0.032 C 
HETATM   36  C23 UNL     1      -0.581 -15.716  26.303  1.00  0.00     0.032 C 
ENDBRANCH  32  34
ENDBRANCH  14  30
TORSDOF 7
ENDMDL
MODEL 2
REMARK VINA RESULT: -7.972363396      4.632      8.389
REMARK  7 active torsions:
REMARK  status: ('A' for Active; 'I' for Inactive)
REMARK    1  A    between atoms: C4_4  and  C5_5 
REMARK    2  A    between atoms: C5_5  and  C6_6 
REMARK    3  A    between atoms: C6_6  and  C7_7 
REMARK    4  A    between atoms: C7_7  and  N1_8 
REMARK    5  A    between atoms: C8_10  and  O1_12 
REMARK    6  A    between atoms: C18_23  and  C20_25 
REMARK       I    between atoms: C20_25  and  N3_27 
REMARK    7  A    between atoms: N3_27  and  C21_29 
ROOT
HETATM    1  C1  UNL     1      -2.014 -11.055  22.986  1.00  0.00     0.043 C 
HETATM    2  C2  UNL     1      -1.713  -9.894  22.075  1.00  0.00    -0.083 C 
HETATM    3  C3  UNL     1      -2.005  -9.879  20.804  1.00  0.00    -0.019 C 
HETATM    4  C4  UNL     1      -1.579  -8.598  20.209  1.00  0.00     0.013 C 
HETATM    5  C9  UNL     1      -0.605  -8.043  21.206  1.00  0.00     0.002 C 
HETATM    6  C10 UNL     1      -0.411  -6.585  21.196  1.00  0.00     0.016 C 
HETATM    7  C11 UNL     1      -0.398  -5.935  22.547  1.00  0.00    -0.032 C 
HETATM    8  C12 UNL     1      -1.652  -6.337  23.282  1.00  0.00     0.011 C 
HETATM    9  C13 UNL     1      -1.835  -7.811  23.393  1.00  0.00     0.010 C 
HETATM   10  C14 UNL     1      -1.038  -8.653  22.495  1.00  0.00     0.018 C 
HETATM   11  C15 UNL     1       0.768  -6.274  23.394  1.00  0.00     0.011 C 
HETATM   12  C16 UNL     1       1.044  -5.050  24.210  1.00  0.00     0.007 C 
HETATM   13  C17 UNL     1       0.122  -3.966  23.746  1.00  0.00     0.012 C 
HETATM   14  C18 UNL     1       0.819  -2.656  23.840  1.00  0.00     0.042 C 
HETATM   15  C19 UNL     1       1.731  -2.698  25.082  1.00  0.00     0.026 C 
HETATM   16  C24 UNL     1       1.714  -2.333  22.695  1.00  0.00     0.019 C 
HETATM   17  C25 UNL     1       1.211  -2.736  21.343  1.00  0.00     0.002 C 
HETATM   18  C26 UNL     1       0.707  -4.160  21.318  1.00  0.00     0.010 C 
HETATM   19  C27 UNL     1      -0.303  -4.428  22.407  1.00  0.00    -0.032 C 
HETATM   20  C28 UNL     1      -1.626  -3.832  21.960  1.00  0.00     0.016 C 
ENDROOT
BRANCH   4  21
HETATM   21  C5  UNL     1      -2.858  -7.788  20.071  1.00  0.00     0.010 C 
BRANCH  21  22
HETATM   22  C6  UNL     1      -2.937  -7.215  18.643  1.00  0.00     0.020 C 
BRANCH  22  23
HETATM   23  C7  UNL     1      -4.154  -7.778  17.933  1.00  0.00     0.123 C 
BRANCH  23  24
HETATM   24  N1  UNL     1      -4.600  -6.864  16.901  1.00  0.00    -0.359 N 
HETATM   25  C8  UNL     1      -4.918  -7.275  15.710  1.00  0.00     0.225 C 
HETATM   26  N2  UNL     1      -4.860  -8.638  15.313  1.00  0.00    -0.057 NA
ATOM     27  H1  UNL     1      -4.666  -5.869  17.116  1.00  0.00     0.162 HD
BRANCH  25  28
HETATM   28  O1  UNL     1      -5.338  -6.346  14.770  1.00  0.00    -0.335 OA
ATOM     29  H1  UNL     1      -5.376  -6.603  13.856  1.00  0.00     0.220 HD
ENDBRANCH  25  28
ENDBRANCH  23  24
ENDBRANCH  22  23
ENDBRANCH  21  22
ENDBRANCH   4  21
BRANCH  14  30
HETATM   30  C20 UNL     1      -0.088  -1.506  24.091  1.00  0.00     0.226 C 
HETATM   31  O2  UNL     1      -0.655  -0.855  23.181  1.00  0.00    -0.273 OA
HETATM   32  N3  UNL     1      -0.387  -1.049  25.403  1.00  0.00    -0.357 N 
ATOM     33  H3  UNL     1       0.042  -1.536  26.190  1.00  0.00     0.162 HD
BRANCH  32  34
HETATM   34  C21 UNL     1      -1.262   0.064  25.689  1.00  0.00     0.076 C 
HETATM   35  C22 UNL     1      -2.129  -0.149  26.898  1.00  0.00     0.032 C 
HETATM   36  C23 UNL     1      -0.471   1.347  25.916  1.00  0.00     0.032 C 
ENDBRANCH  32  34
ENDBRANCH  14  30
TORSDOF 7
ENDMDL
MODEL 3
REMARK VINA RESULT: -7.919194992      2.585      4.455
REMARK  7 active torsions:
REMARK  status: ('A' for Active; 'I' for Inactive)
REMARK    1  A    between atoms: C4_4  and  C5_5 
REMARK    2  A    between atoms: C5_5  and  C6_6 
REMARK    3  A    between atoms: C6_6  and  C7_7 
REMARK    4  A    between atoms: C7_7  and  N1_8 
REMARK    5  A    between atoms: C8_10  and  O1_12 
REMARK    6  A    between atoms: C18_23  and  C20_25 
REMARK       I    between atoms: C20_25  and  N3_27 
REMARK    7  A    between atoms: N3_27  and  C21_29 
ROOT
HETATM    1  C1  UNL     1      -0.952  -4.942  21.489  1.00  0.00     0.043 C 
HETATM    2  C2  UNL     1      -1.303  -6.348  21.079  1.00  0.00    -0.083 C 
HETATM    3  C3  UNL     1      -1.784  -6.658  19.907  1.00  0.00    -0.019 C 
HETATM    4  C4  UNL     1      -2.015  -8.114  19.831  1.00  0.00     0.013 C 
HETATM    5  C9  UNL     1      -2.019  -8.553  21.266  1.00  0.00     0.002 C 
HETATM    6  C10 UNL     1      -1.689  -9.963  21.524  1.00  0.00     0.016 C 
HETATM    7  C11 UNL     1      -0.732 -10.198  22.654  1.00  0.00    -0.032 C 
HETATM    8  C12 UNL     1       0.500  -9.359  22.417  1.00  0.00     0.011 C 
HETATM    9  C13 UNL     1       0.212  -7.908  22.244  1.00  0.00     0.010 C 
HETATM   10  C14 UNL     1      -1.173  -7.531  21.947  1.00  0.00     0.018 C 
HETATM   11  C15 UNL     1      -1.261  -9.879  23.999  1.00  0.00     0.011 C 
HETATM   12  C16 UNL     1      -0.612 -10.854  24.930  1.00  0.00     0.007 C 
HETATM   13  C17 UNL     1       0.192 -11.814  24.109  1.00  0.00     0.012 C 
HETATM   14  C18 UNL     1       0.147 -13.158  24.743  1.00  0.00     0.042 C 
HETATM   15  C19 UNL     1       0.130 -12.956  26.270  1.00  0.00     0.026 C 
HETATM   16  C24 UNL     1      -1.065 -13.964  24.430  1.00  0.00     0.019 C 
HETATM   17  C25 UNL     1      -1.568 -13.862  23.022  1.00  0.00     0.002 C 
HETATM   18  C26 UNL     1      -1.670 -12.431  22.550  1.00  0.00     0.010 C 
HETATM   19  C27 UNL     1      -0.382 -11.670  22.754  1.00  0.00    -0.032 C 
HETATM   20  C28 UNL     1       0.574 -12.085  21.651  1.00  0.00     0.016 C 
ENDROOT
BRANCH   4  21
HETATM   21  C5  UNL     1      -0.849  -8.652  19.018  1.00  0.00     0.010 C 
BRANCH  21  22
HETATM   22  C6  UNL     1      -1.395  -9.318  17.740  1.00  0.00     0.020 C 
BRANCH  22  23
HETATM   23  C7  UNL     1      -2.868  -9.636  17.920  1.00  0.00     0.123 C 
BRANCH  23  24
HETATM   24  N1  UNL     1      -3.551  -9.584  16.643  1.00  0.00    -0.359 N 
HETATM   25  C8  UNL     1      -4.324  -8.593  16.317  1.00  0.00     0.225 C 
HETATM   26  N2  UNL     1      -4.570  -7.482  17.168  1.00  0.00    -0.057 NA
ATOM     27  H1  UNL     1      -3.421 -10.350  15.982  1.00  0.00     0.162 HD
BRANCH  25  28
HETATM   28  O1  UNL     1      -4.947  -8.607  15.078  1.00  0.00    -0.335 OA
ATOM     29  H1  UNL     1      -5.031  -7.793  14.596  1.00  0.00     0.220 HD
ENDBRANCH  25  28
ENDBRANCH  23  24
ENDBRANCH  22  23
ENDBRANCH  21  22
ENDBRANCH   4  21
BRANCH  14  30
HETATM   30  C20 UNL     1       1.359 -13.983  24.496  1.00  0.00     0.226 C 
HETATM   31  O2  UNL     1       1.345 -15.235  24.418  1.00  0.00    -0.273 OA
HETATM   32  N3  UNL     1       2.647 -13.406  24.327  1.00  0.00    -0.357 N 
ATOM     33  H3  UNL     1       2.727 -12.390  24.379  1.00  0.00     0.162 HD
BRANCH  32  34
HETATM   34  C21 UNL     1       3.847 -14.170  24.086  1.00  0.00     0.076 C 
HETATM   35  C22 UNL     1       4.231 -14.245  22.635  1.00  0.00     0.032 C 
HETATM   36  C23 UNL     1       5.036 -13.588  24.842  1.00  0.00     0.032 C 
ENDBRANCH  32  34
ENDBRANCH  14  30
TORSDOF 7
ENDMDL
MODEL 4
REMARK VINA RESULT: -7.845972432      3.482      4.799
REMARK  7 active torsions:
REMARK  status: ('A' for Active; 'I' for Inactive)
REMARK    1  A    between atoms: C4_4  and  C5_5 
REMARK    2  A    between atoms: C5_5  and  C6_6 
REMARK    3  A    between atoms: C6_6  and  C7_7 
REMARK    4  A    between atoms: C7_7  and  N1_8 
REMARK    5  A    between atoms: C8_10  and  O1_12 
REMARK    6  A    between atoms: C18_23  and  C20_25 
REMARK       I    between atoms: C20_25  and  N3_27 
REMARK    7  A    between atoms: N3_27  and  C21_29 
ROOT
HETATM    1  C1  UNL     1      -0.171 -10.244  17.953  1.00  0.00     0.043 C 
HETATM    2  C2  UNL     1      -0.508  -9.311  19.085  1.00  0.00    -0.083 C 
HETATM    3  C3  UNL     1      -0.962  -8.100  18.911  1.00  0.00    -0.019 C 
HETATM    4  C4  UNL     1      -1.190  -7.460  20.221  1.00  0.00     0.013 C 
HETATM    5  C9  UNL     1      -0.395  -8.301  21.177  1.00  0.00     0.002 C 
HETATM    6  C10 UNL     1      -0.820  -8.276  22.585  1.00  0.00     0.016 C 
HETATM    7  C11 UNL     1      -0.879  -9.615  23.256  1.00  0.00    -0.032 C 
HETATM    8  C12 UNL     1      -1.736 -10.532  22.419  1.00  0.00     0.011 C 
HETATM    9  C13 UNL     1      -1.280 -10.653  21.006  1.00  0.00     0.010 C 
HETATM   10  C14 UNL     1      -0.348  -9.634  20.514  1.00  0.00     0.018 C 
HETATM   11  C15 UNL     1       0.433 -10.268  23.466  1.00  0.00     0.011 C 
HETATM   12  C16 UNL     1       0.299 -11.045  24.739  1.00  0.00     0.007 C 
HETATM   13  C17 UNL     1      -1.043 -10.741  25.327  1.00  0.00     0.012 C 
HETATM   14  C18 UNL     1      -0.939 -10.740  26.811  1.00  0.00     0.042 C 
HETATM   15  C19 UNL     1       0.080 -11.826  27.210  1.00  0.00     0.026 C 
HETATM   16  C24 UNL     1      -0.433  -9.474  27.408  1.00  0.00     0.019 C 
HETATM   17  C25 UNL     1      -0.917  -8.212  26.762  1.00  0.00     0.002 C 
HETATM   18  C26 UNL     1      -0.790  -8.249  25.258  1.00  0.00     0.010 C 
HETATM   19  C27 UNL     1      -1.432  -9.480  24.662  1.00  0.00    -0.032 C 
HETATM   20  C28 UNL     1      -2.932  -9.249  24.643  1.00  0.00     0.016 C 
ENDROOT
BRANCH   4  21
HETATM   21  C5  UNL     1      -2.694  -7.531  20.432  1.00  0.00     0.010 C 
BRANCH  21  22
HETATM   22  C6  UNL     1      -3.403  -7.139  19.121  1.00  0.00     0.020 C 
BRANCH  22  23
HETATM   23  C7  UNL     1      -4.401  -8.216  18.739  1.00  0.00     0.123 C 
BRANCH  23  24
HETATM   24  N1  UNL     1      -4.716  -8.129  17.327  1.00  0.00    -0.359 N 
HETATM   25  C8  UNL     1      -4.326  -9.033  16.479  1.00  0.00     0.225 C 
HETATM   26  N2  UNL     1      -3.564 -10.174  16.849  1.00  0.00    -0.057 NA
ATOM     27  H1  UNL     1      -5.261  -7.336  16.990  1.00  0.00     0.162 HD
BRANCH  25  28
HETATM   28  O1  UNL     1      -4.664  -8.887  15.142  1.00  0.00    -0.335 OA
ATOM     29  H1  UNL     1      -4.504  -9.611  14.546  1.00  0.00     0.220 HD
ENDBRANCH  25  28
ENDBRANCH  23  24
ENDBRANCH  22  23
ENDBRANCH  21  22
ENDBRANCH   4  21
BRANCH  14  30
HETATM   30  C20 UNL     1      -2.191 -11.141  27.504  1.00  0.00     0.226 C 
HETATM   31  O2  UNL     1      -2.815 -12.201  27.258  1.00  0.00    -0.273 OA
HETATM   32  N3  UNL     1      -2.786 -10.340  28.516  1.00  0.00    -0.357 N 
ATOM     33  H3  UNL     1      -2.327  -9.463  28.766  1.00  0.00     0.162 HD
BRANCH  32  34
HETATM   34  C21 UNL     1      -4.000 -10.692  29.213  1.00  0.00     0.076 C 
HETATM   35  C22 UNL     1      -3.859 -10.681  30.710  1.00  0.00     0.032 C 
HETATM   36  C23 UNL     1      -5.139  -9.744  28.857  1.00  0.00     0.032 C 
ENDBRANCH  32  34
ENDBRANCH  14  30
TORSDOF 7
ENDMDL
MODEL 5
REMARK VINA RESULT: -7.784178381      1.121      1.347
REMARK  7 active torsions:
REMARK  status: ('A' for Active; 'I' for Inactive)
REMARK    1  A    between atoms: C4_4  and  C5_5 
REMARK    2  A    between atoms: C5_5  and  C6_6 
REMARK    3  A    between atoms: C6_6  and  C7_7 
REMARK    4  A    between atoms: C7_7  and  N1_8 
REMARK    5  A    between atoms: C8_10  and  O1_12 
REMARK    6  A    between atoms: C18_23  and  C20_25 
REMARK       I    between atoms: C20_25  and  N3_27 
REMARK    7  A    between atoms: N3_27  and  C21_29 
ROOT
HETATM    1  C1  UNL     1      -3.722  -9.214  17.437  1.00  0.00     0.043 C 
HETATM    2  C2  UNL     1      -2.663  -8.776  18.413  1.00  0.00    -0.083 C 
HETATM    3  C3  UNL     1      -2.465  -7.532  18.752  1.00  0.00    -0.019 C 
HETATM    4  C4  UNL     1      -1.357  -7.450  19.724  1.00  0.00     0.013 C 
HETATM    5  C9  UNL     1      -0.648  -8.764  19.574  1.00  0.00     0.002 C 
HETATM    6  C10 UNL     1       0.140  -9.222  20.729  1.00  0.00     0.016 C 
HETATM    7  C11 UNL     1      -0.036 -10.667  21.087  1.00  0.00    -0.032 C 
HETATM    8  C12 UNL     1      -1.509 -10.942  21.258  1.00  0.00     0.011 C 
HETATM    9  C13 UNL     1      -2.329 -10.574  20.069  1.00  0.00     0.010 C 
HETATM   10  C14 UNL     1      -1.713  -9.683  19.082  1.00  0.00     0.018 C 
HETATM   11  C15 UNL     1       0.504 -11.627  20.097  1.00  0.00     0.011 C 
HETATM   12  C16 UNL     1       0.977 -12.804  20.892  1.00  0.00     0.007 C 
HETATM   13  C17 UNL     1       0.827 -12.473  22.344  1.00  0.00     0.012 C 
HETATM   14  C18 UNL     1       1.937 -13.102  23.107  1.00  0.00     0.042 C 
HETATM   15  C19 UNL     1       2.256 -14.455  22.443  1.00  0.00     0.026 C 
HETATM   16  C24 UNL     1       3.217 -12.341  23.106  1.00  0.00     0.019 C 
HETATM   17  C25 UNL     1       3.088 -10.852  23.203  1.00  0.00     0.002 C 
HETATM   18  C26 UNL     1       2.068 -10.298  22.236  1.00  0.00     0.010 C 
HETATM   19  C27 UNL     1       0.734 -10.997  22.351  1.00  0.00    -0.032 C 
HETATM   20  C28 UNL     1       0.035 -10.446  23.581  1.00  0.00     0.016 C 
ENDROOT
BRANCH   4  21
HETATM   21  C5  UNL     1      -2.035  -7.259  21.072  1.00  0.00     0.010 C 
BRANCH  21  22
HETATM   22  C6  UNL     1      -1.363  -6.084  21.808  1.00  0.00     0.020 C 
BRANCH  22  23
HETATM   23  C7  UNL     1      -0.397  -5.381  20.872  1.00  0.00     0.123 C 
BRANCH  23  24
HETATM   24  N1  UNL     1      -1.107  -4.428  20.043  1.00  0.00    -0.359 N 
HETATM   25  C8  UNL     1      -0.485  -3.628  19.230  1.00  0.00     0.225 C 
HETATM   26  N2  UNL     1       0.928  -3.610  19.080  1.00  0.00    -0.057 NA
ATOM     27  H1  UNL     1      -2.124  -4.385  20.099  1.00  0.00     0.162 HD
BRANCH  25  28
HETATM   28  O1  UNL     1      -1.226  -2.741  18.465  1.00  0.00    -0.335 OA
ATOM     29  H1  UNL     1      -1.960  -3.071  17.959  1.00  0.00     0.220 HD
ENDBRANCH  25  28
ENDBRANCH  23  24
ENDBRANCH  22  23
ENDBRANCH  21  22
ENDBRANCH   4  21
BRANCH  14  30
HETATM   30  C20 UNL     1       1.582 -13.457  24.507  1.00  0.00     0.226 C 
HETATM   31  O2  UNL     1       0.410 -13.684  24.891  1.00  0.00    -0.273 OA
HETATM   32  N3  UNL     1       2.560 -13.567  25.532  1.00  0.00    -0.357 N 
ATOM     33  H3  UNL     1       3.536 -13.395  25.285  1.00  0.00     0.162 HD
BRANCH  32  34
HETATM   34  C21 UNL     1       2.257 -13.909  26.902  1.00  0.00     0.076 C 
HETATM   35  C22 UNL     1       2.991 -15.125  27.394  1.00  0.00     0.032 C 
HETATM   36  C23 UNL     1       2.594 -12.761  27.847  1.00  0.00     0.032 C 
ENDBRANCH  32  34
ENDBRANCH  14  30
TORSDOF 7
ENDMDL
