MODEL 1
REMARK VINA RESULT: -8.467685244      0.000      0.000
REMARK  7 active torsions:
REMARK  status: ('A' for Active; 'I' for Inactive)
REMARK    1  A    between atoms: C2_2  and  C3_3 
REMARK    2  A    between atoms: C2_2  and  N2_29 
REMARK    3  A    between atoms: C3_3  and  C4_4 
REMARK       I    between atoms: C4_4  and  N1_6 
REMARK    4  A    between atoms: N1_6  and  C5_8 
REMARK    5  A    between atoms: C8_11  and  C10_13 
REMARK    6  A    between atoms: C14_17  and  C16_19 
REMARK       I    between atoms: N2_29  and  C24_30 
REMARK    7  A    between atoms: C24_30  and  C25_32 
ROOT
HETATM    1  C5  UNL     1      -1.411  -6.888  21.149  1.00  0.00     0.084 C 
HETATM    2  C6  UNL     1      -0.259  -6.973  22.109  1.00  0.00     0.026 C 
HETATM    3  C7  UNL     1      -0.206  -5.754  22.960  1.00  0.00     0.011 C 
HETATM    4  C8  UNL     1      -0.065  -4.458  22.155  1.00  0.00    -0.040 C 
HETATM    5  C9  UNL     1      -1.359  -3.709  22.334  1.00  0.00     0.015 C 
HETATM    6  C22 UNL     1       0.009  -4.884  20.705  1.00  0.00     0.011 C 
HETATM    7  C23 UNL     1      -1.215  -5.659  20.293  1.00  0.00     0.026 C 
ENDROOT
BRANCH   4   8
HETATM    8  C10 UNL     1       1.137  -3.794  22.643  1.00  0.00     0.002 C 
HETATM    9  C11 UNL     1       1.026  -3.609  24.153  1.00  0.00     0.006 C 
HETATM   10  C12 UNL     1       1.684  -2.245  24.415  1.00  0.00     0.007 C 
HETATM   11  C13 UNL     1       2.575  -2.144  23.211  1.00  0.00     0.013 C 
HETATM   12  C14 UNL     1       3.409  -0.954  23.087  1.00  0.00     0.049 C 
HETATM   13  C20 UNL     1       1.619  -2.508  22.102  1.00  0.00    -0.035 C 
HETATM   14  C15 UNL     1       2.805   0.332  23.588  1.00  0.00     0.027 C 
HETATM   15  C17 UNL     1       3.915  -0.827  21.666  1.00  0.00     0.020 C 
HETATM   16  C18 UNL     1       3.838  -2.148  20.969  1.00  0.00     0.002 C 
HETATM   17  C19 UNL     1       2.453  -2.682  20.836  1.00  0.00     0.010 C 
HETATM   18  C21 UNL     1       0.610  -1.461  21.840  1.00  0.00     0.016 C 
BRANCH  12  19
HETATM   19  C16 UNL     1       4.618  -1.161  23.940  1.00  0.00     0.181 C 
HETATM   20  O2  UNL     1       5.196  -0.187  24.477  1.00  0.00    -0.647 OA
HETATM   21  O3  UNL     1       5.172  -2.410  24.193  1.00  0.00    -0.647 OA
ENDBRANCH  12  19
ENDBRANCH   4   8
BRANCH   1  22
HETATM   22  N1  UNL     1      -1.508  -8.092  20.367  1.00  0.00    -0.356 N 
HETATM   23  C4  UNL     1      -1.922  -9.296  20.987  1.00  0.00     0.224 C 
HETATM   24  O1  UNL     1      -2.213  -9.358  22.210  1.00  0.00    -0.273 OA
ATOM     25  H1  UNL     1      -1.280  -8.079  19.373  1.00  0.00     0.162 HD
BRANCH  23  26
HETATM   26  C3  UNL     1      -2.019 -10.526  20.178  1.00  0.00     0.170 C 
BRANCH  26  27
HETATM   27  C2  UNL     1      -1.774 -10.155  18.742  1.00  0.00     0.071 C 
HETATM   28  C1  UNL     1      -0.333 -10.284  18.296  1.00  0.00     0.080 C 
BRANCH  27  29
HETATM   29  N2  UNL     1      -2.635  -9.795  18.032  1.00  0.00    -0.379 NA
HETATM   30  C24 UNL     1      -3.597  -9.382  17.228  1.00  0.00     0.295 C 
HETATM   31  O4  UNL     1      -3.774  -9.976  16.088  1.00  0.00    -0.257 OA
BRANCH  30  32
HETATM   32  C25 UNL     1      -4.566  -8.252  17.482  1.00  0.00     0.093 A 
HETATM   33  C26 UNL     1      -3.995  -6.891  17.797  1.00  0.00     0.016 A 
HETATM   34  C27 UNL     1      -4.598  -7.743  18.908  1.00  0.00     0.016 A 
ENDBRANCH  30  32
ENDBRANCH  27  29
ENDBRANCH  26  27
ENDBRANCH  23  26
ENDBRANCH   1  22
TORSDOF 7
ENDMDL
MODEL 2
REMARK VINA RESULT: -8.133119878      2.337      3.395
REMARK  7 active torsions:
REMARK  status: ('A' for Active; 'I' for Inactive)
REMARK    1  A    between atoms: C2_2  and  C3_3 
REMARK    2  A    between atoms: C2_2  and  N2_29 
REMARK    3  A    between atoms: C3_3  and  C4_4 
REMARK       I    between atoms: C4_4  and  N1_6 
REMARK    4  A    between atoms: N1_6  and  C5_8 
REMARK    5  A    between atoms: C8_11  and  C10_13 
REMARK    6  A    between atoms: C14_17  and  C16_19 
REMARK       I    between atoms: N2_29  and  C24_30 
REMARK    7  A    between atoms: C24_30  and  C25_32 
ROOT
HETATM    1  C5  UNL     1      -0.903  -5.421  20.068  1.00  0.00     0.084 C 
HETATM    2  C6  UNL     1      -0.391  -4.382  19.113  1.00  0.00     0.026 C 
HETATM    3  C7  UNL     1       0.828  -3.731  19.663  1.00  0.00     0.011 C 
HETATM    4  C8  UNL     1       0.597  -3.062  21.023  1.00  0.00    -0.040 C 
HETATM    5  C9  UNL     1       1.388  -3.860  22.024  1.00  0.00     0.015 C 
HETATM    6  C22 UNL     1      -0.868  -3.273  21.337  1.00  0.00     0.011 C 
HETATM    7  C23 UNL     1      -1.220  -4.736  21.376  1.00  0.00     0.026 C 
ENDROOT
BRANCH   4   8
HETATM    8  C10 UNL     1       0.978  -1.663  20.867  1.00  0.00     0.002 C 
HETATM    9  C11 UNL     1       1.961  -1.540  19.709  1.00  0.00     0.006 C 
HETATM   10  C12 UNL     1       2.948  -0.454  20.166  1.00  0.00     0.007 C 
HETATM   11  C13 UNL     1       2.092   0.283  21.155  1.00  0.00     0.013 C 
HETATM   12  C14 UNL     1       2.679   1.436  21.828  1.00  0.00     0.049 C 
HETATM   13  C20 UNL     1       1.533  -0.857  21.972  1.00  0.00    -0.035 C 
HETATM   14  C15 UNL     1       4.147   1.338  22.149  1.00  0.00     0.027 C 
HETATM   15  C17 UNL     1       1.854   1.795  23.046  1.00  0.00     0.020 C 
HETATM   16  C18 UNL     1       0.478   1.220  22.928  1.00  0.00     0.002 C 
HETATM   17  C19 UNL     1       0.448  -0.269  22.870  1.00  0.00     0.010 C 
HETATM   18  C21 UNL     1       2.543  -1.497  22.839  1.00  0.00     0.016 C 
BRANCH  12  19
HETATM   19  C16 UNL     1       2.572   2.601  20.898  1.00  0.00     0.181 C 
HETATM   20  O2  UNL     1       3.431   3.514  20.917  1.00  0.00    -0.647 OA
HETATM   21  O3  UNL     1       1.546   2.752  19.975  1.00  0.00    -0.647 OA
ENDBRANCH  12  19
ENDBRANCH   4   8
BRANCH   1  22
HETATM   22  N1  UNL     1      -2.044  -6.100  19.513  1.00  0.00    -0.356 N 
HETATM   23  C4  UNL     1      -2.345  -7.418  19.935  1.00  0.00     0.224 C 
HETATM   24  O1  UNL     1      -1.649  -8.029  20.787  1.00  0.00    -0.273 OA
ATOM     25  H1  UNL     1      -2.631  -5.636  18.820  1.00  0.00     0.162 HD
BRANCH  23  26
HETATM   26  C3  UNL     1      -3.518  -8.107  19.360  1.00  0.00     0.170 C 
BRANCH  26  27
HETATM   27  C2  UNL     1      -3.191  -8.468  17.938  1.00  0.00     0.071 C 
HETATM   28  C1  UNL     1      -1.905  -9.249  17.767  1.00  0.00     0.080 C 
BRANCH  27  29
HETATM   29  N2  UNL     1      -3.882  -8.165  17.041  1.00  0.00    -0.379 NA
HETATM   30  C24 UNL     1      -4.650  -7.821  16.024  1.00  0.00     0.295 C 
HETATM   31  O4  UNL     1      -4.959  -8.709  15.129  1.00  0.00    -0.257 OA
BRANCH  30  32
HETATM   32  C25 UNL     1      -5.244  -6.459  15.760  1.00  0.00     0.093 A 
HETATM   33  C26 UNL     1      -4.379  -5.432  15.070  1.00  0.00     0.016 A 
HETATM   34  C27 UNL     1      -4.642  -5.328  16.568  1.00  0.00     0.016 A 
ENDBRANCH  30  32
ENDBRANCH  27  29
ENDBRANCH  26  27
ENDBRANCH  23  26
ENDBRANCH   1  22
TORSDOF 7
ENDMDL
MODEL 3
REMARK VINA RESULT: -8.085409376      0.961      1.059
REMARK  7 active torsions:
REMARK  status: ('A' for Active; 'I' for Inactive)
REMARK    1  A    between atoms: C2_2  and  C3_3 
REMARK    2  A    between atoms: C2_2  and  N2_29 
REMARK    3  A    between atoms: C3_3  and  C4_4 
REMARK       I    between atoms: C4_4  and  N1_6 
REMARK    4  A    between atoms: N1_6  and  C5_8 
REMARK    5  A    between atoms: C8_11  and  C10_13 
REMARK    6  A    between atoms: C14_17  and  C16_19 
REMARK       I    between atoms: N2_29  and  C24_30 
REMARK    7  A    between atoms: C24_30  and  C25_32 
ROOT
HETATM    1  C5  UNL     1      -1.186  -6.740  21.739  1.00  0.00     0.084 C 
HETATM    2  C6  UNL     1      -0.014  -6.690  22.676  1.00  0.00     0.026 C 
HETATM    3  C7  UNL     1       0.035  -5.375  23.372  1.00  0.00     0.011 C 
HETATM    4  C8  UNL     1       0.136  -4.185  22.412  1.00  0.00    -0.040 C 
HETATM    5  C9  UNL     1      -1.168  -3.440  22.527  1.00  0.00     0.015 C 
HETATM    6  C22 UNL     1       0.189  -4.784  21.023  1.00  0.00     0.011 C 
HETATM    7  C23 UNL     1      -1.029  -5.621  20.736  1.00  0.00     0.026 C 
ENDROOT
BRANCH   4   8
HETATM    8  C10 UNL     1       1.335  -3.447  22.789  1.00  0.00     0.002 C 
HETATM    9  C11 UNL     1       1.312  -3.193  24.293  1.00  0.00     0.006 C 
HETATM   10  C12 UNL     1       1.922  -1.791  24.447  1.00  0.00     0.007 C 
HETATM   11  C13 UNL     1       2.730  -1.713  23.184  1.00  0.00     0.013 C 
HETATM   12  C14 UNL     1       3.500  -0.496  22.951  1.00  0.00     0.049 C 
HETATM   13  C20 UNL     1       1.723  -2.171  22.158  1.00  0.00    -0.035 C 
HETATM   14  C15 UNL     1       2.872   0.786  23.429  1.00  0.00     0.027 C 
HETATM   15  C17 UNL     1       3.910  -0.419  21.495  1.00  0.00     0.020 C 
HETATM   16  C18 UNL     1       3.849  -1.775  20.867  1.00  0.00     0.002 C 
HETATM   17  C19 UNL     1       2.483  -2.372  20.850  1.00  0.00     0.010 C 
HETATM   18  C21 UNL     1       0.654  -1.181  21.914  1.00  0.00     0.016 C 
BRANCH  12  19
HETATM   19  C16 UNL     1       4.768  -0.610  23.732  1.00  0.00     0.181 C 
HETATM   20  O2  UNL     1       5.294   0.404  24.250  1.00  0.00    -0.647 OA
HETATM   21  O3  UNL     1       5.437  -1.811  23.936  1.00  0.00    -0.647 OA
ENDBRANCH  12  19
ENDBRANCH   4   8
BRANCH   1  22
HETATM   22  N1  UNL     1      -1.277  -8.032  21.111  1.00  0.00    -0.356 N 
HETATM   23  C4  UNL     1      -2.410  -8.347  20.324  1.00  0.00     0.224 C 
HETATM   24  O1  UNL     1      -3.354  -7.534  20.146  1.00  0.00    -0.273 OA
ATOM     25  H1  UNL     1      -0.530  -8.716  21.233  1.00  0.00     0.162 HD
BRANCH  23  26
HETATM   26  C3  UNL     1      -2.495  -9.674  19.684  1.00  0.00     0.170 C 
BRANCH  26  27
HETATM   27  C2  UNL     1      -2.193  -9.503  18.221  1.00  0.00     0.071 C 
HETATM   28  C1  UNL     1      -0.720  -9.539  17.874  1.00  0.00     0.080 C 
BRANCH  27  29
HETATM   29  N2  UNL     1      -3.037  -9.354  17.421  1.00  0.00    -0.379 NA
HETATM   30  C24 UNL     1      -3.980  -9.178  16.514  1.00  0.00     0.295 C 
HETATM   31  O4  UNL     1      -4.021  -9.957  15.477  1.00  0.00    -0.257 OA
BRANCH  30  32
HETATM   32  C25 UNL     1      -5.071  -8.135  16.534  1.00  0.00     0.093 A 
HETATM   33  C26 UNL     1      -5.259  -7.285  15.301  1.00  0.00     0.016 A 
HETATM   34  C27 UNL     1      -4.588  -6.700  16.538  1.00  0.00     0.016 A 
ENDBRANCH  30  32
ENDBRANCH  27  29
ENDBRANCH  26  27
ENDBRANCH  23  26
ENDBRANCH   1  22
TORSDOF 7
ENDMDL
MODEL 4
REMARK VINA RESULT: -8.017242364      2.302      3.389
REMARK  7 active torsions:
REMARK  status: ('A' for Active; 'I' for Inactive)
REMARK    1  A    between atoms: C2_2  and  C3_3 
REMARK    2  A    between atoms: C2_2  and  N2_29 
REMARK    3  A    between atoms: C3_3  and  C4_4 
REMARK       I    between atoms: C4_4  and  N1_6 
REMARK    4  A    between atoms: N1_6  and  C5_8 
REMARK    5  A    between atoms: C8_11  and  C10_13 
REMARK    6  A    between atoms: C14_17  and  C16_19 
REMARK       I    between atoms: N2_29  and  C24_30 
REMARK    7  A    between atoms: C24_30  and  C25_32 
ROOT
HETATM    1  C5  UNL     1      -0.862  -5.449  20.614  1.00  0.00     0.084 C 
HETATM    2  C6  UNL     1      -0.589  -4.208  19.814  1.00  0.00     0.026 C 
HETATM    3  C7  UNL     1       0.559  -3.461  20.396  1.00  0.00     0.011 C 
HETATM    4  C8  UNL     1       0.339  -3.053  21.857  1.00  0.00    -0.040 C 
HETATM    5  C9  UNL     1       1.317  -3.857  22.671  1.00  0.00     0.015 C 
HETATM    6  C22 UNL     1      -1.049  -3.541  22.212  1.00  0.00     0.011 C 
HETATM    7  C23 UNL     1      -1.173  -5.031  22.032  1.00  0.00     0.026 C 
ENDROOT
BRANCH   4   8
HETATM    8  C10 UNL     1       0.493  -1.604  21.911  1.00  0.00     0.002 C 
HETATM    9  C11 UNL     1       1.760  -1.209  21.159  1.00  0.00     0.006 C 
HETATM   10  C12 UNL     1       2.334  -0.042  21.977  1.00  0.00     0.007 C 
HETATM   11  C13 UNL     1       1.086   0.446  22.656  1.00  0.00     0.013 C 
HETATM   12  C14 UNL     1       1.208   1.596  23.545  1.00  0.00     0.049 C 
HETATM   13  C20 UNL     1       0.507  -0.846  23.177  1.00  0.00    -0.035 C 
HETATM   14  C15 UNL     1       2.485   1.688  24.337  1.00  0.00     0.027 C 
HETATM   15  C17 UNL     1      -0.017   1.692  24.430  1.00  0.00     0.020 C 
HETATM   16  C18 UNL     1      -1.154   0.931  23.826  1.00  0.00     0.002 C 
HETATM   17  C19 UNL     1      -0.897  -0.530  23.685  1.00  0.00     0.010 C 
HETATM   18  C21 UNL     1       1.279  -1.416  24.301  1.00  0.00     0.016 C 
BRANCH  12  19
HETATM   19  C16 UNL     1       1.201   2.824  22.694  1.00  0.00     0.181 C 
HETATM   20  O2  UNL     1       1.762   3.875  23.085  1.00  0.00    -0.647 OA
HETATM   21  O3  UNL     1       0.592   2.889  21.447  1.00  0.00    -0.647 OA
ENDBRANCH  12  19
ENDBRANCH   4   8
BRANCH   1  22
HETATM   22  N1  UNL     1      -1.929  -6.210  20.019  1.00  0.00    -0.356 N 
HETATM   23  C4  UNL     1      -2.016  -7.601  20.266  1.00  0.00     0.224 C 
HETATM   24  O1  UNL     1      -1.189  -8.210  20.993  1.00  0.00    -0.273 OA
ATOM     25  H1  UNL     1      -2.618  -5.750  19.424  1.00  0.00     0.162 HD
BRANCH  23  26
HETATM   26  C3  UNL     1      -3.113  -8.374  19.652  1.00  0.00     0.170 C 
BRANCH  26  27
HETATM   27  C2  UNL     1      -2.708  -8.715  18.245  1.00  0.00     0.071 C 
HETATM   28  C1  UNL     1      -1.251  -9.093  18.084  1.00  0.00     0.080 C 
BRANCH  27  29
HETATM   29  N2  UNL     1      -3.466  -8.687  17.350  1.00  0.00    -0.379 NA
HETATM   30  C24 UNL     1      -4.312  -8.651  16.338  1.00  0.00     0.295 C 
HETATM   31  O4  UNL     1      -4.286  -9.597  15.450  1.00  0.00    -0.257 OA
BRANCH  30  32
HETATM   32  C25 UNL     1      -5.358  -7.595  16.071  1.00  0.00     0.093 A 
HETATM   33  C26 UNL     1      -5.372  -6.943  14.709  1.00  0.00     0.016 A 
HETATM   34  C27 UNL     1      -4.823  -6.187  15.913  1.00  0.00     0.016 A 
ENDBRANCH  30  32
ENDBRANCH  27  29
ENDBRANCH  26  27
ENDBRANCH  23  26
ENDBRANCH   1  22
TORSDOF 7
ENDMDL
MODEL 5
REMARK VINA RESULT: -7.671661229      6.129     10.040
REMARK  7 active torsions:
REMARK  status: ('A' for Active; 'I' for Inactive)
REMARK    1  A    between atoms: C2_2  and  C3_3 
REMARK    2  A    between atoms: C2_2  and  N2_29 
REMARK    3  A    between atoms: C3_3  and  C4_4 
REMARK       I    between atoms: C4_4  and  N1_6 
REMARK    4  A    between atoms: N1_6  and  C5_8 
REMARK    5  A    between atoms: C8_11  and  C10_13 
REMARK    6  A    between atoms: C14_17  and  C16_19 
REMARK       I    between atoms: N2_29  and  C24_30 
REMARK    7  A    between atoms: C24_30  and  C25_32 
ROOT
HETATM    1  C5  UNL     1      -2.399  -9.499  26.698  1.00  0.00     0.084 C 
HETATM    2  C6  UNL     1      -3.338 -10.138  25.715  1.00  0.00     0.026 C 
HETATM    3  C7  UNL     1      -2.571 -10.844  24.653  1.00  0.00     0.011 C 
HETATM    4  C8  UNL     1      -1.619  -9.924  23.880  1.00  0.00    -0.040 C 
HETATM    5  C9  UNL     1      -0.225 -10.364  24.240  1.00  0.00     0.015 C 
HETATM    6  C22 UNL     1      -1.820  -8.544  24.466  1.00  0.00     0.011 C 
HETATM    7  C23 UNL     1      -1.529  -8.523  25.943  1.00  0.00     0.026 C 
ENDROOT
BRANCH   4   8
HETATM    8  C10 UNL     1      -1.987 -10.035  22.474  1.00  0.00     0.002 C 
HETATM    9  C11 UNL     1      -1.638 -11.433  21.975  1.00  0.00     0.006 C 
HETATM   10  C12 UNL     1      -1.153 -11.209  20.534  1.00  0.00     0.007 C 
HETATM   11  C13 UNL     1      -1.842  -9.912  20.221  1.00  0.00     0.013 C 
HETATM   12  C14 UNL     1      -1.640  -9.345  18.892  1.00  0.00     0.049 C 
HETATM   13  C20 UNL     1      -1.505  -9.094  21.443  1.00  0.00    -0.035 C 
HETATM   14  C15 UNL     1      -0.276  -9.547  18.287  1.00  0.00     0.027 C 
HETATM   15  C17 UNL     1      -2.053  -7.889  18.887  1.00  0.00     0.020 C 
HETATM   16  C18 UNL     1      -2.968  -7.605  20.036  1.00  0.00     0.002 C 
HETATM   17  C19 UNL     1      -2.346  -7.822  21.373  1.00  0.00     0.010 C 
HETATM   18  C21 UNL     1      -0.083  -8.695  21.500  1.00  0.00     0.016 C 
BRANCH  12  19
HETATM   19  C16 UNL     1      -2.575 -10.044  17.959  1.00  0.00     0.181 C 
HETATM   20  O2  UNL     1      -2.160 -10.949  17.198  1.00  0.00    -0.647 OA
HETATM   21  O3  UNL     1      -3.930  -9.750  17.870  1.00  0.00    -0.647 OA
ENDBRANCH  12  19
ENDBRANCH   4   8
BRANCH   1  22
HETATM   22  N1  UNL     1      -3.134  -8.870  27.764  1.00  0.00    -0.356 N 
HETATM   23  C4  UNL     1      -2.623  -8.914  29.083  1.00  0.00     0.224 C 
HETATM   24  O1  UNL     1      -1.539  -9.486  29.368  1.00  0.00    -0.273 OA
ATOM     25  H1  UNL     1      -4.016  -8.397  27.570  1.00  0.00     0.162 HD
BRANCH  23  26
HETATM   26  C3  UNL     1      -3.383  -8.266  30.170  1.00  0.00     0.170 C 
BRANCH  26  27
HETATM   27  C2  UNL     1      -4.773  -8.838  30.167  1.00  0.00     0.071 C 
HETATM   28  C1  UNL     1      -4.844 -10.319  30.473  1.00  0.00     0.080 C 
BRANCH  27  29
HETATM   29  N2  UNL     1      -5.720  -8.182  29.945  1.00  0.00    -0.379 NA
HETATM   30  C24 UNL     1      -6.786  -7.442  29.707  1.00  0.00     0.295 C 
HETATM   31  O4  UNL     1      -6.637  -6.190  29.401  1.00  0.00    -0.257 OA
BRANCH  30  32
HETATM   32  C25 UNL     1      -8.226  -7.892  29.745  1.00  0.00     0.093 A 
HETATM   33  C26 UNL     1      -8.690  -8.674  30.949  1.00  0.00     0.016 A 
HETATM   34  C27 UNL     1      -8.435  -9.387  29.627  1.00  0.00     0.016 A 
ENDBRANCH  30  32
ENDBRANCH  27  29
ENDBRANCH  26  27
ENDBRANCH  23  26
ENDBRANCH   1  22
TORSDOF 7
ENDMDL
