MODEL 1
REMARK VINA RESULT: -7.399838048      0.000      0.000
REMARK  13 active torsions:
REMARK  status: ('A' for Active; 'I' for Inactive)
REMARK    1  A    between atoms: C2_2  and  C3_3 
REMARK    2  A    between atoms: C3_3  and  C4_4 
REMARK    3  A    between atoms: C4_4  and  C5_5 
REMARK    4  A    between atoms: C5_5  and  O2_7 
REMARK    5  A    between atoms: O2_7  and  C6_8 
REMARK    6  A    between atoms: C6_8  and  C7_9 
REMARK    7  A    between atoms: C7_9  and  O4_11 
REMARK    8  A    between atoms: O4_11  and  C8_12 
REMARK    9  A    between atoms: C9_13  and  O5_14 
REMARK   10  A    between atoms: C10_16  and  O6_17 
REMARK   11  A    between atoms: O6_17  and  C11_18 
REMARK   12  A    between atoms: C17_25  and  C19_27 
REMARK   13  A    between atoms: C27_36  and  O9_37 
ROOT
HETATM    1  C8  UNL     1     -10.245 -35.823  21.237  1.00  0.00     0.192 C 
HETATM    2  C9  UNL     1     -11.489 -35.891  20.441  1.00  0.00     0.180 C 
HETATM    3  C10 UNL     1     -12.164 -34.566  20.414  1.00  0.00     0.167 C 
HETATM    4  C13 UNL     1     -11.944 -33.760  21.685  1.00  0.00     0.025 C 
HETATM    5  C14 UNL     1     -12.741 -32.517  21.541  1.00  0.00     0.008 C 
HETATM    6  C15 UNL     1     -12.479 -31.490  22.608  1.00  0.00     0.007 C 
HETATM    7  C16 UNL     1     -11.067 -31.400  23.103  1.00  0.00     0.010 C 
HETATM    8  C17 UNL     1     -10.688 -30.003  23.420  1.00  0.00     0.021 C 
HETATM    9  C18 UNL     1      -9.629 -29.940  24.558  1.00  0.00     0.024 C 
HETATM   10  C21 UNL     1     -10.092 -29.260  22.243  1.00  0.00     0.017 C 
HETATM   11  C22 UNL     1     -10.297 -29.917  20.927  1.00  0.00     0.002 C 
HETATM   12  C23 UNL     1      -9.929 -31.368  20.848  1.00  0.00     0.010 C 
HETATM   13  C24 UNL     1     -10.091 -32.097  22.145  1.00  0.00    -0.033 C 
HETATM   14  C25 UNL     1      -8.729 -32.096  22.800  1.00  0.00     0.016 C 
HETATM   15  C26 UNL     1     -10.511 -33.536  22.040  1.00  0.00     0.032 C 
HETATM   16  C27 UNL     1      -9.663 -34.396  21.194  1.00  0.00     0.155 C 
ENDROOT
BRANCH   1  17
HETATM   17  O4  UNL     1      -9.301 -36.710  20.614  1.00  0.00    -0.309 OA
BRANCH  17  18
HETATM   18  C7  UNL     1      -7.989 -36.811  20.997  1.00  0.00     0.283 C 
HETATM   19  O3  UNL     1      -7.103 -36.638  20.120  1.00  0.00    -0.263 OA
BRANCH  18  20
HETATM   20  C6  UNL     1      -7.575 -37.121  22.399  1.00  0.00     0.289 C 
BRANCH  20  21
HETATM   21  O2  UNL     1      -6.871 -36.053  22.963  1.00  0.00    -0.312 OA
BRANCH  21  22
HETATM   22  C5  UNL     1      -5.526 -36.148  23.224  1.00  0.00     0.259 C 
HETATM   23  O1  UNL     1      -4.782 -37.038  22.715  1.00  0.00    -0.265 OA
BRANCH  22  24
HETATM   24  C4  UNL     1      -4.840 -35.173  24.151  1.00  0.00     0.111 C 
BRANCH  24  25
HETATM   25  C3  UNL     1      -5.691 -33.917  24.167  1.00  0.00     0.009 C 
BRANCH  25  26
HETATM   26  C2  UNL     1      -4.828 -32.694  24.395  1.00  0.00    -0.004 C 
HETATM   27  C1  UNL     1      -5.697 -31.472  24.649  1.00  0.00     0.005 C 
ENDBRANCH  25  26
ENDBRANCH  24  25
ENDBRANCH  22  24
ENDBRANCH  21  22
ENDBRANCH  20  21
ENDBRANCH  18  20
ENDBRANCH  17  18
ENDBRANCH   1  17
BRANCH   2  28
HETATM   28  O5  UNL     1     -12.307 -36.908  20.940  1.00  0.00    -0.390 OA
ATOM     29  H5  UNL     1     -12.792 -37.305  20.225  1.00  0.00     0.210 HD
ENDBRANCH   2  28
BRANCH  16  30
HETATM   30  O9  UNL     1      -9.559 -34.069  19.868  1.00  0.00    -0.392 OA
ATOM     31  H9  UNL     1      -9.363 -33.139  19.841  1.00  0.00     0.210 HD
ENDBRANCH  16  30
BRANCH   3  32
HETATM   32  O6  UNL     1     -13.577 -34.859  20.412  1.00  0.00    -0.313 OA
BRANCH  32  33
HETATM   33  C11 UNL     1     -14.368 -34.597  19.318  1.00  0.00     0.255 C 
HETATM   34  C12 UNL     1     -15.589 -35.389  19.089  1.00  0.00     0.126 C 
HETATM   35  O7  UNL     1     -13.991 -33.664  18.545  1.00  0.00    -0.266 OA
ENDBRANCH  32  33
ENDBRANCH   3  32
BRANCH   8  36
HETATM   36  C19 UNL     1     -11.785 -29.242  24.039  1.00  0.00     0.131 C 
HETATM   37  C20 UNL     1     -12.817 -28.565  23.162  1.00  0.00     0.091 C 
HETATM   38  O8  UNL     1     -11.925 -29.109  25.208  1.00  0.00    -0.298 OA
ENDBRANCH   8  36
TORSDOF 13
ENDMDL
MODEL 2
REMARK VINA RESULT: -7.230147115      1.563      2.147
REMARK  13 active torsions:
REMARK  status: ('A' for Active; 'I' for Inactive)
REMARK    1  A    between atoms: C2_2  and  C3_3 
REMARK    2  A    between atoms: C3_3  and  C4_4 
REMARK    3  A    between atoms: C4_4  and  C5_5 
REMARK    4  A    between atoms: C5_5  and  O2_7 
REMARK    5  A    between atoms: O2_7  and  C6_8 
REMARK    6  A    between atoms: C6_8  and  C7_9 
REMARK    7  A    between atoms: C7_9  and  O4_11 
REMARK    8  A    between atoms: O4_11  and  C8_12 
REMARK    9  A    between atoms: C9_13  and  O5_14 
REMARK   10  A    between atoms: C10_16  and  O6_17 
REMARK   11  A    between atoms: O6_17  and  C11_18 
REMARK   12  A    between atoms: C17_25  and  C19_27 
REMARK   13  A    between atoms: C27_36  and  O9_37 
ROOT
HETATM    1  C8  UNL     1      -8.918 -36.176  22.244  1.00  0.00     0.192 C 
HETATM    2  C9  UNL     1     -10.134 -36.933  21.878  1.00  0.00     0.180 C 
HETATM    3  C10 UNL     1     -11.254 -36.004  21.571  1.00  0.00     0.167 C 
HETATM    4  C13 UNL     1     -11.197 -34.715  22.377  1.00  0.00     0.025 C 
HETATM    5  C14 UNL     1     -12.412 -33.941  22.025  1.00  0.00     0.008 C 
HETATM    6  C15 UNL     1     -12.424 -32.536  22.561  1.00  0.00     0.007 C 
HETATM    7  C16 UNL     1     -11.098 -31.836  22.603  1.00  0.00     0.010 C 
HETATM    8  C17 UNL     1     -11.234 -30.391  22.304  1.00  0.00     0.021 C 
HETATM    9  C18 UNL     1     -10.143 -29.551  23.028  1.00  0.00     0.024 C 
HETATM   10  C21 UNL     1     -11.111 -30.069  20.830  1.00  0.00     0.017 C 
HETATM   11  C22 UNL     1     -11.216 -31.243  19.927  1.00  0.00     0.002 C 
HETATM   12  C23 UNL     1     -10.344 -32.415  20.264  1.00  0.00     0.010 C 
HETATM   13  C24 UNL     1     -10.060 -32.548  21.727  1.00  0.00    -0.033 C 
HETATM   14  C25 UNL     1      -8.727 -31.874  21.959  1.00  0.00     0.016 C 
HETATM   15  C26 UNL     1      -9.919 -33.953  22.243  1.00  0.00     0.032 C 
HETATM   16  C27 UNL     1      -8.923 -34.796  21.557  1.00  0.00     0.155 C 
ENDROOT
BRANCH   1  17
HETATM   17  O4  UNL     1      -7.796 -36.921  21.744  1.00  0.00    -0.309 OA
BRANCH  17  18
HETATM   18  C7  UNL     1      -6.630 -37.097  22.442  1.00  0.00     0.283 C 
HETATM   19  O3  UNL     1      -6.455 -38.193  23.033  1.00  0.00    -0.263 OA
BRANCH  18  20
HETATM   20  C6  UNL     1      -5.571 -36.045  22.529  1.00  0.00     0.289 C 
BRANCH  20  21
HETATM   21  O2  UNL     1      -5.478 -35.533  23.827  1.00  0.00    -0.312 OA
BRANCH  21  22
HETATM   22  C5  UNL     1      -5.888 -34.255  24.117  1.00  0.00     0.259 C 
HETATM   23  O1  UNL     1      -7.092 -33.952  24.364  1.00  0.00    -0.265 OA
BRANCH  22  24
HETATM   24  C4  UNL     1      -4.902 -33.111  24.163  1.00  0.00     0.111 C 
BRANCH  24  25
HETATM   25  C3  UNL     1      -5.702 -31.861  24.478  1.00  0.00     0.009 C 
BRANCH  25  26
HETATM   26  C2  UNL     1      -4.938 -30.971  25.437  1.00  0.00    -0.004 C 
HETATM   27  C1  UNL     1      -5.358 -29.520  25.260  1.00  0.00     0.005 C 
ENDBRANCH  25  26
ENDBRANCH  24  25
ENDBRANCH  22  24
ENDBRANCH  21  22
ENDBRANCH  20  21
ENDBRANCH  18  20
ENDBRANCH  17  18
ENDBRANCH   1  17
BRANCH   2  28
HETATM   28  O5  UNL     1     -10.444 -37.839  22.895  1.00  0.00    -0.390 OA
ATOM     29  H5  UNL     1     -11.365 -37.766  23.117  1.00  0.00     0.210 HD
ENDBRANCH   2  28
BRANCH  16  30
HETATM   30  O9  UNL     1      -9.114 -35.038  20.222  1.00  0.00    -0.392 OA
ATOM     31  H9  UNL     1      -8.775 -34.276  19.766  1.00  0.00     0.210 HD
ENDBRANCH  16  30
BRANCH   3  32
HETATM   32  O6  UNL     1     -12.443 -36.672  22.042  1.00  0.00    -0.313 OA
BRANCH  32  33
HETATM   33  C11 UNL     1     -13.311 -37.297  21.177  1.00  0.00     0.255 C 
HETATM   34  C12 UNL     1     -14.173 -38.389  21.665  1.00  0.00     0.126 C 
HETATM   35  O7  UNL     1     -13.323 -36.888  19.976  1.00  0.00    -0.266 OA
ENDBRANCH  32  33
ENDBRANCH   3  32
BRANCH   8  36
HETATM   36  C19 UNL     1     -12.451 -29.801  22.885  1.00  0.00     0.131 C 
HETATM   37  C20 UNL     1     -13.595 -29.396  21.979  1.00  0.00     0.091 C 
HETATM   38  O8  UNL     1     -12.608 -29.607  24.043  1.00  0.00    -0.298 OA
ENDBRANCH   8  36
TORSDOF 13
ENDMDL
MODEL 3
REMARK VINA RESULT: -7.200254276      1.319      1.510
REMARK  13 active torsions:
REMARK  status: ('A' for Active; 'I' for Inactive)
REMARK    1  A    between atoms: C2_2  and  C3_3 
REMARK    2  A    between atoms: C3_3  and  C4_4 
REMARK    3  A    between atoms: C4_4  and  C5_5 
REMARK    4  A    between atoms: C5_5  and  O2_7 
REMARK    5  A    between atoms: O2_7  and  C6_8 
REMARK    6  A    between atoms: C6_8  and  C7_9 
REMARK    7  A    between atoms: C7_9  and  O4_11 
REMARK    8  A    between atoms: O4_11  and  C8_12 
REMARK    9  A    between atoms: C9_13  and  O5_14 
REMARK   10  A    between atoms: C10_16  and  O6_17 
REMARK   11  A    between atoms: O6_17  and  C11_18 
REMARK   12  A    between atoms: C17_25  and  C19_27 
REMARK   13  A    between atoms: C27_36  and  O9_37 
ROOT
HETATM    1  C8  UNL     1     -10.119 -35.879  21.479  1.00  0.00     0.192 C 
HETATM    2  C9  UNL     1     -11.336 -35.992  20.647  1.00  0.00     0.180 C 
HETATM    3  C10 UNL     1     -12.027 -34.679  20.552  1.00  0.00     0.167 C 
HETATM    4  C13 UNL     1     -11.857 -33.825  21.799  1.00  0.00     0.025 C 
HETATM    5  C14 UNL     1     -12.664 -32.599  21.586  1.00  0.00     0.008 C 
HETATM    6  C15 UNL     1     -12.449 -31.531  22.623  1.00  0.00     0.007 C 
HETATM    7  C16 UNL     1     -11.054 -31.405  23.158  1.00  0.00     0.010 C 
HETATM    8  C17 UNL     1     -10.704 -29.992  23.437  1.00  0.00     0.021 C 
HETATM    9  C18 UNL     1      -9.681 -29.875  24.604  1.00  0.00     0.024 C 
HETATM   10  C21 UNL     1     -10.080 -29.283  22.253  1.00  0.00     0.017 C 
HETATM   11  C22 UNL     1     -10.235 -29.989  20.956  1.00  0.00     0.002 C 
HETATM   12  C23 UNL     1      -9.846 -31.437  20.941  1.00  0.00     0.010 C 
HETATM   13  C24 UNL     1     -10.040 -32.121  22.257  1.00  0.00    -0.033 C 
HETATM   14  C25 UNL     1      -8.700 -32.079  22.954  1.00  0.00     0.016 C 
HETATM   15  C26 UNL     1     -10.438 -33.569  22.191  1.00  0.00     0.032 C 
HETATM   16  C27 UNL     1      -9.554 -34.447  21.402  1.00  0.00     0.155 C 
ENDROOT
BRANCH   1  17
HETATM   17  O4  UNL     1      -9.145 -36.774  20.918  1.00  0.00    -0.309 OA
BRANCH  17  18
HETATM   18  C7  UNL     1      -8.039 -37.214  21.597  1.00  0.00     0.283 C 
HETATM   19  O3  UNL     1      -8.207 -38.054  22.519  1.00  0.00    -0.263 OA
BRANCH  18  20
HETATM   20  C6  UNL     1      -6.657 -36.736  21.290  1.00  0.00     0.289 C 
BRANCH  20  21
HETATM   21  O2  UNL     1      -6.293 -35.678  22.129  1.00  0.00    -0.312 OA
BRANCH  21  22
HETATM   22  C5  UNL     1      -5.180 -35.758  22.931  1.00  0.00     0.259 C 
HETATM   23  O1  UNL     1      -4.921 -36.760  23.660  1.00  0.00    -0.265 OA
BRANCH  22  24
HETATM   24  C4  UNL     1      -4.178 -34.629  22.988  1.00  0.00     0.111 C 
BRANCH  24  25
HETATM   25  C3  UNL     1      -3.193 -34.866  21.859  1.00  0.00     0.009 C 
BRANCH  25  26
HETATM   26  C2  UNL     1      -2.154 -33.765  21.821  1.00  0.00    -0.004 C 
HETATM   27  C1  UNL     1      -1.784 -33.435  20.383  1.00  0.00     0.005 C 
ENDBRANCH  25  26
ENDBRANCH  24  25
ENDBRANCH  22  24
ENDBRANCH  21  22
ENDBRANCH  20  21
ENDBRANCH  18  20
ENDBRANCH  17  18
ENDBRANCH   1  17
BRANCH   2  28
HETATM   28  O5  UNL     1     -12.157 -37.002  21.156  1.00  0.00    -0.390 OA
ATOM     29  H5  UNL     1     -11.637 -37.779  21.325  1.00  0.00     0.210 HD
ENDBRANCH   2  28
BRANCH  16  30
HETATM   30  O9  UNL     1      -9.412 -34.166  20.070  1.00  0.00    -0.392 OA
ATOM     31  H9  UNL     1     -10.011 -33.451  19.886  1.00  0.00     0.210 HD
ENDBRANCH  16  30
BRANCH   3  32
HETATM   32  O6  UNL     1     -13.435 -34.991  20.516  1.00  0.00    -0.313 OA
BRANCH  32  33
HETATM   33  C11 UNL     1     -14.200 -34.749  19.399  1.00  0.00     0.255 C 
HETATM   34  C12 UNL     1     -15.296 -35.670  19.048  1.00  0.00     0.126 C 
HETATM   35  O7  UNL     1     -13.913 -33.720  18.715  1.00  0.00    -0.266 OA
ENDBRANCH  32  33
ENDBRANCH   3  32
BRANCH   8  36
HETATM   36  C19 UNL     1     -11.829 -29.224  23.993  1.00  0.00     0.131 C 
HETATM   37  C20 UNL     1     -12.836 -28.586  23.060  1.00  0.00     0.091 C 
HETATM   38  O8  UNL     1     -12.011 -29.057  25.152  1.00  0.00    -0.298 OA
ENDBRANCH   8  36
TORSDOF 13
ENDMDL
MODEL 4
REMARK VINA RESULT: -6.979557465      1.374      2.364
REMARK  13 active torsions:
REMARK  status: ('A' for Active; 'I' for Inactive)
REMARK    1  A    between atoms: C2_2  and  C3_3 
REMARK    2  A    between atoms: C3_3  and  C4_4 
REMARK    3  A    between atoms: C4_4  and  C5_5 
REMARK    4  A    between atoms: C5_5  and  O2_7 
REMARK    5  A    between atoms: O2_7  and  C6_8 
REMARK    6  A    between atoms: C6_8  and  C7_9 
REMARK    7  A    between atoms: C7_9  and  O4_11 
REMARK    8  A    between atoms: O4_11  and  C8_12 
REMARK    9  A    between atoms: C9_13  and  O5_14 
REMARK   10  A    between atoms: C10_16  and  O6_17 
REMARK   11  A    between atoms: O6_17  and  C11_18 
REMARK   12  A    between atoms: C17_25  and  C19_27 
REMARK   13  A    between atoms: C27_36  and  O9_37 
ROOT
HETATM    1  C8  UNL     1     -10.172 -35.924  21.559  1.00  0.00     0.192 C 
HETATM    2  C9  UNL     1     -11.377 -36.033  20.710  1.00  0.00     0.180 C 
HETATM    3  C10 UNL     1     -12.048 -34.712  20.583  1.00  0.00     0.167 C 
HETATM    4  C13 UNL     1     -11.887 -33.842  21.820  1.00  0.00     0.025 C 
HETATM    5  C14 UNL     1     -12.674 -32.609  21.575  1.00  0.00     0.008 C 
HETATM    6  C15 UNL     1     -12.461 -31.528  22.600  1.00  0.00     0.007 C 
HETATM    7  C16 UNL     1     -11.073 -31.412  23.156  1.00  0.00     0.010 C 
HETATM    8  C17 UNL     1     -10.708 -30.001  23.419  1.00  0.00     0.021 C 
HETATM    9  C18 UNL     1      -9.703 -29.880  24.601  1.00  0.00     0.024 C 
HETATM   10  C21 UNL     1     -10.055 -29.318  22.235  1.00  0.00     0.017 C 
HETATM   11  C22 UNL     1     -10.199 -30.042  20.946  1.00  0.00     0.002 C 
HETATM   12  C23 UNL     1      -9.830 -31.494  20.959  1.00  0.00     0.010 C 
HETATM   13  C24 UNL     1     -10.055 -32.156  22.282  1.00  0.00    -0.033 C 
HETATM   14  C25 UNL     1      -8.725 -32.122  23.000  1.00  0.00     0.016 C 
HETATM   15  C26 UNL     1     -10.472 -33.599  22.232  1.00  0.00     0.032 C 
HETATM   16  C27 UNL     1      -9.587 -34.501  21.471  1.00  0.00     0.155 C 
ENDROOT
BRANCH   1  17
HETATM   17  O4  UNL     1      -9.202 -36.841  21.028  1.00  0.00    -0.309 OA
BRANCH  17  18
HETATM   18  C7  UNL     1      -8.906 -38.050  21.602  1.00  0.00     0.283 C 
HETATM   19  O3  UNL     1      -9.371 -39.088  21.064  1.00  0.00    -0.263 OA
BRANCH  18  20
HETATM   20  C6  UNL     1      -8.066 -38.180  22.831  1.00  0.00     0.289 C 
BRANCH  20  21
HETATM   21  O2  UNL     1      -6.709 -38.263  22.506  1.00  0.00    -0.312 OA
BRANCH  21  22
HETATM   22  C5  UNL     1      -5.904 -37.150  22.526  1.00  0.00     0.259 C 
HETATM   23  O1  UNL     1      -5.281 -36.764  23.558  1.00  0.00    -0.265 OA
BRANCH  22  24
HETATM   24  C4  UNL     1      -5.709 -36.306  21.289  1.00  0.00     0.111 C 
BRANCH  24  25
HETATM   25  C3  UNL     1      -5.207 -37.238  20.202  1.00  0.00     0.009 C 
BRANCH  25  26
HETATM   26  C2  UNL     1      -6.160 -37.242  19.025  1.00  0.00    -0.004 C 
HETATM   27  C1  UNL     1      -6.696 -38.645  18.783  1.00  0.00     0.005 C 
ENDBRANCH  25  26
ENDBRANCH  24  25
ENDBRANCH  22  24
ENDBRANCH  21  22
ENDBRANCH  20  21
ENDBRANCH  18  20
ENDBRANCH  17  18
ENDBRANCH   1  17
BRANCH   2  28
HETATM   28  O5  UNL     1     -12.220 -37.024  21.220  1.00  0.00    -0.390 OA
ATOM     29  H5  UNL     1     -12.724 -37.408  20.512  1.00  0.00     0.210 HD
ENDBRANCH   2  28
BRANCH  16  30
HETATM   30  O9  UNL     1      -9.419 -34.242  20.136  1.00  0.00    -0.392 OA
ATOM     31  H9  UNL     1     -10.265 -33.949  19.817  1.00  0.00     0.210 HD
ENDBRANCH  16  30
BRANCH   3  32
HETATM   32  O6  UNL     1     -13.459 -35.006  20.529  1.00  0.00    -0.313 OA
BRANCH  32  33
HETATM   33  C11 UNL     1     -14.194 -34.814  19.382  1.00  0.00     0.255 C 
HETATM   34  C12 UNL     1     -15.178 -35.828  18.964  1.00  0.00     0.126 C 
HETATM   35  O7  UNL     1     -13.978 -33.747  18.731  1.00  0.00    -0.266 OA
ENDBRANCH  32  33
ENDBRANCH   3  32
BRANCH   8  36
HETATM   36  C19 UNL     1     -11.831 -29.209  23.945  1.00  0.00     0.131 C 
HETATM   37  C20 UNL     1     -12.829 -28.593  22.988  1.00  0.00     0.091 C 
HETATM   38  O8  UNL     1     -12.019 -29.007  25.098  1.00  0.00    -0.298 OA
ENDBRANCH   8  36
TORSDOF 13
ENDMDL
MODEL 5
REMARK VINA RESULT: -6.936268268      1.835      2.992
REMARK  13 active torsions:
REMARK  status: ('A' for Active; 'I' for Inactive)
REMARK    1  A    between atoms: C2_2  and  C3_3 
REMARK    2  A    between atoms: C3_3  and  C4_4 
REMARK    3  A    between atoms: C4_4  and  C5_5 
REMARK    4  A    between atoms: C5_5  and  O2_7 
REMARK    5  A    between atoms: O2_7  and  C6_8 
REMARK    6  A    between atoms: C6_8  and  C7_9 
REMARK    7  A    between atoms: C7_9  and  O4_11 
REMARK    8  A    between atoms: O4_11  and  C8_12 
REMARK    9  A    between atoms: C9_13  and  O5_14 
REMARK   10  A    between atoms: C10_16  and  O6_17 
REMARK   11  A    between atoms: O6_17  and  C11_18 
REMARK   12  A    between atoms: C17_25  and  C19_27 
REMARK   13  A    between atoms: C27_36  and  O9_37 
ROOT
HETATM    1  C8  UNL     1     -10.277 -35.805  21.154  1.00  0.00     0.192 C 
HETATM    2  C9  UNL     1     -11.521 -35.846  20.356  1.00  0.00     0.180 C 
HETATM    3  C10 UNL     1     -12.183 -34.515  20.353  1.00  0.00     0.167 C 
HETATM    4  C13 UNL     1     -11.955 -33.733  21.638  1.00  0.00     0.025 C 
HETATM    5  C14 UNL     1     -12.740 -32.481  21.517  1.00  0.00     0.008 C 
HETATM    6  C15 UNL     1     -12.469 -31.476  22.603  1.00  0.00     0.007 C 
HETATM    7  C16 UNL     1     -11.056 -31.409  23.099  1.00  0.00     0.010 C 
HETATM    8  C17 UNL     1     -10.663 -30.022  23.442  1.00  0.00     0.021 C 
HETATM    9  C18 UNL     1      -9.604 -29.990  24.582  1.00  0.00     0.024 C 
HETATM   10  C21 UNL     1     -10.059 -29.263  22.279  1.00  0.00     0.017 C 
HETATM   11  C22 UNL     1     -10.270 -29.894  20.952  1.00  0.00     0.002 C 
HETATM   12  C23 UNL     1      -9.916 -31.347  20.847  1.00  0.00     0.010 C 
HETATM   13  C24 UNL     1     -10.086 -32.098  22.130  1.00  0.00    -0.033 C 
HETATM   14  C25 UNL     1      -8.725 -32.123  22.786  1.00  0.00     0.016 C 
HETATM   15  C26 UNL     1     -10.520 -33.531  21.999  1.00  0.00     0.032 C 
HETATM   16  C27 UNL     1      -9.681 -34.384  21.137  1.00  0.00     0.155 C 
ENDROOT
BRANCH   1  17
HETATM   17  O4  UNL     1      -9.341 -36.690  20.516  1.00  0.00    -0.309 OA
BRANCH  17  18
HETATM   18  C7  UNL     1      -9.451 -37.099  19.212  1.00  0.00     0.283 C 
HETATM   19  O3  UNL     1      -9.094 -36.298  18.310  1.00  0.00    -0.263 OA
BRANCH  18  20
HETATM   20  C6  UNL     1      -9.976 -38.444  18.827  1.00  0.00     0.289 C 
BRANCH  20  21
HETATM   21  O2  UNL     1      -9.813 -39.364  19.868  1.00  0.00    -0.312 OA
BRANCH  21  22
HETATM   22  C5  UNL     1      -8.692 -40.154  19.948  1.00  0.00     0.259 C 
HETATM   23  O1  UNL     1      -8.233 -40.808  18.966  1.00  0.00    -0.265 OA
BRANCH  22  24
HETATM   24  C4  UNL     1      -7.923 -40.288  21.241  1.00  0.00     0.111 C 
BRANCH  24  25
HETATM   25  C3  UNL     1      -6.884 -39.183  21.246  1.00  0.00     0.009 C 
BRANCH  25  26
HETATM   26  C2  UNL     1      -7.012 -38.340  22.497  1.00  0.00    -0.004 C 
HETATM   27  C1  UNL     1      -8.285 -38.696  23.248  1.00  0.00     0.005 C 
ENDBRANCH  25  26
ENDBRANCH  24  25
ENDBRANCH  22  24
ENDBRANCH  21  22
ENDBRANCH  20  21
ENDBRANCH  18  20
ENDBRANCH  17  18
ENDBRANCH   1  17
BRANCH   2  28
HETATM   28  O5  UNL     1     -12.349 -36.864  20.836  1.00  0.00    -0.390 OA
ATOM     29  H5  UNL     1     -13.005 -37.074  20.182  1.00  0.00     0.210 HD
ENDBRANCH   2  28
BRANCH  16  30
HETATM   30  O9  UNL     1      -9.572 -34.033  19.817  1.00  0.00    -0.392 OA
ATOM     31  H9  UNL     1      -9.623 -33.085  19.792  1.00  0.00     0.210 HD
ENDBRANCH  16  30
BRANCH   3  32
HETATM   32  O6  UNL     1     -13.598 -34.793  20.345  1.00  0.00    -0.313 OA
BRANCH  32  33
HETATM   33  C11 UNL     1     -14.377 -34.546  19.239  1.00  0.00     0.255 C 
HETATM   34  C12 UNL     1     -15.569 -35.374  18.981  1.00  0.00     0.126 C 
HETATM   35  O7  UNL     1     -14.016 -33.594  18.481  1.00  0.00    -0.266 OA
ENDBRANCH  32  33
ENDBRANCH   3  32
BRANCH   8  36
HETATM   36  C19 UNL     1     -11.753 -29.261  24.074  1.00  0.00     0.131 C 
HETATM   37  C20 UNL     1     -12.774 -28.553  23.209  1.00  0.00     0.091 C 
HETATM   38  O8  UNL     1     -11.895 -29.152  25.246  1.00  0.00    -0.298 OA
ENDBRANCH   8  36
TORSDOF 13
ENDMDL
