MODEL 1
REMARK VINA RESULT: -7.270678138      0.000      0.000
REMARK  12 active torsions:
REMARK  status: ('A' for Active; 'I' for Inactive)
REMARK    1  A    between atoms: C8_8  and  O1_9 
REMARK    2  A    between atoms: O1_9  and  C9_10 
REMARK    3  A    between atoms: C9_10  and  C10_12 
REMARK    4  A    between atoms: C10_12  and  C12_14 
REMARK    5  A    between atoms: C12_14  and  C13_15 
REMARK    6  A    between atoms: C13_15  and  O3_16 
REMARK    7  A    between atoms: C13_15  and  C14_18 
REMARK    8  A    between atoms: C19_24  and  O5_25 
REMARK    9  A    between atoms: O5_25  and  C20_26 
REMARK   10  A    between atoms: C23_31  and  C24_32 
REMARK   11  A    between atoms: C24_32  and  O8_33 
REMARK   12  A    between atoms: C26_35  and  O9_36 
ROOT
HETATM    1  C1  UNL     1     -13.342 -38.214  22.380  1.00  0.00     0.014 C 
HETATM    2  C2  UNL     1     -13.106 -37.565  21.253  1.00  0.00    -0.087 C 
HETATM    3  C3  UNL     1     -13.576 -36.129  21.186  1.00  0.00     0.033 C 
HETATM    4  C4  UNL     1     -13.124 -35.317  22.334  1.00  0.00     0.005 C 
HETATM    5  C5  UNL     1     -12.208 -34.186  22.101  1.00  0.00     0.007 C 
HETATM    6  C6  UNL     1     -11.547 -34.081  20.774  1.00  0.00     0.011 C 
HETATM    7  C7  UNL     1     -12.385 -33.105  19.929  1.00  0.00     0.012 C 
HETATM    8  C8  UNL     1     -10.111 -33.623  20.814  1.00  0.00     0.138 C 
HETATM    9  C17 UNL     1      -9.120 -34.685  20.454  1.00  0.00     0.068 C 
HETATM   10  C18 UNL     1      -9.237 -35.959  21.229  1.00  0.00     0.173 A 
HETATM   11  O4  UNL     1      -8.082 -36.245  22.001  1.00  0.00    -0.321 OA
HETATM   12  C19 UNL     1      -7.934 -37.419  21.264  1.00  0.00     0.327 A 
HETATM   13  O7  UNL     1      -7.645 -37.108  19.814  1.00  0.00    -0.307 OA
HETATM   14  C22 UNL     1      -8.932 -37.200  20.458  1.00  0.00     0.185 A 
HETATM   15  C23 UNL     1     -10.006 -37.803  19.688  1.00  0.00     0.084 C 
HETATM   16  C26 UNL     1     -11.004 -38.665  20.411  1.00  0.00     0.131 C 
HETATM   17  C27 UNL     1     -12.429 -38.234  20.152  1.00  0.00     0.065 C 
ENDROOT
BRANCH   8  18
HETATM   18  O1  UNL     1      -9.883 -33.066  22.095  1.00  0.00    -0.315 OA
BRANCH  18  19
HETATM   19  C9  UNL     1      -9.620 -31.714  22.300  1.00  0.00     0.263 C 
HETATM   20  O2  UNL     1      -9.533 -31.044  21.243  1.00  0.00    -0.265 OA
BRANCH  19  21
HETATM   21  C10 UNL     1      -9.463 -31.122  23.647  1.00  0.00     0.084 C 
HETATM   22  C11 UNL     1      -7.962 -30.948  23.966  1.00  0.00     0.020 C 
BRANCH  21  23
HETATM   23  C12 UNL     1     -10.147 -29.794  23.770  1.00  0.00     0.046 C 
BRANCH  23  24
HETATM   24  C13 UNL     1     -11.598 -29.798  24.042  1.00  0.00     0.122 C 
BRANCH  24  25
HETATM   25  O3  UNL     1     -11.990 -29.131  25.176  1.00  0.00    -0.395 OA
ATOM     26  H3  UNL     1     -12.920 -28.952  25.246  1.00  0.00     0.210 HD
ENDBRANCH  24  25
BRANCH  24  27
HETATM   27  C14 UNL     1     -12.417 -29.218  22.901  1.00  0.00     0.006 C 
HETATM   28  C15 UNL     1     -13.498 -28.347  23.529  1.00  0.00     0.012 C 
HETATM   29  C16 UNL     1     -13.088 -30.264  22.078  1.00  0.00     0.012 C 
ENDBRANCH  24  27
ENDBRANCH  23  24
ENDBRANCH  21  23
ENDBRANCH  19  21
ENDBRANCH  18  19
ENDBRANCH   8  18
BRANCH  12  30
HETATM   30  O5  UNL     1      -7.022 -38.392  21.646  1.00  0.00    -0.256 OA
BRANCH  30  31
HETATM   31  C20 UNL     1      -7.297 -39.511  22.391  1.00  0.00     0.259 C 
HETATM   32  C21 UNL     1      -7.480 -40.855  21.779  1.00  0.00     0.126 C 
HETATM   33  O6  UNL     1      -7.389 -39.350  23.642  1.00  0.00    -0.266 OA
ENDBRANCH  30  31
ENDBRANCH  12  30
BRANCH  15  34
HETATM   34  C24 UNL     1      -9.399 -38.519  18.468  1.00  0.00     0.177 C 
BRANCH  34  35
HETATM   35  O8  UNL     1      -9.359 -39.879  18.689  1.00  0.00    -0.395 OA
HETATM   36  C25 UNL     1      -8.071 -40.302  18.288  1.00  0.00     0.201 C 
ENDBRANCH  34  35
ENDBRANCH  15  34
BRANCH  16  37
HETATM   37  O9  UNL     1     -10.701 -38.931  21.714  1.00  0.00    -0.395 OA
ATOM     38  H9  UNL     1     -11.412 -38.793  22.329  1.00  0.00     0.210 HD
ENDBRANCH  16  37
TORSDOF 12
ENDMDL
MODEL 2
REMARK VINA RESULT: -7.149871822      0.867      1.101
REMARK  12 active torsions:
REMARK  status: ('A' for Active; 'I' for Inactive)
REMARK    1  A    between atoms: C8_8  and  O1_9 
REMARK    2  A    between atoms: O1_9  and  C9_10 
REMARK    3  A    between atoms: C9_10  and  C10_12 
REMARK    4  A    between atoms: C10_12  and  C12_14 
REMARK    5  A    between atoms: C12_14  and  C13_15 
REMARK    6  A    between atoms: C13_15  and  O3_16 
REMARK    7  A    between atoms: C13_15  and  C14_18 
REMARK    8  A    between atoms: C19_24  and  O5_25 
REMARK    9  A    between atoms: O5_25  and  C20_26 
REMARK   10  A    between atoms: C23_31  and  C24_32 
REMARK   11  A    between atoms: C24_32  and  O8_33 
REMARK   12  A    between atoms: C26_35  and  O9_36 
ROOT
HETATM    1  C1  UNL     1     -13.298 -38.198  22.494  1.00  0.00     0.014 C 
HETATM    2  C2  UNL     1     -13.117 -37.595  21.332  1.00  0.00    -0.087 C 
HETATM    3  C3  UNL     1     -13.625 -36.175  21.219  1.00  0.00     0.033 C 
HETATM    4  C4  UNL     1     -13.152 -35.301  22.313  1.00  0.00     0.005 C 
HETATM    5  C5  UNL     1     -12.273 -34.162  21.997  1.00  0.00     0.007 C 
HETATM    6  C6  UNL     1     -11.662 -34.101  20.644  1.00  0.00     0.011 C 
HETATM    7  C7  UNL     1     -12.552 -33.184  19.788  1.00  0.00     0.012 C 
HETATM    8  C8  UNL     1     -10.237 -33.610  20.611  1.00  0.00     0.138 C 
HETATM    9  C17 UNL     1      -9.234 -34.665  20.263  1.00  0.00     0.068 C 
HETATM   10  C18 UNL     1      -9.293 -35.905  21.096  1.00  0.00     0.173 A 
HETATM   11  O4  UNL     1      -8.104 -36.130  21.837  1.00  0.00    -0.321 OA
HETATM   12  C19 UNL     1      -7.953 -37.331  21.148  1.00  0.00     0.327 A 
HETATM   13  O7  UNL     1      -7.723 -37.079  19.676  1.00  0.00    -0.307 OA
HETATM   14  C22 UNL     1      -8.985 -37.171  20.370  1.00  0.00     0.185 A 
HETATM   15  C23 UNL     1     -10.070 -37.833  19.667  1.00  0.00     0.084 C 
HETATM   16  C26 UNL     1     -11.021 -38.684  20.463  1.00  0.00     0.131 C 
HETATM   17  C27 UNL     1     -12.464 -38.297  20.237  1.00  0.00     0.065 C 
ENDROOT
BRANCH   8  18
HETATM   18  O1  UNL     1      -9.977 -32.990  21.857  1.00  0.00    -0.315 OA
BRANCH  18  19
HETATM   19  C9  UNL     1      -9.875 -31.612  22.014  1.00  0.00     0.263 C 
HETATM   20  O2  UNL     1      -9.421 -31.014  21.009  1.00  0.00    -0.265 OA
BRANCH  19  21
HETATM   21  C10 UNL     1     -10.275 -30.913  23.257  1.00  0.00     0.084 C 
HETATM   22  C11 UNL     1      -9.624 -29.514  23.297  1.00  0.00     0.020 C 
BRANCH  21  23
HETATM   23  C12 UNL     1     -11.762 -30.765  23.375  1.00  0.00     0.046 C 
BRANCH  23  24
HETATM   24  C13 UNL     1     -12.405 -29.700  22.579  1.00  0.00     0.122 C 
BRANCH  24  25
HETATM   25  O3  UNL     1     -12.941 -30.099  21.379  1.00  0.00    -0.395 OA
ATOM     26  H3  UNL     1     -13.440 -29.438  20.914  1.00  0.00     0.210 HD
ENDBRANCH  24  25
BRANCH  24  27
HETATM   27  C14 UNL     1     -13.519 -28.990  23.329  1.00  0.00     0.006 C 
HETATM   28  C15 UNL     1     -14.357 -28.256  22.289  1.00  0.00     0.012 C 
HETATM   29  C16 UNL     1     -13.012 -27.984  24.305  1.00  0.00     0.012 C 
ENDBRANCH  24  27
ENDBRANCH  23  24
ENDBRANCH  21  23
ENDBRANCH  19  21
ENDBRANCH  18  19
ENDBRANCH   8  18
BRANCH  12  30
HETATM   30  O5  UNL     1      -7.005 -38.266  21.539  1.00  0.00    -0.256 OA
BRANCH  30  31
HETATM   31  C20 UNL     1      -7.233 -39.372  22.318  1.00  0.00     0.259 C 
HETATM   32  C21 UNL     1      -7.492 -40.719  21.740  1.00  0.00     0.126 C 
HETATM   33  O6  UNL     1      -7.211 -39.197  23.570  1.00  0.00    -0.266 OA
ENDBRANCH  30  31
ENDBRANCH  12  30
BRANCH  15  34
HETATM   34  C24 UNL     1      -9.490 -38.589  18.459  1.00  0.00     0.177 C 
BRANCH  34  35
HETATM   35  O8  UNL     1      -9.439 -39.940  18.725  1.00  0.00    -0.395 OA
HETATM   36  C25 UNL     1      -8.173 -40.380  18.275  1.00  0.00     0.201 C 
ENDBRANCH  34  35
ENDBRANCH  15  34
BRANCH  16  37
HETATM   37  O9  UNL     1     -10.665 -38.885  21.764  1.00  0.00    -0.395 OA
ATOM     38  H9  UNL     1     -11.349 -38.709  22.400  1.00  0.00     0.210 HD
ENDBRANCH  16  37
TORSDOF 12
ENDMDL
MODEL 3
REMARK VINA RESULT: -7.046441326      1.281      2.420
REMARK  12 active torsions:
REMARK  status: ('A' for Active; 'I' for Inactive)
REMARK    1  A    between atoms: C8_8  and  O1_9 
REMARK    2  A    between atoms: O1_9  and  C9_10 
REMARK    3  A    between atoms: C9_10  and  C10_12 
REMARK    4  A    between atoms: C10_12  and  C12_14 
REMARK    5  A    between atoms: C12_14  and  C13_15 
REMARK    6  A    between atoms: C13_15  and  O3_16 
REMARK    7  A    between atoms: C13_15  and  C14_18 
REMARK    8  A    between atoms: C19_24  and  O5_25 
REMARK    9  A    between atoms: O5_25  and  C20_26 
REMARK   10  A    between atoms: C23_31  and  C24_32 
REMARK   11  A    between atoms: C24_32  and  O8_33 
REMARK   12  A    between atoms: C26_35  and  O9_36 
ROOT
HETATM    1  C1  UNL     1     -12.884 -37.862  23.031  1.00  0.00     0.014 C 
HETATM    2  C2  UNL     1     -12.782 -37.322  21.829  1.00  0.00    -0.087 C 
HETATM    3  C3  UNL     1     -13.360 -35.936  21.656  1.00  0.00     0.033 C 
HETATM    4  C4  UNL     1     -12.883 -34.978  22.675  1.00  0.00     0.005 C 
HETATM    5  C5  UNL     1     -12.073 -33.821  22.255  1.00  0.00     0.007 C 
HETATM    6  C6  UNL     1     -11.524 -33.814  20.875  1.00  0.00     0.011 C 
HETATM    7  C7  UNL     1     -12.492 -32.990  20.008  1.00  0.00     0.012 C 
HETATM    8  C8  UNL     1     -10.126 -33.262  20.749  1.00  0.00     0.138 C 
HETATM    9  C17 UNL     1      -9.090 -34.290  20.417  1.00  0.00     0.068 C 
HETATM   10  C18 UNL     1      -9.054 -35.479  21.323  1.00  0.00     0.173 A 
HETATM   11  O4  UNL     1      -7.827 -35.606  22.022  1.00  0.00    -0.321 OA
HETATM   12  C19 UNL     1      -7.648 -36.839  21.397  1.00  0.00     0.327 A 
HETATM   13  O7  UNL     1      -7.493 -36.665  19.904  1.00  0.00    -0.307 OA
HETATM   14  C22 UNL     1      -8.718 -36.772  20.659  1.00  0.00     0.185 A 
HETATM   15  C23 UNL     1      -9.800 -37.522  20.044  1.00  0.00     0.084 C 
HETATM   16  C26 UNL     1     -10.674 -38.366  20.930  1.00  0.00     0.131 C 
HETATM   17  C27 UNL     1     -12.142 -38.059  20.748  1.00  0.00     0.065 C 
ENDROOT
BRANCH   8  18
HETATM   18  O1  UNL     1      -9.843 -32.558  21.944  1.00  0.00    -0.315 OA
BRANCH  18  19
HETATM   19  C9  UNL     1      -9.595 -31.190  21.979  1.00  0.00     0.263 C 
HETATM   20  O2  UNL     1      -9.183 -30.716  20.893  1.00  0.00    -0.265 OA
BRANCH  19  21
HETATM   21  C10 UNL     1      -9.804 -30.366  23.191  1.00  0.00     0.084 C 
HETATM   22  C11 UNL     1     -11.216 -30.627  23.758  1.00  0.00     0.020 C 
BRANCH  21  23
HETATM   23  C12 UNL     1      -8.789 -30.651  24.257  1.00  0.00     0.046 C 
BRANCH  23  24
HETATM   24  C13 UNL     1      -8.155 -29.494  24.919  1.00  0.00     0.122 C 
BRANCH  24  25
HETATM   25  O3  UNL     1      -8.993 -28.707  25.670  1.00  0.00    -0.395 OA
ATOM     26  H3  UNL     1      -8.718 -27.805  25.781  1.00  0.00     0.210 HD
ENDBRANCH  24  25
BRANCH  24  27
HETATM   27  C14 UNL     1      -7.008 -29.890  25.835  1.00  0.00     0.006 C 
HETATM   28  C15 UNL     1      -7.102 -29.005  27.072  1.00  0.00     0.012 C 
HETATM   29  C16 UNL     1      -5.670 -29.676  25.215  1.00  0.00     0.012 C 
ENDBRANCH  24  27
ENDBRANCH  23  24
ENDBRANCH  21  23
ENDBRANCH  19  21
ENDBRANCH  18  19
ENDBRANCH   8  18
BRANCH  12  30
HETATM   30  O5  UNL     1      -6.641 -37.705  21.798  1.00  0.00    -0.256 OA
BRANCH  30  31
HETATM   31  C20 UNL     1      -6.810 -38.991  22.247  1.00  0.00     0.259 C 
HETATM   32  C21 UNL     1      -6.510 -40.179  21.402  1.00  0.00     0.126 C 
HETATM   33  O6  UNL     1      -7.238 -39.126  23.429  1.00  0.00    -0.266 OA
ENDBRANCH  30  31
ENDBRANCH  12  30
BRANCH  15  34
HETATM   34  C24 UNL     1      -9.236 -38.323  18.857  1.00  0.00     0.177 C 
BRANCH  34  35
HETATM   35  O8  UNL     1     -10.259 -38.712  18.020  1.00  0.00    -0.395 OA
HETATM   36  C25 UNL     1      -9.985 -40.053  17.666  1.00  0.00     0.201 C 
ENDBRANCH  34  35
ENDBRANCH  15  34
BRANCH  16  37
HETATM   37  O9  UNL     1     -10.255 -38.472  22.224  1.00  0.00    -0.395 OA
ATOM     38  H9  UNL     1     -10.818 -38.990  22.788  1.00  0.00     0.210 HD
ENDBRANCH  16  37
TORSDOF 12
ENDMDL
MODEL 4
REMARK VINA RESULT: -6.936157133      4.701      7.356
REMARK  12 active torsions:
REMARK  status: ('A' for Active; 'I' for Inactive)
REMARK    1  A    between atoms: C8_8  and  O1_9 
REMARK    2  A    between atoms: O1_9  and  C9_10 
REMARK    3  A    between atoms: C9_10  and  C10_12 
REMARK    4  A    between atoms: C10_12  and  C12_14 
REMARK    5  A    between atoms: C12_14  and  C13_15 
REMARK    6  A    between atoms: C13_15  and  O3_16 
REMARK    7  A    between atoms: C13_15  and  C14_18 
REMARK    8  A    between atoms: C19_24  and  O5_25 
REMARK    9  A    between atoms: O5_25  and  C20_26 
REMARK   10  A    between atoms: C23_31  and  C24_32 
REMARK   11  A    between atoms: C24_32  and  O8_33 
REMARK   12  A    between atoms: C26_35  and  O9_36 
ROOT
HETATM    1  C1  UNL     1      -1.947 -35.366  17.745  1.00  0.00     0.014 C 
HETATM    2  C2  UNL     1      -1.525 -35.881  18.887  1.00  0.00    -0.087 C 
HETATM    3  C3  UNL     1      -0.896 -34.922  19.872  1.00  0.00     0.033 C 
HETATM    4  C4  UNL     1      -1.734 -33.735  20.141  1.00  0.00     0.005 C 
HETATM    5  C5  UNL     1      -2.267 -33.519  21.497  1.00  0.00     0.007 C 
HETATM    6  C6  UNL     1      -2.189 -34.642  22.467  1.00  0.00     0.011 C 
HETATM    7  C7  UNL     1      -0.928 -34.413  23.320  1.00  0.00     0.012 C 
HETATM    8  C8  UNL     1      -3.393 -34.794  23.362  1.00  0.00     0.138 C 
HETATM    9  C17 UNL     1      -4.219 -36.008  23.075  1.00  0.00     0.068 C 
HETATM   10  C18 UNL     1      -4.657 -36.164  21.654  1.00  0.00     0.173 A 
HETATM   11  O4  UNL     1      -6.067 -36.134  21.503  1.00  0.00    -0.321 OA
HETATM   12  C19 UNL     1      -5.996 -37.426  20.985  1.00  0.00     0.327 A 
HETATM   13  O7  UNL     1      -5.509 -38.397  22.034  1.00  0.00    -0.307 OA
HETATM   14  C22 UNL     1      -4.714 -37.570  21.159  1.00  0.00     0.185 A 
HETATM   15  C23 UNL     1      -3.492 -38.158  20.637  1.00  0.00     0.084 C 
HETATM   16  C26 UNL     1      -3.087 -37.826  19.228  1.00  0.00     0.131 C 
HETATM   17  C27 UNL     1      -1.671 -37.306  19.144  1.00  0.00     0.065 C 
ENDROOT
BRANCH   8  18
HETATM   18  O1  UNL     1      -4.133 -33.590  23.279  1.00  0.00    -0.315 OA
BRANCH  18  19
HETATM   19  C9  UNL     1      -5.111 -33.234  24.203  1.00  0.00     0.263 C 
HETATM   20  O2  UNL     1      -6.166 -33.909  24.117  1.00  0.00    -0.265 OA
BRANCH  19  21
HETATM   21  C10 UNL     1      -4.921 -32.157  25.200  1.00  0.00     0.084 C 
HETATM   22  C11 UNL     1      -3.412 -31.929  25.436  1.00  0.00     0.020 C 
BRANCH  21  23
HETATM   23  C12 UNL     1      -5.549 -30.865  24.771  1.00  0.00     0.046 C 
BRANCH  23  24
HETATM   24  C13 UNL     1      -5.786 -29.845  25.812  1.00  0.00     0.122 C 
BRANCH  24  25
HETATM   25  O3  UNL     1      -5.454 -28.558  25.467  1.00  0.00    -0.395 OA
ATOM     26  H3  UNL     1      -6.183 -27.956  25.379  1.00  0.00     0.210 HD
ENDBRANCH  24  25
BRANCH  24  27
HETATM   27  C14 UNL     1      -7.230 -29.802  26.282  1.00  0.00     0.006 C 
HETATM   28  C15 UNL     1      -8.104 -29.795  25.033  1.00  0.00     0.012 C 
HETATM   29  C16 UNL     1      -7.547 -28.580  27.074  1.00  0.00     0.012 C 
ENDBRANCH  24  27
ENDBRANCH  23  24
ENDBRANCH  21  23
ENDBRANCH  19  21
ENDBRANCH  18  19
ENDBRANCH   8  18
BRANCH  12  30
HETATM   30  O5  UNL     1      -7.098 -38.016  20.384  1.00  0.00    -0.256 OA
BRANCH  30  31
HETATM   31  C20 UNL     1      -7.555 -37.771  19.113  1.00  0.00     0.259 C 
HETATM   32  C21 UNL     1      -8.910 -38.184  18.656  1.00  0.00     0.126 C 
HETATM   33  O6  UNL     1      -6.763 -37.167  18.333  1.00  0.00    -0.266 OA
ENDBRANCH  30  31
ENDBRANCH  12  30
BRANCH  15  34
HETATM   34  C24 UNL     1      -3.526 -39.676  20.887  1.00  0.00     0.177 C 
BRANCH  34  35
HETATM   35  O8  UNL     1      -2.635 -40.012  21.883  1.00  0.00    -0.395 OA
HETATM   36  C25 UNL     1      -2.293 -41.366  21.660  1.00  0.00     0.201 C 
ENDBRANCH  34  35
ENDBRANCH  15  34
BRANCH  16  37
HETATM   37  O9  UNL     1      -4.012 -37.123  18.511  1.00  0.00    -0.395 OA
ATOM     38  H9  UNL     1      -4.128 -37.411  17.613  1.00  0.00     0.210 HD
ENDBRANCH  16  37
TORSDOF 12
ENDMDL
MODEL 5
REMARK VINA RESULT: -6.877698851      1.433      2.500
REMARK  12 active torsions:
REMARK  status: ('A' for Active; 'I' for Inactive)
REMARK    1  A    between atoms: C8_8  and  O1_9 
REMARK    2  A    between atoms: O1_9  and  C9_10 
REMARK    3  A    between atoms: C9_10  and  C10_12 
REMARK    4  A    between atoms: C10_12  and  C12_14 
REMARK    5  A    between atoms: C12_14  and  C13_15 
REMARK    6  A    between atoms: C13_15  and  O3_16 
REMARK    7  A    between atoms: C13_15  and  C14_18 
REMARK    8  A    between atoms: C19_24  and  O5_25 
REMARK    9  A    between atoms: O5_25  and  C20_26 
REMARK   10  A    between atoms: C23_31  and  C24_32 
REMARK   11  A    between atoms: C24_32  and  O8_33 
REMARK   12  A    between atoms: C26_35  and  O9_36 
ROOT
HETATM    1  C1  UNL     1     -13.044 -38.431  22.567  1.00  0.00     0.014 C 
HETATM    2  C2  UNL     1     -12.920 -37.692  21.479  1.00  0.00    -0.087 C 
HETATM    3  C3  UNL     1     -13.564 -36.324  21.510  1.00  0.00     0.033 C 
HETATM    4  C4  UNL     1     -13.183 -35.531  22.697  1.00  0.00     0.005 C 
HETATM    5  C5  UNL     1     -12.419 -34.284  22.516  1.00  0.00     0.007 C 
HETATM    6  C6  UNL     1     -11.812 -34.020  21.186  1.00  0.00     0.011 C 
HETATM    7  C7  UNL     1     -12.786 -33.107  20.420  1.00  0.00     0.012 C 
HETATM    8  C8  UNL     1     -10.443 -33.392  21.226  1.00  0.00     0.138 C 
HETATM    9  C17 UNL     1      -9.339 -34.300  20.782  1.00  0.00     0.068 C 
HETATM   10  C18 UNL     1      -9.279 -35.622  21.478  1.00  0.00     0.173 A 
HETATM   11  O4  UNL     1      -8.077 -35.809  22.207  1.00  0.00    -0.321 OA
HETATM   12  C19 UNL     1      -7.806 -36.909  21.396  1.00  0.00     0.327 A 
HETATM   13  O7  UNL     1      -7.597 -36.479  19.963  1.00  0.00    -0.307 OA
HETATM   14  C22 UNL     1      -8.846 -36.768  20.625  1.00  0.00     0.185 A 
HETATM   15  C23 UNL     1      -9.858 -37.452  19.840  1.00  0.00     0.084 C 
HETATM   16  C26 UNL     1     -10.724 -38.472  20.528  1.00  0.00     0.131 C 
HETATM   17  C27 UNL     1     -12.197 -38.206  20.325  1.00  0.00     0.065 C 
ENDROOT
BRANCH   8  18
HETATM   18  O1  UNL     1     -10.249 -32.887  22.534  1.00  0.00    -0.315 OA
BRANCH  18  19
HETATM   19  C9  UNL     1     -10.364 -31.537  22.853  1.00  0.00     0.263 C 
HETATM   20  O2  UNL     1     -11.516 -31.194  23.215  1.00  0.00    -0.265 OA
BRANCH  19  21
HETATM   21  C10 UNL     1      -9.226 -30.594  22.778  1.00  0.00     0.084 C 
HETATM   22  C11 UNL     1      -9.397 -29.672  21.551  1.00  0.00     0.020 C 
BRANCH  21  23
HETATM   23  C12 UNL     1      -9.103 -29.749  24.010  1.00  0.00     0.046 C 
BRANCH  23  24
HETATM   24  C13 UNL     1      -8.140 -30.186  25.041  1.00  0.00     0.122 C 
BRANCH  24  25
HETATM   25  O3  UNL     1      -7.299 -31.207  24.672  1.00  0.00    -0.395 OA
ATOM     26  H3  UNL     1      -6.675 -31.483  25.332  1.00  0.00     0.210 HD
ENDBRANCH  24  25
BRANCH  24  27
HETATM   27  C14 UNL     1      -7.250 -29.059  25.537  1.00  0.00     0.006 C 
HETATM   28  C15 UNL     1      -5.810 -29.543  25.415  1.00  0.00     0.012 C 
HETATM   29  C16 UNL     1      -7.499 -28.708  26.964  1.00  0.00     0.012 C 
ENDBRANCH  24  27
ENDBRANCH  23  24
ENDBRANCH  21  23
ENDBRANCH  19  21
ENDBRANCH  18  19
ENDBRANCH   8  18
BRANCH  12  30
HETATM   30  O5  UNL     1      -6.772 -37.783  21.699  1.00  0.00    -0.256 OA
BRANCH  30  31
HETATM   31  C20 UNL     1      -6.906 -39.045  22.222  1.00  0.00     0.259 C 
HETATM   32  C21 UNL     1      -6.727 -40.274  21.404  1.00  0.00     0.126 C 
HETATM   33  O6  UNL     1      -7.191 -39.119  23.452  1.00  0.00    -0.266 OA
ENDBRANCH  30  31
ENDBRANCH  12  30
BRANCH  15  34
HETATM   34  C24 UNL     1      -9.202 -38.014  18.567  1.00  0.00     0.177 C 
BRANCH  34  35
HETATM   35  O8  UNL     1      -8.821 -39.324  18.769  1.00  0.00    -0.395 OA
HETATM   36  C25 UNL     1      -9.439 -40.073  17.742  1.00  0.00     0.201 C 
ENDBRANCH  34  35
ENDBRANCH  15  34
BRANCH  16  37
HETATM   37  O9  UNL     1     -10.354 -38.776  21.806  1.00  0.00    -0.395 OA
ATOM     38  H9  UNL     1     -11.066 -39.041  22.378  1.00  0.00     0.210 HD
ENDBRANCH  16  37
TORSDOF 12
ENDMDL
