MODEL 1
REMARK VINA RESULT: -8.453902627      0.000      0.000
REMARK  8 active torsions:
REMARK  status: ('A' for Active; 'I' for Inactive)
REMARK    1  A    between atoms: N1_1  and  C1_5 
REMARK       I    between atoms: N2_10  and  C5_11 
REMARK    2  A    between atoms: C5_11  and  C6_13 
REMARK    3  A    between atoms: C6_13  and  S2_14 
REMARK    4  A    between atoms: S2_14  and  C7_15 
REMARK    5  A    between atoms: C8_20  and  C9_21 
REMARK    6  A    between atoms: N5_24  and  C12_25 
REMARK    7  A    between atoms: N6_33  and  N7_34 
REMARK    8  A    between atoms: N7_34  and  C20_36 
ROOT
HETATM    1  C7  UNL     1      -7.270 -34.385  23.607  1.00  0.00     0.182 A 
HETATM    2  N3  UNL     1      -8.015 -35.330  23.052  1.00  0.00    -0.277 N 
ATOM      3  H3  UNL     1      -7.791 -36.326  23.047  1.00  0.00     0.189 HD
HETATM    4  N4  UNL     1      -9.075 -34.801  22.515  1.00  0.00    -0.282 N 
ATOM      5  H4  UNL     1      -9.805 -35.321  22.026  1.00  0.00     0.188 HD
HETATM    6  C8  UNL     1      -9.067 -33.415  22.704  1.00  0.00     0.146 A 
HETATM    7  N6  UNL     1      -7.944 -33.177  23.379  1.00  0.00    -0.219 N 
ENDROOT
BRANCH   1   8
HETATM    8  S2  UNL     1      -5.688 -34.552  24.432  1.00  0.00    -0.081 SA
BRANCH   8   9
HETATM    9  C6  UNL     1      -4.342 -33.972  23.329  1.00  0.00     0.185 C 
BRANCH   9  10
HETATM   10  C5  UNL     1      -3.854 -35.061  22.484  1.00  0.00     0.231 C 
HETATM   11  N2  UNL     1      -2.835 -34.917  21.506  1.00  0.00    -0.322 N 
HETATM   12  C1  UNL     1      -2.438 -36.023  20.677  1.00  0.00     0.295 C 
HETATM   13  C4  UNL     1      -2.180 -33.636  21.369  1.00  0.00     0.138 C 
HETATM   14  C2  UNL     1      -0.954 -36.160  20.514  1.00  0.00     0.128 C 
HETATM   15  S1  UNL     1      -0.388 -34.659  19.658  1.00  0.00    -0.164 SA
HETATM   16  C3  UNL     1      -1.647 -33.383  19.966  1.00  0.00     0.094 C 
HETATM   17  O1  UNL     1      -4.363 -36.217  22.617  1.00  0.00    -0.272 OA
BRANCH  12  18
HETATM   18  N1  UNL     1      -3.006 -35.978  19.343  1.00  0.00    -0.057 N 
ATOM     19  H13 UNL     1      -2.340 -36.235  18.614  1.00  0.00     0.276 HD
ATOM     20  H12 UNL     1      -3.682 -36.722  19.169  1.00  0.00     0.276 HD
ATOM     21  H11 UNL     1      -3.396 -35.044  19.218  1.00  0.00     0.276 HD
ENDBRANCH  12  18
ENDBRANCH   9  10
ENDBRANCH   8   9
ENDBRANCH   1   8
BRANCH   7  22
HETATM   22  N7  UNL     1      -7.440 -32.019  23.898  1.00  0.00    -0.321 N 
ATOM     23  H7  UNL     1      -6.703 -31.632  23.308  1.00  0.00     0.181 HD
BRANCH  22  24
HETATM   24  C20 UNL     1      -7.672 -31.215  25.040  1.00  0.00     0.100 C 
HETATM   25  C21 UNL     1      -6.363 -30.587  25.522  1.00  0.00     0.026 C 
HETATM   26  C22 UNL     1      -6.432 -29.112  25.654  1.00  0.00     0.002 C 
HETATM   27  C23 UNL     1      -7.666 -28.649  26.404  1.00  0.00     0.000 C 
HETATM   28  C24 UNL     1      -8.852 -29.031  25.580  1.00  0.00     0.002 C 
HETATM   29  C25 UNL     1      -8.601 -30.083  24.558  1.00  0.00     0.026 C 
ENDBRANCH  22  24
ENDBRANCH   7  22
BRANCH   6  30
HETATM   30  C9  UNL     1     -10.181 -32.598  22.224  1.00  0.00    -0.029 C 
HETATM   31  C10 UNL     1     -11.541 -33.194  22.260  1.00  0.00     0.058 C 
HETATM   32  C11 UNL     1     -12.523 -32.141  21.798  1.00  0.00     0.127 C 
HETATM   33  N5  UNL     1     -12.001 -30.800  21.787  1.00  0.00    -0.380 N 
HETATM   34  C18 UNL     1     -10.754 -30.489  21.123  1.00  0.00     0.127 C 
HETATM   35  C19 UNL     1      -9.954 -31.774  21.001  1.00  0.00     0.058 C 
BRANCH  33  36
HETATM   36  C12 UNL     1     -12.666 -29.692  22.419  1.00  0.00     0.030 A 
HETATM   37  C13 UNL     1     -12.171 -29.220  23.604  1.00  0.00     0.029 A 
HETATM   38  C14 UNL     1     -12.782 -28.165  24.233  1.00  0.00     0.002 A 
HETATM   39  C15 UNL     1     -13.906 -27.544  23.703  1.00  0.00     0.000 A 
HETATM   40  C16 UNL     1     -14.377 -28.043  22.512  1.00  0.00     0.002 A 
HETATM   41  C17 UNL     1     -13.776 -29.108  21.862  1.00  0.00     0.029 A 
ENDBRANCH  33  36
ENDBRANCH   6  30
TORSDOF 8
ENDMDL
MODEL 2
REMARK VINA RESULT: -8.453260211      0.794      1.292
REMARK  8 active torsions:
REMARK  status: ('A' for Active; 'I' for Inactive)
REMARK    1  A    between atoms: N1_1  and  C1_5 
REMARK       I    between atoms: N2_10  and  C5_11 
REMARK    2  A    between atoms: C5_11  and  C6_13 
REMARK    3  A    between atoms: C6_13  and  S2_14 
REMARK    4  A    between atoms: S2_14  and  C7_15 
REMARK    5  A    between atoms: C8_20  and  C9_21 
REMARK    6  A    between atoms: N5_24  and  C12_25 
REMARK    7  A    between atoms: N6_33  and  N7_34 
REMARK    8  A    between atoms: N7_34  and  C20_36 
ROOT
HETATM    1  C7  UNL     1      -7.339 -34.385  23.591  1.00  0.00     0.182 A 
HETATM    2  N3  UNL     1      -8.090 -35.326  23.037  1.00  0.00    -0.277 N 
ATOM      3  H3  UNL     1      -7.872 -36.322  23.031  1.00  0.00     0.189 HD
HETATM    4  N4  UNL     1      -9.146 -34.790  22.499  1.00  0.00    -0.282 N 
ATOM      5  H4  UNL     1      -9.879 -35.305  22.011  1.00  0.00     0.188 HD
HETATM    6  C8  UNL     1      -9.129 -33.404  22.687  1.00  0.00     0.146 A 
HETATM    7  N6  UNL     1      -8.005 -33.173  23.363  1.00  0.00    -0.219 N 
ENDROOT
BRANCH   1   8
HETATM    8  S2  UNL     1      -5.758 -34.562  24.416  1.00  0.00    -0.081 SA
BRANCH   8   9
HETATM    9  C6  UNL     1      -4.565 -35.409  23.310  1.00  0.00     0.185 C 
BRANCH   9  10
HETATM   10  C5  UNL     1      -3.523 -34.486  22.861  1.00  0.00     0.231 C 
HETATM   11  N2  UNL     1      -2.751 -34.667  21.684  1.00  0.00    -0.322 N 
HETATM   12  C1  UNL     1      -1.708 -33.742  21.329  1.00  0.00     0.295 C 
HETATM   13  C4  UNL     1      -3.044 -35.794  20.827  1.00  0.00     0.138 C 
HETATM   14  C2  UNL     1      -1.696 -33.368  19.877  1.00  0.00     0.128 C 
HETATM   15  S1  UNL     1      -1.350 -34.895  18.953  1.00  0.00    -0.164 SA
HETATM   16  C3  UNL     1      -1.836 -36.274  20.035  1.00  0.00     0.094 C 
HETATM   17  O1  UNL     1      -3.277 -33.453  23.556  1.00  0.00    -0.272 OA
BRANCH  12  18
HETATM   18  N1  UNL     1      -0.378 -34.218  21.653  1.00  0.00    -0.057 N 
ATOM     19  H13 UNL     1      -0.372 -35.166  22.032  1.00  0.00     0.276 HD
ATOM     20  H12 UNL     1       0.194 -34.406  20.829  1.00  0.00     0.276 HD
ATOM     21  H11 UNL     1       0.038 -33.532  22.282  1.00  0.00     0.276 HD
ENDBRANCH  12  18
ENDBRANCH   9  10
ENDBRANCH   8   9
ENDBRANCH   1   8
BRANCH   7  22
HETATM   22  N7  UNL     1      -7.493 -32.018  23.881  1.00  0.00    -0.321 N 
ATOM     23  H7  UNL     1      -6.753 -31.636  23.292  1.00  0.00     0.181 HD
BRANCH  22  24
HETATM   24  C20 UNL     1      -7.721 -31.211  25.022  1.00  0.00     0.100 C 
HETATM   25  C21 UNL     1      -6.409 -30.593  25.507  1.00  0.00     0.026 C 
HETATM   26  C22 UNL     1      -6.466 -29.118  25.638  1.00  0.00     0.002 C 
HETATM   27  C23 UNL     1      -7.698 -28.644  26.384  1.00  0.00     0.000 C 
HETATM   28  C24 UNL     1      -8.885 -29.016  25.557  1.00  0.00     0.002 C 
HETATM   29  C25 UNL     1      -8.640 -30.072  24.537  1.00  0.00     0.026 C 
ENDBRANCH  22  24
ENDBRANCH   7  22
BRANCH   6  30
HETATM   30  C9  UNL     1     -10.238 -32.580  22.208  1.00  0.00    -0.029 C 
HETATM   31  C10 UNL     1     -11.602 -33.166  22.246  1.00  0.00     0.058 C 
HETATM   32  C11 UNL     1     -12.577 -32.107  21.783  1.00  0.00     0.127 C 
HETATM   33  N5  UNL     1     -12.046 -30.770  21.769  1.00  0.00    -0.380 N 
HETATM   34  C18 UNL     1     -10.797 -30.468  21.104  1.00  0.00     0.127 C 
HETATM   35  C19 UNL     1     -10.007 -31.759  20.983  1.00  0.00     0.058 C 
BRANCH  33  36
HETATM   36  C12 UNL     1     -12.703 -29.656  22.400  1.00  0.00     0.030 A 
HETATM   37  C13 UNL     1     -12.206 -29.190  23.587  1.00  0.00     0.029 A 
HETATM   38  C14 UNL     1     -12.810 -28.130  24.215  1.00  0.00     0.002 A 
HETATM   39  C15 UNL     1     -13.927 -27.497  23.683  1.00  0.00     0.000 A 
HETATM   40  C16 UNL     1     -14.399 -27.992  22.490  1.00  0.00     0.002 A 
HETATM   41  C17 UNL     1     -13.806 -29.061  21.840  1.00  0.00     0.029 A 
ENDBRANCH  33  36
ENDBRANCH   6  30
TORSDOF 8
ENDMDL
MODEL 3
REMARK VINA RESULT: -8.450534041      1.588      1.978
REMARK  8 active torsions:
REMARK  status: ('A' for Active; 'I' for Inactive)
REMARK    1  A    between atoms: N1_1  and  C1_5 
REMARK       I    between atoms: N2_10  and  C5_11 
REMARK    2  A    between atoms: C5_11  and  C6_13 
REMARK    3  A    between atoms: C6_13  and  S2_14 
REMARK    4  A    between atoms: S2_14  and  C7_15 
REMARK    5  A    between atoms: C8_20  and  C9_21 
REMARK    6  A    between atoms: N5_24  and  C12_25 
REMARK    7  A    between atoms: N6_33  and  N7_34 
REMARK    8  A    between atoms: N7_34  and  C20_36 
ROOT
HETATM    1  C7  UNL     1      -7.291 -34.408  23.560  1.00  0.00     0.182 A 
HETATM    2  N3  UNL     1      -8.036 -35.359  23.014  1.00  0.00    -0.277 N 
ATOM      3  H3  UNL     1      -7.808 -36.353  23.011  1.00  0.00     0.189 HD
HETATM    4  N4  UNL     1      -9.102 -34.836  22.482  1.00  0.00    -0.282 N 
ATOM      5  H4  UNL     1      -9.833 -35.361  22.001  1.00  0.00     0.188 HD
HETATM    6  C8  UNL     1      -9.099 -33.449  22.665  1.00  0.00     0.146 A 
HETATM    7  N6  UNL     1      -7.972 -33.204  23.331  1.00  0.00    -0.219 N 
ENDROOT
BRANCH   1   8
HETATM    8  S2  UNL     1      -5.702 -34.565  24.373  1.00  0.00    -0.081 SA
BRANCH   8   9
HETATM    9  C6  UNL     1      -4.376 -33.900  23.294  1.00  0.00     0.185 C 
BRANCH   9  10
HETATM   10  C5  UNL     1      -3.124 -33.755  24.035  1.00  0.00     0.231 C 
HETATM   11  N2  UNL     1      -1.897 -34.355  23.651  1.00  0.00    -0.322 N 
HETATM   12  C1  UNL     1      -0.713 -34.208  24.456  1.00  0.00     0.295 C 
HETATM   13  C4  UNL     1      -1.847 -35.108  22.418  1.00  0.00     0.138 C 
HETATM   14  C2  UNL     1       0.527 -33.918  23.665  1.00  0.00     0.128 C 
HETATM   15  S1  UNL     1       0.815 -35.367  22.604  1.00  0.00    -0.164 SA
HETATM   16  C3  UNL     1      -0.790 -36.203  22.427  1.00  0.00     0.094 C 
HETATM   17  O1  UNL     1      -3.114 -33.052  25.092  1.00  0.00    -0.272 OA
BRANCH  12  18
HETATM   18  N1  UNL     1      -0.427 -35.367  25.279  1.00  0.00    -0.057 N 
ATOM     19  H13 UNL     1      -1.263 -35.787  25.686  1.00  0.00     0.276 HD
ATOM     20  H12 UNL     1      -0.124 -36.178  24.740  1.00  0.00     0.276 HD
ATOM     21  H11 UNL     1       0.255 -35.073  25.978  1.00  0.00     0.276 HD
ENDBRANCH  12  18
ENDBRANCH   9  10
ENDBRANCH   8   9
ENDBRANCH   1   8
BRANCH   7  22
HETATM   22  N7  UNL     1      -7.468 -32.042  23.841  1.00  0.00    -0.321 N 
ATOM     23  H7  UNL     1      -6.752 -31.643  23.233  1.00  0.00     0.181 HD
BRANCH  22  24
HETATM   24  C20 UNL     1      -7.680 -31.245  24.993  1.00  0.00     0.100 C 
HETATM   25  C21 UNL     1      -6.364 -30.616  25.453  1.00  0.00     0.026 C 
HETATM   26  C22 UNL     1      -6.434 -29.142  25.595  1.00  0.00     0.002 C 
HETATM   27  C23 UNL     1      -7.654 -28.687  26.371  1.00  0.00     0.000 C 
HETATM   28  C24 UNL     1      -8.855 -29.066  25.568  1.00  0.00     0.002 C 
HETATM   29  C25 UNL     1      -8.621 -30.112  24.535  1.00  0.00     0.026 C 
ENDBRANCH  22  24
ENDBRANCH   7  22
BRANCH   6  30
HETATM   30  C9  UNL     1     -10.219 -32.639  22.190  1.00  0.00    -0.029 C 
HETATM   31  C10 UNL     1     -11.578 -33.235  22.252  1.00  0.00     0.058 C 
HETATM   32  C11 UNL     1     -12.567 -32.188  21.790  1.00  0.00     0.127 C 
HETATM   33  N5  UNL     1     -12.046 -30.847  21.754  1.00  0.00    -0.380 N 
HETATM   34  C18 UNL     1     -10.808 -30.544  21.070  1.00  0.00     0.127 C 
HETATM   35  C19 UNL     1     -10.010 -31.830  20.954  1.00  0.00     0.058 C 
BRANCH  33  36
HETATM   36  C12 UNL     1     -12.703 -29.731  22.381  1.00  0.00     0.030 A 
HETATM   37  C13 UNL     1     -12.203 -29.256  23.562  1.00  0.00     0.029 A 
HETATM   38  C14 UNL     1     -12.807 -28.194  24.186  1.00  0.00     0.002 A 
HETATM   39  C15 UNL     1     -13.927 -27.568  23.655  1.00  0.00     0.000 A 
HETATM   40  C16 UNL     1     -14.403 -28.071  22.467  1.00  0.00     0.002 A 
HETATM   41  C17 UNL     1     -13.810 -29.143  21.822  1.00  0.00     0.029 A 
ENDBRANCH  33  36
ENDBRANCH   6  30
TORSDOF 8
ENDMDL
MODEL 4
REMARK VINA RESULT: -8.396706849      4.708      8.736
REMARK  8 active torsions:
REMARK  status: ('A' for Active; 'I' for Inactive)
REMARK    1  A    between atoms: N1_1  and  C1_5 
REMARK       I    between atoms: N2_10  and  C5_11 
REMARK    2  A    between atoms: C5_11  and  C6_13 
REMARK    3  A    between atoms: C6_13  and  S2_14 
REMARK    4  A    between atoms: S2_14  and  C7_15 
REMARK    5  A    between atoms: C8_20  and  C9_21 
REMARK    6  A    between atoms: N5_24  and  C12_25 
REMARK    7  A    between atoms: N6_33  and  N7_34 
REMARK    8  A    between atoms: N7_34  and  C20_36 
ROOT
HETATM    1  C7  UNL     1     -12.290 -34.967  21.415  1.00  0.00     0.182 A 
HETATM    2  N3  UNL     1     -13.222 -34.085  21.081  1.00  0.00    -0.277 N 
ATOM      3  H3  UNL     1     -14.100 -34.309  20.612  1.00  0.00     0.189 HD
HETATM    4  N4  UNL     1     -12.852 -32.891  21.441  1.00  0.00    -0.282 N 
ATOM      5  H4  UNL     1     -13.397 -32.041  21.296  1.00  0.00     0.188 HD
HETATM    6  C8  UNL     1     -11.597 -32.943  22.056  1.00  0.00     0.146 A 
HETATM    7  N6  UNL     1     -11.266 -34.233  22.029  1.00  0.00    -0.219 N 
ENDROOT
BRANCH   1   8
HETATM    8  S2  UNL     1     -12.263 -36.732  21.108  1.00  0.00    -0.081 SA
BRANCH   8   9
HETATM    9  C6  UNL     1     -12.908 -37.633  22.570  1.00  0.00     0.185 C 
BRANCH   9  10
HETATM   10  C5  UNL     1     -14.283 -37.232  22.866  1.00  0.00     0.231 C 
HETATM   11  N2  UNL     1     -15.420 -37.705  22.160  1.00  0.00    -0.322 N 
HETATM   12  C1  UNL     1     -16.741 -37.230  22.476  1.00  0.00     0.295 C 
HETATM   13  C4  UNL     1     -15.234 -38.696  21.125  1.00  0.00     0.138 C 
HETATM   14  C2  UNL     1     -17.779 -38.311  22.532  1.00  0.00     0.128 C 
HETATM   15  S1  UNL     1     -17.882 -39.015  20.859  1.00  0.00    -0.164 SA
HETATM   16  C3  UNL     1     -16.302 -38.639  20.042  1.00  0.00     0.094 C 
HETATM   17  O1  UNL     1     -14.493 -36.408  23.809  1.00  0.00    -0.272 OA
BRANCH  12  18
HETATM   18  N1  UNL     1     -17.229 -36.224  21.552  1.00  0.00    -0.057 N 
ATOM     19  H13 UNL     1     -18.244 -36.234  21.447  1.00  0.00     0.276 HD
ATOM     20  H12 UNL     1     -17.146 -35.273  21.912  1.00  0.00     0.276 HD
ATOM     21  H11 UNL     1     -16.733 -36.365  20.671  1.00  0.00     0.276 HD
ENDBRANCH  12  18
ENDBRANCH   9  10
ENDBRANCH   8   9
ENDBRANCH   1   8
BRANCH   7  22
HETATM   22  N7  UNL     1     -10.184 -34.891  22.541  1.00  0.00    -0.321 N 
ATOM     23  H7  UNL     1     -10.457 -35.568  23.253  1.00  0.00     0.181 HD
BRANCH  22  24
HETATM   24  C20 UNL     1      -8.782 -34.879  22.342  1.00  0.00     0.100 C 
HETATM   25  C21 UNL     1      -8.120 -33.871  23.283  1.00  0.00     0.026 C 
HETATM   26  C22 UNL     1      -7.034 -34.458  24.104  1.00  0.00     0.002 C 
HETATM   27  C23 UNL     1      -6.063 -35.284  23.283  1.00  0.00     0.000 C 
HETATM   28  C24 UNL     1      -6.824 -36.449  22.740  1.00  0.00     0.002 C 
HETATM   29  C25 UNL     1      -8.304 -36.291  22.735  1.00  0.00     0.026 C 
ENDBRANCH  22  24
ENDBRANCH   7  22
BRANCH   6  30
HETATM   30  C9  UNL     1     -10.984 -31.728  22.589  1.00  0.00    -0.029 C 
HETATM   31  C10 UNL     1     -11.768 -30.930  23.568  1.00  0.00     0.058 C 
HETATM   32  C11 UNL     1     -10.902 -29.780  24.031  1.00  0.00     0.127 C 
HETATM   33  N5  UNL     1      -9.503 -29.924  23.725  1.00  0.00    -0.380 N 
HETATM   34  C18 UNL     1      -9.059 -30.230  22.382  1.00  0.00     0.127 C 
HETATM   35  C19 UNL     1     -10.219 -30.868  21.639  1.00  0.00     0.058 C 
BRANCH  33  36
HETATM   36  C12 UNL     1      -8.464 -29.773  24.708  1.00  0.00     0.030 A 
HETATM   37  C13 UNL     1      -8.656 -28.889  25.734  1.00  0.00     0.029 A 
HETATM   38  C14 UNL     1      -7.684 -28.721  26.688  1.00  0.00     0.002 A 
HETATM   39  C15 UNL     1      -6.489 -29.428  26.653  1.00  0.00     0.000 A 
HETATM   40  C16 UNL     1      -6.329 -30.308  25.609  1.00  0.00     0.002 A 
HETATM   41  C17 UNL     1      -7.296 -30.491  24.635  1.00  0.00     0.029 A 
ENDBRANCH  33  36
ENDBRANCH   6  30
TORSDOF 8
ENDMDL
MODEL 5
REMARK VINA RESULT: -8.379110334      4.807      9.077
REMARK  8 active torsions:
REMARK  status: ('A' for Active; 'I' for Inactive)
REMARK    1  A    between atoms: N1_1  and  C1_5 
REMARK       I    between atoms: N2_10  and  C5_11 
REMARK    2  A    between atoms: C5_11  and  C6_13 
REMARK    3  A    between atoms: C6_13  and  S2_14 
REMARK    4  A    between atoms: S2_14  and  C7_15 
REMARK    5  A    between atoms: C8_20  and  C9_21 
REMARK    6  A    between atoms: N5_24  and  C12_25 
REMARK    7  A    between atoms: N6_33  and  N7_34 
REMARK    8  A    between atoms: N7_34  and  C20_36 
ROOT
HETATM    1  C7  UNL     1     -12.314 -34.748  21.349  1.00  0.00     0.182 A 
HETATM    2  N3  UNL     1     -13.221 -33.841  21.015  1.00  0.00    -0.277 N 
ATOM      3  H3  UNL     1     -14.090 -34.038  20.518  1.00  0.00     0.189 HD
HETATM    4  N4  UNL     1     -12.839 -32.664  21.414  1.00  0.00    -0.282 N 
ATOM      5  H4  UNL     1     -13.365 -31.801  21.277  1.00  0.00     0.188 HD
HETATM    6  C8  UNL     1     -11.601 -32.755  22.059  1.00  0.00     0.146 A 
HETATM    7  N6  UNL     1     -11.292 -34.049  22.007  1.00  0.00    -0.219 N 
ENDROOT
BRANCH   1   8
HETATM    8  S2  UNL     1     -12.311 -36.505  20.997  1.00  0.00    -0.081 SA
BRANCH   8   9
HETATM    9  C6  UNL     1     -13.966 -37.030  20.405  1.00  0.00     0.185 C 
BRANCH   9  10
HETATM   10  C5  UNL     1     -14.835 -37.380  21.528  1.00  0.00     0.231 C 
HETATM   11  N2  UNL     1     -16.237 -37.159  21.549  1.00  0.00    -0.322 N 
HETATM   12  C1  UNL     1     -17.023 -37.486  22.709  1.00  0.00     0.295 C 
HETATM   13  C4  UNL     1     -16.874 -36.616  20.371  1.00  0.00     0.138 C 
HETATM   14  C2  UNL     1     -18.315 -38.178  22.393  1.00  0.00     0.128 C 
HETATM   15  S1  UNL     1     -19.308 -37.002  21.425  1.00  0.00    -0.164 SA
HETATM   16  C3  UNL     1     -18.136 -35.826  20.683  1.00  0.00     0.094 C 
HETATM   17  O1  UNL     1     -14.322 -37.914  22.559  1.00  0.00    -0.272 OA
BRANCH  12  18
HETATM   18  N1  UNL     1     -17.352 -36.334  23.527  1.00  0.00    -0.057 N 
ATOM     19  H13 UNL     1     -17.343 -36.536  24.528  1.00  0.00     0.276 HD
ATOM     20  H12 UNL     1     -16.620 -35.624  23.533  1.00  0.00     0.276 HD
ATOM     21  H11 UNL     1     -18.250 -35.982  23.197  1.00  0.00     0.276 HD
ENDBRANCH  12  18
ENDBRANCH   9  10
ENDBRANCH   8   9
ENDBRANCH   1   8
BRANCH   7  22
HETATM   22  N7  UNL     1     -10.236 -34.739  22.529  1.00  0.00    -0.321 N 
ATOM     23  H7  UNL     1     -10.533 -35.390  23.256  1.00  0.00     0.181 HD
BRANCH  22  24
HETATM   24  C20 UNL     1      -8.835 -34.788  22.324  1.00  0.00     0.100 C 
HETATM   25  C21 UNL     1      -8.127 -33.812  23.264  1.00  0.00     0.026 C 
HETATM   26  C22 UNL     1      -7.064 -34.446  24.079  1.00  0.00     0.002 C 
HETATM   27  C23 UNL     1      -6.133 -35.313  23.255  1.00  0.00     0.000 C 
HETATM   28  C24 UNL     1      -6.946 -36.443  22.713  1.00  0.00     0.002 C 
HETATM   29  C25 UNL     1      -8.418 -36.221  22.714  1.00  0.00     0.026 C 
ENDBRANCH  22  24
ENDBRANCH   7  22
BRANCH   6  30
HETATM   30  C9  UNL     1     -10.981 -31.564  22.637  1.00  0.00    -0.029 C 
HETATM   31  C10 UNL     1     -11.742 -30.822  23.674  1.00  0.00     0.058 C 
HETATM   32  C11 UNL     1     -10.870 -29.692  24.174  1.00  0.00     0.127 C 
HETATM   33  N5  UNL     1      -9.479 -29.812  23.826  1.00  0.00    -0.380 N 
HETATM   34  C18 UNL     1      -9.068 -30.047  22.459  1.00  0.00     0.127 C 
HETATM   35  C19 UNL     1     -10.244 -30.653  21.714  1.00  0.00     0.058 C 
BRANCH  33  36
HETATM   36  C12 UNL     1      -8.416 -29.706  24.790  1.00  0.00     0.030 A 
HETATM   37  C13 UNL     1      -8.574 -28.852  25.847  1.00  0.00     0.029 A 
HETATM   38  C14 UNL     1      -7.578 -28.727  26.783  1.00  0.00     0.002 A 
HETATM   39  C15 UNL     1      -6.393 -29.447  26.699  1.00  0.00     0.000 A 
HETATM   40  C16 UNL     1      -6.269 -30.296  25.624  1.00  0.00     0.002 A 
HETATM   41  C17 UNL     1      -7.260 -30.436  24.668  1.00  0.00     0.029 A 
ENDBRANCH  33  36
ENDBRANCH   6  30
TORSDOF 8
ENDMDL
