MODEL 1
REMARK VINA RESULT: -7.387537251      0.000      0.000
REMARK  5 active torsions:
REMARK  status: ('A' for Active; 'I' for Inactive)
REMARK    1  A    between atoms: O1_2  and  C2_3 
REMARK    2  A    between atoms: C3_4  and  O2_5 
REMARK    3  A    between atoms: C9_13  and  O4_14 
REMARK    4  A    between atoms: N1_19  and  O6_20 
REMARK    5  A    between atoms: N2_26  and  O9_27 
ROOT
HETATM    1  C2  UNL     1      -6.392 -10.730  18.357  1.00  0.00     0.121 A 
HETATM    2  C3  UNL     1      -6.303 -10.870  16.969  1.00  0.00     0.132 A 
HETATM    3  C4  UNL     1      -7.201 -11.662  16.299  1.00  0.00     0.134 A 
HETATM    4  C5  UNL     1      -8.196 -12.324  16.987  1.00  0.00     0.133 A 
HETATM    5  C6  UNL     1      -8.292 -12.194  18.353  1.00  0.00     0.124 A 
HETATM    6  O3  UNL     1      -9.232 -12.819  19.019  1.00  0.00    -0.309 OA
HETATM    7  C7  UNL     1      -9.359 -12.728  20.311  1.00  0.00     0.087 A 
HETATM    8  C8  UNL     1     -10.445 -13.453  21.056  1.00  0.00     0.079 C 
HETATM    9  C9  UNL     1      -8.507 -11.962  21.067  1.00  0.00     0.146 A 
HETATM   10  C10 UNL     1      -7.493 -11.275  20.421  1.00  0.00     0.223 A 
HETATM   11  O5  UNL     1      -6.718 -10.580  21.110  1.00  0.00    -0.284 OA
HETATM   12  C11 UNL     1      -7.379 -11.386  19.051  1.00  0.00     0.089 A 
HETATM   13  N1  UNL     1      -9.078 -13.105  16.299  1.00  0.00    -0.178 N 
HETATM   14  C12 UNL     1      -9.009 -13.251  14.973  1.00  0.00     0.342 A 
HETATM   15  O7  UNL     1      -9.825 -13.972  14.348  1.00  0.00    -0.259 OA
HETATM   16  C13 UNL     1      -8.017 -12.590  14.301  1.00  0.00     0.342 A 
HETATM   17  O8  UNL     1      -7.897 -12.684  13.050  1.00  0.00    -0.259 OA
HETATM   18  N2  UNL     1      -7.131 -11.811  14.945  1.00  0.00    -0.178 N 
ENDROOT
BRANCH   1  19
HETATM   19  O1  UNL     1      -5.498  -9.937  19.043  1.00  0.00    -0.352 OA
HETATM   20  C1  UNL     1      -5.527  -8.519  19.042  1.00  0.00     0.210 C 
ENDBRANCH   1  19
BRANCH   2  21
HETATM   21  O2  UNL     1      -5.288 -10.187  16.325  1.00  0.00    -0.356 OA
ATOM     22  H2  UNL     1      -4.661 -10.701  15.830  1.00  0.00     0.218 HD
ENDBRANCH   2  21
BRANCH  18  23
HETATM   23  O9  UNL     1      -6.145 -11.157  14.257  1.00  0.00    -0.279 OA
ATOM     24  H9  UNL     1      -6.383 -10.635  13.500  1.00  0.00     0.245 HD
ENDBRANCH  18  23
BRANCH   9  25
HETATM   25  O4  UNL     1      -8.654 -11.870  22.466  1.00  0.00    -0.355 OA
ATOM     26  H4  UNL     1      -8.473 -11.060  22.928  1.00  0.00     0.218 HD
ENDBRANCH   9  25
BRANCH  13  27
HETATM   27  O6  UNL     1     -10.059 -13.750  17.028  1.00  0.00    -0.279 OA
ATOM     28  H6  UNL     1     -10.088 -14.698  16.979  1.00  0.00     0.245 HD
ENDBRANCH  13  27
TORSDOF 5
ENDMDL
MODEL 2
REMARK VINA RESULT: -7.150459582      1.519      5.151
REMARK  5 active torsions:
REMARK  status: ('A' for Active; 'I' for Inactive)
REMARK    1  A    between atoms: O1_2  and  C2_3 
REMARK    2  A    between atoms: C3_4  and  O2_5 
REMARK    3  A    between atoms: C9_13  and  O4_14 
REMARK    4  A    between atoms: N1_19  and  O6_20 
REMARK    5  A    between atoms: N2_26  and  O9_27 
ROOT
HETATM    1  C2  UNL     1      -6.145 -10.849  17.708  1.00  0.00     0.121 A 
HETATM    2  C3  UNL     1      -6.441 -10.867  19.074  1.00  0.00     0.132 A 
HETATM    3  C4  UNL     1      -7.534 -11.560  19.532  1.00  0.00     0.134 A 
HETATM    4  C5  UNL     1      -8.346 -12.243  18.651  1.00  0.00     0.133 A 
HETATM    5  C6  UNL     1      -8.064 -12.230  17.305  1.00  0.00     0.124 A 
HETATM    6  O3  UNL     1      -8.829 -12.874  16.457  1.00  0.00    -0.309 OA
HETATM    7  C7  UNL     1      -8.604 -12.887  15.175  1.00  0.00     0.087 A 
HETATM    8  C8  UNL     1      -9.494 -13.631  14.219  1.00  0.00     0.079 C 
HETATM    9  C9  UNL     1      -7.538 -12.222  14.624  1.00  0.00     0.146 A 
HETATM   10  C10 UNL     1      -6.691 -11.524  15.468  1.00  0.00     0.223 A 
HETATM   11  O5  UNL     1      -5.723 -10.917  14.966  1.00  0.00    -0.284 OA
HETATM   12  C11 UNL     1      -6.949 -11.526  16.822  1.00  0.00     0.089 A 
HETATM   13  N1  UNL     1      -9.426 -12.926  19.130  1.00  0.00    -0.178 N 
HETATM   14  C12 UNL     1      -9.724 -12.955  20.432  1.00  0.00     0.342 A 
HETATM   15  O7  UNL     1     -10.720 -13.586  20.864  1.00  0.00    -0.259 OA
HETATM   16  C13 UNL     1      -8.911 -12.274  21.296  1.00  0.00     0.342 A 
HETATM   17  O8  UNL     1      -9.136 -12.262  22.536  1.00  0.00    -0.259 OA
HETATM   18  N2  UNL     1      -7.839 -11.591  20.861  1.00  0.00    -0.178 N 
ENDROOT
BRANCH   1  19
HETATM   19  O1  UNL     1      -5.052 -10.158  17.234  1.00  0.00    -0.352 OA
HETATM   20  C1  UNL     1      -4.848  -8.766  17.416  1.00  0.00     0.210 C 
ENDBRANCH   1  19
BRANCH   2  21
HETATM   21  O2  UNL     1      -5.598 -10.168  19.917  1.00  0.00    -0.356 OA
ATOM     22  H2  UNL     1      -5.998  -9.648  20.604  1.00  0.00     0.218 HD
ENDBRANCH   2  21
BRANCH  18  23
HETATM   23  O9  UNL     1      -7.036 -10.915  21.740  1.00  0.00    -0.279 OA
ATOM     24  H9  UNL     1      -7.431 -10.291  22.337  1.00  0.00     0.245 HD
ENDBRANCH  18  23
BRANCH   9  25
HETATM   25  O4  UNL     1      -7.303 -12.243  13.234  1.00  0.00    -0.355 OA
ATOM     26  H4  UNL     1      -6.420 -12.221  12.883  1.00  0.00     0.218 HD
ENDBRANCH   9  25
BRANCH  13  27
HETATM   27  O6  UNL     1     -10.213 -13.595  18.212  1.00  0.00    -0.279 OA
ATOM     28  H6  UNL     1     -10.960 -14.076  18.546  1.00  0.00     0.245 HD
ENDBRANCH  13  27
TORSDOF 5
ENDMDL
MODEL 3
REMARK VINA RESULT: -7.134070715      1.718      5.157
REMARK  5 active torsions:
REMARK  status: ('A' for Active; 'I' for Inactive)
REMARK    1  A    between atoms: O1_2  and  C2_3 
REMARK    2  A    between atoms: C3_4  and  O2_5 
REMARK    3  A    between atoms: C9_13  and  O4_14 
REMARK    4  A    between atoms: N1_19  and  O6_20 
REMARK    5  A    between atoms: N2_26  and  O9_27 
ROOT
HETATM    1  C2  UNL     1      -6.613 -11.339  15.773  1.00  0.00     0.121 A 
HETATM    2  C3  UNL     1      -6.026 -10.701  16.870  1.00  0.00     0.132 A 
HETATM    3  C4  UNL     1      -6.578 -10.835  18.120  1.00  0.00     0.134 A 
HETATM    4  C5  UNL     1      -7.712 -11.597  18.303  1.00  0.00     0.133 A 
HETATM    5  C6  UNL     1      -8.298 -12.228  17.230  1.00  0.00     0.124 A 
HETATM    6  O3  UNL     1      -9.377 -12.954  17.391  1.00  0.00    -0.309 OA
HETATM    7  C7  UNL     1      -9.968 -13.566  16.406  1.00  0.00     0.087 A 
HETATM    8  C8  UNL     1     -11.206 -14.394  16.611  1.00  0.00     0.079 C 
HETATM    9  C9  UNL     1      -9.491 -13.489  15.120  1.00  0.00     0.146 A 
HETATM   10  C10 UNL     1      -8.353 -12.738  14.886  1.00  0.00     0.223 A 
HETATM   11  O5  UNL     1      -7.921 -12.667  13.717  1.00  0.00    -0.284 OA
HETATM   12  C11 UNL     1      -7.744 -12.100  15.946  1.00  0.00     0.089 A 
HETATM   13  N1  UNL     1      -8.242 -11.717  19.555  1.00  0.00    -0.178 N 
HETATM   14  C12 UNL     1      -7.694 -11.115  20.615  1.00  0.00     0.342 A 
HETATM   15  O7  UNL     1      -8.189 -11.230  21.763  1.00  0.00    -0.259 OA
HETATM   16  C13 UNL     1      -6.570 -10.361  20.420  1.00  0.00     0.342 A 
HETATM   17  O8  UNL     1      -6.004  -9.768  21.377  1.00  0.00    -0.259 OA
HETATM   18  N2  UNL     1      -6.020 -10.221  19.203  1.00  0.00    -0.178 N 
ENDROOT
BRANCH   1  19
HETATM   19  O1  UNL     1      -6.070 -11.214  14.513  1.00  0.00    -0.352 OA
HETATM   20  C1  UNL     1      -5.050 -12.056  13.999  1.00  0.00     0.210 C 
ENDBRANCH   1  19
BRANCH   2  21
HETATM   21  O2  UNL     1      -4.891  -9.948  16.635  1.00  0.00    -0.356 OA
ATOM     22  H2  UNL     1      -4.229  -9.931  17.316  1.00  0.00     0.218 HD
ENDBRANCH   2  21
BRANCH  18  23
HETATM   23  O9  UNL     1      -4.894  -9.463  19.026  1.00  0.00    -0.279 OA
ATOM     24  H9  UNL     1      -4.754  -8.710  19.587  1.00  0.00     0.245 HD
ENDBRANCH  18  23
BRANCH   9  25
HETATM   25  O4  UNL     1     -10.139 -14.157  14.061  1.00  0.00    -0.355 OA
ATOM     26  H4  UNL     1      -9.645 -14.535  13.342  1.00  0.00     0.218 HD
ENDBRANCH   9  25
BRANCH  13  27
HETATM   27  O6  UNL     1      -9.379 -12.490  19.693  1.00  0.00    -0.279 OA
ATOM     28  H6  UNL     1      -9.592 -12.801  20.564  1.00  0.00     0.245 HD
ENDBRANCH  13  27
TORSDOF 5
ENDMDL
MODEL 4
REMARK VINA RESULT: -7.121104684      1.392      3.934
REMARK  5 active torsions:
REMARK  status: ('A' for Active; 'I' for Inactive)
REMARK    1  A    between atoms: O1_2  and  C2_3 
REMARK    2  A    between atoms: C3_4  and  O2_5 
REMARK    3  A    between atoms: C9_13  and  O4_14 
REMARK    4  A    between atoms: N1_19  and  O6_20 
REMARK    5  A    between atoms: N2_26  and  O9_27 
ROOT
HETATM    1  C2  UNL     1     -10.042 -13.268  18.132  1.00  0.00     0.121 A 
HETATM    2  C3  UNL     1      -9.909 -13.420  16.749  1.00  0.00     0.132 A 
HETATM    3  C4  UNL     1      -8.823 -12.886  16.100  1.00  0.00     0.134 A 
HETATM    4  C5  UNL     1      -7.858 -12.199  16.806  1.00  0.00     0.133 A 
HETATM    5  C6  UNL     1      -7.980 -12.043  18.167  1.00  0.00     0.124 A 
HETATM    6  O3  UNL     1      -7.071 -11.390  18.848  1.00  0.00    -0.309 OA
HETATM    7  C7  UNL     1      -7.146 -11.215  20.136  1.00  0.00     0.087 A 
HETATM    8  C8  UNL     1      -6.092 -10.463  20.900  1.00  0.00     0.079 C 
HETATM    9  C9  UNL     1      -8.195 -11.710  20.870  1.00  0.00     0.146 A 
HETATM   10  C10 UNL     1      -9.188 -12.410  20.208  1.00  0.00     0.223 A 
HETATM   11  O5  UNL     1     -10.143 -12.858  20.876  1.00  0.00    -0.284 OA
HETATM   12  C11 UNL     1      -9.086 -12.584  18.843  1.00  0.00     0.089 A 
HETATM   13  N1  UNL     1      -6.787 -11.678  16.139  1.00  0.00    -0.178 N 
HETATM   14  C12 UNL     1      -6.642 -11.813  14.818  1.00  0.00     0.342 A 
HETATM   15  O7  UNL     1      -5.654 -11.331  14.213  1.00  0.00    -0.259 OA
HETATM   16  C13 UNL     1      -7.606 -12.497  14.129  1.00  0.00     0.342 A 
HETATM   17  O8  UNL     1      -7.529 -12.661  12.882  1.00  0.00    -0.259 OA
HETATM   18  N2  UNL     1      -8.674 -13.024  14.751  1.00  0.00    -0.178 N 
ENDROOT
BRANCH   1  19
HETATM   19  O1  UNL     1     -11.126 -13.799  18.797  1.00  0.00    -0.352 OA
HETATM   20  C1  UNL     1     -11.341 -15.188  18.988  1.00  0.00     0.210 C 
ENDBRANCH   1  19
BRANCH   2  21
HETATM   21  O2  UNL     1     -10.902 -14.116  16.087  1.00  0.00    -0.356 OA
ATOM     22  H2  UNL     1     -10.638 -14.669  15.361  1.00  0.00     0.218 HD
ENDBRANCH   2  21
BRANCH  18  23
HETATM   23  O9  UNL     1      -9.629 -13.705  14.047  1.00  0.00    -0.279 OA
ATOM     24  H9  UNL     1      -9.532 -13.791  13.106  1.00  0.00     0.245 HD
ENDBRANCH  18  23
BRANCH   9  25
HETATM   25  O4  UNL     1      -8.267 -11.515  22.265  1.00  0.00    -0.355 OA
ATOM     26  H4  UNL     1      -8.904 -10.923  22.647  1.00  0.00     0.218 HD
ENDBRANCH   9  25
BRANCH  13  27
HETATM   27  O6  UNL     1      -5.844 -10.997  16.885  1.00  0.00    -0.279 OA
ATOM     28  H6  UNL     1      -5.256 -11.513  17.423  1.00  0.00     0.245 HD
ENDBRANCH  13  27
TORSDOF 5
ENDMDL
MODEL 5
REMARK VINA RESULT: -6.978730655      1.803      6.184
REMARK  5 active torsions:
REMARK  status: ('A' for Active; 'I' for Inactive)
REMARK    1  A    between atoms: O1_2  and  C2_3 
REMARK    2  A    between atoms: C3_4  and  O2_5 
REMARK    3  A    between atoms: C9_13  and  O4_14 
REMARK    4  A    between atoms: N1_19  and  O6_20 
REMARK    5  A    between atoms: N2_26  and  O9_27 
ROOT
HETATM    1  C2  UNL     1      -9.251 -12.599  17.998  1.00  0.00     0.121 A 
HETATM    2  C3  UNL     1      -8.913 -11.817  19.106  1.00  0.00     0.132 A 
HETATM    3  C4  UNL     1      -7.883 -10.914  19.021  1.00  0.00     0.134 A 
HETATM    4  C5  UNL     1      -7.177 -10.770  17.845  1.00  0.00     0.133 A 
HETATM    5  C6  UNL     1      -7.501 -11.535  16.749  1.00  0.00     0.124 A 
HETATM    6  O3  UNL     1      -6.837 -11.409  15.627  1.00  0.00    -0.309 OA
HETATM    7  C7  UNL     1      -7.105 -12.113  14.566  1.00  0.00     0.087 A 
HETATM    8  C8  UNL     1      -6.331 -11.954  13.287  1.00  0.00     0.079 C 
HETATM    9  C9  UNL     1      -8.115 -13.044  14.555  1.00  0.00     0.146 A 
HETATM   10  C10 UNL     1      -8.855 -13.223  15.711  1.00  0.00     0.223 A 
HETATM   11  O5  UNL     1      -9.772 -14.070  15.701  1.00  0.00    -0.284 OA
HETATM   12  C11 UNL     1      -8.553 -12.463  16.822  1.00  0.00     0.089 A 
HETATM   13  N1  UNL     1      -6.158  -9.864  17.784  1.00  0.00    -0.178 N 
HETATM   14  C12 UNL     1      -5.820  -9.107  18.832  1.00  0.00     0.342 A 
HETATM   15  O7  UNL     1      -4.881  -8.277  18.768  1.00  0.00    -0.259 OA
HETATM   16  C13 UNL     1      -6.528  -9.260  19.993  1.00  0.00     0.342 A 
HETATM   17  O8  UNL     1      -6.261  -8.577  21.018  1.00  0.00    -0.259 OA
HETATM   18  N2  UNL     1      -7.537 -10.141  20.090  1.00  0.00    -0.178 N 
ENDROOT
BRANCH   1  19
HETATM   19  O1  UNL     1     -10.283 -13.510  18.067  1.00  0.00    -0.352 OA
HETATM   20  C1  UNL     1     -10.227 -14.721  18.804  1.00  0.00     0.210 C 
ENDBRANCH   1  19
BRANCH   2  21
HETATM   21  O2  UNL     1      -9.649 -11.999  20.260  1.00  0.00    -0.356 OA
ATOM     22  H2  UNL     1      -9.217 -12.423  20.993  1.00  0.00     0.218 HD
ENDBRANCH   2  21
BRANCH  18  23
HETATM   23  O9  UNL     1      -8.235 -10.280  21.259  1.00  0.00    -0.279 OA
ATOM     24  H9  UNL     1      -7.926 -10.901  21.908  1.00  0.00     0.245 HD
ENDBRANCH  18  23
BRANCH   9  25
HETATM   25  O4  UNL     1      -8.398 -13.801  13.400  1.00  0.00    -0.355 OA
ATOM     26  H4  UNL     1      -8.275 -13.438  12.531  1.00  0.00     0.218 HD
ENDBRANCH   9  25
BRANCH  13  27
HETATM   27  O6  UNL     1      -5.477  -9.753  16.587  1.00  0.00    -0.279 OA
ATOM     28  H6  UNL     1      -5.416  -8.889  16.197  1.00  0.00     0.245 HD
ENDBRANCH  13  27
TORSDOF 5
ENDMDL
