MODEL 1
REMARK VINA RESULT: -7.075652234      0.000      0.000
REMARK  4 active torsions:
REMARK  status: ('A' for Active; 'I' for Inactive)
REMARK    1  A    between atoms: O1_2  and  C2_3 
REMARK    2  A    between atoms: C3_4  and  O2_5 
REMARK    3  A    between atoms: N5_21  and  O4_22 
REMARK    4  A    between atoms: C9_24  and  N6_25 
REMARK       I    between atoms: N6_25  and  C10_27 
ROOT
HETATM    1  C2  UNL     1      -7.470 -11.126  19.624  1.00  0.00     0.149 A 
HETATM    2  C3  UNL     1      -8.306 -11.937  18.856  1.00  0.00     0.122 A 
HETATM    3  C4  UNL     1      -8.084 -11.986  17.495  1.00  0.00     0.116 A 
HETATM    4  C5  UNL     1      -8.845 -12.750  16.639  1.00  0.00     0.285 A 
HETATM    5  O3  UNL     1      -9.781 -13.431  17.123  1.00  0.00    -0.266 OA
HETATM    6  N1  UNL     1      -8.619 -12.793  15.294  1.00  0.00    -0.085 N 
HETATM    7  C6  UNL     1      -9.259 -13.478  14.326  1.00  0.00     0.197 A 
HETATM    8  S1  UNL     1     -10.651 -14.586  14.481  1.00  0.00    -0.011 SA
HETATM    9  N2  UNL     1      -8.626 -13.154  13.187  1.00  0.00    -0.264 N 
ATOM     10  H2  UNL     1      -8.872 -13.509  12.263  1.00  0.00     0.189 HD
HETATM   11  N3  UNL     1      -7.632 -12.301  13.434  1.00  0.00    -0.129 N 
ATOM     12  H3  UNL     1      -6.996 -11.898  12.745  1.00  0.00     0.205 HD
HETATM   13  C7  UNL     1      -7.621 -12.068  14.768  1.00  0.00     0.710 A 
HETATM   14  N4  UNL     1      -6.863 -11.314  15.577  1.00  0.00    -0.171 N 
ATOM     15  H4  UNL     1      -6.106 -10.765  15.168  1.00  0.00     0.186 HD
HETATM   16  C8  UNL     1      -7.061 -11.250  16.910  1.00  0.00     0.169 A 
HETATM   17  N5  UNL     1      -6.259 -10.467  17.681  1.00  0.00    -0.187 N 
HETATM   18  C9  UNL     1      -6.461 -10.408  19.005  1.00  0.00     0.176 A 
ENDROOT
BRANCH  18  19
HETATM   19  N6  UNL     1      -5.722  -9.679  19.763  1.00  0.00    -0.282 N 
HETATM   20  C10 UNL     1      -5.923  -8.302  19.985  1.00  0.00     0.289 C 
HETATM   21  O5  UNL     1      -6.631  -7.930  20.962  1.00  0.00    -0.629 OA
HETATM   22  O6  UNL     1      -5.357  -7.340  19.152  1.00  0.00    -0.629 OA
ATOM     23  H6  UNL     1      -4.937 -10.127  20.237  1.00  0.00     0.173 HD
ENDBRANCH  18  19
BRANCH   1  24
HETATM   24  O1  UNL     1      -7.654 -11.049  20.974  1.00  0.00    -0.350 OA
HETATM   25  C1  UNL     1      -7.347 -12.062  21.904  1.00  0.00     0.210 C 
ENDBRANCH   1  24
BRANCH  17  26
HETATM   26  O4  UNL     1      -5.247  -9.749  17.050  1.00  0.00    -0.279 OA
ATOM     27  H4  UNL     1      -4.386  -9.749  17.451  1.00  0.00     0.245 HD
ENDBRANCH  17  26
BRANCH   2  28
HETATM   28  O2  UNL     1      -9.280 -12.623  19.490  1.00  0.00    -0.357 OA
ATOM     29  H2  UNL     1      -9.228 -13.572  19.494  1.00  0.00     0.218 HD
ENDBRANCH   2  28
TORSDOF 4
ENDMDL
MODEL 2
REMARK VINA RESULT: -6.957676490      3.606      5.222
REMARK  4 active torsions:
REMARK  status: ('A' for Active; 'I' for Inactive)
REMARK    1  A    between atoms: O1_2  and  C2_3 
REMARK    2  A    between atoms: C3_4  and  O2_5 
REMARK    3  A    between atoms: N5_21  and  O4_22 
REMARK    4  A    between atoms: C9_24  and  N6_25 
REMARK       I    between atoms: N6_25  and  C10_27 
ROOT
HETATM    1  C2  UNL     1      -7.686 -10.493  18.781  1.00  0.00     0.149 A 
HETATM    2  C3  UNL     1      -8.424 -11.667  18.933  1.00  0.00     0.122 A 
HETATM    3  C4  UNL     1      -8.373 -12.307  20.154  1.00  0.00     0.116 A 
HETATM    4  C5  UNL     1      -9.059 -13.472  20.420  1.00  0.00     0.285 A 
HETATM    5  O3  UNL     1      -9.760 -13.969  19.505  1.00  0.00    -0.266 OA
HETATM    6  N1  UNL     1      -9.003 -14.098  21.630  1.00  0.00    -0.085 N 
HETATM    7  C6  UNL     1      -9.603 -15.228  22.053  1.00  0.00     0.197 A 
HETATM    8  S1  UNL     1     -10.699 -16.312  21.150  1.00  0.00    -0.011 SA
HETATM    9  N2  UNL     1      -9.204 -15.385  23.325  1.00  0.00    -0.264 N 
ATOM     10  H2  UNL     1      -9.485 -16.155  23.933  1.00  0.00     0.189 HD
HETATM   11  N3  UNL     1      -8.388 -14.394  23.682  1.00  0.00    -0.129 N 
ATOM     12  H3  UNL     1      -7.944 -14.274  24.593  1.00  0.00     0.205 HD
HETATM   13  C7  UNL     1      -8.256 -13.574  22.613  1.00  0.00     0.710 A 
HETATM   14  N4  UNL     1      -7.577 -12.440  22.383  1.00  0.00    -0.171 N 
ATOM     15  H4  UNL     1      -7.010 -12.049  23.136  1.00  0.00     0.186 HD
HETATM   16  C8  UNL     1      -7.611 -11.797  21.198  1.00  0.00     0.169 A 
HETATM   17  N5  UNL     1      -6.901 -10.651  21.025  1.00  0.00    -0.187 N 
HETATM   18  C9  UNL     1      -6.939 -10.016  19.844  1.00  0.00     0.176 A 
ENDROOT
BRANCH  18  19
HETATM   19  N6  UNL     1      -6.280  -8.930  19.646  1.00  0.00    -0.282 N 
HETATM   20  C10 UNL     1      -6.613  -7.682  20.209  1.00  0.00     0.289 C 
HETATM   21  O5  UNL     1      -6.098  -7.343  21.311  1.00  0.00    -0.629 OA
HETATM   22  O6  UNL     1      -7.498  -6.811  19.578  1.00  0.00    -0.629 OA
ATOM     23  H6  UNL     1      -5.461  -8.975  19.040  1.00  0.00     0.173 HD
ENDBRANCH  18  19
BRANCH   1  24
HETATM   24  O1  UNL     1      -7.708  -9.828  17.590  1.00  0.00    -0.350 OA
HETATM   25  C1  UNL     1      -6.830 -10.049  16.510  1.00  0.00     0.210 C 
ENDBRANCH   1  24
BRANCH  17  26
HETATM   26  O4  UNL     1      -6.152 -10.178  22.099  1.00  0.00    -0.279 OA
ATOM     27  H4  UNL     1      -5.289 -10.550  22.238  1.00  0.00     0.245 HD
ENDBRANCH  17  26
BRANCH   2  28
HETATM   28  O2  UNL     1      -9.141 -12.106  17.878  1.00  0.00    -0.357 OA
ATOM     29  H2  UNL     1      -8.988 -11.699  17.033  1.00  0.00     0.218 HD
ENDBRANCH   2  28
TORSDOF 4
ENDMDL
MODEL 3
REMARK VINA RESULT: -6.826584410      0.962      1.007
REMARK  4 active torsions:
REMARK  status: ('A' for Active; 'I' for Inactive)
REMARK    1  A    between atoms: O1_2  and  C2_3 
REMARK    2  A    between atoms: C3_4  and  O2_5 
REMARK    3  A    between atoms: N5_21  and  O4_22 
REMARK    4  A    between atoms: C9_24  and  N6_25 
REMARK       I    between atoms: N6_25  and  C10_27 
ROOT
HETATM    1  C2  UNL     1      -7.824 -11.546  19.801  1.00  0.00     0.149 A 
HETATM    2  C3  UNL     1      -8.855 -12.227  19.154  1.00  0.00     0.122 A 
HETATM    3  C4  UNL     1      -8.730 -12.444  17.797  1.00  0.00     0.116 A 
HETATM    4  C5  UNL     1      -9.684 -13.104  17.053  1.00  0.00     0.285 A 
HETATM    5  O3  UNL     1     -10.710 -13.523  17.641  1.00  0.00    -0.266 OA
HETATM    6  N1  UNL     1      -9.553 -13.315  15.712  1.00  0.00    -0.085 N 
HETATM    7  C6  UNL     1     -10.379 -13.933  14.844  1.00  0.00     0.197 A 
HETATM    8  S1  UNL     1     -11.959 -14.701  15.166  1.00  0.00    -0.011 SA
HETATM    9  N2  UNL     1      -9.762 -13.856  13.654  1.00  0.00    -0.264 N 
ATOM     10  H2  UNL     1     -10.132 -14.233  12.782  1.00  0.00     0.189 HD
HETATM   11  N3  UNL     1      -8.599 -13.216  13.774  1.00  0.00    -0.129 N 
ATOM     12  H3  UNL     1      -7.936 -13.022  13.023  1.00  0.00     0.205 HD
HETATM   13  C7  UNL     1      -8.459 -12.871  15.075  1.00  0.00     0.710 A 
HETATM   14  N4  UNL     1      -7.514 -12.225  15.774  1.00  0.00    -0.171 N 
ATOM     15  H4  UNL     1      -6.686 -11.889  15.282  1.00  0.00     0.186 HD
HETATM   16  C8  UNL     1      -7.613 -11.999  17.100  1.00  0.00     0.169 A 
HETATM   17  N5  UNL     1      -6.622 -11.339  17.755  1.00  0.00    -0.187 N 
HETATM   18  C9  UNL     1      -6.726 -11.119  19.074  1.00  0.00     0.176 A 
ENDROOT
BRANCH  18  19
HETATM   19  N6  UNL     1      -5.808 -10.498  19.724  1.00  0.00    -0.282 N 
HETATM   20  C10 UNL     1      -5.717  -9.096  19.832  1.00  0.00     0.289 C 
HETATM   21  O5  UNL     1      -6.269  -8.513  20.807  1.00  0.00    -0.629 OA
HETATM   22  O6  UNL     1      -5.031  -8.335  18.888  1.00  0.00    -0.629 OA
ATOM     23  H6  UNL     1      -5.096 -11.058  20.194  1.00  0.00     0.173 HD
ENDBRANCH  18  19
BRANCH   1  24
HETATM   24  O1  UNL     1      -7.906 -11.309  21.143  1.00  0.00    -0.350 OA
HETATM   25  C1  UNL     1      -7.699 -12.263  22.159  1.00  0.00     0.210 C 
ENDBRANCH   1  24
BRANCH  17  26
HETATM   26  O4  UNL     1      -5.523 -10.913  17.015  1.00  0.00    -0.279 OA
ATOM     27  H4  UNL     1      -5.388  -9.978  16.917  1.00  0.00     0.245 HD
ENDBRANCH  17  26
BRANCH   2  28
HETATM   28  O2  UNL     1      -9.910 -12.629  19.892  1.00  0.00    -0.357 OA
ATOM     29  H2  UNL     1     -10.722 -12.829  19.439  1.00  0.00     0.218 HD
ENDBRANCH   2  28
TORSDOF 4
ENDMDL
MODEL 4
REMARK VINA RESULT: -6.728051306      2.161      3.795
REMARK  4 active torsions:
REMARK  status: ('A' for Active; 'I' for Inactive)
REMARK    1  A    between atoms: O1_2  and  C2_3 
REMARK    2  A    between atoms: C3_4  and  O2_5 
REMARK    3  A    between atoms: N5_21  and  O4_22 
REMARK    4  A    between atoms: C9_24  and  N6_25 
REMARK       I    between atoms: N6_25  and  C10_27 
ROOT
HETATM    1  C2  UNL     1      -7.123 -11.137  19.866  1.00  0.00     0.149 A 
HETATM    2  C3  UNL     1      -6.533 -11.226  18.604  1.00  0.00     0.122 A 
HETATM    3  C4  UNL     1      -7.272 -11.795  17.587  1.00  0.00     0.116 A 
HETATM    4  C5  UNL     1      -6.794 -11.936  16.303  1.00  0.00     0.285 A 
HETATM    5  O3  UNL     1      -5.635 -11.528  16.053  1.00  0.00    -0.266 OA
HETATM    6  N1  UNL     1      -7.530 -12.500  15.303  1.00  0.00    -0.085 N 
HETATM    7  C6  UNL     1      -7.222 -12.713  14.008  1.00  0.00     0.197 A 
HETATM    8  S1  UNL     1      -5.707 -12.319  13.147  1.00  0.00    -0.011 SA
HETATM    9  N2  UNL     1      -8.307 -13.296  13.477  1.00  0.00    -0.264 N 
ATOM     10  H2  UNL     1      -8.394 -13.588  12.504  1.00  0.00     0.189 HD
HETATM   11  N3  UNL     1      -9.256 -13.442  14.402  1.00  0.00    -0.129 N 
ATOM     12  H3  UNL     1     -10.178 -13.857  14.262  1.00  0.00     0.205 HD
HETATM   13  C7  UNL     1      -8.772 -12.939  15.561  1.00  0.00     0.710 A 
HETATM   14  N4  UNL     1      -9.263 -12.815  16.803  1.00  0.00    -0.171 N 
ATOM     15  H4  UNL     1     -10.207 -13.153  16.991  1.00  0.00     0.186 HD
HETATM   16  C8  UNL     1      -8.560 -12.263  17.814  1.00  0.00     0.169 A 
HETATM   17  N5  UNL     1      -9.112 -12.164  19.052  1.00  0.00    -0.187 N 
HETATM   18  C9  UNL     1      -8.408 -11.613  20.053  1.00  0.00     0.176 A 
ENDROOT
BRANCH  18  19
HETATM   19  N6  UNL     1      -8.899 -11.504  21.236  1.00  0.00    -0.282 N 
HETATM   20  C10 UNL     1      -9.152 -12.589  22.097  1.00  0.00     0.289 C 
HETATM   21  O5  UNL     1      -8.259 -12.951  22.914  1.00  0.00    -0.629 OA
HETATM   22  O6  UNL     1     -10.364 -13.274  22.070  1.00  0.00    -0.629 OA
ATOM     23  H6  UNL     1      -9.121 -10.567  21.573  1.00  0.00     0.173 HD
ENDBRANCH  18  19
BRANCH   1  24
HETATM   24  O1  UNL     1      -6.428 -10.581  20.901  1.00  0.00    -0.350 OA
HETATM   25  C1  UNL     1      -6.166  -9.207  21.069  1.00  0.00     0.210 C 
ENDBRANCH   1  24
BRANCH  17  26
HETATM   26  O4  UNL     1     -10.406 -12.646  19.231  1.00  0.00    -0.279 OA
ATOM     27  H4  UNL     1     -10.509 -13.524  19.580  1.00  0.00     0.245 HD
ENDBRANCH  17  26
BRANCH   2  28
HETATM   28  O2  UNL     1      -5.279 -10.752  18.456  1.00  0.00    -0.357 OA
ATOM     29  H2  UNL     1      -5.003 -10.480  17.588  1.00  0.00     0.218 HD
ENDBRANCH   2  28
TORSDOF 4
ENDMDL
MODEL 5
REMARK VINA RESULT: -6.682300722      2.369      3.643
REMARK  4 active torsions:
REMARK  status: ('A' for Active; 'I' for Inactive)
REMARK    1  A    between atoms: O1_2  and  C2_3 
REMARK    2  A    between atoms: C3_4  and  O2_5 
REMARK    3  A    between atoms: N5_21  and  O4_22 
REMARK    4  A    between atoms: C9_24  and  N6_25 
REMARK       I    between atoms: N6_25  and  C10_27 
ROOT
HETATM    1  C2  UNL     1      -6.443 -10.989  17.448  1.00  0.00     0.149 A 
HETATM    2  C3  UNL     1      -7.377 -11.724  16.716  1.00  0.00     0.122 A 
HETATM    3  C4  UNL     1      -8.388 -12.354  17.412  1.00  0.00     0.116 A 
HETATM    4  C5  UNL     1      -9.365 -13.106  16.798  1.00  0.00     0.285 A 
HETATM    5  O3  UNL     1      -9.327 -13.221  15.549  1.00  0.00    -0.266 OA
HETATM    6  N1  UNL     1     -10.361 -13.726  17.493  1.00  0.00    -0.085 N 
HETATM    7  C6  UNL     1     -11.382 -14.490  17.056  1.00  0.00     0.197 A 
HETATM    8  S1  UNL     1     -11.782 -14.958  15.379  1.00  0.00    -0.011 SA
HETATM    9  N2  UNL     1     -12.059 -14.840  18.160  1.00  0.00    -0.264 N 
ATOM     10  H2  UNL     1     -12.895 -15.425  18.170  1.00  0.00     0.189 HD
HETATM   11  N3  UNL     1     -11.485 -14.317  19.244  1.00  0.00    -0.129 N 
ATOM     12  H3  UNL     1     -11.799 -14.429  20.208  1.00  0.00     0.205 HD
HETATM   13  C7  UNL     1     -10.408 -13.609  18.828  1.00  0.00     0.710 A 
HETATM   14  N4  UNL     1      -9.471 -12.883  19.454  1.00  0.00    -0.171 N 
ATOM     15  H4  UNL     1      -9.513 -12.800  20.470  1.00  0.00     0.186 HD
HETATM   16  C8  UNL     1      -8.472 -12.258  18.796  1.00  0.00     0.169 A 
HETATM   17  N5  UNL     1      -7.550 -11.535  19.485  1.00  0.00    -0.187 N 
HETATM   18  C9  UNL     1      -6.560 -10.916  18.825  1.00  0.00     0.176 A 
ENDROOT
BRANCH  18  19
HETATM   19  N6  UNL     1      -5.672 -10.224  19.445  1.00  0.00    -0.282 N 
HETATM   20  C10 UNL     1      -5.860  -8.900  19.888  1.00  0.00     0.289 C 
HETATM   21  O5  UNL     1      -6.287  -8.694  21.059  1.00  0.00    -0.629 OA
HETATM   22  O6  UNL     1      -5.586  -7.810  19.066  1.00  0.00    -0.629 OA
ATOM     23  H6  UNL     1      -4.770 -10.663  19.628  1.00  0.00     0.173 HD
ENDBRANCH  18  19
BRANCH   1  24
HETATM   24  O1  UNL     1      -5.426 -10.349  16.799  1.00  0.00    -0.350 OA
HETATM   25  C1  UNL     1      -4.175 -10.912  16.479  1.00  0.00     0.210 C 
ENDBRANCH   1  24
BRANCH  17  26
HETATM   26  O4  UNL     1      -7.676 -11.468  20.870  1.00  0.00    -0.279 OA
ATOM     27  H4  UNL     1      -8.274 -12.074  21.292  1.00  0.00     0.245 HD
ENDBRANCH  17  26
BRANCH   2  28
HETATM   28  O2  UNL     1      -7.234 -11.775  15.376  1.00  0.00    -0.357 OA
ATOM     29  H2  UNL     1      -7.745 -12.417  14.896  1.00  0.00     0.218 HD
ENDBRANCH   2  28
TORSDOF 4
ENDMDL
