MODEL 1
REMARK VINA RESULT: -6.543225404      0.000      0.000
REMARK  3 active torsions:
REMARK  status: ('A' for Active; 'I' for Inactive)
REMARK    1  A    between atoms: O1_2  and  C2_3 
REMARK    2  A    between atoms: C2_3  and  C3_5 
REMARK    3  A    between atoms: C8_21  and  N6_22 
REMARK       I    between atoms: N6_22  and  C9_24 
ROOT
HETATM    1  C3  UNL     1      -8.542 -12.293  17.904  1.00  0.00     0.086 C 
HETATM    2  C4  UNL     1      -7.549 -11.941  17.112  1.00  0.00     0.025 C 
HETATM    3  C5  UNL     1      -7.432 -12.624  15.859  1.00  0.00     0.069 C 
HETATM    4  N1  UNL     1      -6.524 -10.909  17.410  1.00  0.00    -0.339 N 
ATOM      5  H1  UNL     1      -6.136 -10.409  16.610  1.00  0.00     0.168 HD
HETATM    6  C6  UNL     1      -6.065 -10.572  18.588  1.00  0.00     0.164 C 
HETATM    7  N2  UNL     1      -6.271 -10.956  19.921  1.00  0.00    -0.345 N 
ATOM      8  H2  UNL     1      -5.708 -11.690  20.352  1.00  0.00     0.163 HD
HETATM    9  C7  UNL     1      -7.329 -10.262  20.680  1.00  0.00     0.229 C 
HETATM   10  N3  UNL     1      -7.078  -8.888  20.832  1.00  0.00    -0.296 N 
ATOM     11  H3  UNL     1      -7.462  -8.594  21.729  1.00  0.00     0.184 HD
HETATM   12  N4  UNL     1      -6.568  -7.900  20.292  1.00  0.00    -0.239 N 
ATOM     13  H4  UNL     1      -6.629  -7.031  20.823  1.00  0.00     0.208 HD
HETATM   14  N5  UNL     1      -5.926  -7.808  19.067  1.00  0.00    -0.253 N 
ATOM     15  H5  UNL     1      -5.884  -6.871  18.668  1.00  0.00     0.197 HD
HETATM   16  S1  UNL     1      -5.146  -9.117  18.065  1.00  0.00     0.040 SA
HETATM   17  C8  UNL     1      -8.622 -10.450  19.941  1.00  0.00     0.178 C 
HETATM   18  C11 UNL     1      -8.868 -11.701  19.251  1.00  0.00     0.048 C 
HETATM   19  N7  UNL     1      -9.551 -12.549  19.924  1.00  0.00    -0.400 N 
ATOM     20  H71 UNL     1      -9.771 -12.148  20.835  1.00  0.00     0.156 HD
ATOM     21  H72 UNL     1      -9.724 -13.430  19.438  1.00  0.00     0.156 HD
ENDROOT
BRANCH  17  22
HETATM   22  N6  UNL     1      -9.761 -10.008  20.748  1.00  0.00    -0.348 N 
HETATM   23  C9  UNL     1     -10.313  -8.702  20.660  1.00  0.00     0.214 C 
HETATM   24  C10 UNL     1     -11.465  -8.263  21.480  1.00  0.00     0.117 C 
HETATM   25  O3  UNL     1      -9.783  -7.903  19.845  1.00  0.00    -0.274 OA
ATOM     26  H6  UNL     1     -10.178 -10.669  21.404  1.00  0.00     0.163 HD
ENDBRANCH  17  22
BRANCH   1  27
HETATM   27  C2  UNL     1      -9.428 -13.326  17.468  1.00  0.00     0.296 C 
HETATM   28  O2  UNL     1      -9.182 -14.491  17.950  1.00  0.00    -0.259 OA
BRANCH  27  29
HETATM   29  O1  UNL     1     -10.505 -13.281  16.618  1.00  0.00    -0.322 OA
HETATM   30  C1  UNL     1     -11.848 -13.345  17.079  1.00  0.00     0.213 C 
ENDBRANCH  27  29
ENDBRANCH   1  27
TORSDOF 3
ENDMDL
MODEL 2
REMARK VINA RESULT: -6.429357102      3.761      5.277
REMARK  3 active torsions:
REMARK  status: ('A' for Active; 'I' for Inactive)
REMARK    1  A    between atoms: O1_2  and  C2_3 
REMARK    2  A    between atoms: C2_3  and  C3_5 
REMARK    3  A    between atoms: C8_21  and  N6_22 
REMARK       I    between atoms: N6_22  and  C9_24 
ROOT
HETATM    1  C3  UNL     1      -7.428  -9.067  20.430  1.00  0.00     0.086 C 
HETATM    2  C4  UNL     1      -7.056 -10.137  21.105  1.00  0.00     0.025 C 
HETATM    3  C5  UNL     1      -5.656 -10.302  21.355  1.00  0.00     0.069 C 
HETATM    4  N1  UNL     1      -7.957 -11.200  21.614  1.00  0.00    -0.339 N 
ATOM      5  H1  UNL     1      -7.661 -11.677  22.466  1.00  0.00     0.168 HD
HETATM    6  C6  UNL     1      -9.090 -11.591  21.089  1.00  0.00     0.164 C 
HETATM    7  N2  UNL     1      -9.874 -11.264  19.974  1.00  0.00    -0.345 N 
ATOM      8  H2  UNL     1      -9.752 -11.746  19.083  1.00  0.00     0.163 HD
HETATM    9  C7  UNL     1     -10.883 -10.199  20.133  1.00  0.00     0.229 C 
HETATM   10  N3  UNL     1     -11.875 -10.525  21.072  1.00  0.00    -0.296 N 
ATOM     11  H3  UNL     1     -12.749 -10.095  20.771  1.00  0.00     0.184 HD
HETATM   12  N4  UNL     1     -12.092 -11.134  22.125  1.00  0.00    -0.239 N 
ATOM     13  H4  UNL     1     -13.052 -11.090  22.468  1.00  0.00     0.208 HD
HETATM   14  N5  UNL     1     -11.214 -11.870  22.906  1.00  0.00    -0.253 N 
ATOM     15  H5  UNL     1     -11.499 -12.000  23.876  1.00  0.00     0.197 HD
HETATM   16  S1  UNL     1      -9.622 -12.637  22.452  1.00  0.00     0.040 SA
HETATM   17  C8  UNL     1     -10.170  -8.954  20.577  1.00  0.00     0.178 C 
HETATM   18  C11 UNL     1      -8.840  -8.681  20.070  1.00  0.00     0.048 C 
HETATM   19  N7  UNL     1      -8.811  -7.898  19.058  1.00  0.00    -0.400 N 
ATOM     20  H71 UNL     1      -9.767  -7.637  18.814  1.00  0.00     0.156 HD
ATOM     21  H72 UNL     1      -7.875  -7.706  18.701  1.00  0.00     0.156 HD
ENDROOT
BRANCH  17  22
HETATM   22  N6  UNL     1     -11.055  -7.789  20.518  1.00  0.00    -0.348 N 
HETATM   23  C9  UNL     1     -11.913  -7.414  21.587  1.00  0.00     0.214 C 
HETATM   24  C10 UNL     1     -12.806  -6.234  21.520  1.00  0.00     0.117 C 
HETATM   25  O3  UNL     1     -11.898  -8.130  22.622  1.00  0.00    -0.274 OA
ATOM     26  H6  UNL     1     -11.056  -7.220  19.672  1.00  0.00     0.163 HD
ENDBRANCH  17  22
BRANCH   1  27
HETATM   27  C2  UNL     1      -6.422  -8.152  19.993  1.00  0.00     0.296 C 
HETATM   28  O2  UNL     1      -6.375  -7.045  20.644  1.00  0.00    -0.259 OA
BRANCH  27  29
HETATM   29  O1  UNL     1      -5.490  -8.258  18.990  1.00  0.00    -0.322 OA
HETATM   30  C1  UNL     1      -5.668  -9.109  17.866  1.00  0.00     0.213 C 
ENDBRANCH  27  29
ENDBRANCH   1  27
TORSDOF 3
ENDMDL
MODEL 3
REMARK VINA RESULT: -6.318300188      2.518      4.573
REMARK  3 active torsions:
REMARK  status: ('A' for Active; 'I' for Inactive)
REMARK    1  A    between atoms: O1_2  and  C2_3 
REMARK    2  A    between atoms: C2_3  and  C3_5 
REMARK    3  A    between atoms: C8_21  and  N6_22 
REMARK       I    between atoms: N6_22  and  C9_24 
ROOT
HETATM    1  C3  UNL     1      -8.739 -12.445  19.333  1.00  0.00     0.086 C 
HETATM    2  C4  UNL     1      -8.233 -11.800  20.366  1.00  0.00     0.025 C 
HETATM    3  C5  UNL     1      -8.606 -12.254  21.672  1.00  0.00     0.069 C 
HETATM    4  N1  UNL     1      -7.325 -10.628  20.299  1.00  0.00    -0.339 N 
ATOM      5  H1  UNL     1      -6.660 -10.524  21.066  1.00  0.00     0.168 HD
HETATM    6  C6  UNL     1      -7.284  -9.715  19.362  1.00  0.00     0.164 C 
HETATM    7  N2  UNL     1      -7.965  -9.434  18.170  1.00  0.00    -0.345 N 
ATOM      8  H2  UNL     1      -8.793  -8.837  18.163  1.00  0.00     0.163 HD
HETATM    9  C7  UNL     1      -7.445 -10.031  16.925  1.00  0.00     0.229 C 
HETATM   10  N3  UNL     1      -6.152  -9.584  16.606  1.00  0.00    -0.296 N 
ATOM     11  H3  UNL     1      -6.068  -9.557  15.591  1.00  0.00     0.184 HD
HETATM   12  N4  UNL     1      -5.077  -9.213  17.089  1.00  0.00    -0.239 N 
ATOM     13  H4  UNL     1      -4.355  -8.964  16.412  1.00  0.00     0.208 HD
HETATM   14  N5  UNL     1      -4.714  -9.086  18.421  1.00  0.00    -0.253 N 
ATOM     15  H5  UNL     1      -3.710  -9.094  18.600  1.00  0.00     0.197 HD
HETATM   16  S1  UNL     1      -5.769  -8.909  19.899  1.00  0.00     0.040 SA
HETATM   17  C8  UNL     1      -7.425 -11.521  17.103  1.00  0.00     0.178 C 
HETATM   18  C11 UNL     1      -8.472 -12.156  17.878  1.00  0.00     0.048 C 
HETATM   19  N7  UNL     1      -9.439 -12.619  17.179  1.00  0.00    -0.400 N 
ATOM     20  H71 UNL     1      -9.259 -12.424  16.194  1.00  0.00     0.156 HD
ATOM     21  H72 UNL     1     -10.177 -13.066  17.724  1.00  0.00     0.156 HD
ENDROOT
BRANCH  17  22
HETATM   22  N6  UNL     1      -7.159 -12.202  15.835  1.00  0.00    -0.348 N 
HETATM   23  C9  UNL     1      -5.848 -12.514  15.383  1.00  0.00     0.214 C 
HETATM   24  C10 UNL     1      -5.588 -13.203  14.098  1.00  0.00     0.117 C 
HETATM   25  O3  UNL     1      -4.886 -12.180  16.121  1.00  0.00    -0.274 OA
ATOM     26  H6  UNL     1      -7.951 -12.465  15.248  1.00  0.00     0.163 HD
ENDBRANCH  17  22
BRANCH   1  27
HETATM   27  C2  UNL     1      -9.620 -13.543  19.579  1.00  0.00     0.296 C 
HETATM   28  O2  UNL     1     -10.845 -13.218  19.791  1.00  0.00    -0.259 OA
BRANCH  27  29
HETATM   29  O1  UNL     1      -9.376 -14.893  19.625  1.00  0.00    -0.322 OA
HETATM   30  C1  UNL     1      -9.748 -15.701  20.733  1.00  0.00     0.213 C 
ENDBRANCH  27  29
ENDBRANCH   1  27
TORSDOF 3
ENDMDL
MODEL 4
REMARK VINA RESULT: -6.119206187      2.536      3.798
REMARK  3 active torsions:
REMARK  status: ('A' for Active; 'I' for Inactive)
REMARK    1  A    between atoms: O1_2  and  C2_3 
REMARK    2  A    between atoms: C2_3  and  C3_5 
REMARK    3  A    between atoms: C8_21  and  N6_22 
REMARK       I    between atoms: N6_22  and  C9_24 
ROOT
HETATM    1  C3  UNL     1      -8.817 -11.647  20.259  1.00  0.00     0.086 C 
HETATM    2  C4  UNL     1      -9.219 -12.147  19.107  1.00  0.00     0.025 C 
HETATM    3  C5  UNL     1     -10.430 -12.911  19.107  1.00  0.00     0.069 C 
HETATM    4  N1  UNL     1      -8.518 -12.005  17.806  1.00  0.00    -0.339 N 
ATOM      5  H1  UNL     1      -9.104 -12.001  16.971  1.00  0.00     0.168 HD
HETATM    6  C6  UNL     1      -7.229 -11.884  17.615  1.00  0.00     0.164 C 
HETATM    7  N2  UNL     1      -6.071 -11.844  18.405  1.00  0.00    -0.345 N 
ATOM      8  H2  UNL     1      -5.556 -12.696  18.630  1.00  0.00     0.163 HD
HETATM    9  C7  UNL     1      -5.622 -10.529  18.900  1.00  0.00     0.229 C 
HETATM   10  N3  UNL     1      -5.270  -9.648  17.863  1.00  0.00    -0.296 N 
ATOM     11  H3  UNL     1      -4.516  -9.050  18.199  1.00  0.00     0.184 HD
HETATM   12  N4  UNL     1      -5.527  -9.323  16.699  1.00  0.00    -0.239 N 
ATOM     13  H4  UNL     1      -4.963  -8.560  16.322  1.00  0.00     0.208 HD
HETATM   14  N5  UNL     1      -6.473  -9.849  15.833  1.00  0.00    -0.253 N 
ATOM     15  H5  UNL     1      -6.748  -9.237  15.066  1.00  0.00     0.197 HD
HETATM   16  S1  UNL     1      -7.297 -11.476  15.865  1.00  0.00     0.040 SA
HETATM   17  C8  UNL     1      -6.745  -9.931  19.697  1.00  0.00     0.178 C 
HETATM   18  C11 UNL     1      -7.592 -10.800  20.490  1.00  0.00     0.048 C 
HETATM   19  N7  UNL     1      -7.251 -10.890  21.720  1.00  0.00    -0.400 N 
ATOM     20  H71 UNL     1      -6.422 -10.317  21.877  1.00  0.00     0.156 HD
ATOM     21  H72 UNL     1      -7.847 -11.502  22.279  1.00  0.00     0.156 HD
ENDROOT
BRANCH  17  22
HETATM   22  N6  UNL     1      -6.300  -8.743  20.429  1.00  0.00    -0.348 N 
HETATM   23  C9  UNL     1      -6.912  -7.469  20.283  1.00  0.00     0.214 C 
HETATM   24  C10 UNL     1      -6.455  -6.273  21.027  1.00  0.00     0.117 C 
HETATM   25  O3  UNL     1      -7.878  -7.378  19.482  1.00  0.00    -0.274 OA
ATOM     26  H6  UNL     1      -5.515  -8.834  21.074  1.00  0.00     0.163 HD
ENDBRANCH  17  22
BRANCH   1  27
HETATM   27  C2  UNL     1      -9.605 -11.900  21.424  1.00  0.00     0.296 C 
HETATM   28  O2  UNL     1     -10.477 -10.997  21.695  1.00  0.00    -0.259 OA
BRANCH  27  29
HETATM   29  O1  UNL     1      -9.587 -12.953  22.305  1.00  0.00    -0.322 OA
HETATM   30  C1  UNL     1      -9.600 -12.772  23.714  1.00  0.00     0.213 C 
ENDBRANCH  27  29
ENDBRANCH   1  27
TORSDOF 3
ENDMDL
MODEL 5
REMARK VINA RESULT: -6.014605292      3.918      5.684
REMARK  3 active torsions:
REMARK  status: ('A' for Active; 'I' for Inactive)
REMARK    1  A    between atoms: O1_2  and  C2_3 
REMARK    2  A    between atoms: C2_3  and  C3_5 
REMARK    3  A    between atoms: C8_21  and  N6_22 
REMARK       I    between atoms: N6_22  and  C9_24 
ROOT
HETATM    1  C3  UNL     1      -8.437  -9.742  20.647  1.00  0.00     0.086 C 
HETATM    2  C4  UNL     1      -8.456 -10.927  21.224  1.00  0.00     0.025 C 
HETATM    3  C5  UNL     1      -7.196 -11.570  21.448  1.00  0.00     0.069 C 
HETATM    4  N1  UNL     1      -9.670 -11.669  21.647  1.00  0.00    -0.339 N 
ATOM      5  H1  UNL     1      -9.568 -12.287  22.452  1.00  0.00     0.168 HD
HETATM    6  C6  UNL     1     -10.857 -11.615  21.099  1.00  0.00     0.164 C 
HETATM    7  N2  UNL     1     -11.464 -10.952  20.023  1.00  0.00    -0.345 N 
ATOM      8  H2  UNL     1     -11.490 -11.371  19.093  1.00  0.00     0.163 HD
HETATM    9  C7  UNL     1     -12.065  -9.630  20.281  1.00  0.00     0.229 C 
HETATM   10  N3  UNL     1     -13.128  -9.685  21.198  1.00  0.00    -0.296 N 
ATOM     11  H3  UNL     1     -13.803  -8.964  20.942  1.00  0.00     0.184 HD
HETATM   12  N4  UNL     1     -13.557 -10.273  22.195  1.00  0.00    -0.239 N 
ATOM     13  H4  UNL     1     -14.455  -9.941  22.549  1.00  0.00     0.208 HD
HETATM   14  N5  UNL     1     -12.990 -11.322  22.903  1.00  0.00    -0.253 N 
ATOM     15  H5  UNL     1     -13.324 -11.431  23.860  1.00  0.00     0.197 HD
HETATM   16  S1  UNL     1     -11.735 -12.534  22.372  1.00  0.00     0.040 SA
HETATM   17  C8  UNL     1     -10.988  -8.735  20.825  1.00  0.00     0.178 C 
HETATM   18  C11 UNL     1      -9.633  -8.879  20.333  1.00  0.00     0.048 C 
HETATM   19  N7  UNL     1      -9.324  -8.068  19.392  1.00  0.00    -0.400 N 
ATOM     20  H71 UNL     1     -10.133  -7.484  19.180  1.00  0.00     0.156 HD
ATOM     21  H72 UNL     1      -8.370  -8.169  19.045  1.00  0.00     0.156 HD
ENDROOT
BRANCH  17  22
HETATM   22  N6  UNL     1     -11.434  -7.341  20.875  1.00  0.00    -0.348 N 
HETATM   23  C9  UNL     1     -12.077  -6.774  22.009  1.00  0.00     0.214 C 
HETATM   24  C10 UNL     1     -12.525  -5.363  22.050  1.00  0.00     0.117 C 
HETATM   25  O3  UNL     1     -12.263  -7.520  23.004  1.00  0.00    -0.274 OA
ATOM     26  H6  UNL     1     -11.276  -6.750  20.059  1.00  0.00     0.163 HD
ENDBRANCH  17  22
BRANCH   1  27
HETATM   27  C2  UNL     1      -7.175  -9.181  20.282  1.00  0.00     0.296 C 
HETATM   28  O2  UNL     1      -6.700  -9.596  19.162  1.00  0.00    -0.259 OA
BRANCH  27  29
HETATM   29  O1  UNL     1      -6.382  -8.266  20.929  1.00  0.00    -0.322 OA
HETATM   30  C1  UNL     1      -6.403  -6.879  20.620  1.00  0.00     0.213 C 
ENDBRANCH  27  29
ENDBRANCH   1  27
TORSDOF 3
ENDMDL
