MODEL 1
REMARK VINA RESULT: -5.352100448      0.000      0.000
REMARK  2 active torsions:
REMARK  status: ('A' for Active; 'I' for Inactive)
REMARK    1  A    between atoms: C4_7  and  N2_8 
REMARK    2  A    between atoms: N2_8  and  C5_10 
ROOT
HETATM    1  C1  UNL     1      31.673  20.923  15.632  1.00  0.00     0.011 C 
HETATM    2  C2  UNL     1      31.599  19.708  16.533  1.00  0.00     0.011 C 
HETATM    3  C3  UNL     1      31.164  18.474  15.828  1.00  0.00     0.239 C 
HETATM    4  N1  UNL     1      30.024  17.930  16.471  1.00  0.00    -0.054 N 
ATOM      5  H11 UNL     1      30.123  16.929  16.640  1.00  0.00     0.279 HD
ATOM      6  H12 UNL     1      29.215  17.897  15.851  1.00  0.00     0.279 HD
HETATM    7  C4  UNL     1      29.748  18.651  17.674  1.00  0.00     0.280 C 
HETATM    8  C8  UNL     1      30.538  19.940  17.587  1.00  0.00     0.060 C 
ENDROOT
BRANCH   7   9
HETATM    9  N2  UNL     1      30.107  17.979  18.875  1.00  0.00    -0.392 N 
ATOM     10  H2  UNL     1      30.875  18.299  19.466  1.00  0.00     0.155 HD
BRANCH   9  11
HETATM   11  C5  UNL     1      29.328  16.833  19.202  1.00  0.00     0.070 C 
HETATM   12  C6  UNL     1      29.775  16.391  20.605  1.00  0.00     0.031 C 
HETATM   13  C7  UNL     1      27.842  17.089  19.281  1.00  0.00     0.031 C 
ENDBRANCH   9  11
ENDBRANCH   7   9
TORSDOF 2
ENDMDL
MODEL 2
REMARK VINA RESULT: -5.295596877      0.376      1.151
REMARK  2 active torsions:
REMARK  status: ('A' for Active; 'I' for Inactive)
REMARK    1  A    between atoms: C4_7  and  N2_8 
REMARK    2  A    between atoms: N2_8  and  C5_10 
ROOT
HETATM    1  C1  UNL     1      31.698  21.103  15.790  1.00  0.00     0.011 C 
HETATM    2  C2  UNL     1      31.640  19.749  16.464  1.00  0.00     0.011 C 
HETATM    3  C3  UNL     1      31.166  18.661  15.568  1.00  0.00     0.239 C 
HETATM    4  N1  UNL     1      30.043  18.018  16.145  1.00  0.00    -0.054 N 
ATOM      5  H11 UNL     1      30.135  17.003  16.131  1.00  0.00     0.279 HD
ATOM      6  H12 UNL     1      29.212  18.100  15.559  1.00  0.00     0.279 HD
HETATM    7  C4  UNL     1      29.817  18.517  17.466  1.00  0.00     0.280 C 
HETATM    8  C8  UNL     1      30.620  19.796  17.580  1.00  0.00     0.060 C 
ENDROOT
BRANCH   7   9
HETATM    9  N2  UNL     1      30.209  17.640  18.516  1.00  0.00    -0.392 N 
ATOM     10  H2  UNL     1      31.084  17.115  18.485  1.00  0.00     0.155 HD
BRANCH   9  11
HETATM   11  C5  UNL     1      29.307  17.540  19.612  1.00  0.00     0.070 C 
HETATM   12  C6  UNL     1      27.934  17.195  19.013  1.00  0.00     0.031 C 
HETATM   13  C7  UNL     1      29.638  16.445  20.597  1.00  0.00     0.031 C 
ENDBRANCH   9  11
ENDBRANCH   7   9
TORSDOF 2
ENDMDL
MODEL 3
REMARK VINA RESULT: -5.232972597      1.472      4.475
REMARK  2 active torsions:
REMARK  status: ('A' for Active; 'I' for Inactive)
REMARK    1  A    between atoms: C4_7  and  N2_8 
REMARK    2  A    between atoms: N2_8  and  C5_10 
ROOT
HETATM    1  C1  UNL     1      28.039  17.365  18.911  1.00  0.00     0.011 C 
HETATM    2  C2  UNL     1      28.615  17.937  17.633  1.00  0.00     0.011 C 
HETATM    3  C3  UNL     1      29.177  16.904  16.724  1.00  0.00     0.239 C 
HETATM    4  N1  UNL     1      30.531  17.207  16.432  1.00  0.00    -0.054 N 
ATOM      5  H11 UNL     1      30.727  17.154  15.433  1.00  0.00     0.279 HD
ATOM      6  H12 UNL     1      31.164  16.470  16.747  1.00  0.00     0.279 HD
HETATM    7  C4  UNL     1      30.878  18.481  16.980  1.00  0.00     0.280 C 
HETATM    8  C8  UNL     1      29.790  18.826  17.975  1.00  0.00     0.060 C 
ENDROOT
BRANCH   7   9
HETATM    9  N2  UNL     1      30.976  19.537  16.031  1.00  0.00    -0.392 N 
ATOM     10  H2  UNL     1      30.373  19.585  15.209  1.00  0.00     0.155 HD
BRANCH   9  11
HETATM   11  C5  UNL     1      31.966  20.523  16.299  1.00  0.00     0.070 C 
HETATM   12  C6  UNL     1      33.327  19.842  16.082  1.00  0.00     0.031 C 
HETATM   13  C7  UNL     1      31.927  21.716  15.375  1.00  0.00     0.031 C 
ENDBRANCH   9  11
ENDBRANCH   7   9
TORSDOF 2
ENDMDL
MODEL 4
REMARK VINA RESULT: -5.164538795      1.501      4.602
REMARK  2 active torsions:
REMARK  status: ('A' for Active; 'I' for Inactive)
REMARK    1  A    between atoms: C4_7  and  N2_8 
REMARK    2  A    between atoms: N2_8  and  C5_10 
ROOT
HETATM    1  C1  UNL     1      26.708  15.719  17.543  1.00  0.00     0.011 C 
HETATM    2  C2  UNL     1      28.204  15.871  17.365  1.00  0.00     0.011 C 
HETATM    3  C3  UNL     1      28.944  15.980  18.649  1.00  0.00     0.239 C 
HETATM    4  N1  UNL     1      29.711  17.172  18.662  1.00  0.00    -0.054 N 
ATOM      5  H11 UNL     1      30.673  17.004  18.957  1.00  0.00     0.279 HD
ATOM      6  H12 UNL     1      29.431  17.798  19.417  1.00  0.00     0.279 HD
HETATM    7  C4  UNL     1      29.647  17.810  17.384  1.00  0.00     0.280 C 
HETATM    8  C8  UNL     1      28.486  17.173  16.650  1.00  0.00     0.060 C 
ENDROOT
BRANCH   7   9
HETATM    9  N2  UNL     1      30.817  17.678  16.586  1.00  0.00    -0.392 N 
ATOM     10  H2  UNL     1      31.184  16.767  16.310  1.00  0.00     0.155 HD
BRANCH   9  11
HETATM   11  C5  UNL     1      31.443  18.895  16.195  1.00  0.00     0.070 C 
HETATM   12  C6  UNL     1      30.957  19.194  14.768  1.00  0.00     0.031 C 
HETATM   13  C7  UNL     1      31.069  20.090  17.040  1.00  0.00     0.031 C 
ENDBRANCH   9  11
ENDBRANCH   7   9
TORSDOF 2
ENDMDL
MODEL 5
REMARK VINA RESULT: -5.114815116      1.744      2.463
REMARK  2 active torsions:
REMARK  status: ('A' for Active; 'I' for Inactive)
REMARK    1  A    between atoms: C4_7  and  N2_8 
REMARK    2  A    between atoms: N2_8  and  C5_10 
ROOT
HETATM    1  C1  UNL     1      32.798  20.150  15.969  1.00  0.00     0.011 C 
HETATM    2  C2  UNL     1      31.340  19.753  16.070  1.00  0.00     0.011 C 
HETATM    3  C3  UNL     1      30.733  20.067  17.390  1.00  0.00     0.239 C 
HETATM    4  N1  UNL     1      30.183  18.891  17.958  1.00  0.00    -0.054 N 
ATOM      5  H11 UNL     1      29.233  19.039  18.298  1.00  0.00     0.279 HD
ATOM      6  H12 UNL     1      30.624  18.653  18.847  1.00  0.00     0.279 HD
HETATM    7  C4  UNL     1      30.254  17.814  17.020  1.00  0.00     0.280 C 
HETATM    8  C8  UNL     1      31.228  18.250  15.946  1.00  0.00     0.060 C 
ENDROOT
BRANCH   7   9
HETATM    9  N2  UNL     1      29.019  17.472  16.401  1.00  0.00    -0.392 N 
ATOM     10  H2  UNL     1      28.685  17.945  15.561  1.00  0.00     0.155 HD
BRANCH   9  11
HETATM   11  C5  UNL     1      28.278  16.430  17.027  1.00  0.00     0.070 C 
HETATM   12  C6  UNL     1      27.089  17.104  17.729  1.00  0.00     0.031 C 
HETATM   13  C7  UNL     1      27.699  15.414  16.071  1.00  0.00     0.031 C 
ENDBRANCH   9  11
ENDBRANCH   7   9
TORSDOF 2
ENDMDL
