MODEL 1
REMARK VINA RESULT: -6.606525050      0.000      0.000
REMARK  17 active torsions:
REMARK  status: ('A' for Active; 'I' for Inactive)
REMARK    1  A    between atoms: C2_2  and  O1_3 
REMARK    2  A    between atoms: O1_3  and  C3_4 
REMARK    3  A    between atoms: C3_4  and  O3_6 
REMARK    4  A    between atoms: O3_6  and  C4_7 
REMARK    5  A    between atoms: C4_7  and  C6_9 
REMARK    6  A    between atoms: C6_9  and  C7_10 
REMARK    7  A    between atoms: C6_9  and  N2_17 
REMARK    8  A    between atoms: C7_10  and  O4_11 
REMARK    9  A    between atoms: N1_13  and  O5_15 
REMARK   10  A    between atoms: N2_17  and  C8_18 
REMARK   11  A    between atoms: N2_17  and  S1_25 
REMARK   12  A    between atoms: C8_18  and  O6_19 
REMARK   13  A    between atoms: N3_21  and  O7_23 
REMARK   14  A    between atoms: S1_25  and  C9_28 
REMARK   15  A    between atoms: C11_30  and  N4_31 
REMARK   16  A    between atoms: N4_31  and  O10_32 
REMARK   17  A    between atoms: N4_31  and  C12_34 
ROOT
HETATM    1  N2  UNL     1       2.220   1.806  -0.846  1.00  0.00    -0.195 N 
ENDROOT
BRANCH   1   2
HETATM    2  C6  UNL     1       3.508   1.486  -1.293  1.00  0.00     0.113 C 
BRANCH   2   3
HETATM    3  C4  UNL     1       4.366   2.711  -1.696  1.00  0.00     0.185 C 
HETATM    4  C5  UNL     1       5.103   2.329  -2.968  1.00  0.00     0.047 C 
BRANCH   3   5
HETATM    5  O3  UNL     1       5.165   3.205  -0.701  1.00  0.00    -0.287 OA
BRANCH   5   6
HETATM    6  C3  UNL     1       5.402   4.568  -0.588  1.00  0.00     0.407 C 
HETATM    7  O2  UNL     1       4.438   5.262  -0.256  1.00  0.00    -0.229 OA
BRANCH   6   8
HETATM    8  O1  UNL     1       6.624   5.158  -0.823  1.00  0.00    -0.298 OA
BRANCH   8   9
HETATM    9  C2  UNL     1       7.242   6.090   0.007  1.00  0.00     0.176 C 
HETATM   10  C1  UNL     1       8.742   6.116  -0.059  1.00  0.00     0.034 C 
ENDBRANCH   8   9
ENDBRANCH   6   8
ENDBRANCH   5   6
ENDBRANCH   3   5
ENDBRANCH   2   3
BRANCH   2  11
HETATM   11  C7  UNL     1       4.335   0.500  -0.604  1.00  0.00     0.187 C 
HETATM   12  N1  UNL     1       4.322  -0.776  -0.887  1.00  0.00    -0.246 N 
ATOM     13  H1  UNL     1       4.935  -1.392  -0.353  1.00  0.00     0.196 HD
BRANCH  11  14
HETATM   14  O4  UNL     1       5.225   0.846   0.435  1.00  0.00    -0.343 OA
ATOM     15  H4  UNL     1       6.001   0.337   0.635  1.00  0.00     0.219 HD
ENDBRANCH  11  14
BRANCH  12  16
HETATM   16  O5  UNL     1       3.545  -1.330  -1.847  1.00  0.00    -0.288 OA
ATOM     17  H5  UNL     1       3.488  -2.264  -2.010  1.00  0.00     0.244 HD
ENDBRANCH  12  16
ENDBRANCH   2  11
ENDBRANCH   1   2
BRANCH   1  18
HETATM   18  C8  UNL     1       2.152   3.031  -0.010  1.00  0.00     0.258 C 
HETATM   19  N3  UNL     1       1.462   4.030  -0.378  1.00  0.00    -0.232 N 
ATOM     20  H3  UNL     1       0.961   3.958  -1.264  1.00  0.00     0.198 HD
BRANCH  18  21
HETATM   21  O6  UNL     1       2.888   2.962   1.154  1.00  0.00    -0.330 OA
ATOM     22  H6  UNL     1       2.869   3.757   1.674  1.00  0.00     0.221 HD
ENDBRANCH  18  21
BRANCH  19  23
HETATM   23  O7  UNL     1       1.342   5.185   0.318  1.00  0.00    -0.287 OA
ATOM     24  H7  UNL     1       0.869   5.953   0.018  1.00  0.00     0.244 HD
ENDBRANCH  19  23
ENDBRANCH   1  18
BRANCH   1  25
HETATM   25  S1  UNL     1       0.696   1.097  -1.046  1.00  0.00     0.274 S 
HETATM   26  O8  UNL     1      -0.221   1.908  -1.930  1.00  0.00    -0.200 OA
HETATM   27  O9  UNL     1       0.771  -0.270  -1.714  1.00  0.00    -0.200 OA
BRANCH  25  28
HETATM   28  C9  UNL     1      -0.186   0.884   0.447  1.00  0.00     0.104 A 
HETATM   29  C10 UNL     1      -1.352   1.634   0.650  1.00  0.00     0.058 A 
HETATM   30  C11 UNL     1      -2.140   1.488   1.756  1.00  0.00     0.059 A 
HETATM   31  C13 UNL     1      -1.771   0.573   2.698  1.00  0.00     0.033 A 
HETATM   32  C14 UNL     1      -0.635  -0.168   2.521  1.00  0.00     0.028 A 
HETATM   33  C15 UNL     1       0.170  -0.016   1.387  1.00  0.00     0.057 A 
HETATM   34 CL2  UNL     1       1.636  -0.980   1.360  1.00  0.00    -0.083 Cl
BRANCH  30  35
HETATM   35  N4  UNL     1      -3.324   2.260   1.933  1.00  0.00    -0.247 N 
BRANCH  35  36
HETATM   36  O10 UNL     1      -3.261   3.245   2.731  1.00  0.00    -0.286 OA
ATOM     37  H10 UNL     1      -4.082   3.639   3.001  1.00  0.00     0.244 HD
ENDBRANCH  35  36
BRANCH  35  38
HETATM   38  C12 UNL     1      -4.577   1.991   1.268  1.00  0.00     0.270 C 
HETATM   39 CL1  UNL     1      -4.702   0.278   0.834  1.00  0.00    -0.106 Cl
ENDBRANCH  35  38
ENDBRANCH  30  35
ENDBRANCH  25  28
ENDBRANCH   1  25
TORSDOF 17
ENDMDL
MODEL 2
REMARK VINA RESULT: -6.578131947      0.994      1.321
REMARK  17 active torsions:
REMARK  status: ('A' for Active; 'I' for Inactive)
REMARK    1  A    between atoms: C2_2  and  O1_3 
REMARK    2  A    between atoms: O1_3  and  C3_4 
REMARK    3  A    between atoms: C3_4  and  O3_6 
REMARK    4  A    between atoms: O3_6  and  C4_7 
REMARK    5  A    between atoms: C4_7  and  C6_9 
REMARK    6  A    between atoms: C6_9  and  C7_10 
REMARK    7  A    between atoms: C6_9  and  N2_17 
REMARK    8  A    between atoms: C7_10  and  O4_11 
REMARK    9  A    between atoms: N1_13  and  O5_15 
REMARK   10  A    between atoms: N2_17  and  C8_18 
REMARK   11  A    between atoms: N2_17  and  S1_25 
REMARK   12  A    between atoms: C8_18  and  O6_19 
REMARK   13  A    between atoms: N3_21  and  O7_23 
REMARK   14  A    between atoms: S1_25  and  C9_28 
REMARK   15  A    between atoms: C11_30  and  N4_31 
REMARK   16  A    between atoms: N4_31  and  O10_32 
REMARK   17  A    between atoms: N4_31  and  C12_34 
ROOT
HETATM    1  N2  UNL     1       2.235   1.671  -0.917  1.00  0.00    -0.195 N 
ENDROOT
BRANCH   1   2
HETATM    2  C6  UNL     1       3.542   1.377  -1.328  1.00  0.00     0.113 C 
BRANCH   2   3
HETATM    3  C4  UNL     1       4.370   2.616  -1.752  1.00  0.00     0.185 C 
HETATM    4  C5  UNL     1       5.076   2.247  -3.046  1.00  0.00     0.047 C 
BRANCH   3   5
HETATM    5  O3  UNL     1       5.191   3.118  -0.778  1.00  0.00    -0.287 OA
BRANCH   5   6
HETATM    6  C3  UNL     1       5.362   4.487  -0.627  1.00  0.00     0.407 C 
HETATM    7  O2  UNL     1       6.508   4.913  -0.784  1.00  0.00    -0.229 OA
BRANCH   6   8
HETATM    8  O1  UNL     1       4.341   5.359  -0.318  1.00  0.00    -0.298 OA
BRANCH   8   9
HETATM    9  C2  UNL     1       4.486   6.554   0.380  1.00  0.00     0.176 C 
HETATM   10  C1  UNL     1       3.884   6.574   1.756  1.00  0.00     0.034 C 
ENDBRANCH   8   9
ENDBRANCH   6   8
ENDBRANCH   5   6
ENDBRANCH   3   5
ENDBRANCH   2   3
BRANCH   2  11
HETATM   11  C7  UNL     1       4.383   0.439  -0.592  1.00  0.00     0.187 C 
HETATM   12  N1  UNL     1       4.400  -0.848  -0.824  1.00  0.00    -0.246 N 
ATOM     13  H1  UNL     1       5.021  -1.429  -0.260  1.00  0.00     0.196 HD
BRANCH  11  14
HETATM   14  O4  UNL     1       5.255   0.846   0.439  1.00  0.00    -0.343 OA
ATOM     15  H4  UNL     1       6.174   0.605   0.458  1.00  0.00     0.219 HD
ENDBRANCH  11  14
BRANCH  12  16
HETATM   16  O5  UNL     1       3.644  -1.457  -1.767  1.00  0.00    -0.288 OA
ATOM     17  H5  UNL     1       3.990  -1.810  -2.578  1.00  0.00     0.244 HD
ENDBRANCH  12  16
ENDBRANCH   2  11
ENDBRANCH   1   2
BRANCH   1  18
HETATM   18  C8  UNL     1       2.107   2.940  -0.156  1.00  0.00     0.258 C 
HETATM   19  N3  UNL     1       1.363   3.877  -0.578  1.00  0.00    -0.232 N 
ATOM     20  H3  UNL     1       0.862   3.724  -1.453  1.00  0.00     0.198 HD
BRANCH  18  21
HETATM   21  O6  UNL     1       2.852   2.981   1.004  1.00  0.00    -0.330 OA
ATOM     22  H6  UNL     1       2.410   3.395   1.735  1.00  0.00     0.221 HD
ENDBRANCH  18  21
BRANCH  19  23
HETATM   23  O7  UNL     1       1.186   5.065   0.047  1.00  0.00    -0.287 OA
ATOM     24  H7  UNL     1       1.542   5.894  -0.250  1.00  0.00     0.244 HD
ENDBRANCH  19  23
ENDBRANCH   1  18
BRANCH   1  25
HETATM   25  S1  UNL     1       0.744   0.891  -1.092  1.00  0.00     0.274 S 
HETATM   26  O8  UNL     1      -0.199   1.621  -2.019  1.00  0.00    -0.200 OA
HETATM   27  O9  UNL     1       0.880  -0.501  -1.696  1.00  0.00    -0.200 OA
BRANCH  25  28
HETATM   28  C9  UNL     1      -0.141   0.712   0.403  1.00  0.00     0.104 A 
HETATM   29  C10 UNL     1      -1.300   1.477   0.593  1.00  0.00     0.058 A 
HETATM   30  C11 UNL     1      -2.090   1.357   1.701  1.00  0.00     0.059 A 
HETATM   31  C13 UNL     1      -1.729   0.453   2.659  1.00  0.00     0.033 A 
HETATM   32  C14 UNL     1      -0.601  -0.302   2.494  1.00  0.00     0.028 A 
HETATM   33  C15 UNL     1       0.206  -0.176   1.358  1.00  0.00     0.057 A 
HETATM   34 CL2  UNL     1       1.662  -1.155   1.348  1.00  0.00    -0.083 Cl
BRANCH  30  35
HETATM   35  N4  UNL     1      -3.266   2.143   1.865  1.00  0.00    -0.247 N 
BRANCH  35  36
HETATM   36  O10 UNL     1      -3.172   3.184   2.586  1.00  0.00    -0.286 OA
ATOM     37  H10 UNL     1      -3.365   3.090   3.512  1.00  0.00     0.244 HD
ENDBRANCH  35  36
BRANCH  35  38
HETATM   38  C12 UNL     1      -4.543   1.830   1.268  1.00  0.00     0.270 C 
HETATM   39 CL1  UNL     1      -5.677   3.176   1.471  1.00  0.00    -0.106 Cl
ENDBRANCH  35  38
ENDBRANCH  30  35
ENDBRANCH  25  28
ENDBRANCH   1  25
TORSDOF 17
ENDMDL
MODEL 3
REMARK VINA RESULT: -6.478861472      2.150      3.172
REMARK  17 active torsions:
REMARK  status: ('A' for Active; 'I' for Inactive)
REMARK    1  A    between atoms: C2_2  and  O1_3 
REMARK    2  A    between atoms: O1_3  and  C3_4 
REMARK    3  A    between atoms: C3_4  and  O3_6 
REMARK    4  A    between atoms: O3_6  and  C4_7 
REMARK    5  A    between atoms: C4_7  and  C6_9 
REMARK    6  A    between atoms: C6_9  and  C7_10 
REMARK    7  A    between atoms: C6_9  and  N2_17 
REMARK    8  A    between atoms: C7_10  and  O4_11 
REMARK    9  A    between atoms: N1_13  and  O5_15 
REMARK   10  A    between atoms: N2_17  and  C8_18 
REMARK   11  A    between atoms: N2_17  and  S1_25 
REMARK   12  A    between atoms: C8_18  and  O6_19 
REMARK   13  A    between atoms: N3_21  and  O7_23 
REMARK   14  A    between atoms: S1_25  and  C9_28 
REMARK   15  A    between atoms: C11_30  and  N4_31 
REMARK   16  A    between atoms: N4_31  and  O10_32 
REMARK   17  A    between atoms: N4_31  and  C12_34 
ROOT
HETATM    1  N2  UNL     1       2.616   2.410  -0.654  1.00  0.00    -0.195 N 
ENDROOT
BRANCH   1   2
HETATM    2  C6  UNL     1       3.766   1.831  -1.207  1.00  0.00     0.113 C 
BRANCH   2   3
HETATM    3  C4  UNL     1       4.782   2.851  -1.777  1.00  0.00     0.185 C 
HETATM    4  C5  UNL     1       5.300   2.268  -3.081  1.00  0.00     0.047 C 
BRANCH   3   5
HETATM    5  O3  UNL     1       5.758   3.242  -0.899  1.00  0.00    -0.287 OA
BRANCH   5   6
HETATM    6  C3  UNL     1       6.182   4.562  -0.848  1.00  0.00     0.407 C 
HETATM    7  O2  UNL     1       5.315   5.420  -1.026  1.00  0.00    -0.229 OA
BRANCH   6   8
HETATM    8  O1  UNL     1       7.486   4.942  -0.616  1.00  0.00    -0.298 OA
BRANCH   8   9
HETATM    9  C2  UNL     1       7.881   6.094   0.057  1.00  0.00     0.176 C 
HETATM   10  C1  UNL     1       9.361   6.350   0.081  1.00  0.00     0.034 C 
ENDBRANCH   8   9
ENDBRANCH   6   8
ENDBRANCH   5   6
ENDBRANCH   3   5
ENDBRANCH   2   3
BRANCH   2  11
HETATM   11  C7  UNL     1       4.469   0.740  -0.540  1.00  0.00     0.187 C 
HETATM   12  N1  UNL     1       4.330  -0.517  -0.872  1.00  0.00    -0.246 N 
ATOM     13  H1  UNL     1       4.864  -1.212  -0.350  1.00  0.00     0.196 HD
BRANCH  11  14
HETATM   14  O4  UNL     1       5.367   0.954   0.527  1.00  0.00    -0.343 OA
ATOM     15  H4  UNL     1       5.131   0.797   1.435  1.00  0.00     0.219 HD
ENDBRANCH  11  14
BRANCH  12  16
HETATM   16  O5  UNL     1       3.522  -0.951  -1.865  1.00  0.00    -0.288 OA
ATOM     17  H5  UNL     1       2.737  -1.467  -1.724  1.00  0.00     0.244 HD
ENDBRANCH  12  16
ENDBRANCH   2  11
ENDBRANCH   1   2
BRANCH   1  18
HETATM   18  C8  UNL     1       2.888   3.543   0.268  1.00  0.00     0.258 C 
HETATM   19  N3  UNL     1       2.514   4.719  -0.022  1.00  0.00    -0.232 N 
ATOM     20  H3  UNL     1       2.023   4.855  -0.906  1.00  0.00     0.198 HD
BRANCH  18  21
HETATM   21  O6  UNL     1       3.561   3.186   1.418  1.00  0.00    -0.330 OA
ATOM     22  H6  UNL     1       3.246   3.619   2.202  1.00  0.00     0.221 HD
ENDBRANCH  18  21
BRANCH  19  23
HETATM   23  O7  UNL     1       2.717   5.809   0.755  1.00  0.00    -0.287 OA
ATOM     24  H7  UNL     1       2.182   6.594   0.740  1.00  0.00     0.244 HD
ENDBRANCH  19  23
ENDBRANCH   1  18
BRANCH   1  25
HETATM   25  S1  UNL     1       0.958   2.104  -0.799  1.00  0.00     0.274 S 
HETATM   26  O8  UNL     1       0.103   3.167  -0.154  1.00  0.00    -0.200 OA
HETATM   27  O9  UNL     1       0.497   2.064  -2.251  1.00  0.00    -0.200 OA
BRANCH  25  28
HETATM   28  C9  UNL     1       0.448   0.604  -0.064  1.00  0.00     0.104 A 
HETATM   29  C10 UNL     1       1.360  -0.093   0.741  1.00  0.00     0.058 A 
HETATM   30  C11 UNL     1       1.030  -1.239   1.407  1.00  0.00     0.059 A 
HETATM   31  C13 UNL     1      -0.241  -1.720   1.279  1.00  0.00     0.033 A 
HETATM   32  C14 UNL     1      -1.145  -1.056   0.498  1.00  0.00     0.028 A 
HETATM   33  C15 UNL     1      -0.805   0.117  -0.184  1.00  0.00     0.057 A 
HETATM   34 CL2  UNL     1      -2.057   0.791  -1.212  1.00  0.00    -0.083 Cl
BRANCH  30  35
HETATM   35  N4  UNL     1       1.976  -1.924   2.222  1.00  0.00    -0.247 N 
BRANCH  35  36
HETATM   36  O10 UNL     1       3.156  -2.043   1.768  1.00  0.00    -0.286 OA
ATOM     37  H10 UNL     1       3.747  -2.618   2.240  1.00  0.00     0.244 HD
ENDBRANCH  35  36
BRANCH  35  38
HETATM   38  C12 UNL     1       1.676  -2.485   3.519  1.00  0.00     0.270 C 
HETATM   39 CL1  UNL     1       0.991  -1.253   4.592  1.00  0.00    -0.106 Cl
ENDBRANCH  35  38
ENDBRANCH  30  35
ENDBRANCH  25  28
ENDBRANCH   1  25
TORSDOF 17
ENDMDL
MODEL 4
REMARK VINA RESULT: -6.439965658      2.505      3.213
REMARK  17 active torsions:
REMARK  status: ('A' for Active; 'I' for Inactive)
REMARK    1  A    between atoms: C2_2  and  O1_3 
REMARK    2  A    between atoms: O1_3  and  C3_4 
REMARK    3  A    between atoms: C3_4  and  O3_6 
REMARK    4  A    between atoms: O3_6  and  C4_7 
REMARK    5  A    between atoms: C4_7  and  C6_9 
REMARK    6  A    between atoms: C6_9  and  C7_10 
REMARK    7  A    between atoms: C6_9  and  N2_17 
REMARK    8  A    between atoms: C7_10  and  O4_11 
REMARK    9  A    between atoms: N1_13  and  O5_15 
REMARK   10  A    between atoms: N2_17  and  C8_18 
REMARK   11  A    between atoms: N2_17  and  S1_25 
REMARK   12  A    between atoms: C8_18  and  O6_19 
REMARK   13  A    between atoms: N3_21  and  O7_23 
REMARK   14  A    between atoms: S1_25  and  C9_28 
REMARK   15  A    between atoms: C11_30  and  N4_31 
REMARK   16  A    between atoms: N4_31  and  O10_32 
REMARK   17  A    between atoms: N4_31  and  C12_34 
ROOT
HETATM    1  N2  UNL     1       2.153   1.670   0.013  1.00  0.00    -0.195 N 
ENDROOT
BRANCH   1   2
HETATM    2  C6  UNL     1       3.273   1.450  -0.799  1.00  0.00     0.113 C 
BRANCH   2   3
HETATM    3  C4  UNL     1       3.973   2.744  -1.283  1.00  0.00     0.185 C 
HETATM    4  C5  UNL     1       4.325   2.530  -2.745  1.00  0.00     0.047 C 
BRANCH   3   5
HETATM    5  O3  UNL     1       5.017   3.159  -0.500  1.00  0.00    -0.287 OA
BRANCH   5   6
HETATM    6  C3  UNL     1       5.822   4.220  -0.891  1.00  0.00     0.407 C 
HETATM    7  O2  UNL     1       6.976   3.935  -1.219  1.00  0.00    -0.229 OA
BRANCH   6   8
HETATM    8  O1  UNL     1       5.402   5.531  -0.928  1.00  0.00    -0.298 OA
BRANCH   8   9
HETATM    9  C2  UNL     1       5.341   6.388   0.168  1.00  0.00     0.176 C 
HETATM   10  C1  UNL     1       3.958   6.692   0.671  1.00  0.00     0.034 C 
ENDBRANCH   8   9
ENDBRANCH   6   8
ENDBRANCH   5   6
ENDBRANCH   3   5
ENDBRANCH   2   3
BRANCH   2  11
HETATM   11  C7  UNL     1       4.267   0.433  -0.473  1.00  0.00     0.187 C 
HETATM   12  N1  UNL     1       4.194  -0.806  -0.885  1.00  0.00    -0.246 N 
ATOM     13  H1  UNL     1       4.936  -1.448  -0.608  1.00  0.00     0.196 HD
BRANCH  11  14
HETATM   14  O4  UNL     1       5.401   0.706   0.322  1.00  0.00    -0.343 OA
ATOM     15  H4  UNL     1       5.680   0.135   1.029  1.00  0.00     0.219 HD
ENDBRANCH  11  14
BRANCH  12  16
HETATM   16  O5  UNL     1       3.193  -1.287  -1.657  1.00  0.00    -0.288 OA
ATOM     17  H5  UNL     1       3.062  -2.210  -1.841  1.00  0.00     0.244 HD
ENDBRANCH  12  16
ENDBRANCH   2  11
ENDBRANCH   1   2
BRANCH   1  18
HETATM   18  C8  UNL     1       1.926   3.095   0.366  1.00  0.00     0.258 C 
HETATM   19  N3  UNL     1       1.155   3.821  -0.331  1.00  0.00    -0.232 N 
ATOM     20  H3  UNL     1       0.702   3.391  -1.138  1.00  0.00     0.198 HD
BRANCH  18  21
HETATM   21  O6  UNL     1       2.616   3.516   1.483  1.00  0.00    -0.330 OA
ATOM     22  H6  UNL     1       2.092   4.015   2.098  1.00  0.00     0.221 HD
ENDBRANCH  18  21
BRANCH  19  23
HETATM   23  O7  UNL     1       0.890   5.126  -0.085  1.00  0.00    -0.287 OA
ATOM     24  H7  UNL     1       0.114   5.587  -0.381  1.00  0.00     0.244 HD
ENDBRANCH  19  23
ENDBRANCH   1  18
BRANCH   1  25
HETATM   25  S1  UNL     1       0.979   0.660   0.697  1.00  0.00     0.274 S 
HETATM   26  O8  UNL     1       1.467  -0.752   0.910  1.00  0.00    -0.200 OA
HETATM   27  O9  UNL     1       0.539   1.130   2.078  1.00  0.00    -0.200 OA
BRANCH  25  28
HETATM   28  C9  UNL     1      -0.467   0.499  -0.270  1.00  0.00     0.104 A 
HETATM   29  C10 UNL     1      -0.570   1.244  -1.452  1.00  0.00     0.058 A 
HETATM   30  C11 UNL     1      -1.634   1.135  -2.302  1.00  0.00     0.059 A 
HETATM   31  C13 UNL     1      -2.633   0.263  -1.981  1.00  0.00     0.033 A 
HETATM   32  C14 UNL     1      -2.553  -0.473  -0.831  1.00  0.00     0.028 A 
HETATM   33  C15 UNL     1      -1.463  -0.358   0.039  1.00  0.00     0.057 A 
HETATM   34 CL2  UNL     1      -1.561  -1.307   1.511  1.00  0.00    -0.083 Cl
BRANCH  30  35
HETATM   35  N4  UNL     1      -1.710   1.901  -3.501  1.00  0.00    -0.247 N 
BRANCH  35  36
HETATM   36  O10 UNL     1      -1.078   3.001  -3.527  1.00  0.00    -0.286 OA
ATOM     37  H10 UNL     1      -1.270   3.595  -4.244  1.00  0.00     0.244 HD
ENDBRANCH  35  36
BRANCH  35  38
HETATM   38  C12 UNL     1      -2.455   1.504  -4.672  1.00  0.00     0.270 C 
HETATM   39 CL1  UNL     1      -2.182   2.641  -6.004  1.00  0.00    -0.106 Cl
ENDBRANCH  35  38
ENDBRANCH  30  35
ENDBRANCH  25  28
ENDBRANCH   1  25
TORSDOF 17
ENDMDL
MODEL 5
REMARK VINA RESULT: -6.347194698      2.276      3.463
REMARK  17 active torsions:
REMARK  status: ('A' for Active; 'I' for Inactive)
REMARK    1  A    between atoms: C2_2  and  O1_3 
REMARK    2  A    between atoms: O1_3  and  C3_4 
REMARK    3  A    between atoms: C3_4  and  O3_6 
REMARK    4  A    between atoms: O3_6  and  C4_7 
REMARK    5  A    between atoms: C4_7  and  C6_9 
REMARK    6  A    between atoms: C6_9  and  C7_10 
REMARK    7  A    between atoms: C6_9  and  N2_17 
REMARK    8  A    between atoms: C7_10  and  O4_11 
REMARK    9  A    between atoms: N1_13  and  O5_15 
REMARK   10  A    between atoms: N2_17  and  C8_18 
REMARK   11  A    between atoms: N2_17  and  S1_25 
REMARK   12  A    between atoms: C8_18  and  O6_19 
REMARK   13  A    between atoms: N3_21  and  O7_23 
REMARK   14  A    between atoms: S1_25  and  C9_28 
REMARK   15  A    between atoms: C11_30  and  N4_31 
REMARK   16  A    between atoms: N4_31  and  O10_32 
REMARK   17  A    between atoms: N4_31  and  C12_34 
ROOT
HETATM    1  N2  UNL     1       2.115   1.574  -0.509  1.00  0.00    -0.195 N 
ENDROOT
BRANCH   1   2
HETATM    2  C6  UNL     1       3.369   1.345  -1.090  1.00  0.00     0.113 C 
BRANCH   2   3
HETATM    3  C4  UNL     1       4.121   2.632  -1.510  1.00  0.00     0.185 C 
HETATM    4  C5  UNL     1       4.675   2.379  -2.902  1.00  0.00     0.047 C 
BRANCH   3   5
HETATM    5  O3  UNL     1       5.043   3.080  -0.602  1.00  0.00    -0.287 OA
BRANCH   5   6
HETATM    6  C3  UNL     1       5.643   4.323  -0.751  1.00  0.00     0.407 C 
HETATM    7  O2  UNL     1       6.859   4.319  -0.956  1.00  0.00    -0.229 OA
BRANCH   6   8
HETATM    8  O1  UNL     1       4.962   5.518  -0.682  1.00  0.00    -0.298 OA
BRANCH   8   9
HETATM    9  C2  UNL     1       5.025   6.421   0.376  1.00  0.00     0.176 C 
HETATM   10  C1  UNL     1       3.724   6.675   1.084  1.00  0.00     0.034 C 
ENDBRANCH   8   9
ENDBRANCH   6   8
ENDBRANCH   5   6
ENDBRANCH   3   5
ENDBRANCH   2   3
BRANCH   2  11
HETATM   11  C7  UNL     1       4.306   0.375  -0.532  1.00  0.00     0.187 C 
HETATM   12  N1  UNL     1       4.322  -0.889  -0.868  1.00  0.00    -0.246 N 
ATOM     13  H1  UNL     1       5.014  -1.494  -0.426  1.00  0.00     0.196 HD
BRANCH  11  14
HETATM   14  O4  UNL     1       5.282   0.724   0.426  1.00  0.00    -0.343 OA
ATOM     15  H4  UNL     1       5.595   0.115   1.084  1.00  0.00     0.219 HD
ENDBRANCH  11  14
BRANCH  12  16
HETATM   16  O5  UNL     1       3.476  -1.442  -1.767  1.00  0.00    -0.288 OA
ATOM     17  H5  UNL     1       2.529  -1.408  -1.695  1.00  0.00     0.244 HD
ENDBRANCH  12  16
ENDBRANCH   2  11
ENDBRANCH   1   2
BRANCH   1  18
HETATM   18  C8  UNL     1       1.918   2.959  -0.012  1.00  0.00     0.258 C 
HETATM   19  N3  UNL     1       1.123   3.753  -0.600  1.00  0.00    -0.232 N 
ATOM     20  H3  UNL     1       0.629   3.403  -1.422  1.00  0.00     0.198 HD
BRANCH  18  21
HETATM   21  O6  UNL     1       2.662   3.269   1.107  1.00  0.00    -0.330 OA
ATOM     22  H6  UNL     1       2.505   2.697   1.848  1.00  0.00     0.221 HD
ENDBRANCH  18  21
BRANCH  19  23
HETATM   23  O7  UNL     1       0.880   5.029  -0.220  1.00  0.00    -0.287 OA
ATOM     24  H7  UNL     1       0.062   5.340   0.149  1.00  0.00     0.244 HD
ENDBRANCH  19  23
ENDBRANCH   1  18
BRANCH   1  25
HETATM   25  S1  UNL     1       0.751   0.610  -0.238  1.00  0.00     0.274 S 
HETATM   26  O8  UNL     1      -0.517   1.211  -0.797  1.00  0.00    -0.200 OA
HETATM   27  O9  UNL     1       0.859  -0.756  -0.903  1.00  0.00    -0.200 OA
BRANCH  25  28
HETATM   28  C9  UNL     1       0.409   0.326   1.452  1.00  0.00     0.104 A 
HETATM   29  C10 UNL     1       0.927  -0.828   2.056  1.00  0.00     0.058 A 
HETATM   30  C11 UNL     1       0.766  -1.101   3.384  1.00  0.00     0.059 A 
HETATM   31  C13 UNL     1       0.070  -0.210   4.149  1.00  0.00     0.033 A 
HETATM   32  C14 UNL     1      -0.445   0.921   3.579  1.00  0.00     0.028 A 
HETATM   33  C15 UNL     1      -0.279   1.198   2.218  1.00  0.00     0.057 A 
HETATM   34 CL2  UNL     1      -1.078   2.646   1.632  1.00  0.00    -0.083 Cl
BRANCH  30  35
HETATM   35  N4  UNL     1       1.308  -2.279   3.973  1.00  0.00    -0.247 N 
BRANCH  35  36
HETATM   36  O10 UNL     1       2.104  -2.969   3.264  1.00  0.00    -0.286 OA
ATOM     37  H10 UNL     1       2.075  -3.913   3.371  1.00  0.00     0.244 HD
ENDBRANCH  35  36
BRANCH  35  38
HETATM   38  C12 UNL     1       1.009  -2.730   5.312  1.00  0.00     0.270 C 
HETATM   39 CL1  UNL     1       1.991  -4.145   5.731  1.00  0.00    -0.106 Cl
ENDBRANCH  35  38
ENDBRANCH  30  35
ENDBRANCH  25  28
ENDBRANCH   1  25
TORSDOF 17
ENDMDL
