MODEL 1
REMARK VINA RESULT: -8.066900864      0.000      0.000
REMARK  18 active torsions:
REMARK  status: ('A' for Active; 'I' for Inactive)
REMARK    1  A    between atoms: O1_2  and  C2_3 
REMARK    2  A    between atoms: C2_3  and  O2_4 
REMARK    3  A    between atoms: C2_3  and  C3_6 
REMARK    4  A    between atoms: C3_6  and  N1_7 
REMARK    5  A    between atoms: C3_6  and  C6_15 
REMARK    6  A    between atoms: N1_7  and  N2_9 
REMARK       I    between atoms: N2_9  and  C4_11 
REMARK    7  A    between atoms: C4_11  and  C5_13 
REMARK    8  A    between atoms: C7_16  and  O4_17 
REMARK    9  A    between atoms: C8_20  and  O6_21 
REMARK   10  A    between atoms: O6_21  and  C9_22 
REMARK   11  A    between atoms: C9_22  and  O7_23 
REMARK   12  A    between atoms: C9_22  and  C10_25 
REMARK   13  A    between atoms: C10_25  and  O8_28 
REMARK   14  A    between atoms: C13_30  and  C14_31 
REMARK   15  A    between atoms: C15_32  and  C16_33 
REMARK   16  A    between atoms: C16_33  and  O10_35 
REMARK   17  A    between atoms: O10_35  and  C17_36 
REMARK   18  A    between atoms: C17_36  and  C18_37 
ROOT
HETATM    1  C6  UNL     1       4.569   3.506  -0.814  1.00  0.00     0.070 A 
HETATM    2  C7  UNL     1       5.482   2.809  -1.648  1.00  0.00     0.199 A 
HETATM    3  O5  UNL     1       5.014   1.637  -1.897  1.00  0.00    -0.263 OA
HETATM    4  C8  UNL     1       3.870   1.431  -1.334  1.00  0.00     0.201 A 
HETATM    5  C13 UNL     1       3.540   2.592  -0.627  1.00  0.00     0.040 A 
ENDROOT
BRANCH   1   6
HETATM    6  C3  UNL     1       4.785   4.859  -0.354  1.00  0.00     0.122 C 
BRANCH   6   7
HETATM    7  C2  UNL     1       4.069   5.669   0.533  1.00  0.00     0.207 C 
BRANCH   7   8
HETATM    8  O1  UNL     1       3.410   5.317   1.656  1.00  0.00    -0.334 OA
HETATM    9  C1  UNL     1       2.114   5.643   2.047  1.00  0.00     0.212 C 
ENDBRANCH   7   8
BRANCH   7  10
HETATM   10  O2  UNL     1       3.971   6.972   0.327  1.00  0.00    -0.339 OA
ATOM     11  H2  UNL     1       3.827   7.153  -0.594  1.00  0.00     0.220 HD
ENDBRANCH   7  10
ENDBRANCH   6   7
BRANCH   6  12
HETATM   12  N1  UNL     1       5.888   5.399  -0.850  1.00  0.00    -0.293 N 
ATOM     13  H1  UNL     1       6.067   5.251  -1.843  1.00  0.00     0.187 HD
BRANCH  12  14
HETATM   14  N2  UNL     1       6.810   6.136  -0.159  1.00  0.00    -0.269 N 
HETATM   15  C4  UNL     1       8.220   5.917  -0.266  1.00  0.00     0.249 C 
HETATM   16  O3  UNL     1       8.626   5.009  -1.027  1.00  0.00    -0.271 OA
ATOM     17  H2  UNL     1       6.478   6.876   0.461  1.00  0.00     0.190 HD
BRANCH  15  18
HETATM   18  C5  UNL     1       9.154   6.744   0.502  1.00  0.00     0.219 C 
HETATM   19 CL1  UNL     1      10.851   6.229   0.265  1.00  0.00    -0.121 Cl
ENDBRANCH  15  18
ENDBRANCH  12  14
ENDBRANCH   6  12
ENDBRANCH   1   6
BRANCH   2  20
HETATM   20  O4  UNL     1       6.691   3.338  -2.109  1.00  0.00    -0.340 OA
ATOM     21  H4  UNL     1       7.063   3.159  -2.965  1.00  0.00     0.220 HD
ENDBRANCH   2  20
BRANCH   5  22
HETATM   22  C14 UNL     1       2.265   2.816  -0.008  1.00  0.00     0.023 C 
HETATM   23  C15 UNL     1       1.098   2.968  -0.529  1.00  0.00     0.083 C 
BRANCH  23  24
HETATM   24  C16 UNL     1       0.714   2.941  -1.913  1.00  0.00     0.282 C 
HETATM   25  O9  UNL     1       1.424   3.141  -2.915  1.00  0.00    -0.260 OA
BRANCH  24  26
HETATM   26  O10 UNL     1      -0.643   2.651  -2.227  1.00  0.00    -0.318 OA
BRANCH  26  27
HETATM   27  C17 UNL     1      -0.982   1.345  -2.625  1.00  0.00     0.183 C 
BRANCH  27  28
HETATM   28  C18 UNL     1      -2.114   1.414  -3.623  1.00  0.00     0.010 C 
HETATM   29  C19 UNL     1      -2.016   0.273  -4.632  1.00  0.00     0.007 C 
HETATM   30  C20 UNL     1      -2.446   0.831  -5.954  1.00  0.00     0.000 C 
HETATM   31  C21 UNL     1      -2.903   2.236  -5.678  1.00  0.00     0.000 C 
HETATM   32  C22 UNL     1      -2.039   2.651  -4.492  1.00  0.00     0.007 C 
ENDBRANCH  27  28
ENDBRANCH  26  27
ENDBRANCH  24  26
ENDBRANCH  23  24
ENDBRANCH   5  22
BRANCH   4  33
HETATM   33  O6  UNL     1       3.120   0.240  -1.445  1.00  0.00    -0.295 OA
BRANCH  33  34
HETATM   34  C9  UNL     1       3.682  -0.871  -0.772  1.00  0.00     0.299 C 
BRANCH  34  35
HETATM   35  O7  UNL     1       4.720  -0.246   0.032  1.00  0.00    -0.368 OA
ATOM     36  H7  UNL     1       4.765  -0.825   0.783  1.00  0.00     0.212 HD
ENDBRANCH  34  35
BRANCH  34  37
HETATM   37  C10 UNL     1       2.811  -1.546   0.220  1.00  0.00     0.100 C 
HETATM   38  C11 UNL     1       1.567  -0.839   0.614  1.00  0.00     0.051 C 
HETATM   39  C12 UNL     1       2.364  -2.865  -0.435  1.00  0.00     0.051 C 
BRANCH  37  40
HETATM   40  O8  UNL     1       3.574  -1.868   1.347  1.00  0.00    -0.386 OA
ATOM     41  H8  UNL     1       3.034  -1.765   2.123  1.00  0.00     0.210 HD
ENDBRANCH  37  40
ENDBRANCH  34  37
ENDBRANCH  33  34
ENDBRANCH   4  33
TORSDOF 18
ENDMDL
MODEL 2
REMARK VINA RESULT: -7.950851635      0.967      1.457
REMARK  18 active torsions:
REMARK  status: ('A' for Active; 'I' for Inactive)
REMARK    1  A    between atoms: O1_2  and  C2_3 
REMARK    2  A    between atoms: C2_3  and  O2_4 
REMARK    3  A    between atoms: C2_3  and  C3_6 
REMARK    4  A    between atoms: C3_6  and  N1_7 
REMARK    5  A    between atoms: C3_6  and  C6_15 
REMARK    6  A    between atoms: N1_7  and  N2_9 
REMARK       I    between atoms: N2_9  and  C4_11 
REMARK    7  A    between atoms: C4_11  and  C5_13 
REMARK    8  A    between atoms: C7_16  and  O4_17 
REMARK    9  A    between atoms: C8_20  and  O6_21 
REMARK   10  A    between atoms: O6_21  and  C9_22 
REMARK   11  A    between atoms: C9_22  and  O7_23 
REMARK   12  A    between atoms: C9_22  and  C10_25 
REMARK   13  A    between atoms: C10_25  and  O8_28 
REMARK   14  A    between atoms: C13_30  and  C14_31 
REMARK   15  A    between atoms: C15_32  and  C16_33 
REMARK   16  A    between atoms: C16_33  and  O10_35 
REMARK   17  A    between atoms: O10_35  and  C17_36 
REMARK   18  A    between atoms: C17_36  and  C18_37 
ROOT
HETATM    1  C6  UNL     1       4.447   3.509  -0.741  1.00  0.00     0.070 A 
HETATM    2  C7  UNL     1       5.339   2.808  -1.595  1.00  0.00     0.199 A 
HETATM    3  O5  UNL     1       4.877   1.628  -1.808  1.00  0.00    -0.263 OA
HETATM    4  C8  UNL     1       3.756   1.417  -1.201  1.00  0.00     0.201 A 
HETATM    5  C13 UNL     1       3.437   2.587  -0.503  1.00  0.00     0.040 A 
ENDROOT
BRANCH   1   6
HETATM    6  C3  UNL     1       4.663   4.872  -0.312  1.00  0.00     0.122 C 
BRANCH   6   7
HETATM    7  C2  UNL     1       3.966   5.691   0.582  1.00  0.00     0.207 C 
BRANCH   7   8
HETATM    8  O1  UNL     1       3.327   5.350   1.719  1.00  0.00    -0.334 OA
HETATM    9  C1  UNL     1       2.029   5.658   2.119  1.00  0.00     0.212 C 
ENDBRANCH   7   8
BRANCH   7  10
HETATM   10  O2  UNL     1       3.866   6.993   0.367  1.00  0.00    -0.339 OA
ATOM     11  H2  UNL     1       3.003   7.210   0.034  1.00  0.00     0.220 HD
ENDBRANCH   7  10
ENDBRANCH   6   7
BRANCH   6  12
HETATM   12  N1  UNL     1       5.746   5.414  -0.850  1.00  0.00    -0.293 N 
ATOM     13  H1  UNL     1       5.887   5.266  -1.849  1.00  0.00     0.187 HD
BRANCH  12  14
HETATM   14  N2  UNL     1       6.692   6.153  -0.195  1.00  0.00    -0.269 N 
HETATM   15  C4  UNL     1       8.092   5.869  -0.274  1.00  0.00     0.249 C 
HETATM   16  O3  UNL     1       8.466   4.901  -0.974  1.00  0.00    -0.271 OA
ATOM     17  H2  UNL     1       6.386   6.942   0.376  1.00  0.00     0.190 HD
BRANCH  15  18
HETATM   18  C5  UNL     1       9.054   6.702   0.453  1.00  0.00     0.219 C 
HETATM   19 CL1  UNL     1      10.741   6.194   0.147  1.00  0.00    -0.121 Cl
ENDBRANCH  15  18
ENDBRANCH  12  14
ENDBRANCH   6  12
ENDBRANCH   1   6
BRANCH   2  20
HETATM   20  O4  UNL     1       6.525   3.344  -2.108  1.00  0.00    -0.340 OA
ATOM     21  H4  UNL     1       7.382   3.212  -1.721  1.00  0.00     0.220 HD
ENDBRANCH   2  20
BRANCH   5  22
HETATM   22  C14 UNL     1       2.182   2.807   0.158  1.00  0.00     0.023 C 
HETATM   23  C15 UNL     1       0.985   2.849  -0.314  1.00  0.00     0.083 C 
BRANCH  23  24
HETATM   24  C16 UNL     1       0.539   2.665  -1.668  1.00  0.00     0.282 C 
HETATM   25  O9  UNL     1       0.469   3.511  -2.578  1.00  0.00    -0.260 OA
BRANCH  24  26
HETATM   26  O10 UNL     1       0.113   1.367  -2.063  1.00  0.00    -0.318 OA
BRANCH  26  27
HETATM   27  C17 UNL     1      -1.230   1.179  -2.437  1.00  0.00     0.183 C 
BRANCH  27  28
HETATM   28  C18 UNL     1      -1.464  -0.289  -2.706  1.00  0.00     0.010 C 
HETATM   29  C19 UNL     1      -0.232  -1.110  -2.336  1.00  0.00     0.007 C 
HETATM   30  C20 UNL     1      -0.118  -2.198  -3.361  1.00  0.00     0.000 C 
HETATM   31  C21 UNL     1      -1.338  -2.075  -4.229  1.00  0.00     0.000 C 
HETATM   32  C22 UNL     1      -1.644  -0.582  -4.180  1.00  0.00     0.007 C 
ENDBRANCH  27  28
ENDBRANCH  26  27
ENDBRANCH  24  26
ENDBRANCH  23  24
ENDBRANCH   5  22
BRANCH   4  33
HETATM   33  O6  UNL     1       3.017   0.216  -1.266  1.00  0.00    -0.295 OA
BRANCH  33  34
HETATM   34  C9  UNL     1       3.600  -0.869  -0.568  1.00  0.00     0.299 C 
BRANCH  34  35
HETATM   35  O7  UNL     1       4.671  -0.216   0.167  1.00  0.00    -0.368 OA
ATOM     36  H7  UNL     1       4.199   0.194   0.882  1.00  0.00     0.212 HD
ENDBRANCH  34  35
BRANCH  34  37
HETATM   37  C10 UNL     1       2.767  -1.497   0.484  1.00  0.00     0.100 C 
HETATM   38  C11 UNL     1       1.534  -0.774   0.886  1.00  0.00     0.051 C 
HETATM   39  C12 UNL     1       2.301  -2.847  -0.092  1.00  0.00     0.051 C 
BRANCH  37  40
HETATM   40  O8  UNL     1       3.568  -1.763   1.598  1.00  0.00    -0.386 OA
ATOM     41  H8  UNL     1       3.021  -2.099   2.298  1.00  0.00     0.210 HD
ENDBRANCH  37  40
ENDBRANCH  34  37
ENDBRANCH  33  34
ENDBRANCH   4  33
TORSDOF 18
ENDMDL
MODEL 3
REMARK VINA RESULT: -7.841872483      1.148      1.938
REMARK  18 active torsions:
REMARK  status: ('A' for Active; 'I' for Inactive)
REMARK    1  A    between atoms: O1_2  and  C2_3 
REMARK    2  A    between atoms: C2_3  and  O2_4 
REMARK    3  A    between atoms: C2_3  and  C3_6 
REMARK    4  A    between atoms: C3_6  and  N1_7 
REMARK    5  A    between atoms: C3_6  and  C6_15 
REMARK    6  A    between atoms: N1_7  and  N2_9 
REMARK       I    between atoms: N2_9  and  C4_11 
REMARK    7  A    between atoms: C4_11  and  C5_13 
REMARK    8  A    between atoms: C7_16  and  O4_17 
REMARK    9  A    between atoms: C8_20  and  O6_21 
REMARK   10  A    between atoms: O6_21  and  C9_22 
REMARK   11  A    between atoms: C9_22  and  O7_23 
REMARK   12  A    between atoms: C9_22  and  C10_25 
REMARK   13  A    between atoms: C10_25  and  O8_28 
REMARK   14  A    between atoms: C13_30  and  C14_31 
REMARK   15  A    between atoms: C15_32  and  C16_33 
REMARK   16  A    between atoms: C16_33  and  O10_35 
REMARK   17  A    between atoms: O10_35  and  C17_36 
REMARK   18  A    between atoms: C17_36  and  C18_37 
ROOT
HETATM    1  C6  UNL     1       4.404   3.475  -0.824  1.00  0.00     0.070 A 
HETATM    2  C7  UNL     1       5.306   2.782  -1.675  1.00  0.00     0.199 A 
HETATM    3  O5  UNL     1       4.833   1.613  -1.926  1.00  0.00    -0.263 OA
HETATM    4  C8  UNL     1       3.697   1.404  -1.350  1.00  0.00     0.201 A 
HETATM    5  C13 UNL     1       3.377   2.561  -0.631  1.00  0.00     0.040 A 
ENDROOT
BRANCH   1   6
HETATM    6  C3  UNL     1       4.628   4.824  -0.357  1.00  0.00     0.122 C 
BRANCH   6   7
HETATM    7  C2  UNL     1       3.939   5.620   0.564  1.00  0.00     0.207 C 
BRANCH   7   8
HETATM    8  O1  UNL     1       3.289   5.246   1.684  1.00  0.00    -0.334 OA
HETATM    9  C1  UNL     1       2.031   5.635   2.136  1.00  0.00     0.212 C 
ENDBRANCH   7   8
BRANCH   7  10
HETATM   10  O2  UNL     1       3.862   6.930   0.398  1.00  0.00    -0.339 OA
ATOM     11  H2  UNL     1       3.018   7.171   0.035  1.00  0.00     0.220 HD
ENDBRANCH   7  10
ENDBRANCH   6   7
BRANCH   6  12
HETATM   12  N1  UNL     1       5.709   5.378  -0.887  1.00  0.00    -0.293 N 
ATOM     13  H1  UNL     1       5.858   5.233  -1.885  1.00  0.00     0.187 HD
BRANCH  12  14
HETATM   14  N2  UNL     1       6.644   6.124  -0.224  1.00  0.00    -0.269 N 
HETATM   15  C4  UNL     1       8.047   5.852  -0.292  1.00  0.00     0.249 C 
HETATM   16  O3  UNL     1       8.434   4.888  -0.990  1.00  0.00    -0.271 OA
ATOM     17  H2  UNL     1       6.327   6.909   0.345  1.00  0.00     0.190 HD
BRANCH  15  18
HETATM   18  C5  UNL     1       8.996   6.692   0.444  1.00  0.00     0.219 C 
HETATM   19 CL1  UNL     1      10.690   6.205   0.143  1.00  0.00    -0.121 Cl
ENDBRANCH  15  18
ENDBRANCH  12  14
ENDBRANCH   6  12
ENDBRANCH   1   6
BRANCH   2  20
HETATM   20  O4  UNL     1       6.510   3.314  -2.148  1.00  0.00    -0.340 OA
ATOM     21  H4  UNL     1       6.571   3.995  -2.808  1.00  0.00     0.220 HD
ENDBRANCH   2  20
BRANCH   5  22
HETATM   22  C14 UNL     1       2.110   2.782   0.007  1.00  0.00     0.023 C 
HETATM   23  C15 UNL     1       0.928   2.877  -0.493  1.00  0.00     0.083 C 
BRANCH  23  24
HETATM   24  C16 UNL     1       0.514   2.770  -1.866  1.00  0.00     0.282 C 
HETATM   25  O9  UNL     1       0.580   3.631  -2.761  1.00  0.00    -0.260 OA
BRANCH  24  26
HETATM   26  O10 UNL     1      -0.049   1.538  -2.302  1.00  0.00    -0.318 OA
BRANCH  26  27
HETATM   27  C17 UNL     1      -1.415   1.498  -2.633  1.00  0.00     0.183 C 
BRANCH  27  28
HETATM   28  C18 UNL     1      -2.075   0.380  -1.861  1.00  0.00     0.010 C 
HETATM   29  C19 UNL     1      -2.365   0.811  -0.426  1.00  0.00     0.007 C 
HETATM   30  C20 UNL     1      -2.119  -0.386   0.440  1.00  0.00     0.000 C 
HETATM   31  C21 UNL     1      -1.815  -1.518  -0.500  1.00  0.00     0.000 C 
HETATM   32  C22 UNL     1      -1.162  -0.814  -1.684  1.00  0.00     0.007 C 
ENDBRANCH  27  28
ENDBRANCH  26  27
ENDBRANCH  24  26
ENDBRANCH  23  24
ENDBRANCH   5  22
BRANCH   4  33
HETATM   33  O6  UNL     1       2.944   0.215  -1.460  1.00  0.00    -0.295 OA
BRANCH  33  34
HETATM   34  C9  UNL     1       3.508  -0.899  -0.793  1.00  0.00     0.299 C 
BRANCH  34  35
HETATM   35  O7  UNL     1       4.570  -0.282  -0.016  1.00  0.00    -0.368 OA
ATOM     36  H7  UNL     1       5.349  -0.648  -0.419  1.00  0.00     0.212 HD
ENDBRANCH  34  35
BRANCH  34  37
HETATM   37  C10 UNL     1       2.652  -1.559   0.221  1.00  0.00     0.100 C 
HETATM   38  C11 UNL     1       1.590  -0.731   0.847  1.00  0.00     0.051 C 
HETATM   39  C12 UNL     1       1.926  -2.701  -0.513  1.00  0.00     0.051 C 
BRANCH  37  40
HETATM   40  O8  UNL     1       3.470  -2.133   1.199  1.00  0.00    -0.386 OA
ATOM     41  H8  UNL     1       2.969  -2.785   1.676  1.00  0.00     0.210 HD
ENDBRANCH  37  40
ENDBRANCH  34  37
ENDBRANCH  33  34
ENDBRANCH   4  33
TORSDOF 18
ENDMDL
MODEL 4
REMARK VINA RESULT: -7.714824691      2.464      3.979
REMARK  18 active torsions:
REMARK  status: ('A' for Active; 'I' for Inactive)
REMARK    1  A    between atoms: O1_2  and  C2_3 
REMARK    2  A    between atoms: C2_3  and  O2_4 
REMARK    3  A    between atoms: C2_3  and  C3_6 
REMARK    4  A    between atoms: C3_6  and  N1_7 
REMARK    5  A    between atoms: C3_6  and  C6_15 
REMARK    6  A    between atoms: N1_7  and  N2_9 
REMARK       I    between atoms: N2_9  and  C4_11 
REMARK    7  A    between atoms: C4_11  and  C5_13 
REMARK    8  A    between atoms: C7_16  and  O4_17 
REMARK    9  A    between atoms: C8_20  and  O6_21 
REMARK   10  A    between atoms: O6_21  and  C9_22 
REMARK   11  A    between atoms: C9_22  and  O7_23 
REMARK   12  A    between atoms: C9_22  and  C10_25 
REMARK   13  A    between atoms: C10_25  and  O8_28 
REMARK   14  A    between atoms: C13_30  and  C14_31 
REMARK   15  A    between atoms: C15_32  and  C16_33 
REMARK   16  A    between atoms: C16_33  and  O10_35 
REMARK   17  A    between atoms: O10_35  and  C17_36 
REMARK   18  A    between atoms: C17_36  and  C18_37 
ROOT
HETATM    1  C6  UNL     1       4.296   3.309  -0.803  1.00  0.00     0.070 A 
HETATM    2  C7  UNL     1       5.320   2.414  -1.210  1.00  0.00     0.199 A 
HETATM    3  O5  UNL     1       4.788   1.297  -1.558  1.00  0.00    -0.263 OA
HETATM    4  C8  UNL     1       3.501   1.305  -1.446  1.00  0.00     0.201 A 
HETATM    5  C13 UNL     1       3.134   2.567  -0.966  1.00  0.00     0.040 A 
ENDROOT
BRANCH   1   6
HETATM    6  C3  UNL     1       4.552   4.661  -0.360  1.00  0.00     0.122 C 
BRANCH   6   7
HETATM    7  C2  UNL     1       3.877   5.491   0.542  1.00  0.00     0.207 C 
BRANCH   7   8
HETATM    8  O1  UNL     1       3.164   5.150   1.634  1.00  0.00    -0.334 OA
HETATM    9  C1  UNL     1       1.916   5.613   2.043  1.00  0.00     0.212 C 
ENDBRANCH   7   8
BRANCH   7  10
HETATM   10  O2  UNL     1       3.885   6.805   0.384  1.00  0.00    -0.339 OA
ATOM     11  H2  UNL     1       4.346   7.042  -0.412  1.00  0.00     0.220 HD
ENDBRANCH   7  10
ENDBRANCH   6   7
BRANCH   6  12
HETATM   12  N1  UNL     1       5.650   5.177  -0.891  1.00  0.00    -0.293 N 
ATOM     13  H1  UNL     1       5.829   4.967  -1.873  1.00  0.00     0.187 HD
BRANCH  12  14
HETATM   14  N2  UNL     1       6.568   5.963  -0.250  1.00  0.00    -0.269 N 
HETATM   15  C4  UNL     1       7.980   5.760  -0.363  1.00  0.00     0.249 C 
HETATM   16  O3  UNL     1       8.391   4.821  -1.081  1.00  0.00    -0.271 OA
ATOM     17  H2  UNL     1       6.231   6.728   0.335  1.00  0.00     0.190 HD
BRANCH  15  18
HETATM   18  C5  UNL     1       8.909   6.640   0.351  1.00  0.00     0.219 C 
HETATM   19 CL1  UNL     1      10.613   6.164   0.088  1.00  0.00    -0.121 Cl
ENDBRANCH  15  18
ENDBRANCH  12  14
ENDBRANCH   6  12
ENDBRANCH   1   6
BRANCH   2  20
HETATM   20  O4  UNL     1       6.683   2.726  -1.218  1.00  0.00    -0.340 OA
ATOM     21  H4  UNL     1       7.199   2.848  -2.007  1.00  0.00     0.220 HD
ENDBRANCH   2  20
BRANCH   5  22
HETATM   22  C14 UNL     1       1.777   3.023  -0.869  1.00  0.00     0.023 C 
HETATM   23  C15 UNL     1       0.872   2.772   0.011  1.00  0.00     0.083 C 
BRANCH  23  24
HETATM   24  C16 UNL     1       0.959   1.959   1.193  1.00  0.00     0.282 C 
HETATM   25  O9  UNL     1       0.901   2.319   2.382  1.00  0.00    -0.260 OA
BRANCH  24  26
HETATM   26  O10 UNL     1       1.134   0.557   1.030  1.00  0.00    -0.318 OA
BRANCH  26  27
HETATM   27  C17 UNL     1      -0.003  -0.271   1.013  1.00  0.00     0.183 C 
BRANCH  27  28
HETATM   28  C18 UNL     1       0.112  -1.287   2.124  1.00  0.00     0.010 C 
HETATM   29  C19 UNL     1      -0.402  -0.710   3.440  1.00  0.00     0.007 C 
HETATM   30  C20 UNL     1       0.489  -1.244   4.520  1.00  0.00     0.000 C 
HETATM   31  C21 UNL     1       1.420  -2.211   3.844  1.00  0.00     0.000 C 
HETATM   32  C22 UNL     1       1.551  -1.635   2.438  1.00  0.00     0.007 C 
ENDBRANCH  27  28
ENDBRANCH  26  27
ENDBRANCH  24  26
ENDBRANCH  23  24
ENDBRANCH   5  22
BRANCH   4  33
HETATM   33  O6  UNL     1       2.656   0.220  -1.770  1.00  0.00    -0.295 OA
BRANCH  33  34
HETATM   34  C9  UNL     1       3.253  -1.053  -1.614  1.00  0.00     0.299 C 
BRANCH  34  35
HETATM   35  O7  UNL     1       3.605  -1.053  -0.203  1.00  0.00    -0.368 OA
ATOM     36  H7  UNL     1       2.803  -0.742   0.201  1.00  0.00     0.212 HD
ENDBRANCH  34  35
BRANCH  34  37
HETATM   37  C10 UNL     1       2.354  -2.222  -1.764  1.00  0.00     0.100 C 
HETATM   38  C11 UNL     1       0.938  -1.941  -2.109  1.00  0.00     0.051 C 
HETATM   39  C12 UNL     1       2.922  -3.048  -2.933  1.00  0.00     0.051 C 
BRANCH  37  40
HETATM   40  O8  UNL     1       2.434  -3.006  -0.610  1.00  0.00    -0.386 OA
ATOM     41  H8  UNL     1       1.572  -3.060  -0.214  1.00  0.00     0.210 HD
ENDBRANCH  37  40
ENDBRANCH  34  37
ENDBRANCH  33  34
ENDBRANCH   4  33
TORSDOF 18
ENDMDL
MODEL 5
REMARK VINA RESULT: -7.602088172      2.774      4.584
REMARK  18 active torsions:
REMARK  status: ('A' for Active; 'I' for Inactive)
REMARK    1  A    between atoms: O1_2  and  C2_3 
REMARK    2  A    between atoms: C2_3  and  O2_4 
REMARK    3  A    between atoms: C2_3  and  C3_6 
REMARK    4  A    between atoms: C3_6  and  N1_7 
REMARK    5  A    between atoms: C3_6  and  C6_15 
REMARK    6  A    between atoms: N1_7  and  N2_9 
REMARK       I    between atoms: N2_9  and  C4_11 
REMARK    7  A    between atoms: C4_11  and  C5_13 
REMARK    8  A    between atoms: C7_16  and  O4_17 
REMARK    9  A    between atoms: C8_20  and  O6_21 
REMARK   10  A    between atoms: O6_21  and  C9_22 
REMARK   11  A    between atoms: C9_22  and  O7_23 
REMARK   12  A    between atoms: C9_22  and  C10_25 
REMARK   13  A    between atoms: C10_25  and  O8_28 
REMARK   14  A    between atoms: C13_30  and  C14_31 
REMARK   15  A    between atoms: C15_32  and  C16_33 
REMARK   16  A    between atoms: C16_33  and  O10_35 
REMARK   17  A    between atoms: O10_35  and  C17_36 
REMARK   18  A    between atoms: C17_36  and  C18_37 
ROOT
HETATM    1  C6  UNL     1       2.062   2.840   0.506  1.00  0.00     0.070 A 
HETATM    2  C7  UNL     1       1.959   3.712   1.622  1.00  0.00     0.199 A 
HETATM    3  O5  UNL     1       0.729   3.786   1.986  1.00  0.00    -0.263 OA
HETATM    4  C8  UNL     1      -0.049   3.061   1.253  1.00  0.00     0.201 A 
HETATM    5  C13 UNL     1       0.751   2.436   0.291  1.00  0.00     0.040 A 
ENDROOT
BRANCH   1   6
HETATM    6  C3  UNL     1       3.313   2.526  -0.145  1.00  0.00     0.122 C 
BRANCH   6   7
HETATM    7  C2  UNL     1       4.091   1.363  -0.163  1.00  0.00     0.207 C 
BRANCH   7   8
HETATM    8  O1  UNL     1       3.688   0.078  -0.228  1.00  0.00    -0.334 OA
HETATM    9  C1  UNL     1       3.478  -0.716  -1.353  1.00  0.00     0.212 C 
ENDBRANCH   7   8
BRANCH   7  10
HETATM   10  O2  UNL     1       5.411   1.434  -0.112  1.00  0.00    -0.339 OA
ATOM     11  H2  UNL     1       5.686   2.276   0.229  1.00  0.00     0.220 HD
ENDBRANCH   7  10
ENDBRANCH   6   7
BRANCH   6  12
HETATM   12  N1  UNL     1       3.772   3.525  -0.885  1.00  0.00    -0.293 N 
ATOM     13  H1  UNL     1       3.642   3.449  -1.893  1.00  0.00     0.187 HD
BRANCH  12  14
HETATM   14  N2  UNL     1       4.404   4.647  -0.426  1.00  0.00    -0.269 N 
HETATM   15  C4  UNL     1       5.811   4.862  -0.571  1.00  0.00     0.249 C 
HETATM   16  O3  UNL     1       6.493   3.982  -1.144  1.00  0.00    -0.271 OA
ATOM     17  H2  UNL     1       3.848   5.364   0.041  1.00  0.00     0.190 HD
BRANCH  15  18
HETATM   18  C5  UNL     1       6.425   6.089  -0.056  1.00  0.00     0.219 C 
HETATM   19 CL1  UNL     1       8.211   5.996  -0.065  1.00  0.00    -0.121 Cl
ENDBRANCH  15  18
ENDBRANCH  12  14
ENDBRANCH   6  12
ENDBRANCH   1   6
BRANCH   2  20
HETATM   20  O4  UNL     1       3.043   4.372   2.210  1.00  0.00    -0.340 OA
ATOM     21  H4  UNL     1       3.862   3.952   2.444  1.00  0.00     0.220 HD
ENDBRANCH   2  20
BRANCH   5  22
HETATM   22  C14 UNL     1       0.279   1.418  -0.603  1.00  0.00     0.023 C 
HETATM   23  C15 UNL     1      -0.145   1.501  -1.815  1.00  0.00     0.083 C 
BRANCH  23  24
HETATM   24  C16 UNL     1      -0.259   2.660  -2.657  1.00  0.00     0.282 C 
HETATM   25  O9  UNL     1       0.513   3.632  -2.739  1.00  0.00    -0.260 OA
BRANCH  24  26
HETATM   26  O10 UNL     1      -1.382   2.750  -3.525  1.00  0.00    -0.318 OA
BRANCH  26  27
HETATM   27  C17 UNL     1      -2.106   1.581  -3.821  1.00  0.00     0.183 C 
BRANCH  27  28
HETATM   28  C18 UNL     1      -2.949   1.822  -5.050  1.00  0.00     0.010 C 
HETATM   29  C19 UNL     1      -2.068   2.075  -6.270  1.00  0.00     0.007 C 
HETATM   30  C20 UNL     1      -2.760   3.120  -7.090  1.00  0.00     0.000 C 
HETATM   31  C21 UNL     1      -4.078   3.369  -6.413  1.00  0.00     0.000 C 
HETATM   32  C22 UNL     1      -3.767   3.092  -4.946  1.00  0.00     0.007 C 
ENDBRANCH  27  28
ENDBRANCH  26  27
ENDBRANCH  24  26
ENDBRANCH  23  24
ENDBRANCH   5  22
BRANCH   4  33
HETATM   33  O6  UNL     1      -1.445   2.941   1.432  1.00  0.00    -0.295 OA
BRANCH  33  34
HETATM   34  C9  UNL     1      -1.846   1.789   2.150  1.00  0.00     0.299 C 
BRANCH  34  35
HETATM   35  O7  UNL     1      -0.947   1.814   3.292  1.00  0.00    -0.368 OA
ATOM     36  H7  UNL     1      -0.108   1.625   2.889  1.00  0.00     0.212 HD
ENDBRANCH  34  35
BRANCH  34  37
HETATM   37  C10 UNL     1      -3.200   1.829   2.751  1.00  0.00     0.100 C 
HETATM   38  C11 UNL     1      -4.278   1.106   2.029  1.00  0.00     0.051 C 
HETATM   39  C12 UNL     1      -3.076   1.147   4.126  1.00  0.00     0.051 C 
BRANCH  37  40
HETATM   40  O8  UNL     1      -3.560   3.162   2.967  1.00  0.00    -0.386 OA
ATOM     41  H8  UNL     1      -4.438   3.189   3.331  1.00  0.00     0.210 HD
ENDBRANCH  37  40
ENDBRANCH  34  37
ENDBRANCH  33  34
ENDBRANCH   4  33
TORSDOF 18
ENDMDL
