MODEL 1
REMARK VINA RESULT: -8.370807645      0.000      0.000
REMARK  13 active torsions:
REMARK  status: ('A' for Active; 'I' for Inactive)
REMARK    1  A    between atoms: C2_2  and  O1_3 
REMARK    2  A    between atoms: O1_3  and  C3_4 
REMARK    3  A    between atoms: C3_4  and  C4_6 
REMARK    4  A    between atoms: C6_10  and  C7_11 
REMARK    5  A    between atoms: N2_13  and  O3_15 
REMARK    6  A    between atoms: O3_15  and  C8_16 
REMARK    7  A    between atoms: C8_16  and  N3_17 
REMARK    8  A    between atoms: C8_16  and  C9_21 
REMARK    9  A    between atoms: C9_21  and  C10_22 
REMARK   10  A    between atoms: C10_22  and  C11_23 
REMARK   11  A    between atoms: C11_23  and  N4_24 
REMARK   12  A    between atoms: C12_26  and  C13_27 
REMARK   13  A    between atoms: C13_27  and  N5_28 
ROOT
HETATM    1  C8  UNL     1       3.470   5.586   0.751  1.00  0.00     0.348 C 
ENDROOT
BRANCH   1   2
HETATM    2  O3  UNL     1       3.766   4.231   0.550  1.00  0.00    -0.246 OA
BRANCH   2   3
HETATM    3  N2  UNL     1       2.848   3.295   0.202  1.00  0.00    -0.252 N 
HETATM    4  C7  UNL     1       2.863   2.701  -0.919  1.00  0.00     0.142 C 
HETATM    5 CL1  UNL     1       4.090   3.049  -2.118  1.00  0.00    -0.061 Cl
ATOM      6  H2  UNL     1       2.115   3.058   0.870  1.00  0.00     0.195 HD
BRANCH   4   7
HETATM    7  C6  UNL     1       1.835   1.691  -1.235  1.00  0.00     0.069 A 
HETATM    8  S1  UNL     1       0.181   1.950  -1.527  1.00  0.00    -0.069 SA
HETATM    9  C5  UNL     1      -0.310   0.344  -1.806  1.00  0.00     0.105 A 
HETATM   10  C4  UNL     1       0.860  -0.363  -1.658  1.00  0.00     0.093 A 
HETATM   11  N1  UNL     1      -1.612  -0.161  -2.116  1.00  0.00    -0.093 NA
HETATM   12  C17 UNL     1       1.964   0.334  -1.365  1.00  0.00     0.073 A 
HETATM   13 CL2  UNL     1       3.584  -0.399  -1.134  1.00  0.00    -0.082 Cl
BRANCH  10  14
HETATM   14  C3  UNL     1       0.859  -1.845  -1.828  1.00  0.00     0.297 C 
HETATM   15  O2  UNL     1       0.692  -2.619  -0.864  1.00  0.00    -0.259 OA
BRANCH  14  16
HETATM   16  O1  UNL     1       1.044  -2.448  -3.064  1.00  0.00    -0.318 OA
BRANCH  16  17
HETATM   17  C2  UNL     1       1.618  -3.728  -3.201  1.00  0.00     0.174 C 
HETATM   18  C1  UNL     1       3.144  -3.654  -3.183  1.00  0.00     0.034 C 
ENDBRANCH  16  17
ENDBRANCH  14  16
ENDBRANCH  10  14
ENDBRANCH   4   7
ENDBRANCH   2   3
ENDBRANCH   1   2
BRANCH   1  19
HETATM   19  N3  UNL     1       2.979   5.702   2.131  1.00  0.00    -0.051 N 
ATOM     20  H33 UNL     1       2.348   4.947   2.400  1.00  0.00     0.277 HD
ATOM     21  H32 UNL     1       3.696   5.523   2.832  1.00  0.00     0.277 HD
ATOM     22  H31 UNL     1       2.559   6.628   2.209  1.00  0.00     0.277 HD
ENDBRANCH   1  19
BRANCH   1  23
HETATM   23  C9  UNL     1       4.696   6.470   0.649  1.00  0.00     0.065 C 
BRANCH  23  24
HETATM   24  C10 UNL     1       5.443   6.090  -0.614  1.00  0.00     0.024 C 
BRANCH  24  25
HETATM   25  C11 UNL     1       6.806   5.513  -0.299  1.00  0.00     0.119 C 
BRANCH  25  26
HETATM   26  N4  UNL     1       7.817   6.504  -0.226  1.00  0.00    -0.401 N 
HETATM   27  C12 UNL     1       9.004   6.293   0.168  1.00  0.00     0.075 C 
ATOM     28  H4  UNL     1       7.573   7.453  -0.511  1.00  0.00     0.158 HD
BRANCH  27  29
HETATM   29  C13 UNL     1       9.925   7.488   0.170  1.00  0.00     0.182 C 
BRANCH  29  30
HETATM   30  N5  UNL     1      11.211   7.002   0.602  1.00  0.00    -0.222 N 
HETATM   31  C14 UNL     1      11.659   7.392   1.762  1.00  0.00     0.678 C 
HETATM   32  N6  UNL     1      10.917   8.256   2.567  1.00  0.00    -0.217 N 
HETATM   33  N7  UNL     1      12.942   6.895   2.156  1.00  0.00    -0.151 N 
HETATM   34  C15 UNL     1      10.867   8.323   4.004  1.00  0.00     0.222 C 
ATOM     35  H6  UNL     1      10.332   8.929   2.072  1.00  0.00     0.178 HD
HETATM   36  S2  UNL     1      12.354   7.612   4.773  1.00  0.00    -0.048 SA
HETATM   37  C16 UNL     1      13.464   7.300   3.403  1.00  0.00     0.299 C 
HETATM   38  O4  UNL     1      14.688   7.453   3.598  1.00  0.00    -0.259 OA
ATOM     39  H7  UNL     1      13.466   6.263   1.550  1.00  0.00     0.188 HD
ATOM     40  H5  UNL     1      11.756   6.370   0.015  1.00  0.00     0.178 HD
ENDBRANCH  29  30
ENDBRANCH  27  29
ENDBRANCH  25  26
ENDBRANCH  24  25
ENDBRANCH  23  24
ENDBRANCH   1  23
TORSDOF 13
ENDMDL
MODEL 2
REMARK VINA RESULT: -8.322346531      1.911      2.616
REMARK  13 active torsions:
REMARK  status: ('A' for Active; 'I' for Inactive)
REMARK    1  A    between atoms: C2_2  and  O1_3 
REMARK    2  A    between atoms: O1_3  and  C3_4 
REMARK    3  A    between atoms: C3_4  and  C4_6 
REMARK    4  A    between atoms: C6_10  and  C7_11 
REMARK    5  A    between atoms: N2_13  and  O3_15 
REMARK    6  A    between atoms: O3_15  and  C8_16 
REMARK    7  A    between atoms: C8_16  and  N3_17 
REMARK    8  A    between atoms: C8_16  and  C9_21 
REMARK    9  A    between atoms: C9_21  and  C10_22 
REMARK   10  A    between atoms: C10_22  and  C11_23 
REMARK   11  A    between atoms: C11_23  and  N4_24 
REMARK   12  A    between atoms: C12_26  and  C13_27 
REMARK   13  A    between atoms: C13_27  and  N5_28 
ROOT
HETATM    1  C8  UNL     1       3.426   5.520   0.724  1.00  0.00     0.348 C 
ENDROOT
BRANCH   1   2
HETATM    2  O3  UNL     1       3.638   4.151   0.510  1.00  0.00    -0.246 OA
BRANCH   2   3
HETATM    3  N2  UNL     1       2.651   3.258   0.252  1.00  0.00    -0.252 N 
HETATM    4  C7  UNL     1       2.587   2.597  -0.828  1.00  0.00     0.142 C 
HETATM    5 CL1  UNL     1       3.790   2.787  -2.086  1.00  0.00    -0.061 Cl
ATOM      6  H2  UNL     1       1.927   3.112   0.957  1.00  0.00     0.195 HD
BRANCH   4   7
HETATM    7  C6  UNL     1       1.485   1.639  -1.047  1.00  0.00     0.069 A 
HETATM    8  S1  UNL     1       1.277   0.115  -0.324  1.00  0.00    -0.069 SA
HETATM    9  C5  UNL     1      -0.180  -0.352  -1.071  1.00  0.00     0.105 A 
HETATM   10  C4  UNL     1      -0.466   0.721  -1.882  1.00  0.00     0.093 A 
HETATM   11  N1  UNL     1      -0.932  -1.559  -0.907  1.00  0.00    -0.093 NA
HETATM   12  C17 UNL     1       0.394   1.746  -1.867  1.00  0.00     0.073 A 
HETATM   13 CL2  UNL     1       0.202   3.234  -2.847  1.00  0.00    -0.082 Cl
BRANCH  10  14
HETATM   14  C3  UNL     1      -1.695   0.707  -2.727  1.00  0.00     0.297 C 
HETATM   15  O2  UNL     1      -2.826   0.928  -2.250  1.00  0.00    -0.259 OA
BRANCH  14  16
HETATM   16  O1  UNL     1      -1.652   0.449  -4.089  1.00  0.00    -0.318 OA
BRANCH  16  17
HETATM   17  C2  UNL     1      -2.606   0.970  -4.987  1.00  0.00     0.174 C 
HETATM   18  C1  UNL     1      -2.332   2.442  -5.292  1.00  0.00     0.034 C 
ENDBRANCH  16  17
ENDBRANCH  14  16
ENDBRANCH  10  14
ENDBRANCH   4   7
ENDBRANCH   2   3
ENDBRANCH   1   2
BRANCH   1  19
HETATM   19  N3  UNL     1       2.902   5.649   2.090  1.00  0.00    -0.051 N 
ATOM     20  H33 UNL     1       3.313   6.425   2.610  1.00  0.00     0.277 HD
ATOM     21  H32 UNL     1       1.935   5.974   2.123  1.00  0.00     0.277 HD
ATOM     22  H31 UNL     1       3.040   4.743   2.537  1.00  0.00     0.277 HD
ENDBRANCH   1  19
BRANCH   1  23
HETATM   23  C9  UNL     1       4.709   6.323   0.671  1.00  0.00     0.065 C 
BRANCH  23  24
HETATM   24  C10 UNL     1       5.425   5.975  -0.619  1.00  0.00     0.024 C 
BRANCH  24  25
HETATM   25  C11 UNL     1       6.824   5.461  -0.356  1.00  0.00     0.119 C 
BRANCH  25  26
HETATM   26  N4  UNL     1       7.778   6.503  -0.243  1.00  0.00    -0.401 N 
HETATM   27  C12 UNL     1       8.970   6.346   0.164  1.00  0.00     0.075 C 
ATOM     28  H4  UNL     1       7.487   7.444  -0.507  1.00  0.00     0.158 HD
BRANCH  27  29
HETATM   29  C13 UNL     1       9.824   7.589   0.210  1.00  0.00     0.182 C 
BRANCH  29  30
HETATM   30  N5  UNL     1      11.143   7.154   0.595  1.00  0.00    -0.222 N 
HETATM   31  C14 UNL     1      11.596   7.518   1.761  1.00  0.00     0.678 C 
HETATM   32  N6  UNL     1      10.829   8.307   2.618  1.00  0.00    -0.217 N 
HETATM   33  N7  UNL     1      12.911   7.074   2.108  1.00  0.00    -0.151 N 
HETATM   34  C15 UNL     1      10.807   8.312   4.056  1.00  0.00     0.222 C 
ATOM     35  H6  UNL     1      10.198   8.968   2.163  1.00  0.00     0.178 HD
HETATM   36  S2  UNL     1      12.346   7.649   4.764  1.00  0.00    -0.048 SA
HETATM   37  C16 UNL     1      13.440   7.453   3.360  1.00  0.00     0.299 C 
HETATM   38  O4  UNL     1      14.659   7.662   3.536  1.00  0.00    -0.259 OA
ATOM     39  H7  UNL     1      13.454   6.496   1.465  1.00  0.00     0.188 HD
ATOM     40  H5  UNL     1      11.708   6.576  -0.029  1.00  0.00     0.178 HD
ENDBRANCH  29  30
ENDBRANCH  27  29
ENDBRANCH  25  26
ENDBRANCH  24  25
ENDBRANCH  23  24
ENDBRANCH   1  23
TORSDOF 13
ENDMDL
MODEL 3
REMARK VINA RESULT: -8.305281539      1.686      1.817
REMARK  13 active torsions:
REMARK  status: ('A' for Active; 'I' for Inactive)
REMARK    1  A    between atoms: C2_2  and  O1_3 
REMARK    2  A    between atoms: O1_3  and  C3_4 
REMARK    3  A    between atoms: C3_4  and  C4_6 
REMARK    4  A    between atoms: C6_10  and  C7_11 
REMARK    5  A    between atoms: N2_13  and  O3_15 
REMARK    6  A    between atoms: O3_15  and  C8_16 
REMARK    7  A    between atoms: C8_16  and  N3_17 
REMARK    8  A    between atoms: C8_16  and  C9_21 
REMARK    9  A    between atoms: C9_21  and  C10_22 
REMARK   10  A    between atoms: C10_22  and  C11_23 
REMARK   11  A    between atoms: C11_23  and  N4_24 
REMARK   12  A    between atoms: C12_26  and  C13_27 
REMARK   13  A    between atoms: C13_27  and  N5_28 
ROOT
HETATM    1  C8  UNL     1       3.668   5.350   0.130  1.00  0.00     0.348 C 
ENDROOT
BRANCH   1   2
HETATM    2  O3  UNL     1       3.253   4.433   1.106  1.00  0.00    -0.246 OA
BRANCH   2   3
HETATM    3  N2  UNL     1       3.124   3.100   0.893  1.00  0.00    -0.252 N 
HETATM    4  C7  UNL     1       2.151   2.597   0.254  1.00  0.00     0.142 C 
HETATM    5 CL1  UNL     1       0.883   3.602  -0.415  1.00  0.00    -0.061 Cl
ATOM      6  H2  UNL     1       3.840   2.475   1.264  1.00  0.00     0.195 HD
BRANCH   4   7
HETATM    7  C6  UNL     1       2.070   1.137   0.057  1.00  0.00     0.069 A 
HETATM    8  S1  UNL     1       0.925   0.064   0.710  1.00  0.00    -0.069 SA
HETATM    9  C5  UNL     1       1.492  -1.394   0.039  1.00  0.00     0.105 A 
HETATM   10  C4  UNL     1       2.585  -0.990  -0.692  1.00  0.00     0.093 A 
HETATM   11  N1  UNL     1       0.973  -2.719   0.189  1.00  0.00    -0.093 NA
HETATM   12  C17 UNL     1       2.879   0.315  -0.681  1.00  0.00     0.073 A 
HETATM   13 CL2  UNL     1       4.258   1.042  -1.567  1.00  0.00    -0.082 Cl
BRANCH  10  14
HETATM   14  C3  UNL     1       3.382  -1.994  -1.454  1.00  0.00     0.297 C 
HETATM   15  O2  UNL     1       4.266  -2.685  -0.908  1.00  0.00    -0.259 OA
BRANCH  14  16
HETATM   16  O1  UNL     1       3.189  -2.218  -2.809  1.00  0.00    -0.318 OA
BRANCH  16  17
HETATM   17  C2  UNL     1       2.518  -3.357  -3.298  1.00  0.00     0.174 C 
HETATM   18  C1  UNL     1       1.011  -3.114  -3.389  1.00  0.00     0.034 C 
ENDBRANCH  16  17
ENDBRANCH  14  16
ENDBRANCH  10  14
ENDBRANCH   4   7
ENDBRANCH   2   3
ENDBRANCH   1   2
BRANCH   1  19
HETATM   19  N3  UNL     1       3.864   6.630   0.823  1.00  0.00    -0.051 N 
ATOM     20  H33 UNL     1       3.265   6.744   1.641  1.00  0.00     0.277 HD
ATOM     21  H32 UNL     1       4.757   6.694   1.311  1.00  0.00     0.277 HD
ATOM     22  H31 UNL     1       3.734   7.359   0.121  1.00  0.00     0.277 HD
ENDBRANCH   1  19
BRANCH   1  23
HETATM   23  C9  UNL     1       5.000   4.979  -0.487  1.00  0.00     0.065 C 
BRANCH  23  24
HETATM   24  C10 UNL     1       5.979   6.099  -0.195  1.00  0.00     0.024 C 
BRANCH  24  25
HETATM   25  C11 UNL     1       7.412   5.619  -0.281  1.00  0.00     0.119 C 
BRANCH  25  26
HETATM   26  N4  UNL     1       8.349   6.681  -0.234  1.00  0.00    -0.401 N 
HETATM   27  C12 UNL     1       9.492   6.609   0.314  1.00  0.00     0.075 C 
ATOM     28  H4  UNL     1       8.088   7.565  -0.672  1.00  0.00     0.158 HD
BRANCH  27  29
HETATM   29  C13 UNL     1      10.336   7.858   0.252  1.00  0.00     0.182 C 
BRANCH  29  30
HETATM   30  N5  UNL     1      11.636   7.487   0.752  1.00  0.00    -0.222 N 
HETATM   31  C14 UNL     1      11.926   7.776   1.990  1.00  0.00     0.678 C 
HETATM   32  N6  UNL     1      11.006   8.425   2.812  1.00  0.00    -0.217 N 
HETATM   33  N7  UNL     1      13.227   7.398   2.451  1.00  0.00    -0.151 N 
HETATM   34  C15 UNL     1      10.825   8.298   4.234  1.00  0.00     0.222 C 
ATOM     35  H6  UNL     1      10.377   9.078   2.343  1.00  0.00     0.178 HD
HETATM   36  S2  UNL     1      12.325   7.687   5.061  1.00  0.00    -0.048 SA
HETATM   37  C16 UNL     1      13.581   7.699   3.784  1.00  0.00     0.299 C 
HETATM   38  O4  UNL     1      14.751   7.979   4.118  1.00  0.00    -0.259 OA
ATOM     39  H7  UNL     1      13.883   6.922   1.831  1.00  0.00     0.188 HD
ATOM     40  H5  UNL     1      12.312   7.011   0.154  1.00  0.00     0.178 HD
ENDBRANCH  29  30
ENDBRANCH  27  29
ENDBRANCH  25  26
ENDBRANCH  24  25
ENDBRANCH  23  24
ENDBRANCH   1  23
TORSDOF 13
ENDMDL
MODEL 4
REMARK VINA RESULT: -8.295955532      2.183      2.878
REMARK  13 active torsions:
REMARK  status: ('A' for Active; 'I' for Inactive)
REMARK    1  A    between atoms: C2_2  and  O1_3 
REMARK    2  A    between atoms: O1_3  and  C3_4 
REMARK    3  A    between atoms: C3_4  and  C4_6 
REMARK    4  A    between atoms: C6_10  and  C7_11 
REMARK    5  A    between atoms: N2_13  and  O3_15 
REMARK    6  A    between atoms: O3_15  and  C8_16 
REMARK    7  A    between atoms: C8_16  and  N3_17 
REMARK    8  A    between atoms: C8_16  and  C9_21 
REMARK    9  A    between atoms: C9_21  and  C10_22 
REMARK   10  A    between atoms: C10_22  and  C11_23 
REMARK   11  A    between atoms: C11_23  and  N4_24 
REMARK   12  A    between atoms: C12_26  and  C13_27 
REMARK   13  A    between atoms: C13_27  and  N5_28 
ROOT
HETATM    1  C8  UNL     1       3.622   6.931   0.408  1.00  0.00     0.348 C 
ENDROOT
BRANCH   1   2
HETATM    2  O3  UNL     1       2.468   6.530   1.097  1.00  0.00    -0.246 OA
BRANCH   2   3
HETATM    3  N2  UNL     1       1.643   5.535   0.687  1.00  0.00    -0.252 N 
HETATM    4  C7  UNL     1       1.635   4.386   1.223  1.00  0.00     0.142 C 
HETATM    5 CL1  UNL     1       2.702   3.993   2.555  1.00  0.00    -0.061 Cl
ATOM      6  H2  UNL     1       1.002   5.718  -0.085  1.00  0.00     0.195 HD
BRANCH   4   7
HETATM    7  C6  UNL     1       0.712   3.345   0.730  1.00  0.00     0.069 A 
HETATM    8  S1  UNL     1      -0.710   2.784   1.473  1.00  0.00    -0.069 SA
HETATM    9  C5  UNL     1      -1.187   1.622   0.323  1.00  0.00     0.105 A 
HETATM   10  C4  UNL     1      -0.197   1.709  -0.628  1.00  0.00     0.093 A 
HETATM   11  N1  UNL     1      -2.330   0.761   0.330  1.00  0.00    -0.093 NA
HETATM   12  C17 UNL     1       0.780   2.598  -0.416  1.00  0.00     0.073 A 
HETATM   13 CL2  UNL     1       2.156   2.865  -1.532  1.00  0.00    -0.082 Cl
BRANCH  10  14
HETATM   14  C3  UNL     1      -0.247   0.833  -1.834  1.00  0.00     0.297 C 
HETATM   15  O2  UNL     1       0.448  -0.200  -1.928  1.00  0.00    -0.259 OA
BRANCH  14  16
HETATM   16  O1  UNL     1      -1.065   1.113  -2.919  1.00  0.00    -0.318 OA
BRANCH  16  17
HETATM   17  C2  UNL     1      -1.264   2.424  -3.395  1.00  0.00     0.174 C 
HETATM   18  C1  UNL     1      -2.219   2.440  -4.588  1.00  0.00     0.034 C 
ENDBRANCH  16  17
ENDBRANCH  14  16
ENDBRANCH  10  14
ENDBRANCH   4   7
ENDBRANCH   2   3
ENDBRANCH   1   2
BRANCH   1  19
HETATM   19  N3  UNL     1       3.983   8.251   0.941  1.00  0.00    -0.051 N 
ATOM     20  H33 UNL     1       3.274   8.647   1.558  1.00  0.00     0.277 HD
ATOM     21  H32 UNL     1       4.740   8.219   1.624  1.00  0.00     0.277 HD
ATOM     22  H31 UNL     1       4.191   8.839   0.134  1.00  0.00     0.277 HD
ENDBRANCH   1  19
BRANCH   1  23
HETATM   23  C9  UNL     1       4.801   6.017   0.668  1.00  0.00     0.065 C 
BRANCH  23  24
HETATM   24  C10 UNL     1       5.515   5.790  -0.649  1.00  0.00     0.024 C 
BRANCH  24  25
HETATM   25  C11 UNL     1       6.936   5.317  -0.435  1.00  0.00     0.119 C 
BRANCH  25  26
HETATM   26  N4  UNL     1       7.851   6.386  -0.265  1.00  0.00    -0.401 N 
HETATM   27  C12 UNL     1       9.054   6.251   0.113  1.00  0.00     0.075 C 
ATOM     28  H4  UNL     1       7.518   7.330  -0.461  1.00  0.00     0.158 HD
BRANCH  27  29
HETATM   29  C13 UNL     1       9.859   7.522   0.231  1.00  0.00     0.182 C 
BRANCH  29  30
HETATM   30  N5  UNL     1      11.186   7.120   0.624  1.00  0.00    -0.222 N 
HETATM   31  C14 UNL     1      11.625   7.499   1.792  1.00  0.00     0.678 C 
HETATM   32  N6  UNL     1      10.834   8.271   2.641  1.00  0.00    -0.217 N 
HETATM   33  N7  UNL     1      12.948   7.087   2.146  1.00  0.00    -0.151 N 
HETATM   34  C15 UNL     1      10.805   8.280   4.080  1.00  0.00     0.222 C 
ATOM     35  H6  UNL     1      10.190   8.916   2.182  1.00  0.00     0.178 HD
HETATM   36  S2  UNL     1      12.356   7.657   4.798  1.00  0.00    -0.048 SA
HETATM   37  C16 UNL     1      13.462   7.483   3.400  1.00  0.00     0.299 C 
HETATM   38  O4  UNL     1      14.674   7.722   3.581  1.00  0.00    -0.259 OA
ATOM     39  H7  UNL     1      13.508   6.521   1.508  1.00  0.00     0.188 HD
ATOM     40  H5  UNL     1      11.768   6.554   0.004  1.00  0.00     0.178 HD
ENDBRANCH  29  30
ENDBRANCH  27  29
ENDBRANCH  25  26
ENDBRANCH  24  25
ENDBRANCH  23  24
ENDBRANCH   1  23
TORSDOF 13
ENDMDL
MODEL 5
REMARK VINA RESULT: -8.272166116      2.711      3.322
REMARK  13 active torsions:
REMARK  status: ('A' for Active; 'I' for Inactive)
REMARK    1  A    between atoms: C2_2  and  O1_3 
REMARK    2  A    between atoms: O1_3  and  C3_4 
REMARK    3  A    between atoms: C3_4  and  C4_6 
REMARK    4  A    between atoms: C6_10  and  C7_11 
REMARK    5  A    between atoms: N2_13  and  O3_15 
REMARK    6  A    between atoms: O3_15  and  C8_16 
REMARK    7  A    between atoms: C8_16  and  N3_17 
REMARK    8  A    between atoms: C8_16  and  C9_21 
REMARK    9  A    between atoms: C9_21  and  C10_22 
REMARK   10  A    between atoms: C10_22  and  C11_23 
REMARK   11  A    between atoms: C11_23  and  N4_24 
REMARK   12  A    between atoms: C12_26  and  C13_27 
REMARK   13  A    between atoms: C13_27  and  N5_28 
ROOT
HETATM    1  C8  UNL     1       5.004   3.867  -0.631  1.00  0.00     0.348 C 
ENDROOT
BRANCH   1   2
HETATM    2  O3  UNL     1       4.027   3.277   0.183  1.00  0.00    -0.246 OA
BRANCH   2   3
HETATM    3  N2  UNL     1       2.907   2.673  -0.286  1.00  0.00    -0.252 N 
HETATM    4  C7  UNL     1       1.754   3.192  -0.187  1.00  0.00     0.142 C 
HETATM    5 CL1  UNL     1       1.517   4.751   0.573  1.00  0.00    -0.061 Cl
ATOM      6  H2  UNL     1       2.995   1.763  -0.738  1.00  0.00     0.195 HD
BRANCH   4   7
HETATM    7  C6  UNL     1       0.574   2.482  -0.719  1.00  0.00     0.069 A 
HETATM    8  S1  UNL     1      -0.488   1.458   0.124  1.00  0.00    -0.069 SA
HETATM    9  C5  UNL     1      -1.548   1.048  -1.144  1.00  0.00     0.105 A 
HETATM   10  C4  UNL     1      -1.027   1.738  -2.213  1.00  0.00     0.093 A 
HETATM   11  N1  UNL     1      -2.698   0.196  -1.120  1.00  0.00    -0.093 NA
HETATM   12  C17 UNL     1       0.066   2.477  -1.991  1.00  0.00     0.073 A 
HETATM   13 CL2  UNL     1       0.895   3.449  -3.248  1.00  0.00    -0.082 Cl
BRANCH  10  14
HETATM   14  C3  UNL     1      -1.683   1.644  -3.549  1.00  0.00     0.297 C 
HETATM   15  O2  UNL     1      -1.768   0.563  -4.167  1.00  0.00    -0.259 OA
BRANCH  14  16
HETATM   16  O1  UNL     1      -2.235   2.748  -4.181  1.00  0.00    -0.318 OA
BRANCH  16  17
HETATM   17  C2  UNL     1      -3.155   2.629  -5.243  1.00  0.00     0.174 C 
HETATM   18  C1  UNL     1      -2.458   2.769  -6.596  1.00  0.00     0.034 C 
ENDBRANCH  16  17
ENDBRANCH  14  16
ENDBRANCH  10  14
ENDBRANCH   4   7
ENDBRANCH   2   3
ENDBRANCH   1   2
BRANCH   1  19
HETATM   19  N3  UNL     1       4.883   3.230  -1.949  1.00  0.00    -0.051 N 
ATOM     20  H33 UNL     1       5.721   2.721  -2.231  1.00  0.00     0.277 HD
ATOM     21  H32 UNL     1       4.244   2.435  -1.958  1.00  0.00     0.277 HD
ATOM     22  H31 UNL     1       4.619   3.968  -2.602  1.00  0.00     0.277 HD
ENDBRANCH   1  19
BRANCH   1  23
HETATM   23  C9  UNL     1       4.771   5.349  -0.840  1.00  0.00     0.065 C 
BRANCH  23  24
HETATM   24  C10 UNL     1       5.781   6.104   0.001  1.00  0.00     0.024 C 
BRANCH  24  25
HETATM   25  C11 UNL     1       7.191   5.621  -0.262  1.00  0.00     0.119 C 
BRANCH  25  26
HETATM   26  N4  UNL     1       8.146   6.669  -0.222  1.00  0.00    -0.401 N 
HETATM   27  C12 UNL     1       9.316   6.558   0.256  1.00  0.00     0.075 C 
ATOM     28  H4  UNL     1       7.873   7.574  -0.605  1.00  0.00     0.158 HD
BRANCH  27  29
HETATM   29  C13 UNL     1      10.174   7.798   0.201  1.00  0.00     0.182 C 
BRANCH  29  30
HETATM   30  N5  UNL     1      11.481   7.400   0.660  1.00  0.00    -0.222 N 
HETATM   31  C14 UNL     1      11.822   7.697   1.883  1.00  0.00     0.678 C 
HETATM   32  N6  UNL     1      10.948   8.380   2.728  1.00  0.00    -0.217 N 
HETATM   33  N7  UNL     1      13.129   7.293   2.302  1.00  0.00    -0.151 N 
HETATM   34  C15 UNL     1      10.816   8.276   4.157  1.00  0.00     0.222 C 
ATOM     35  H6  UNL     1      10.320   9.043   2.272  1.00  0.00     0.178 HD
HETATM   36  S2  UNL     1      12.329   7.637   4.938  1.00  0.00    -0.048 SA
HETATM   37  C16 UNL     1      13.538   7.602   3.617  1.00  0.00     0.299 C 
HETATM   38  O4  UNL     1      14.725   7.856   3.906  1.00  0.00    -0.259 OA
ATOM     39  H7  UNL     1      13.750   6.792   1.666  1.00  0.00     0.188 HD
ATOM     40  H5  UNL     1      12.123   6.900   0.044  1.00  0.00     0.178 HD
ENDBRANCH  29  30
ENDBRANCH  27  29
ENDBRANCH  25  26
ENDBRANCH  24  25
ENDBRANCH  23  24
ENDBRANCH   1  23
TORSDOF 13
ENDMDL
