MODEL 1
REMARK VINA RESULT: -7.733810996      0.000      0.000
REMARK  2 active torsions:
REMARK  status: ('A' for Active; 'I' for Inactive)
REMARK    1  A    between atoms: C1_2  and  C2_4 
REMARK    2  A    between atoms: C9_11  and  O3_12 
ROOT
HETATM    1  C2  UNL     1     216.125  -6.143  19.301  1.00  0.00     0.185 C 
HETATM    2  C3  UNL     1     215.528  -7.257  20.155  1.00  0.00     0.036 C 
HETATM    3  C4  UNL     1     215.747  -7.068  21.668  1.00  0.00     0.002 C 
HETATM    4  C5  UNL     1     217.183  -6.655  21.724  1.00  0.00     0.000 C 
HETATM    5  C6  UNL     1     217.920  -6.458  22.964  1.00  0.00     0.000 C 
HETATM    6  C7  UNL     1     219.048  -5.449  22.657  1.00  0.00     0.007 C 
HETATM    7  C8  UNL     1     219.645  -5.568  21.301  1.00  0.00     0.021 C 
HETATM    8  C9  UNL     1     221.084  -6.065  21.544  1.00  0.00     0.122 C 
HETATM    9  C10 UNL     1     221.906  -5.112  22.336  1.00  0.00     0.032 C 
HETATM   10  C11 UNL     1     221.742  -3.744  21.722  1.00  0.00     0.003 C 
HETATM   11  C12 UNL     1     221.099  -3.841  20.336  1.00  0.00     0.008 C 
HETATM   12  C13 UNL     1     219.638  -4.290  20.485  1.00  0.00     0.031 C 
HETATM   13  C14 UNL     1     218.932  -4.329  19.189  1.00  0.00     0.135 C 
HETATM   14  C15 UNL     1     219.489  -3.486  18.080  1.00  0.00     0.175 C 
HETATM   15  S1  UNL     1     218.503  -2.097  18.437  1.00  0.00     0.111 S 
HETATM   16  O4  UNL     1     219.045  -1.016  19.269  1.00  0.00    -0.234 OA
HETATM   17 CL1  UNL     1     217.346  -1.417  16.871  1.00  0.00    -0.003 Cl
HETATM   18  N1  UNL     1     217.781  -3.414  19.216  1.00  0.00    -0.319 N 
ATOM     19  H1  UNL     1     216.839  -3.536  19.588  1.00  0.00     0.171 HD
HETATM   20  C16 UNL     1     218.592  -5.670  18.646  1.00  0.00     0.248 C 
HETATM   21  O5  UNL     1     219.544  -6.148  17.941  1.00  0.00    -0.271 OA
HETATM   22  N2  UNL     1     217.435  -6.421  18.800  1.00  0.00    -0.344 N 
ATOM     23  H2  UNL     1     217.543  -7.385  18.486  1.00  0.00     0.163 HD
ENDROOT
BRANCH   8  24
HETATM   24  O3  UNL     1     220.919  -7.224  22.339  1.00  0.00    -0.395 OA
ATOM     25  H3  UNL     1     221.674  -7.759  22.127  1.00  0.00     0.210 HD
ENDBRANCH   8  24
BRANCH   1  26
HETATM   26  C1  UNL     1     215.238  -6.107  18.107  1.00  0.00     0.196 C 
HETATM   27  O1  UNL     1     214.293  -6.899  17.988  1.00  0.00    -0.646 OA
HETATM   28  O2  UNL     1     215.473  -5.178  17.118  1.00  0.00    -0.646 OA
ENDBRANCH   1  26
TORSDOF 2
ENDMDL
MODEL 2
REMARK VINA RESULT: -7.632842599      2.641      5.538
REMARK  2 active torsions:
REMARK  status: ('A' for Active; 'I' for Inactive)
REMARK    1  A    between atoms: C1_2  and  C2_4 
REMARK    2  A    between atoms: C9_11  and  O3_12 
ROOT
HETATM    1  C2  UNL     1     217.701  -6.645  22.522  1.00  0.00     0.185 C 
HETATM    2  C3  UNL     1     216.690  -7.308  23.452  1.00  0.00     0.036 C 
HETATM    3  C4  UNL     1     215.956  -8.506  22.821  1.00  0.00     0.002 C 
HETATM    4  C5  UNL     1     215.617  -7.981  21.462  1.00  0.00     0.000 C 
HETATM    5  C6  UNL     1     214.807  -8.705  20.494  1.00  0.00     0.000 C 
HETATM    6  C7  UNL     1     215.230  -8.204  19.095  1.00  0.00     0.007 C 
HETATM    7  C8  UNL     1     215.586  -6.764  19.025  1.00  0.00     0.021 C 
HETATM    8  C9  UNL     1     214.475  -6.122  18.169  1.00  0.00     0.122 C 
HETATM    9  C10 UNL     1     214.420  -6.660  16.784  1.00  0.00     0.032 C 
HETATM   10  C11 UNL     1     215.822  -6.636  16.227  1.00  0.00     0.003 C 
HETATM   11  C12 UNL     1     216.742  -5.776  17.098  1.00  0.00     0.008 C 
HETATM   12  C13 UNL     1     216.958  -6.471  18.449  1.00  0.00     0.031 C 
HETATM   13  C14 UNL     1     217.901  -5.732  19.311  1.00  0.00     0.135 C 
HETATM   14  C15 UNL     1     218.860  -4.797  18.634  1.00  0.00     0.175 C 
HETATM   15  S1  UNL     1     220.128  -5.978  18.468  1.00  0.00     0.111 S 
HETATM   16  O4  UNL     1     220.267  -6.721  17.210  1.00  0.00    -0.234 OA
HETATM   17 CL1  UNL     1     221.936  -5.446  19.304  1.00  0.00    -0.003 Cl
HETATM   18  N1  UNL     1     219.059  -6.580  19.633  1.00  0.00    -0.319 N 
ATOM     19  H1  UNL     1     219.180  -7.306  20.339  1.00  0.00     0.171 HD
HETATM   20  C16 UNL     1     217.333  -5.053  20.505  1.00  0.00     0.248 C 
HETATM   21  O5  UNL     1     216.934  -3.871  20.230  1.00  0.00    -0.271 OA
HETATM   22  N2  UNL     1     217.193  -5.517  21.806  1.00  0.00    -0.344 N 
ATOM     23  H2  UNL     1     216.593  -4.921  22.377  1.00  0.00     0.163 HD
ENDROOT
BRANCH   8  24
HETATM   24  O3  UNL     1     213.276  -6.515  18.811  1.00  0.00    -0.395 OA
ATOM     25  H3  UNL     1     212.833  -5.696  18.993  1.00  0.00     0.210 HD
ENDBRANCH   8  24
BRANCH   1  26
HETATM   26  C1  UNL     1     218.725  -6.099  23.455  1.00  0.00     0.196 C 
HETATM   27  O1  UNL     1     219.780  -5.608  23.031  1.00  0.00    -0.646 OA
HETATM   28  O2  UNL     1     218.493  -6.141  24.812  1.00  0.00    -0.646 OA
ENDBRANCH   1  26
TORSDOF 2
ENDMDL
MODEL 3
REMARK VINA RESULT: -7.618937550      2.936      4.922
REMARK  2 active torsions:
REMARK  status: ('A' for Active; 'I' for Inactive)
REMARK    1  A    between atoms: C1_2  and  C2_4 
REMARK    2  A    between atoms: C9_11  and  O3_12 
ROOT
HETATM    1  C2  UNL     1     218.833  -5.313  18.955  1.00  0.00     0.185 C 
HETATM    2  C3  UNL     1     220.265  -4.814  18.793  1.00  0.00     0.036 C 
HETATM    3  C4  UNL     1     221.310  -5.667  19.537  1.00  0.00     0.002 C 
HETATM    4  C5  UNL     1     220.648  -5.884  20.860  1.00  0.00     0.000 C 
HETATM    5  C6  UNL     1     221.286  -6.553  21.984  1.00  0.00     0.000 C 
HETATM    6  C7  UNL     1     220.155  -7.155  22.846  1.00  0.00     0.007 C 
HETATM    7  C8  UNL     1     218.915  -6.340  22.911  1.00  0.00     0.021 C 
HETATM    8  C9  UNL     1     218.840  -5.849  24.371  1.00  0.00     0.122 C 
HETATM    9  C10 UNL     1     218.725  -6.958  25.356  1.00  0.00     0.032 C 
HETATM   10  C11 UNL     1     217.632  -7.882  24.881  1.00  0.00     0.003 C 
HETATM   11  C12 UNL     1     216.795  -7.219  23.783  1.00  0.00     0.008 C 
HETATM   12  C13 UNL     1     217.647  -7.072  22.515  1.00  0.00     0.031 C 
HETATM   13  C14 UNL     1     216.877  -6.510  21.388  1.00  0.00     0.135 C 
HETATM   14  C15 UNL     1     215.384  -6.656  21.438  1.00  0.00     0.175 C 
HETATM   15  S1  UNL     1     215.350  -8.155  20.555  1.00  0.00     0.111 S 
HETATM   16  O4  UNL     1     215.305  -9.428  21.285  1.00  0.00    -0.234 OA
HETATM   17 CL1  UNL     1     214.177  -8.148  18.859  1.00  0.00    -0.003 Cl
HETATM   18  N1  UNL     1     216.864  -7.459  20.264  1.00  0.00    -0.319 N 
ATOM     19  H1  UNL     1     217.555  -7.641  19.535  1.00  0.00     0.171 HD
HETATM   20  C16 UNL     1     217.207  -5.123  20.969  1.00  0.00     0.248 C 
HETATM   21  O5  UNL     1     216.536  -4.259  21.628  1.00  0.00    -0.271 OA
HETATM   22  N2  UNL     1     218.101  -4.677  20.006  1.00  0.00    -0.344 N 
ATOM     23  H2  UNL     1     218.276  -3.674  20.061  1.00  0.00     0.163 HD
ENDROOT
BRANCH   8  24
HETATM   24  O3  UNL     1     220.094  -5.231  24.592  1.00  0.00    -0.395 OA
ATOM     25  H3  UNL     1     220.001  -4.818  25.441  1.00  0.00     0.210 HD
ENDBRANCH   8  24
BRANCH   1  26
HETATM   26  C1  UNL     1     218.172  -4.886  17.691  1.00  0.00     0.196 C 
HETATM   27  O1  UNL     1     218.217  -3.707  17.312  1.00  0.00    -0.646 OA
HETATM   28  O2  UNL     1     217.500  -5.818  16.932  1.00  0.00    -0.646 OA
ENDBRANCH   1  26
TORSDOF 2
ENDMDL
MODEL 4
REMARK VINA RESULT: -7.536372470      3.010      4.949
REMARK  2 active torsions:
REMARK  status: ('A' for Active; 'I' for Inactive)
REMARK    1  A    between atoms: C1_2  and  C2_4 
REMARK    2  A    between atoms: C9_11  and  O3_12 
ROOT
HETATM    1  C2  UNL     1     215.999  -7.428  20.838  1.00  0.00     0.185 C 
HETATM    2  C3  UNL     1     214.757  -7.927  20.107  1.00  0.00     0.036 C 
HETATM    3  C4  UNL     1     214.968  -8.143  18.596  1.00  0.00     0.002 C 
HETATM    4  C5  UNL     1     215.723  -6.911  18.210  1.00  0.00     0.000 C 
HETATM    5  C6  UNL     1     216.074  -6.575  16.838  1.00  0.00     0.000 C 
HETATM    6  C7  UNL     1     217.336  -5.687  16.906  1.00  0.00     0.007 C 
HETATM    7  C8  UNL     1     217.392  -4.763  18.068  1.00  0.00     0.021 C 
HETATM    8  C9  UNL     1     217.263  -3.352  17.459  1.00  0.00     0.122 C 
HETATM    9  C10 UNL     1     218.376  -3.010  16.534  1.00  0.00     0.032 C 
HETATM   10  C11 UNL     1     219.671  -3.346  17.230  1.00  0.00     0.003 C 
HETATM   11  C12 UNL     1     219.442  -3.583  18.726  1.00  0.00     0.008 C 
HETATM   12  C13 UNL     1     218.643  -4.880  18.918  1.00  0.00     0.031 C 
HETATM   13  C14 UNL     1     218.453  -5.211  20.343  1.00  0.00     0.135 C 
HETATM   14  C15 UNL     1     219.428  -4.620  21.320  1.00  0.00     0.175 C 
HETATM   15  S1  UNL     1     220.522  -5.972  21.277  1.00  0.00     0.111 S 
HETATM   16  O4  UNL     1     221.689  -5.934  20.386  1.00  0.00    -0.234 OA
HETATM   17 CL1  UNL     1     220.921  -6.836  23.106  1.00  0.00    -0.003 Cl
HETATM   18  N1  UNL     1     219.054  -6.521  20.640  1.00  0.00    -0.319 N 
ATOM     19  H1  UNL     1     218.697  -7.466  20.503  1.00  0.00     0.171 HD
HETATM   20  C16 UNL     1     217.080  -5.068  20.893  1.00  0.00     0.248 C 
HETATM   21  O5  UNL     1     216.864  -3.885  21.322  1.00  0.00    -0.271 OA
HETATM   22  N2  UNL     1     216.063  -6.008  20.992  1.00  0.00    -0.344 N 
ATOM     23  H2  UNL     1     215.161  -5.593  21.227  1.00  0.00     0.163 HD
ENDROOT
BRANCH   8  24
HETATM   24  O3  UNL     1     216.085  -3.421  16.678  1.00  0.00    -0.395 OA
ATOM     25  H3  UNL     1     216.054  -2.583  16.232  1.00  0.00     0.210 HD
ENDBRANCH   8  24
BRANCH   1  26
HETATM   26  C1  UNL     1     215.835  -7.973  22.214  1.00  0.00     0.196 C 
HETATM   27  O1  UNL     1     215.056  -8.909  22.442  1.00  0.00    -0.646 OA
HETATM   28  O2  UNL     1     216.562  -7.427  23.248  1.00  0.00    -0.646 OA
ENDBRANCH   1  26
TORSDOF 2
ENDMDL
MODEL 5
REMARK VINA RESULT: -7.291920877      1.061      1.175
REMARK  2 active torsions:
REMARK  status: ('A' for Active; 'I' for Inactive)
REMARK    1  A    between atoms: C1_2  and  C2_4 
REMARK    2  A    between atoms: C9_11  and  O3_12 
ROOT
HETATM    1  C2  UNL     1     216.898  -5.338  18.521  1.00  0.00     0.185 C 
HETATM    2  C3  UNL     1     216.068  -6.503  19.049  1.00  0.00     0.036 C 
HETATM    3  C4  UNL     1     215.964  -6.548  20.586  1.00  0.00     0.002 C 
HETATM    4  C5  UNL     1     217.375  -6.276  21.000  1.00  0.00     0.000 C 
HETATM    5  C6  UNL     1     217.837  -6.321  22.379  1.00  0.00     0.000 C 
HETATM    6  C7  UNL     1     219.060  -5.383  22.471  1.00  0.00     0.007 C 
HETATM    7  C8  UNL     1     219.928  -5.364  21.266  1.00  0.00     0.021 C 
HETATM    8  C9  UNL     1     221.250  -6.016  21.719  1.00  0.00     0.122 C 
HETATM    9  C10 UNL     1     221.934  -5.259  22.802  1.00  0.00     0.032 C 
HETATM   10  C11 UNL     1     221.985  -3.810  22.388  1.00  0.00     0.003 C 
HETATM   11  C12 UNL     1     221.652  -3.654  20.901  1.00  0.00     0.008 C 
HETATM   12  C13 UNL     1     220.171  -3.988  20.675  1.00  0.00     0.031 C 
HETATM   13  C14 UNL     1     219.761  -3.782  19.272  1.00  0.00     0.135 C 
HETATM   14  C15 UNL     1     220.593  -2.845  18.446  1.00  0.00     0.175 C 
HETATM   15  S1  UNL     1     219.633  -1.438  18.805  1.00  0.00     0.111 S 
HETATM   16  O4  UNL     1     220.043  -0.537  19.889  1.00  0.00    -0.234 OA
HETATM   17 CL1  UNL     1     218.882  -0.445  17.160  1.00  0.00    -0.003 Cl
HETATM   18  N1  UNL     1     218.685  -2.781  19.204  1.00  0.00    -0.319 N 
ATOM     19  H1  UNL     1     217.680  -2.870  19.351  1.00  0.00     0.171 HD
HETATM   20  C16 UNL     1     219.471  -4.998  18.468  1.00  0.00     0.248 C 
HETATM   21  O5  UNL     1     220.524  -5.456  17.908  1.00  0.00    -0.271 OA
HETATM   22  N2  UNL     1     218.268  -5.658  18.262  1.00  0.00    -0.344 N 
ATOM     23  H2  UNL     1     218.386  -6.574  17.831  1.00  0.00     0.163 HD
ENDROOT
BRANCH   8  24
HETATM   24  O3  UNL     1     220.851  -7.255  22.272  1.00  0.00    -0.395 OA
ATOM     25  H3  UNL     1     221.641  -7.594  22.674  1.00  0.00     0.210 HD
ENDBRANCH   8  24
BRANCH   1  26
HETATM   26  C1  UNL     1     216.294  -5.057  17.190  1.00  0.00     0.196 C 
HETATM   27  O1  UNL     1     215.628  -5.915  16.596  1.00  0.00    -0.646 OA
HETATM   28  O2  UNL     1     216.479  -3.820  16.612  1.00  0.00    -0.646 OA
ENDBRANCH   1  26
TORSDOF 2
ENDMDL
