MODEL 1
REMARK VINA RESULT: -6.311873397      0.000      0.000
REMARK  6 active torsions:
REMARK  status: ('A' for Active; 'I' for Inactive)
REMARK    1  A    between atoms: C2_2  and  C5_5 
REMARK    2  A    between atoms: C5_5  and  N1_6 
REMARK    3  A    between atoms: C5_5  and  C13_24 
REMARK       I    between atoms: C6_8  and  N3_10 
REMARK    4  A    between atoms: N3_10  and  C7_12 
REMARK    5  A    between atoms: C7_12  and  N4_14 
REMARK    6  A    between atoms: N4_14  and  C8_16 
ROOT
HETATM    1  N1  UNL     1     216.719  -6.481  19.513  1.00  0.00    -0.349 N 
ATOM      2  H1  UNL     1     216.847  -7.491  19.446  1.00  0.00     0.163 HD
HETATM    3  C6  UNL     1     217.318  -5.915  20.471  1.00  0.00     0.191 C 
HETATM    4  N2  UNL     1     217.281  -4.523  20.752  1.00  0.00    -0.063 NA
HETATM    5  N3  UNL     1     218.099  -6.722  21.348  1.00  0.00    -0.307 N 
ATOM      6  H3  UNL     1     218.784  -7.371  20.960  1.00  0.00     0.171 HD
ENDROOT
BRANCH   5   7
HETATM    7  C7  UNL     1     217.934  -6.632  22.769  1.00  0.00     0.178 C 
HETATM    8  S1  UNL     1     216.848  -7.614  23.493  1.00  0.00    -0.040 SA
BRANCH   7   9
HETATM    9  N4  UNL     1     218.717  -5.700  23.486  1.00  0.00    -0.332 N 
ATOM     10  H4  UNL     1     218.342  -4.762  23.627  1.00  0.00     0.168 HD
BRANCH   9  11
HETATM   11  C8  UNL     1     219.879  -5.971  23.972  1.00  0.00     0.054 A 
HETATM   12  C9  UNL     1     220.958  -6.182  23.144  1.00  0.00     0.048 A 
HETATM   13  C10 UNL     1     222.212  -6.474  23.669  1.00  0.00     0.090 A 
HETATM   14  N5  UNL     1     222.388  -6.553  24.986  1.00  0.00    -0.374 N 
HETATM   15  C11 UNL     1     221.348  -6.351  25.817  1.00  0.00     0.109 A 
ATOM     16  H5  UNL     1     223.311  -6.767  25.365  1.00  0.00     0.164 HD
HETATM   17  C12 UNL     1     220.070  -6.055  25.332  1.00  0.00     0.053 A 
HETATM   18 BR1  UNL     1     218.630  -5.775  26.525  1.00  0.00    -0.047 Br
ENDBRANCH   9  11
ENDBRANCH   7   9
ENDBRANCH   5   7
BRANCH   1  19
HETATM   19  C5  UNL     1     215.893  -5.896  18.519  1.00  0.00     0.192 C 
BRANCH  19  20
HETATM   20  C2  UNL     1     214.807  -6.878  18.120  1.00  0.00    -0.021 C 
HETATM   21  C1  UNL     1     213.533  -6.150  17.746  1.00  0.00     0.017 C 
HETATM   22  C3  UNL     1     214.487  -7.751  19.312  1.00  0.00     0.017 C 
HETATM   23  C4  UNL     1     215.193  -7.756  16.981  1.00  0.00     0.017 C 
ENDBRANCH  19  20
BRANCH  19  24
HETATM   24  C13 UNL     1     216.611  -5.352  17.361  1.00  0.00     0.197 C 
HETATM   25  O1  UNL     1     216.167  -4.381  16.670  1.00  0.00    -0.646 OA
HETATM   26  O2  UNL     1     217.832  -5.865  16.940  1.00  0.00    -0.646 OA
ENDBRANCH  19  24
ENDBRANCH   1  19
TORSDOF 6
ENDMDL
MODEL 2
REMARK VINA RESULT: -6.137481705      1.221      1.556
REMARK  6 active torsions:
REMARK  status: ('A' for Active; 'I' for Inactive)
REMARK    1  A    between atoms: C2_2  and  C5_5 
REMARK    2  A    between atoms: C5_5  and  N1_6 
REMARK    3  A    between atoms: C5_5  and  C13_24 
REMARK       I    between atoms: C6_8  and  N3_10 
REMARK    4  A    between atoms: N3_10  and  C7_12 
REMARK    5  A    between atoms: C7_12  and  N4_14 
REMARK    6  A    between atoms: N4_14  and  C8_16 
ROOT
HETATM    1  N1  UNL     1     216.701  -6.511  19.507  1.00  0.00    -0.349 N 
ATOM      2  H1  UNL     1     216.761  -7.528  19.473  1.00  0.00     0.163 HD
HETATM    3  C6  UNL     1     217.358  -5.953  20.432  1.00  0.00     0.191 C 
HETATM    4  N2  UNL     1     217.417  -4.553  20.665  1.00  0.00    -0.063 NA
HETATM    5  N3  UNL     1     218.105  -6.779  21.320  1.00  0.00    -0.307 N 
ATOM      6  H3  UNL     1     218.737  -7.485  20.941  1.00  0.00     0.171 HD
ENDROOT
BRANCH   5   7
HETATM    7  C7  UNL     1     217.979  -6.631  22.740  1.00  0.00     0.178 C 
HETATM    8  S1  UNL     1     216.856  -7.520  23.522  1.00  0.00    -0.040 SA
BRANCH   7   9
HETATM    9  N4  UNL     1     218.833  -5.723  23.406  1.00  0.00    -0.332 N 
ATOM     10  H4  UNL     1     218.560  -4.741  23.442  1.00  0.00     0.168 HD
BRANCH   9  11
HETATM   11  C8  UNL     1     219.939  -6.069  23.971  1.00  0.00     0.054 A 
HETATM   12  C9  UNL     1     219.949  -6.579  25.249  1.00  0.00     0.048 A 
HETATM   13  C10 UNL     1     221.142  -6.952  25.857  1.00  0.00     0.090 A 
HETATM   14  N5  UNL     1     222.297  -6.822  25.209  1.00  0.00    -0.374 N 
HETATM   15  C11 UNL     1     222.314  -6.325  23.957  1.00  0.00     0.109 A 
ATOM     16  H5  UNL     1     223.169  -7.098  25.660  1.00  0.00     0.164 HD
HETATM   17  C12 UNL     1     221.137  -5.937  23.308  1.00  0.00     0.053 A 
HETATM   18 BR1  UNL     1     221.194  -5.243  21.550  1.00  0.00    -0.047 Br
ENDBRANCH   9  11
ENDBRANCH   7   9
ENDBRANCH   5   7
BRANCH   1  19
HETATM   19  C5  UNL     1     215.892  -5.907  18.512  1.00  0.00     0.192 C 
BRANCH  19  20
HETATM   20  C2  UNL     1     214.776  -6.858  18.118  1.00  0.00    -0.021 C 
HETATM   21  C1  UNL     1     213.524  -6.096  17.741  1.00  0.00     0.017 C 
HETATM   22  C3  UNL     1     214.433  -7.716  19.315  1.00  0.00     0.017 C 
HETATM   23  C4  UNL     1     215.135  -7.753  16.983  1.00  0.00     0.017 C 
ENDBRANCH  19  20
BRANCH  19  24
HETATM   24  C13 UNL     1     216.624  -5.390  17.350  1.00  0.00     0.197 C 
HETATM   25  O1  UNL     1     216.212  -4.405  16.659  1.00  0.00    -0.646 OA
HETATM   26  O2  UNL     1     217.825  -5.945  16.926  1.00  0.00    -0.646 OA
ENDBRANCH  19  24
ENDBRANCH   1  19
TORSDOF 6
ENDMDL
MODEL 3
REMARK VINA RESULT: -6.045853297      5.644      7.815
REMARK  6 active torsions:
REMARK  status: ('A' for Active; 'I' for Inactive)
REMARK    1  A    between atoms: C2_2  and  C5_5 
REMARK    2  A    between atoms: C5_5  and  N1_6 
REMARK    3  A    between atoms: C5_5  and  C13_24 
REMARK       I    between atoms: C6_8  and  N3_10 
REMARK    4  A    between atoms: N3_10  and  C7_12 
REMARK    5  A    between atoms: C7_12  and  N4_14 
REMARK    6  A    between atoms: N4_14  and  C8_16 
ROOT
HETATM    1  N1  UNL     1     223.072  -4.432  19.115  1.00  0.00    -0.349 N 
ATOM      2  H1  UNL     1     223.536  -5.233  18.687  1.00  0.00     0.163 HD
HETATM    3  C6  UNL     1     221.866  -4.610  19.447  1.00  0.00     0.191 C 
HETATM    4  N2  UNL     1     221.032  -3.635  20.056  1.00  0.00    -0.063 NA
HETATM    5  N3  UNL     1     221.280  -5.885  19.199  1.00  0.00    -0.307 N 
ATOM      6  H3  UNL     1     221.762  -6.730  19.507  1.00  0.00     0.171 HD
ENDROOT
BRANCH   5   7
HETATM    7  C7  UNL     1     220.022  -5.995  18.522  1.00  0.00     0.178 C 
HETATM    8  S1  UNL     1     219.943  -6.890  17.159  1.00  0.00    -0.040 SA
BRANCH   7   9
HETATM    9  N4  UNL     1     218.900  -5.325  19.062  1.00  0.00    -0.332 N 
ATOM     10  H4  UNL     1     218.882  -4.306  19.024  1.00  0.00     0.168 HD
BRANCH   9  11
HETATM   11  C8  UNL     1     217.899  -5.933  19.599  1.00  0.00     0.054 A 
HETATM   12  C9  UNL     1     218.011  -6.518  20.840  1.00  0.00     0.048 A 
HETATM   13  C10 UNL     1     216.931  -7.174  21.419  1.00  0.00     0.090 A 
HETATM   14  N5  UNL     1     215.765  -7.245  20.779  1.00  0.00    -0.374 N 
HETATM   15  C11 UNL     1     215.630  -6.681  19.563  1.00  0.00     0.109 A 
ATOM     16  H5  UNL     1     214.976  -7.727  21.209  1.00  0.00     0.164 HD
HETATM   17  C12 UNL     1     216.691  -6.013  18.944  1.00  0.00     0.053 A 
HETATM   18 BR1  UNL     1     216.469  -5.231  17.237  1.00  0.00    -0.047 Br
ENDBRANCH   9  11
ENDBRANCH   7   9
ENDBRANCH   5   7
BRANCH   1  19
HETATM   19  C5  UNL     1     223.865  -3.265  19.259  1.00  0.00     0.192 C 
BRANCH  19  20
HETATM   20  C2  UNL     1     223.982  -2.562  17.919  1.00  0.00    -0.021 C 
HETATM   21  C1  UNL     1     223.019  -1.397  17.834  1.00  0.00     0.017 C 
HETATM   22  C3  UNL     1     223.599  -3.538  16.830  1.00  0.00     0.017 C 
HETATM   23  C4  UNL     1     225.354  -2.054  17.637  1.00  0.00     0.017 C 
ENDBRANCH  19  20
BRANCH  19  24
HETATM   24  C13 UNL     1     225.168  -3.479  19.898  1.00  0.00     0.197 C 
HETATM   25  O1  UNL     1     225.874  -4.517  19.692  1.00  0.00    -0.646 OA
HETATM   26  O2  UNL     1     225.721  -2.555  20.776  1.00  0.00    -0.646 OA
ENDBRANCH  19  24
ENDBRANCH   1  19
TORSDOF 6
ENDMDL
MODEL 4
REMARK VINA RESULT: -6.019604336      4.499      6.628
REMARK  6 active torsions:
REMARK  status: ('A' for Active; 'I' for Inactive)
REMARK    1  A    between atoms: C2_2  and  C5_5 
REMARK    2  A    between atoms: C5_5  and  N1_6 
REMARK    3  A    between atoms: C5_5  and  C13_24 
REMARK       I    between atoms: C6_8  and  N3_10 
REMARK    4  A    between atoms: N3_10  and  C7_12 
REMARK    5  A    between atoms: C7_12  and  N4_14 
REMARK    6  A    between atoms: N4_14  and  C8_16 
ROOT
HETATM    1  N1  UNL     1     220.741  -4.838  19.466  1.00  0.00    -0.349 N 
ATOM      2  H1  UNL     1     221.089  -5.581  18.860  1.00  0.00     0.163 HD
HETATM    3  C6  UNL     1     219.570  -4.999  19.913  1.00  0.00     0.191 C 
HETATM    4  N2  UNL     1     218.890  -4.094  20.771  1.00  0.00    -0.063 NA
HETATM    5  N3  UNL     1     218.860  -6.175  19.536  1.00  0.00    -0.307 N 
ATOM      6  H3  UNL     1     219.306  -7.087  19.640  1.00  0.00     0.171 HD
ENDROOT
BRANCH   5   7
HETATM    7  C7  UNL     1     217.529  -6.093  19.012  1.00  0.00     0.178 C 
HETATM    8  S1  UNL     1     217.322  -6.130  17.393  1.00  0.00    -0.040 SA
BRANCH   7   9
HETATM    9  N4  UNL     1     216.449  -5.984  19.918  1.00  0.00    -0.332 N 
ATOM     10  H4  UNL     1     215.838  -5.171  19.844  1.00  0.00     0.168 HD
BRANCH   9  11
HETATM   11  C8  UNL     1     216.195  -6.857  20.830  1.00  0.00     0.054 A 
HETATM   12  C9  UNL     1     216.857  -6.831  22.037  1.00  0.00     0.048 A 
HETATM   13  C10 UNL     1     216.582  -7.774  23.021  1.00  0.00     0.090 A 
HETATM   14  N5  UNL     1     215.669  -8.719  22.810  1.00  0.00    -0.374 N 
HETATM   15  C11 UNL     1     215.007  -8.767  21.638  1.00  0.00     0.109 A 
ATOM     16  H5  UNL     1     215.471  -9.408  23.537  1.00  0.00     0.164 HD
HETATM   17  C12 UNL     1     215.253  -7.839  20.621  1.00  0.00     0.053 A 
HETATM   18 BR1  UNL     1     214.307  -7.931  18.986  1.00  0.00    -0.047 Br
ENDBRANCH   9  11
ENDBRANCH   7   9
ENDBRANCH   5   7
BRANCH   1  19
HETATM   19  C5  UNL     1     221.635  -3.762  19.698  1.00  0.00     0.192 C 
BRANCH  19  20
HETATM   20  C2  UNL     1     222.569  -3.612  18.511  1.00  0.00    -0.021 C 
HETATM   21  C1  UNL     1     222.794  -2.152  18.181  1.00  0.00     0.017 C 
HETATM   22  C3  UNL     1     221.916  -4.246  17.304  1.00  0.00     0.017 C 
HETATM   23  C4  UNL     1     223.898  -4.252  18.720  1.00  0.00     0.017 C 
ENDBRANCH  19  20
BRANCH  19  24
HETATM   24  C13 UNL     1     222.355  -3.821  20.975  1.00  0.00     0.197 C 
HETATM   25  O1  UNL     1     222.821  -2.787  21.551  1.00  0.00    -0.646 OA
HETATM   26  O2  UNL     1     222.578  -5.018  21.644  1.00  0.00    -0.646 OA
ENDBRANCH  19  24
ENDBRANCH   1  19
TORSDOF 6
ENDMDL
MODEL 5
REMARK VINA RESULT: -5.986359406      2.595      3.567
REMARK  6 active torsions:
REMARK  status: ('A' for Active; 'I' for Inactive)
REMARK    1  A    between atoms: C2_2  and  C5_5 
REMARK    2  A    between atoms: C5_5  and  N1_6 
REMARK    3  A    between atoms: C5_5  and  C13_24 
REMARK       I    between atoms: C6_8  and  N3_10 
REMARK    4  A    between atoms: N3_10  and  C7_12 
REMARK    5  A    between atoms: C7_12  and  N4_14 
REMARK    6  A    between atoms: N4_14  and  C8_16 
ROOT
HETATM    1  N1  UNL     1     219.293  -5.104  19.308  1.00  0.00    -0.349 N 
ATOM      2  H1  UNL     1     219.343  -6.098  19.085  1.00  0.00     0.163 HD
HETATM    3  C6  UNL     1     219.913  -4.742  20.348  1.00  0.00     0.191 C 
HETATM    4  N2  UNL     1     219.978  -3.412  20.843  1.00  0.00    -0.063 NA
HETATM    5  N3  UNL     1     220.609  -5.736  21.097  1.00  0.00    -0.307 N 
ATOM      6  H3  UNL     1     221.249  -6.370  20.619  1.00  0.00     0.171 HD
ENDROOT
BRANCH   5   7
HETATM    7  C7  UNL     1     220.419  -5.854  22.512  1.00  0.00     0.178 C 
HETATM    8  S1  UNL     1     221.689  -6.298  23.437  1.00  0.00    -0.040 SA
BRANCH   7   9
HETATM    9  N4  UNL     1     219.141  -5.580  23.051  1.00  0.00    -0.332 N 
ATOM     10  H4  UNL     1     218.916  -4.615  23.294  1.00  0.00     0.168 HD
BRANCH   9  11
HETATM   11  C8  UNL     1     218.244  -6.483  23.251  1.00  0.00     0.054 A 
HETATM   12  C9  UNL     1     217.597  -7.082  22.194  1.00  0.00     0.048 A 
HETATM   13  C10 UNL     1     216.630  -8.057  22.410  1.00  0.00     0.090 A 
HETATM   14  N5  UNL     1     216.315  -8.429  23.649  1.00  0.00    -0.374 N 
HETATM   15  C11 UNL     1     216.934  -7.858  24.701  1.00  0.00     0.109 A 
ATOM     16  H5  UNL     1     215.605  -9.145  23.801  1.00  0.00     0.164 HD
HETATM   17  C12 UNL     1     217.912  -6.873  24.528  1.00  0.00     0.053 A 
HETATM   18 BR1  UNL     1     218.764  -6.092  26.025  1.00  0.00    -0.047 Br
ENDBRANCH   9  11
ENDBRANCH   7   9
ENDBRANCH   5   7
BRANCH   1  19
HETATM   19  C5  UNL     1     218.538  -4.308  18.409  1.00  0.00     0.192 C 
BRANCH  19  20
HETATM   20  C2  UNL     1     217.388  -5.125  17.850  1.00  0.00    -0.021 C 
HETATM   21  C1  UNL     1     216.560  -4.303  16.885  1.00  0.00     0.017 C 
HETATM   22  C3  UNL     1     216.480  -5.519  18.993  1.00  0.00     0.017 C 
HETATM   23  C4  UNL     1     217.828  -6.362  17.148  1.00  0.00     0.017 C 
ENDBRANCH  19  20
BRANCH  19  24
HETATM   24  C13 UNL     1     219.323  -3.650  17.358  1.00  0.00     0.197 C 
HETATM   25  O1  UNL     1     220.258  -4.237  16.727  1.00  0.00    -0.646 OA
HETATM   26  O2  UNL     1     219.095  -2.333  16.980  1.00  0.00    -0.646 OA
ENDBRANCH  19  24
ENDBRANCH   1  19
TORSDOF 6
ENDMDL
