MODEL 1
REMARK VINA RESULT: -6.745004400      0.000      0.000
REMARK  5 active torsions:
REMARK  status: ('A' for Active; 'I' for Inactive)
REMARK    1  A    between atoms: C4_6  and  N2_7 
REMARK       I    between atoms: N2_7  and  C5_9 
REMARK       I    between atoms: C5_9  and  N3_11 
REMARK    2  A    between atoms: N3_11  and  C6_13 
REMARK    3  A    between atoms: C6_13  and  N4_15 
REMARK    4  A    between atoms: N4_15  and  N5_17 
REMARK       I    between atoms: N5_17  and  C7_19 
REMARK    5  A    between atoms: C7_19  and  C8_21 
ROOT
HETATM    1  C6  UNL     1     217.648  -7.656  25.148  1.00  0.00     0.194 C 
HETATM    2  S1  UNL     1     218.044  -8.479  26.505  1.00  0.00    -0.039 SA
ENDROOT
BRANCH   1   3
HETATM    3  N3  UNL     1     218.264  -6.408  24.825  1.00  0.00    -0.284 N 
HETATM    4  C5  UNL     1     219.233  -6.315  23.807  1.00  0.00     0.324 C 
HETATM    5  N2  UNL     1     219.827  -5.058  23.543  1.00  0.00    -0.308 N 
HETATM    6  O2  UNL     1     219.552  -7.325  23.159  1.00  0.00    -0.247 OA
ATOM      7  H2  UNL     1     219.524  -4.268  24.112  1.00  0.00     0.166 HD
ATOM      8  H3  UNL     1     217.998  -5.570  25.342  1.00  0.00     0.173 HD
BRANCH   5   9
HETATM    9  C4  UNL     1     220.828  -4.801  22.534  1.00  0.00     0.359 C 
HETATM   10  N1  UNL     1     220.238  -4.508  21.247  1.00  0.00     0.031 N 
HETATM   11  C1  UNL     1     220.384  -5.540  20.242  1.00  0.00     0.359 C 
HETATM   12  O1  UNL     1     218.947  -4.054  21.314  1.00  0.00    -0.063 OA
HETATM   13  C2  UNL     1     221.205  -3.429  21.111  1.00  0.00     0.318 C 
HETATM   14  C3  UNL     1     221.403  -3.391  22.591  1.00  0.00     0.100 C 
ENDBRANCH   5   9
ENDBRANCH   1   3
BRANCH   1  15
HETATM   15  N4  UNL     1     216.663  -8.212  24.285  1.00  0.00    -0.273 N 
ATOM     16  H4  UNL     1     216.091  -9.000  24.585  1.00  0.00     0.189 HD
BRANCH  15  17
HETATM   17  N5  UNL     1     216.497  -7.648  23.010  1.00  0.00    -0.263 N 
HETATM   18  C7  UNL     1     215.678  -8.262  22.036  1.00  0.00     0.277 C 
HETATM   19  O3  UNL     1     215.098  -9.324  22.301  1.00  0.00    -0.265 OA
ATOM     20  H5  UNL     1     216.977  -6.777  22.782  1.00  0.00     0.190 HD
BRANCH  18  21
HETATM   21  C8  UNL     1     215.517  -7.647  20.732  1.00  0.00     0.075 A 
HETATM   22  C9  UNL     1     214.600  -7.946  19.755  1.00  0.00     0.026 A 
HETATM   23  C10 UNL     1     214.649  -7.245  18.623  1.00  0.00     0.028 A 
HETATM   24  C11 UNL     1     215.613  -6.275  18.516  1.00  0.00     0.052 A 
HETATM   25 BR1  UNL     1     215.964  -5.102  17.045  1.00  0.00    -0.043 Br
HETATM   26  S2  UNL     1     216.419  -6.382  20.016  1.00  0.00    -0.077 SA
ENDBRANCH  18  21
ENDBRANCH  15  17
ENDBRANCH   1  15
TORSDOF 5
ENDMDL
MODEL 2
REMARK VINA RESULT: -6.651182801      2.055      2.848
REMARK  5 active torsions:
REMARK  status: ('A' for Active; 'I' for Inactive)
REMARK    1  A    between atoms: C4_6  and  N2_7 
REMARK       I    between atoms: N2_7  and  C5_9 
REMARK       I    between atoms: C5_9  and  N3_11 
REMARK    2  A    between atoms: N3_11  and  C6_13 
REMARK    3  A    between atoms: C6_13  and  N4_15 
REMARK    4  A    between atoms: N4_15  and  N5_17 
REMARK       I    between atoms: N5_17  and  C7_19 
REMARK    5  A    between atoms: C7_19  and  C8_21 
ROOT
HETATM    1  C6  UNL     1     220.259  -5.589  24.819  1.00  0.00     0.194 C 
HETATM    2  S1  UNL     1     221.260  -6.258  25.925  1.00  0.00    -0.039 SA
ENDROOT
BRANCH   1   3
HETATM    3  N3  UNL     1     220.765  -4.896  23.676  1.00  0.00    -0.284 N 
HETATM    4  C5  UNL     1     220.892  -5.541  22.431  1.00  0.00     0.324 C 
HETATM    5  N2  UNL     1     221.420  -4.815  21.336  1.00  0.00    -0.308 N 
HETATM    6  O2  UNL     1     220.544  -6.726  22.306  1.00  0.00    -0.247 OA
ATOM      7  H2  UNL     1     221.690  -3.846  21.505  1.00  0.00     0.166 HD
ATOM      8  H3  UNL     1     221.041  -3.918  23.764  1.00  0.00     0.173 HD
BRANCH   5   9
HETATM    9  C4  UNL     1     221.607  -5.332  20.001  1.00  0.00     0.359 C 
HETATM   10  N1  UNL     1     220.490  -5.021  19.137  1.00  0.00     0.031 N 
HETATM   11  C1  UNL     1     219.644  -6.142  18.782  1.00  0.00     0.359 C 
HETATM   12  O1  UNL     1     219.748  -3.944  19.548  1.00  0.00    -0.063 OA
HETATM   13  C2  UNL     1     221.455  -4.677  18.105  1.00  0.00     0.318 C 
HETATM   14  C3  UNL     1     222.516  -4.467  19.135  1.00  0.00     0.100 C 
ENDBRANCH   5   9
ENDBRANCH   1   3
BRANCH   1  15
HETATM   15  N4  UNL     1     218.856  -5.707  25.020  1.00  0.00    -0.273 N 
ATOM     16  H4  UNL     1     218.444  -5.544  25.938  1.00  0.00     0.189 HD
BRANCH  15  17
HETATM   17  N5  UNL     1     218.050  -6.053  23.923  1.00  0.00    -0.263 N 
HETATM   18  C7  UNL     1     217.264  -7.226  23.931  1.00  0.00     0.277 C 
HETATM   19  O3  UNL     1     217.285  -7.975  24.917  1.00  0.00    -0.265 OA
ATOM     20  H5  UNL     1     218.033  -5.445  23.104  1.00  0.00     0.190 HD
BRANCH  18  21
HETATM   21  C8  UNL     1     216.433  -7.549  22.786  1.00  0.00     0.075 A 
HETATM   22  C9  UNL     1     215.621  -8.641  22.602  1.00  0.00     0.026 A 
HETATM   23  C10 UNL     1     214.951  -8.729  21.453  1.00  0.00     0.028 A 
HETATM   24  C11 UNL     1     215.122  -7.722  20.537  1.00  0.00     0.052 A 
HETATM   25 BR1  UNL     1     214.328  -7.540  18.806  1.00  0.00    -0.043 Br
HETATM   26  S2  UNL     1     216.221  -6.682  21.326  1.00  0.00    -0.077 SA
ENDBRANCH  18  21
ENDBRANCH  15  17
ENDBRANCH   1  15
TORSDOF 5
ENDMDL
MODEL 3
REMARK VINA RESULT: -6.642574821      3.879      5.934
REMARK  5 active torsions:
REMARK  status: ('A' for Active; 'I' for Inactive)
REMARK    1  A    between atoms: C4_6  and  N2_7 
REMARK       I    between atoms: N2_7  and  C5_9 
REMARK       I    between atoms: C5_9  and  N3_11 
REMARK    2  A    between atoms: N3_11  and  C6_13 
REMARK    3  A    between atoms: C6_13  and  N4_15 
REMARK    4  A    between atoms: N4_15  and  N5_17 
REMARK       I    between atoms: N5_17  and  C7_19 
REMARK    5  A    between atoms: C7_19  and  C8_21 
ROOT
HETATM    1  C6  UNL     1     214.806  -6.936  16.281  1.00  0.00     0.194 C 
HETATM    2  S1  UNL     1     214.079  -7.470  14.917  1.00  0.00    -0.039 SA
ENDROOT
BRANCH   1   3
HETATM    3  N3  UNL     1     216.228  -6.831  16.377  1.00  0.00    -0.284 N 
HETATM    4  C5  UNL     1     216.841  -5.656  16.854  1.00  0.00     0.324 C 
HETATM    5  N2  UNL     1     218.254  -5.597  16.907  1.00  0.00    -0.308 N 
HETATM    6  O2  UNL     1     216.145  -4.695  17.217  1.00  0.00    -0.247 OA
ATOM      7  H2  UNL     1     218.769  -6.419  16.591  1.00  0.00     0.166 HD
ATOM      8  H3  UNL     1     216.809  -7.620  16.094  1.00  0.00     0.173 HD
BRANCH   5   9
HETATM    9  C4  UNL     1     219.028  -4.470  17.372  1.00  0.00     0.359 C 
HETATM   10  N1  UNL     1     219.404  -4.607  18.763  1.00  0.00     0.031 N 
HETATM   11  C1  UNL     1     218.720  -3.724  19.685  1.00  0.00     0.359 C 
HETATM   12  O1  UNL     1     219.408  -5.900  19.216  1.00  0.00    -0.063 OA
HETATM   13  C2  UNL     1     220.731  -4.139  18.392  1.00  0.00     0.318 C 
HETATM   14  C3  UNL     1     220.496  -4.531  16.970  1.00  0.00     0.100 C 
ENDBRANCH   5   9
ENDBRANCH   1   3
BRANCH   1  15
HETATM   15  N4  UNL     1     213.986  -6.576  17.387  1.00  0.00    -0.273 N 
ATOM     16  H4  UNL     1     213.022  -6.278  17.247  1.00  0.00     0.189 HD
BRANCH  15  17
HETATM   17  N5  UNL     1     214.538  -6.641  18.676  1.00  0.00    -0.263 N 
HETATM   18  C7  UNL     1     214.694  -7.875  19.347  1.00  0.00     0.277 C 
HETATM   19  O3  UNL     1     214.333  -8.924  18.797  1.00  0.00    -0.265 OA
ATOM     20  H5  UNL     1     214.831  -5.780  19.139  1.00  0.00     0.190 HD
BRANCH  18  21
HETATM   21  C8  UNL     1     215.280  -7.909  20.674  1.00  0.00     0.075 A 
HETATM   22  C9  UNL     1     214.954  -8.726  21.729  1.00  0.00     0.026 A 
HETATM   23  C10 UNL     1     215.631  -8.568  22.867  1.00  0.00     0.028 A 
HETATM   24  C11 UNL     1     216.603  -7.600  22.900  1.00  0.00     0.052 A 
HETATM   25 BR1  UNL     1     217.744  -7.110  24.356  1.00  0.00    -0.043 Br
HETATM   26  S2  UNL     1     216.533  -6.945  21.327  1.00  0.00    -0.077 SA
ENDBRANCH  18  21
ENDBRANCH  15  17
ENDBRANCH   1  15
TORSDOF 5
ENDMDL
MODEL 4
REMARK VINA RESULT: -6.482308064      4.231      5.870
REMARK  5 active torsions:
REMARK  status: ('A' for Active; 'I' for Inactive)
REMARK    1  A    between atoms: C4_6  and  N2_7 
REMARK       I    between atoms: N2_7  and  C5_9 
REMARK       I    between atoms: C5_9  and  N3_11 
REMARK    2  A    between atoms: N3_11  and  C6_13 
REMARK    3  A    between atoms: C6_13  and  N4_15 
REMARK    4  A    between atoms: N4_15  and  N5_17 
REMARK       I    between atoms: N5_17  and  C7_19 
REMARK    5  A    between atoms: C7_19  and  C8_21 
ROOT
HETATM    1  C6  UNL     1     214.921  -6.519  16.693  1.00  0.00     0.194 C 
HETATM    2  S1  UNL     1     214.790  -7.736  15.610  1.00  0.00    -0.039 SA
ENDROOT
BRANCH   1   3
HETATM    3  N3  UNL     1     215.837  -5.439  16.495  1.00  0.00    -0.284 N 
HETATM    4  C5  UNL     1     217.109  -5.444  17.099  1.00  0.00     0.324 C 
HETATM    5  N2  UNL     1     217.969  -4.339  16.887  1.00  0.00    -0.308 N 
HETATM    6  O2  UNL     1     217.461  -6.404  17.802  1.00  0.00    -0.247 OA
ATOM      7  H2  UNL     1     217.620  -3.580  16.302  1.00  0.00     0.166 HD
ATOM      8  H3  UNL     1     215.564  -4.652  15.908  1.00  0.00     0.173 HD
BRANCH   5   9
HETATM    9  C4  UNL     1     219.299  -4.198  17.432  1.00  0.00     0.359 C 
HETATM   10  N1  UNL     1     219.958  -3.004  16.948  1.00  0.00     0.031 N 
HETATM   11  C1  UNL     1     221.039  -3.225  16.009  1.00  0.00     0.359 C 
HETATM   12  O1  UNL     1     219.101  -2.032  16.506  1.00  0.00    -0.063 OA
HETATM   13  C2  UNL     1     220.416  -2.772  18.310  1.00  0.00     0.318 C 
HETATM   14  C3  UNL     1     219.321  -3.635  18.847  1.00  0.00     0.100 C 
ENDBRANCH   5   9
ENDBRANCH   1   3
BRANCH   1  15
HETATM   15  N4  UNL     1     214.099  -6.556  17.854  1.00  0.00    -0.273 N 
ATOM     16  H4  UNL     1     213.083  -6.575  17.773  1.00  0.00     0.189 HD
BRANCH  15  17
HETATM   17  N5  UNL     1     214.721  -6.565  19.113  1.00  0.00    -0.263 N 
HETATM   18  C7  UNL     1     214.871  -7.761  19.849  1.00  0.00     0.277 C 
HETATM   19  O3  UNL     1     214.442  -8.827  19.385  1.00  0.00    -0.265 OA
ATOM     20  H5  UNL     1     215.070  -5.690  19.504  1.00  0.00     0.190 HD
BRANCH  18  21
HETATM   21  C8  UNL     1     215.530  -7.739  21.141  1.00  0.00     0.075 A 
HETATM   22  C9  UNL     1     215.290  -8.534  22.235  1.00  0.00     0.026 A 
HETATM   23  C10 UNL     1     216.023  -8.322  23.328  1.00  0.00     0.028 A 
HETATM   24  C11 UNL     1     216.963  -7.324  23.281  1.00  0.00     0.052 A 
HETATM   25 BR1  UNL     1     218.166  -6.757  24.656  1.00  0.00    -0.043 Br
HETATM   26  S2  UNL     1     216.785  -6.717  21.697  1.00  0.00    -0.077 SA
ENDBRANCH  18  21
ENDBRANCH  15  17
ENDBRANCH   1  15
TORSDOF 5
ENDMDL
MODEL 5
REMARK VINA RESULT: -6.435267554      2.442      3.542
REMARK  5 active torsions:
REMARK  status: ('A' for Active; 'I' for Inactive)
REMARK    1  A    between atoms: C4_6  and  N2_7 
REMARK       I    between atoms: N2_7  and  C5_9 
REMARK       I    between atoms: C5_9  and  N3_11 
REMARK    2  A    between atoms: N3_11  and  C6_13 
REMARK    3  A    between atoms: C6_13  and  N4_15 
REMARK    4  A    between atoms: N4_15  and  N5_17 
REMARK       I    between atoms: N5_17  and  C7_19 
REMARK    5  A    between atoms: C7_19  and  C8_21 
ROOT
HETATM    1  C6  UNL     1     220.689  -5.706  24.253  1.00  0.00     0.194 C 
HETATM    2  S1  UNL     1     221.710  -5.675  25.530  1.00  0.00    -0.039 SA
ENDROOT
BRANCH   1   3
HETATM    3  N3  UNL     1     221.162  -5.928  22.923  1.00  0.00    -0.284 N 
HETATM    4  C5  UNL     1     221.019  -4.944  21.926  1.00  0.00     0.324 C 
HETATM    5  N2  UNL     1     221.487  -5.223  20.619  1.00  0.00    -0.308 N 
HETATM    6  O2  UNL     1     220.490  -3.855  22.198  1.00  0.00    -0.247 OA
ATOM      7  H2  UNL     1     221.909  -6.138  20.459  1.00  0.00     0.166 HD
ATOM      8  H3  UNL     1     221.612  -6.813  22.693  1.00  0.00     0.173 HD
BRANCH   5   9
HETATM    9  C4  UNL     1     221.415  -4.321  19.494  1.00  0.00     0.359 C 
HETATM   10  N1  UNL     1     222.727  -3.974  18.993  1.00  0.00     0.031 N 
HETATM   11  C1  UNL     1     223.158  -2.617  19.258  1.00  0.00     0.359 C 
HETATM   12  O1  UNL     1     223.705  -4.881  19.309  1.00  0.00    -0.063 OA
HETATM   13  C2  UNL     1     222.203  -4.161  17.649  1.00  0.00     0.318 C 
HETATM   14  C3  UNL     1     221.097  -5.016  18.176  1.00  0.00     0.100 C 
ENDBRANCH   5   9
ENDBRANCH   1   3
BRANCH   1  15
HETATM   15  N4  UNL     1     219.301  -5.502  24.493  1.00  0.00    -0.273 N 
ATOM     16  H4  UNL     1     218.980  -5.066  25.357  1.00  0.00     0.189 HD
BRANCH  15  17
HETATM   17  N5  UNL     1     218.386  -5.915  23.513  1.00  0.00    -0.263 N 
HETATM   18  C7  UNL     1     217.592  -7.071  23.690  1.00  0.00     0.277 C 
HETATM   19  O3  UNL     1     217.707  -7.744  24.724  1.00  0.00    -0.265 OA
ATOM     20  H5  UNL     1     218.291  -5.371  22.656  1.00  0.00     0.190 HD
BRANCH  18  21
HETATM   21  C8  UNL     1     216.646  -7.465  22.663  1.00  0.00     0.075 A 
HETATM   22  C9  UNL     1     215.727  -8.485  22.695  1.00  0.00     0.026 A 
HETATM   23  C10 UNL     1     214.962  -8.664  21.618  1.00  0.00     0.028 A 
HETATM   24  C11 UNL     1     215.148  -7.815  20.556  1.00  0.00     0.052 A 
HETATM   25 BR1  UNL     1     214.237  -7.796  18.874  1.00  0.00    -0.043 Br
HETATM   26  S2  UNL     1     216.396  -6.792  21.110  1.00  0.00    -0.077 SA
ENDBRANCH  18  21
ENDBRANCH  15  17
ENDBRANCH   1  15
TORSDOF 5
ENDMDL
