MODEL 1
REMARK VINA RESULT: -6.827422742      0.000      0.000
REMARK  7 active torsions:
REMARK  status: ('A' for Active; 'I' for Inactive)
REMARK       I    between atoms: C2_2  and  N1_4 
REMARK    1  A    between atoms: N1_4  and  N2_6 
REMARK       I    between atoms: N2_6  and  C3_8 
REMARK    2  A    between atoms: C3_8  and  C4_10 
REMARK    3  A    between atoms: C4_10  and  N3_11 
REMARK       I    between atoms: N3_11  and  C5_13 
REMARK    4  A    between atoms: C5_13  and  C6_15 
REMARK    5  A    between atoms: N4_16  and  C7_17 
REMARK    6  A    between atoms: C7_17  and  N5_19 
REMARK    7  A    between atoms: N5_19  and  C8_21 
ROOT
HETATM    1  C6  UNL     1     217.681   6.527  19.576  1.00  0.00     0.186 C 
HETATM    2  N4  UNL     1     217.691   5.912  18.258  1.00  0.00    -0.344 N 
HETATM    3  C12 UNL     1     218.667   4.853  18.361  1.00  0.00     0.127 C 
HETATM    4  C13 UNL     1     219.766   5.425  19.208  1.00  0.00     0.031 C 
HETATM    5  C14 UNL     1     219.089   6.440  20.068  1.00  0.00    -0.017 C 
HETATM    6  C15 UNL     1     219.826   7.779  19.887  1.00  0.00     0.017 C 
HETATM    7  C16 UNL     1     219.234   6.094  21.520  1.00  0.00     0.017 C 
ENDROOT
BRANCH   1   8
HETATM    8  C5  UNL     1     216.674   5.913  20.465  1.00  0.00     0.241 C 
HETATM    9  N3  UNL     1     216.144   4.614  20.271  1.00  0.00    -0.350 N 
ATOM     10  H3  UNL     1     216.494   4.078  19.477  1.00  0.00     0.163 HD
HETATM   11  O3  UNL     1     216.267   6.583  21.443  1.00  0.00    -0.271 OA
BRANCH   9  12
HETATM   12  C4  UNL     1     215.163   3.997  21.097  1.00  0.00     0.227 C 
BRANCH  12  13
HETATM   13  C3  UNL     1     215.643   3.275  22.277  1.00  0.00     0.253 C 
HETATM   14  N2  UNL     1     216.570   3.810  23.189  1.00  0.00    -0.266 N 
ATOM     15  H2  UNL     1     216.946   4.750  23.061  1.00  0.00     0.190 HD
HETATM   16  O2  UNL     1     215.201   2.113  22.487  1.00  0.00    -0.270 OA
BRANCH  14  17
HETATM   17  N1  UNL     1     216.967   3.022  24.279  1.00  0.00    -0.268 N 
HETATM   18  C2  UNL     1     217.659   3.596  25.351  1.00  0.00     0.232 C 
HETATM   19  C1  UNL     1     218.072   2.756  26.497  1.00  0.00     0.119 C 
HETATM   20  O1  UNL     1     217.926   4.815  25.340  1.00  0.00    -0.272 OA
ATOM     21  H1  UNL     1     216.750   2.025  24.290  1.00  0.00     0.190 HD
ENDBRANCH  14  17
ENDBRANCH  12  13
ENDBRANCH   9  12
ENDBRANCH   1   8
BRANCH   2  22
HETATM   22  C7  UNL     1     216.935   6.242  17.108  1.00  0.00     0.171 C 
HETATM   23  S1  UNL     1     216.713   7.831  16.711  1.00  0.00    -0.041 SA
BRANCH  22  24
HETATM   24  N5  UNL     1     216.373   5.229  16.313  1.00  0.00    -0.359 N 
ATOM     25  H5  UNL     1     216.923   4.863  15.535  1.00  0.00     0.162 HD
BRANCH  24  26
HETATM   26  C8  UNL     1     215.052   4.673  16.539  1.00  0.00     0.021 C 
HETATM   27  C9  UNL     1     215.155   3.286  17.176  1.00  0.00     0.037 C 
HETATM   28  C10 UNL     1     214.205   5.523  17.452  1.00  0.00     0.037 C 
HETATM   29  C11 UNL     1     214.301   4.436  15.229  1.00  0.00     0.037 C 
ENDBRANCH  24  26
ENDBRANCH  22  24
ENDBRANCH   2  22
TORSDOF 7
ENDMDL
MODEL 2
REMARK VINA RESULT: -6.733586222      3.650      6.107
REMARK  7 active torsions:
REMARK  status: ('A' for Active; 'I' for Inactive)
REMARK       I    between atoms: C2_2  and  N1_4 
REMARK    1  A    between atoms: N1_4  and  N2_6 
REMARK       I    between atoms: N2_6  and  C3_8 
REMARK    2  A    between atoms: C3_8  and  C4_10 
REMARK    3  A    between atoms: C4_10  and  N3_11 
REMARK       I    between atoms: N3_11  and  C5_13 
REMARK    4  A    between atoms: C5_13  and  C6_15 
REMARK    5  A    between atoms: N4_16  and  C7_17 
REMARK    6  A    between atoms: C7_17  and  N5_19 
REMARK    7  A    between atoms: N5_19  and  C8_21 
ROOT
HETATM    1  C6  UNL     1     217.721   5.216  19.258  1.00  0.00     0.186 C 
HETATM    2  N4  UNL     1     217.124   6.358  18.584  1.00  0.00    -0.344 N 
HETATM    3  C12 UNL     1     217.079   7.389  19.595  1.00  0.00     0.127 C 
HETATM    4  C13 UNL     1     216.717   6.670  20.861  1.00  0.00     0.031 C 
HETATM    5  C14 UNL     1     217.234   5.284  20.669  1.00  0.00    -0.017 C 
HETATM    6  C15 UNL     1     216.069   4.307  20.903  1.00  0.00     0.017 C 
HETATM    7  C16 UNL     1     218.259   4.946  21.710  1.00  0.00     0.017 C 
ENDROOT
BRANCH   1   8
HETATM    8  C5  UNL     1     219.191   5.192  19.108  1.00  0.00     0.241 C 
HETATM    9  N3  UNL     1     220.080   5.830  20.007  1.00  0.00    -0.350 N 
ATOM     10  H3  UNL     1     219.673   6.319  20.803  1.00  0.00     0.163 HD
HETATM   11  O3  UNL     1     219.672   4.574  18.129  1.00  0.00    -0.271 OA
BRANCH   9  12
HETATM   12  C4  UNL     1     221.498   5.841  19.886  1.00  0.00     0.227 C 
BRANCH  12  13
HETATM   13  C3  UNL     1     222.089   6.900  19.065  1.00  0.00     0.253 C 
HETATM   14  N2  UNL     1     223.312   6.762  18.384  1.00  0.00    -0.266 N 
ATOM     15  H2  UNL     1     223.842   5.892  18.435  1.00  0.00     0.190 HD
HETATM   16  O2  UNL     1     221.467   7.992  18.960  1.00  0.00    -0.270 OA
BRANCH  14  17
HETATM   17  N1  UNL     1     223.786   7.848  17.635  1.00  0.00    -0.268 N 
HETATM   18  C2  UNL     1     224.985   8.478  17.986  1.00  0.00     0.232 C 
HETATM   19  C1  UNL     1     225.478   9.623  17.189  1.00  0.00     0.119 C 
HETATM   20  O1  UNL     1     225.639   8.073  18.969  1.00  0.00    -0.272 OA
ATOM     21  H1  UNL     1     223.254   8.182  16.831  1.00  0.00     0.190 HD
ENDBRANCH  14  17
ENDBRANCH  12  13
ENDBRANCH   9  12
ENDBRANCH   1   8
BRANCH   2  22
HETATM   22  C7  UNL     1     216.674   6.479  17.248  1.00  0.00     0.171 C 
HETATM   23  S1  UNL     1     216.601   7.973  16.547  1.00  0.00    -0.041 SA
BRANCH  22  24
HETATM   24  N5  UNL     1     216.286   5.338  16.524  1.00  0.00    -0.359 N 
ATOM     25  H5  UNL     1     216.955   4.929  15.872  1.00  0.00     0.162 HD
BRANCH  24  26
HETATM   26  C8  UNL     1     214.985   4.710  16.656  1.00  0.00     0.021 C 
HETATM   27  C9  UNL     1     215.115   3.340  17.323  1.00  0.00     0.037 C 
HETATM   28  C10 UNL     1     214.021   5.522  17.484  1.00  0.00     0.037 C 
HETATM   29  C11 UNL     1     214.354   4.413  15.295  1.00  0.00     0.037 C 
ENDBRANCH  24  26
ENDBRANCH  22  24
ENDBRANCH   2  22
TORSDOF 7
ENDMDL
MODEL 3
REMARK VINA RESULT: -6.609613440      3.373      6.083
REMARK  7 active torsions:
REMARK  status: ('A' for Active; 'I' for Inactive)
REMARK       I    between atoms: C2_2  and  N1_4 
REMARK    1  A    between atoms: N1_4  and  N2_6 
REMARK       I    between atoms: N2_6  and  C3_8 
REMARK    2  A    between atoms: C3_8  and  C4_10 
REMARK    3  A    between atoms: C4_10  and  N3_11 
REMARK       I    between atoms: N3_11  and  C5_13 
REMARK    4  A    between atoms: C5_13  and  C6_15 
REMARK    5  A    between atoms: N4_16  and  C7_17 
REMARK    6  A    between atoms: C7_17  and  N5_19 
REMARK    7  A    between atoms: N5_19  and  C8_21 
ROOT
HETATM    1  C6  UNL     1     218.138   5.020  20.386  1.00  0.00     0.186 C 
HETATM    2  N4  UNL     1     217.226   5.536  19.378  1.00  0.00    -0.344 N 
HETATM    3  C12 UNL     1     216.347   6.420  20.106  1.00  0.00     0.127 C 
HETATM    4  C13 UNL     1     216.106   5.729  21.416  1.00  0.00     0.031 C 
HETATM    5  C14 UNL     1     217.328   4.901  21.635  1.00  0.00    -0.017 C 
HETATM    6  C15 UNL     1     216.878   3.449  21.872  1.00  0.00     0.017 C 
HETATM    7  C16 UNL     1     218.035   5.313  22.892  1.00  0.00     0.017 C 
ENDROOT
BRANCH   1   8
HETATM    8  C5  UNL     1     219.353   5.852  20.511  1.00  0.00     0.241 C 
HETATM    9  N3  UNL     1     220.665   5.322  20.556  1.00  0.00    -0.350 N 
ATOM     10  H3  UNL     1     220.765   4.309  20.487  1.00  0.00     0.163 HD
HETATM   11  O3  UNL     1     219.209   7.096  20.582  1.00  0.00    -0.271 OA
BRANCH   9  12
HETATM   12  C4  UNL     1     221.855   6.090  20.692  1.00  0.00     0.227 C 
BRANCH  12  13
HETATM   13  C3  UNL     1     222.560   6.449  19.460  1.00  0.00     0.253 C 
HETATM   14  N2  UNL     1     221.950   6.460  18.192  1.00  0.00    -0.266 N 
ATOM     15  H2  UNL     1     220.964   6.218  18.085  1.00  0.00     0.190 HD
HETATM   16  O2  UNL     1     223.778   6.767  19.539  1.00  0.00    -0.270 OA
BRANCH  14  17
HETATM   17  N1  UNL     1     222.728   6.811  17.079  1.00  0.00    -0.268 N 
HETATM   18  C2  UNL     1     222.523   8.034  16.433  1.00  0.00     0.232 C 
HETATM   19  C1  UNL     1     223.349   8.397  15.260  1.00  0.00     0.119 C 
HETATM   20  O1  UNL     1     221.645   8.820  16.846  1.00  0.00    -0.272 OA
ATOM     21  H1  UNL     1     223.446   6.171  16.740  1.00  0.00     0.190 HD
ENDBRANCH  14  17
ENDBRANCH  12  13
ENDBRANCH   9  12
ENDBRANCH   1   8
BRANCH   2  22
HETATM   22  C7  UNL     1     217.174   5.263  17.990  1.00  0.00     0.171 C 
HETATM   23  S1  UNL     1     218.164   6.094  16.960  1.00  0.00    -0.041 SA
BRANCH  22  24
HETATM   24  N5  UNL     1     216.283   4.297  17.490  1.00  0.00    -0.359 N 
ATOM     25  H5  UNL     1     216.640   3.359  17.309  1.00  0.00     0.162 HD
BRANCH  24  26
HETATM   26  C8  UNL     1     214.883   4.563  17.220  1.00  0.00     0.021 C 
HETATM   27  C9  UNL     1     214.415   3.777  15.994  1.00  0.00     0.037 C 
HETATM   28  C10 UNL     1     213.980   4.183  18.366  1.00  0.00     0.037 C 
HETATM   29  C11 UNL     1     214.640   6.026  16.850  1.00  0.00     0.037 C 
ENDBRANCH  24  26
ENDBRANCH  22  24
ENDBRANCH   2  22
TORSDOF 7
ENDMDL
MODEL 4
REMARK VINA RESULT: -6.527563541      1.563      2.608
REMARK  7 active torsions:
REMARK  status: ('A' for Active; 'I' for Inactive)
REMARK       I    between atoms: C2_2  and  N1_4 
REMARK    1  A    between atoms: N1_4  and  N2_6 
REMARK       I    between atoms: N2_6  and  C3_8 
REMARK    2  A    between atoms: C3_8  and  C4_10 
REMARK    3  A    between atoms: C4_10  and  N3_11 
REMARK       I    between atoms: N3_11  and  C5_13 
REMARK    4  A    between atoms: C5_13  and  C6_15 
REMARK    5  A    between atoms: N4_16  and  C7_17 
REMARK    6  A    between atoms: C7_17  and  N5_19 
REMARK    7  A    between atoms: N5_19  and  C8_21 
ROOT
HETATM    1  C6  UNL     1     217.833   6.462  19.521  1.00  0.00     0.186 C 
HETATM    2  N4  UNL     1     217.700   6.091  18.121  1.00  0.00    -0.344 N 
HETATM    3  C12 UNL     1     218.505   4.900  17.986  1.00  0.00     0.127 C 
HETATM    4  C13 UNL     1     219.709   5.151  18.847  1.00  0.00     0.031 C 
HETATM    5  C14 UNL     1     219.228   6.088  19.904  1.00  0.00    -0.017 C 
HETATM    6  C15 UNL     1     220.154   7.317  19.903  1.00  0.00     0.017 C 
HETATM    7  C16 UNL     1     219.370   5.478  21.266  1.00  0.00     0.017 C 
ENDROOT
BRANCH   1   8
HETATM    8  C5  UNL     1     216.776   5.855  20.356  1.00  0.00     0.241 C 
HETATM    9  N3  UNL     1     216.202   4.587  20.096  1.00  0.00    -0.350 N 
ATOM     10  H3  UNL     1     216.554   4.069  19.291  1.00  0.00     0.163 HD
HETATM   11  O3  UNL     1     216.367   6.503  21.349  1.00  0.00    -0.271 OA
BRANCH   9  12
HETATM   12  C4  UNL     1     215.174   3.979  20.869  1.00  0.00     0.227 C 
BRANCH  12  13
HETATM   13  C3  UNL     1     215.584   3.259  22.076  1.00  0.00     0.253 C 
HETATM   14  N2  UNL     1     216.387   3.826  23.082  1.00  0.00    -0.266 N 
ATOM     15  H2  UNL     1     216.716   4.789  23.007  1.00  0.00     0.190 HD
HETATM   16  O2  UNL     1     215.195   2.068  22.223  1.00  0.00    -0.270 OA
BRANCH  14  17
HETATM   17  N1  UNL     1     216.727   3.037  24.190  1.00  0.00    -0.268 N 
HETATM   18  C2  UNL     1     217.500   3.571  25.226  1.00  0.00     0.232 C 
HETATM   19  C1  UNL     1     217.852   2.731  26.392  1.00  0.00     0.119 C 
HETATM   20  O1  UNL     1     217.890   4.755  25.168  1.00  0.00    -0.272 OA
ATOM     21  H1  UNL     1     216.409   2.069  24.240  1.00  0.00     0.190 HD
ENDBRANCH  14  17
ENDBRANCH  12  13
ENDBRANCH   9  12
ENDBRANCH   1   8
BRANCH   2  22
HETATM   22  C7  UNL     1     216.963   6.722  17.091  1.00  0.00     0.171 C 
HETATM   23  S1  UNL     1     215.355   6.380  16.916  1.00  0.00    -0.041 SA
BRANCH  22  24
HETATM   24  N5  UNL     1     217.593   7.627  16.220  1.00  0.00    -0.359 N 
ATOM     25  H5  UNL     1     217.807   7.316  15.272  1.00  0.00     0.162 HD
BRANCH  24  26
HETATM   26  C8  UNL     1     217.955   8.981  16.595  1.00  0.00     0.021 C 
HETATM   27  C9  UNL     1     217.716   9.943  15.430  1.00  0.00     0.037 C 
HETATM   28  C10 UNL     1     217.163   9.496  17.771  1.00  0.00     0.037 C 
HETATM   29  C11 UNL     1     219.447   9.110  16.896  1.00  0.00     0.037 C 
ENDBRANCH  24  26
ENDBRANCH  22  24
ENDBRANCH   2  22
TORSDOF 7
ENDMDL
MODEL 5
REMARK VINA RESULT: -6.511252289      3.290      6.262
REMARK  7 active torsions:
REMARK  status: ('A' for Active; 'I' for Inactive)
REMARK       I    between atoms: C2_2  and  N1_4 
REMARK    1  A    between atoms: N1_4  and  N2_6 
REMARK       I    between atoms: N2_6  and  C3_8 
REMARK    2  A    between atoms: C3_8  and  C4_10 
REMARK    3  A    between atoms: C4_10  and  N3_11 
REMARK       I    between atoms: N3_11  and  C5_13 
REMARK    4  A    between atoms: C5_13  and  C6_15 
REMARK    5  A    between atoms: N4_16  and  C7_17 
REMARK    6  A    between atoms: C7_17  and  N5_19 
REMARK    7  A    between atoms: N5_19  and  C8_21 
ROOT
HETATM    1  C6  UNL     1     217.758   5.309  19.146  1.00  0.00     0.186 C 
HETATM    2  N4  UNL     1     217.144   6.451  18.488  1.00  0.00    -0.344 N 
HETATM    3  C12 UNL     1     217.112   7.477  19.505  1.00  0.00     0.127 C 
HETATM    4  C13 UNL     1     216.774   6.749  20.773  1.00  0.00     0.031 C 
HETATM    5  C14 UNL     1     217.295   5.367  20.565  1.00  0.00    -0.017 C 
HETATM    6  C15 UNL     1     216.138   4.383  20.814  1.00  0.00     0.017 C 
HETATM    7  C16 UNL     1     218.339   5.028  21.587  1.00  0.00     0.017 C 
ENDROOT
BRANCH   1   8
HETATM    8  C5  UNL     1     219.225   5.292  18.972  1.00  0.00     0.241 C 
HETATM    9  N3  UNL     1     220.111   6.117  19.707  1.00  0.00    -0.350 N 
ATOM     10  H3  UNL     1     219.703   6.744  20.399  1.00  0.00     0.163 HD
HETATM   11  O3  UNL     1     219.708   4.505  18.124  1.00  0.00    -0.271 OA
BRANCH   9  12
HETATM   12  C4  UNL     1     221.525   6.140  19.555  1.00  0.00     0.227 C 
BRANCH  12  13
HETATM   13  C3  UNL     1     222.067   6.982  18.487  1.00  0.00     0.253 C 
HETATM   14  N2  UNL     1     221.964   6.665  17.120  1.00  0.00    -0.266 N 
ATOM     15  H2  UNL     1     221.487   5.815  16.816  1.00  0.00     0.190 HD
HETATM   16  O2  UNL     1     222.656   8.050  18.809  1.00  0.00    -0.270 OA
BRANCH  14  17
HETATM   17  N1  UNL     1     222.531   7.542  16.186  1.00  0.00    -0.268 N 
HETATM   18  C2  UNL     1     221.734   8.487  15.530  1.00  0.00     0.232 C 
HETATM   19  C1  UNL     1     222.341   9.410  14.546  1.00  0.00     0.119 C 
HETATM   20  O1  UNL     1     220.511   8.551  15.777  1.00  0.00    -0.272 OA
ATOM     21  H1  UNL     1     223.529   7.492  15.982  1.00  0.00     0.190 HD
ENDBRANCH  14  17
ENDBRANCH  12  13
ENDBRANCH   9  12
ENDBRANCH   1   8
BRANCH   2  22
HETATM   22  C7  UNL     1     216.671   6.576  17.160  1.00  0.00     0.171 C 
HETATM   23  S1  UNL     1     216.570   8.076  16.472  1.00  0.00    -0.041 SA
BRANCH  22  24
HETATM   24  N5  UNL     1     216.285   5.436  16.435  1.00  0.00    -0.359 N 
ATOM     25  H5  UNL     1     216.936   5.058  15.746  1.00  0.00     0.162 HD
BRANCH  24  26
HETATM   26  C8  UNL     1     215.010   4.768  16.611  1.00  0.00     0.021 C 
HETATM   27  C9  UNL     1     215.210   3.385  17.232  1.00  0.00     0.037 C 
HETATM   28  C10 UNL     1     214.067   5.529  17.509  1.00  0.00     0.037 C 
HETATM   29  C11 UNL     1     214.320   4.491  15.276  1.00  0.00     0.037 C 
ENDBRANCH  24  26
ENDBRANCH  22  24
ENDBRANCH   2  22
TORSDOF 7
ENDMDL
