MODEL 1
REMARK VINA RESULT: -6.601177945      0.000      0.000
REMARK  7 active torsions:
REMARK  status: ('A' for Active; 'I' for Inactive)
REMARK    1  A    between atoms: N1_2  and  C2_4 
REMARK    2  A    between atoms: C2_4  and  N2_6 
REMARK    3  A    between atoms: N2_6  and  C3_8 
REMARK    4  A    between atoms: C3_8  and  N3_10 
REMARK    5  A    between atoms: N3_10  and  N4_12 
REMARK       I    between atoms: N4_12  and  C4_14 
REMARK    6  A    between atoms: C4_14  and  C5_16 
REMARK    7  A    between atoms: C6_17  and  C7_18 
ROOT
HETATM    1  C7  UNL     1     216.341   4.841  20.393  1.00  0.00    -0.033 A 
HETATM    2  C8  UNL     1     215.222   4.172  19.952  1.00  0.00     0.030 A 
HETATM    3  C9  UNL     1     214.585   4.446  18.748  1.00  0.00     0.013 A 
HETATM    4 BR1  UNL     1     213.037   3.514  18.156  1.00  0.00    -0.051 Br
HETATM    5  C10 UNL     1     215.145   5.461  17.978  1.00  0.00     0.041 A 
HETATM    6  C11 UNL     1     216.252   6.163  18.355  1.00  0.00     0.046 A 
HETATM    7  C12 UNL     1     216.796   7.211  17.519  1.00  0.00     0.099 C 
HETATM    8  N5  UNL     1     217.243   8.058  16.866  1.00  0.00    -0.191 NA
HETATM    9  C13 UNL     1     216.836   5.841  19.564  1.00  0.00     0.034 A 
ENDROOT
BRANCH   1  10
HETATM   10  C6  UNL     1     216.996   4.557  21.650  1.00  0.00     0.017 C 
HETATM   11  C5  UNL     1     216.526   3.729  22.566  1.00  0.00     0.076 C 
BRANCH  11  12
HETATM   12  C4  UNL     1     217.252   3.503  23.801  1.00  0.00     0.259 C 
HETATM   13  N4  UNL     1     216.714   2.942  24.963  1.00  0.00    -0.264 N 
ATOM     14  H4  UNL     1     215.731   2.669  24.965  1.00  0.00     0.190 HD
HETATM   15  O1  UNL     1     218.486   3.841  23.825  1.00  0.00    -0.267 OA
BRANCH  13  16
HETATM   16  N3  UNL     1     217.465   2.739  26.123  1.00  0.00    -0.273 N 
ATOM     17  H3  UNL     1     218.069   1.920  26.198  1.00  0.00     0.189 HD
BRANCH  16  18
HETATM   18  C3  UNL     1     217.394   3.649  27.180  1.00  0.00     0.192 C 
HETATM   19  S2  UNL     1     217.441   3.011  28.751  1.00  0.00    -0.039 SA
BRANCH  18  20
HETATM   20  N2  UNL     1     217.284   5.038  27.150  1.00  0.00    -0.309 N 
ATOM     21  H2  UNL     1     216.376   5.389  27.455  1.00  0.00     0.170 HD
BRANCH  20  22
HETATM   22  C2  UNL     1     218.168   6.021  26.788  1.00  0.00     0.173 C 
HETATM   23  S1  UNL     1     218.329   7.293  27.887  1.00  0.00    -0.041 SA
BRANCH  22  24
HETATM   24  N1  UNL     1     218.965   6.160  25.653  1.00  0.00    -0.371 N 
HETATM   25  C1  UNL     1     220.443   6.152  25.751  1.00  0.00     0.148 C 
ATOM     26  H1  UNL     1     218.523   6.269  24.741  1.00  0.00     0.161 HD
ENDBRANCH  22  24
ENDBRANCH  20  22
ENDBRANCH  18  20
ENDBRANCH  16  18
ENDBRANCH  13  16
ENDBRANCH  11  12
ENDBRANCH   1  10
TORSDOF 7
ENDMDL
MODEL 2
REMARK VINA RESULT: -6.599867437      4.747      8.393
REMARK  7 active torsions:
REMARK  status: ('A' for Active; 'I' for Inactive)
REMARK    1  A    between atoms: N1_2  and  C2_4 
REMARK    2  A    between atoms: C2_4  and  N2_6 
REMARK    3  A    between atoms: N2_6  and  C3_8 
REMARK    4  A    between atoms: C3_8  and  N3_10 
REMARK    5  A    between atoms: N3_10  and  N4_12 
REMARK       I    between atoms: N4_12  and  C4_14 
REMARK    6  A    between atoms: C4_14  and  C5_16 
REMARK    7  A    between atoms: C6_17  and  C7_18 
ROOT
HETATM    1  C7  UNL     1     217.628   3.979  24.062  1.00  0.00    -0.033 A 
HETATM    2  C8  UNL     1     218.929   4.425  24.122  1.00  0.00     0.030 A 
HETATM    3  C9  UNL     1     219.628   4.605  25.310  1.00  0.00     0.013 A 
HETATM    4 BR1  UNL     1     221.424   5.226  25.373  1.00  0.00    -0.051 Br
HETATM    5  C10 UNL     1     218.934   4.307  26.478  1.00  0.00     0.041 A 
HETATM    6  C11 UNL     1     217.645   3.861  26.490  1.00  0.00     0.046 A 
HETATM    7  C12 UNL     1     216.965   3.566  27.733  1.00  0.00     0.099 C 
HETATM    8  N5  UNL     1     216.402   3.329  28.718  1.00  0.00    -0.191 NA
HETATM    9  C13 UNL     1     217.008   3.704  25.275  1.00  0.00     0.034 A 
ENDROOT
BRANCH   1  10
HETATM   10  C6  UNL     1     216.904   3.799  22.824  1.00  0.00     0.017 C 
HETATM   11  C5  UNL     1     215.810   3.070  22.698  1.00  0.00     0.076 C 
BRANCH  11  12
HETATM   12  C4  UNL     1     215.146   2.947  21.415  1.00  0.00     0.259 C 
HETATM   13  N4  UNL     1     214.989   3.978  20.483  1.00  0.00    -0.264 N 
ATOM     14  H4  UNL     1     215.357   4.902  20.710  1.00  0.00     0.190 HD
HETATM   15  O1  UNL     1     214.671   1.798  21.110  1.00  0.00    -0.267 OA
BRANCH  13  16
HETATM   16  N3  UNL     1     214.348   3.797  19.256  1.00  0.00    -0.273 N 
ATOM     17  H3  UNL     1     213.577   3.134  19.180  1.00  0.00     0.189 HD
BRANCH  16  18
HETATM   18  C3  UNL     1     214.757   4.519  18.132  1.00  0.00     0.192 C 
HETATM   19  S2  UNL     1     214.361   3.873  16.615  1.00  0.00    -0.039 SA
BRANCH  18  20
HETATM   20  N2  UNL     1     215.461   5.720  18.056  1.00  0.00    -0.309 N 
ATOM     21  H2  UNL     1     214.944   6.527  18.406  1.00  0.00     0.170 HD
BRANCH  20  22
HETATM   22  C2  UNL     1     216.718   6.020  17.598  1.00  0.00     0.173 C 
HETATM   23  S1  UNL     1     217.989   5.306  18.449  1.00  0.00    -0.041 SA
BRANCH  22  24
HETATM   24  N1  UNL     1     217.137   6.825  16.542  1.00  0.00    -0.371 N 
HETATM   25  C1  UNL     1     216.592   8.191  16.358  1.00  0.00     0.148 C 
ATOM     26  H1  UNL     1     217.830   6.469  15.884  1.00  0.00     0.161 HD
ENDBRANCH  22  24
ENDBRANCH  20  22
ENDBRANCH  18  20
ENDBRANCH  16  18
ENDBRANCH  13  16
ENDBRANCH  11  12
ENDBRANCH   1  10
TORSDOF 7
ENDMDL
MODEL 3
REMARK VINA RESULT: -6.595605544      5.048      8.052
REMARK  7 active torsions:
REMARK  status: ('A' for Active; 'I' for Inactive)
REMARK    1  A    between atoms: N1_2  and  C2_4 
REMARK    2  A    between atoms: C2_4  and  N2_6 
REMARK    3  A    between atoms: N2_6  and  C3_8 
REMARK    4  A    between atoms: C3_8  and  N3_10 
REMARK    5  A    between atoms: N3_10  and  N4_12 
REMARK       I    between atoms: N4_12  and  C4_14 
REMARK    6  A    between atoms: C4_14  and  C5_16 
REMARK    7  A    between atoms: C6_17  and  C7_18 
ROOT
HETATM    1  C7  UNL     1     216.740   5.501  19.204  1.00  0.00    -0.033 A 
HETATM    2  C8  UNL     1     215.624   5.036  18.545  1.00  0.00     0.030 A 
HETATM    3  C9  UNL     1     214.700   4.167  19.113  1.00  0.00     0.013 A 
HETATM    4 BR1  UNL     1     213.166   3.531  18.186  1.00  0.00    -0.051 Br
HETATM    5  C10 UNL     1     214.958   3.772  20.422  1.00  0.00     0.041 A 
HETATM    6  C11 UNL     1     216.043   4.194  21.132  1.00  0.00     0.046 A 
HETATM    7  C12 UNL     1     216.267   3.753  22.491  1.00  0.00     0.099 C 
HETATM    8  N5  UNL     1     216.468   3.407  23.579  1.00  0.00    -0.191 NA
HETATM    9  C13 UNL     1     216.922   5.056  20.508  1.00  0.00     0.034 A 
ENDROOT
BRANCH   1  10
HETATM   10  C6  UNL     1     217.702   6.399  18.606  1.00  0.00     0.017 C 
HETATM   11  C5  UNL     1     218.342   6.162  17.476  1.00  0.00     0.076 C 
BRANCH  11  12
HETATM   12  C4  UNL     1     219.292   7.122  16.948  1.00  0.00     0.259 C 
HETATM   13  N4  UNL     1     220.168   6.891  15.883  1.00  0.00    -0.264 N 
ATOM     14  H4  UNL     1     220.159   5.976  15.432  1.00  0.00     0.190 HD
HETATM   15  O1  UNL     1     219.327   8.276  17.502  1.00  0.00    -0.267 OA
BRANCH  13  16
HETATM   16  N3  UNL     1     221.057   7.859  15.410  1.00  0.00    -0.273 N 
ATOM     17  H3  UNL     1     220.742   8.542  14.721  1.00  0.00     0.189 HD
BRANCH  16  18
HETATM   18  C3  UNL     1     222.373   7.898  15.875  1.00  0.00     0.192 C 
HETATM   19  S2  UNL     1     223.425   8.994  15.121  1.00  0.00    -0.039 SA
BRANCH  18  20
HETATM   20  N2  UNL     1     222.980   7.156  16.887  1.00  0.00    -0.309 N 
ATOM     21  H2  UNL     1     223.698   6.512  16.555  1.00  0.00     0.170 HD
BRANCH  20  22
HETATM   22  C2  UNL     1     222.793   7.130  18.245  1.00  0.00     0.173 C 
HETATM   23  S1  UNL     1     222.744   8.639  19.000  1.00  0.00    -0.041 SA
BRANCH  22  24
HETATM   24  N1  UNL     1     222.638   6.060  19.125  1.00  0.00    -0.371 N 
HETATM   25  C1  UNL     1     221.354   5.826  19.826  1.00  0.00     0.148 C 
ATOM     26  H1  UNL     1     223.422   5.429  19.288  1.00  0.00     0.161 HD
ENDBRANCH  22  24
ENDBRANCH  20  22
ENDBRANCH  18  20
ENDBRANCH  16  18
ENDBRANCH  13  16
ENDBRANCH  11  12
ENDBRANCH   1  10
TORSDOF 7
ENDMDL
MODEL 4
REMARK VINA RESULT: -6.568223090      1.949      2.392
REMARK  7 active torsions:
REMARK  status: ('A' for Active; 'I' for Inactive)
REMARK    1  A    between atoms: N1_2  and  C2_4 
REMARK    2  A    between atoms: C2_4  and  N2_6 
REMARK    3  A    between atoms: N2_6  and  C3_8 
REMARK    4  A    between atoms: C3_8  and  N3_10 
REMARK    5  A    between atoms: N3_10  and  N4_12 
REMARK       I    between atoms: N4_12  and  C4_14 
REMARK    6  A    between atoms: C4_14  and  C5_16 
REMARK    7  A    between atoms: C6_17  and  C7_18 
ROOT
HETATM    1  C7  UNL     1     216.583   5.053  20.585  1.00  0.00    -0.033 A 
HETATM    2  C8  UNL     1     217.060   6.064  19.782  1.00  0.00     0.030 A 
HETATM    3  C9  UNL     1     216.498   6.406  18.558  1.00  0.00     0.013 A 
HETATM    4 BR1  UNL     1     217.172   7.804  17.459  1.00  0.00    -0.051 Br
HETATM    5  C10 UNL     1     215.394   5.657  18.162  1.00  0.00     0.041 A 
HETATM    6  C11 UNL     1     214.871   4.643  18.909  1.00  0.00     0.046 A 
HETATM    7  C12 UNL     1     213.721   3.891  18.453  1.00  0.00     0.099 C 
HETATM    8  N5  UNL     1     212.804   3.275  18.103  1.00  0.00    -0.191 NA
HETATM    9  C13 UNL     1     215.478   4.354  20.115  1.00  0.00     0.034 A 
ENDROOT
BRANCH   1  10
HETATM   10  C6  UNL     1     217.176   4.697  21.854  1.00  0.00     0.017 C 
HETATM   11  C5  UNL     1     216.647   3.844  22.713  1.00  0.00     0.076 C 
BRANCH  11  12
HETATM   12  C4  UNL     1     217.313   3.546  23.965  1.00  0.00     0.259 C 
HETATM   13  N4  UNL     1     216.706   2.977  25.089  1.00  0.00    -0.264 N 
ATOM     14  H4  UNL     1     215.711   2.754  25.047  1.00  0.00     0.190 HD
HETATM   15  O1  UNL     1     218.561   3.822  24.046  1.00  0.00    -0.267 OA
BRANCH  13  16
HETATM   16  N3  UNL     1     217.401   2.702  26.268  1.00  0.00    -0.273 N 
ATOM     17  H3  UNL     1     217.940   1.840  26.349  1.00  0.00     0.189 HD
BRANCH  16  18
HETATM   18  C3  UNL     1     217.364   3.601  27.337  1.00  0.00     0.192 C 
HETATM   19  S2  UNL     1     217.549   2.954  28.894  1.00  0.00    -0.039 SA
BRANCH  18  20
HETATM   20  N2  UNL     1     217.192   4.984  27.329  1.00  0.00    -0.309 N 
ATOM     21  H2  UNL     1     216.264   5.287  27.626  1.00  0.00     0.170 HD
BRANCH  20  22
HETATM   22  C2  UNL     1     218.035   6.013  26.997  1.00  0.00     0.173 C 
HETATM   23  S1  UNL     1     218.063   7.306  28.082  1.00  0.00    -0.041 SA
BRANCH  22  24
HETATM   24  N1  UNL     1     218.881   6.183  25.904  1.00  0.00    -0.371 N 
HETATM   25  C1  UNL     1     220.349   6.283  26.080  1.00  0.00     0.148 C 
ATOM     26  H1  UNL     1     218.483   6.240  24.966  1.00  0.00     0.161 HD
ENDBRANCH  22  24
ENDBRANCH  20  22
ENDBRANCH  18  20
ENDBRANCH  16  18
ENDBRANCH  13  16
ENDBRANCH  11  12
ENDBRANCH   1  10
TORSDOF 7
ENDMDL
MODEL 5
REMARK VINA RESULT: -6.533715230      5.940      9.230
REMARK  7 active torsions:
REMARK  status: ('A' for Active; 'I' for Inactive)
REMARK    1  A    between atoms: N1_2  and  C2_4 
REMARK    2  A    between atoms: C2_4  and  N2_6 
REMARK    3  A    between atoms: N2_6  and  C3_8 
REMARK    4  A    between atoms: C3_8  and  N3_10 
REMARK    5  A    between atoms: N3_10  and  N4_12 
REMARK       I    between atoms: N4_12  and  C4_14 
REMARK    6  A    between atoms: C4_14  and  C5_16 
REMARK    7  A    between atoms: C6_17  and  C7_18 
ROOT
HETATM    1  C7  UNL     1     217.445   5.312  19.642  1.00  0.00    -0.033 A 
HETATM    2  C8  UNL     1     216.323   5.163  18.859  1.00  0.00     0.030 A 
HETATM    3  C9  UNL     1     215.168   4.516  19.283  1.00  0.00     0.013 A 
HETATM    4 BR1  UNL     1     213.628   4.316  18.186  1.00  0.00    -0.051 Br
HETATM    5  C10 UNL     1     215.193   4.007  20.578  1.00  0.00     0.041 A 
HETATM    6  C11 UNL     1     216.271   4.120  21.406  1.00  0.00     0.046 A 
HETATM    7  C12 UNL     1     216.249   3.572  22.744  1.00  0.00     0.099 C 
HETATM    8  N5  UNL     1     216.252   3.134  23.818  1.00  0.00    -0.191 NA
HETATM    9  C13 UNL     1     217.387   4.774  20.922  1.00  0.00     0.034 A 
ENDROOT
BRANCH   1  10
HETATM   10  C6  UNL     1     218.646   5.980  19.194  1.00  0.00     0.017 C 
HETATM   11  C5  UNL     1     219.767   5.361  18.870  1.00  0.00     0.076 C 
BRANCH  11  12
HETATM   12  C4  UNL     1     220.926   6.113  18.428  1.00  0.00     0.259 C 
HETATM   13  N4  UNL     1     221.479   6.067  17.144  1.00  0.00    -0.264 N 
ATOM     14  H4  UNL     1     221.050   5.455  16.450  1.00  0.00     0.190 HD
HETATM   15  O1  UNL     1     221.485   6.884  19.284  1.00  0.00    -0.267 OA
BRANCH  13  16
HETATM   16  N3  UNL     1     222.592   6.823  16.772  1.00  0.00    -0.273 N 
ATOM     17  H3  UNL     1     223.530   6.480  16.981  1.00  0.00     0.189 HD
BRANCH  16  18
HETATM   18  C3  UNL     1     222.430   8.045  16.116  1.00  0.00     0.192 C 
HETATM   19  S2  UNL     1     222.954   9.435  16.934  1.00  0.00    -0.039 SA
BRANCH  18  20
HETATM   20  N2  UNL     1     221.889   8.313  14.860  1.00  0.00    -0.309 N 
ATOM     21  H2  UNL     1     220.876   8.202  14.813  1.00  0.00     0.170 HD
BRANCH  20  22
HETATM   22  C2  UNL     1     222.462   8.698  13.675  1.00  0.00     0.173 C 
HETATM   23  S1  UNL     1     221.393   9.293  12.512  1.00  0.00    -0.041 SA
BRANCH  22  24
HETATM   24  N1  UNL     1     223.791   8.679  13.256  1.00  0.00    -0.371 N 
HETATM   25  C1  UNL     1     224.639   9.891  13.348  1.00  0.00     0.148 C 
ATOM     26  H1  UNL     1     224.185   7.818  12.878  1.00  0.00     0.161 HD
ENDBRANCH  22  24
ENDBRANCH  20  22
ENDBRANCH  18  20
ENDBRANCH  16  18
ENDBRANCH  13  16
ENDBRANCH  11  12
ENDBRANCH   1  10
TORSDOF 7
ENDMDL
