MODEL 1
REMARK VINA RESULT: -7.923947665      0.000      0.000
REMARK  4 active torsions:
REMARK  status: ('A' for Active; 'I' for Inactive)
REMARK    1  A    between atoms: N1_2  and  C2_5 
REMARK    2  A    between atoms: C2_5  and  C4_8 
REMARK    3  A    between atoms: C16_21  and  O2_22 
REMARK    4  A    between atoms: C17_24  and  O3_25 
ROOT
HETATM    1  C4  UNL     1     217.580   3.656  24.395  1.00  0.00     0.136 C 
HETATM    2  C5  UNL     1     217.961   4.739  23.372  1.00  0.00     0.041 C 
HETATM    3  C6  UNL     1     217.381   4.577  22.066  1.00  0.00    -0.002 C 
HETATM    4  C7  UNL     1     216.013   5.257  21.867  1.00  0.00     0.178 C 
HETATM    5  O1  UNL     1     215.703   4.552  20.680  1.00  0.00    -0.385 OA
HETATM    6  C8  UNL     1     216.839   4.812  19.866  1.00  0.00     0.127 C 
HETATM    7  C9  UNL     1     216.444   5.970  19.068  1.00  0.00     0.033 C 
HETATM    8  C10 UNL     1     217.536   6.898  18.630  1.00  0.00     0.008 C 
HETATM    9  C11 UNL     1     218.181   7.317  19.901  1.00  0.00     0.004 C 
HETATM   10  C12 UNL     1     219.475   8.108  19.649  1.00  0.00     0.022 C 
HETATM   11  C13 UNL     1     220.280   7.106  18.908  1.00  0.00     0.009 C 
HETATM   12  C14 UNL     1     219.864   5.791  19.463  1.00  0.00     0.013 C 
HETATM   13  C15 UNL     1     218.834   6.105  20.584  1.00  0.00    -0.001 C 
HETATM   14  C16 UNL     1     219.639   6.764  21.623  1.00  0.00     0.156 C 
HETATM   15  C17 UNL     1     219.960   8.169  21.074  1.00  0.00     0.152 C 
HETATM   16  C18 UNL     1     218.029   4.949  20.810  1.00  0.00     0.037 C 
HETATM   17  C19 UNL     1     216.997   3.077  21.945  1.00  0.00     0.115 C 
HETATM   18  C20 UNL     1     215.881   2.818  22.907  1.00  0.00     0.218 C 
HETATM   19  O4  UNL     1     214.787   2.322  22.619  1.00  0.00    -0.274 OA
HETATM   20  N2  UNL     1     216.219   3.219  24.258  1.00  0.00    -0.353 N 
ATOM     21  H2  UNL     1     215.556   3.193  25.033  1.00  0.00     0.163 HD
ENDROOT
BRANCH   1  22
HETATM   22  C2  UNL     1     217.954   4.067  25.781  1.00  0.00     0.216 C 
HETATM   23  C3  UNL     1     219.155   3.396  26.349  1.00  0.00     0.067 C 
HETATM   24 CL1  UNL     1     216.594   3.760  26.919  1.00  0.00    -0.086 Cl
BRANCH  22  25
HETATM   25  N1  UNL     1     218.094   5.531  25.748  1.00  0.00    -0.055 N 
HETATM   26  C1  UNL     1     218.094   6.095  27.082  1.00  0.00     0.269 C 
ATOM     27  H12 UNL     1     217.379   5.961  25.161  1.00  0.00     0.279 HD
ATOM     28  H11 UNL     1     218.921   5.815  25.222  1.00  0.00     0.279 HD
ENDBRANCH  22  25
ENDBRANCH   1  22
BRANCH  14  29
HETATM   29  O2  UNL     1     220.913   6.174  21.796  1.00  0.00    -0.392 OA
ATOM     30  H2  UNL     1     221.108   5.969  22.702  1.00  0.00     0.210 HD
ENDBRANCH  14  29
BRANCH  15  31
HETATM   31  O3  UNL     1     221.277   8.508  21.171  1.00  0.00    -0.393 OA
ATOM     32  H3  UNL     1     221.408   9.407  21.448  1.00  0.00     0.210 HD
ENDBRANCH  15  31
TORSDOF 4
ENDMDL
MODEL 2
REMARK VINA RESULT: -7.858596673      0.892      1.057
REMARK  4 active torsions:
REMARK  status: ('A' for Active; 'I' for Inactive)
REMARK    1  A    between atoms: N1_2  and  C2_5 
REMARK    2  A    between atoms: C2_5  and  C4_8 
REMARK    3  A    between atoms: C16_21  and  O2_22 
REMARK    4  A    between atoms: C17_24  and  O3_25 
ROOT
HETATM    1  C4  UNL     1     217.546   3.552  24.364  1.00  0.00     0.136 C 
HETATM    2  C5  UNL     1     217.947   4.678  23.397  1.00  0.00     0.041 C 
HETATM    3  C6  UNL     1     217.385   4.579  22.077  1.00  0.00    -0.002 C 
HETATM    4  C7  UNL     1     216.024   5.275  21.889  1.00  0.00     0.178 C 
HETATM    5  O1  UNL     1     215.728   4.626  20.667  1.00  0.00    -0.385 OA
HETATM    6  C8  UNL     1     216.877   4.916  19.882  1.00  0.00     0.127 C 
HETATM    7  C9  UNL     1     216.499   6.111  19.131  1.00  0.00     0.033 C 
HETATM    8  C10 UNL     1     217.602   7.052  18.753  1.00  0.00     0.008 C 
HETATM    9  C11 UNL     1     218.230   7.409  20.050  1.00  0.00     0.004 C 
HETATM   10  C12 UNL     1     219.530   8.205  19.853  1.00  0.00     0.022 C 
HETATM   11  C13 UNL     1     220.342   7.234  19.079  1.00  0.00     0.009 C 
HETATM   12  C14 UNL     1     219.912   5.897  19.568  1.00  0.00     0.013 C 
HETATM   13  C15 UNL     1     218.867   6.165  20.687  1.00  0.00    -0.001 C 
HETATM   14  C16 UNL     1     219.659   6.772  21.766  1.00  0.00     0.156 C 
HETATM   15  C17 UNL     1     219.995   8.199  21.286  1.00  0.00     0.152 C 
HETATM   16  C18 UNL     1     218.054   5.004  20.848  1.00  0.00     0.037 C 
HETATM   17  C19 UNL     1     216.997   3.087  21.882  1.00  0.00     0.115 C 
HETATM   18  C20 UNL     1     215.866   2.791  22.815  1.00  0.00     0.218 C 
HETATM   19  O4  UNL     1     214.774   2.314  22.489  1.00  0.00    -0.274 OA
HETATM   20  N2  UNL     1     216.185   3.129  24.187  1.00  0.00    -0.353 N 
ATOM     21  H2  UNL     1     215.511   3.072  24.951  1.00  0.00     0.163 HD
ENDROOT
BRANCH   1  22
HETATM   22  C2  UNL     1     217.901   3.898  25.773  1.00  0.00     0.216 C 
HETATM   23  C3  UNL     1     216.923   3.464  26.808  1.00  0.00     0.067 C 
HETATM   24 CL1  UNL     1     218.102   5.677  25.953  1.00  0.00    -0.086 Cl
BRANCH  22  25
HETATM   25  N1  UNL     1     219.243   3.342  26.003  1.00  0.00    -0.055 N 
HETATM   26  C1  UNL     1     219.453   3.020  27.400  1.00  0.00     0.269 C 
ATOM     27  H12 UNL     1     219.970   3.965  25.650  1.00  0.00     0.279 HD
ATOM     28  H11 UNL     1     219.421   2.537  25.403  1.00  0.00     0.279 HD
ENDBRANCH  22  25
ENDBRANCH   1  22
BRANCH  14  29
HETATM   29  O2  UNL     1     220.928   6.169  21.930  1.00  0.00    -0.392 OA
ATOM     30  H2  UNL     1     221.647   6.779  21.822  1.00  0.00     0.210 HD
ENDBRANCH  14  29
BRANCH  15  31
HETATM   31  O3  UNL     1     221.312   8.526  21.418  1.00  0.00    -0.393 OA
ATOM     32  H3  UNL     1     221.443   9.368  21.838  1.00  0.00     0.210 HD
ENDBRANCH  15  31
TORSDOF 4
ENDMDL
MODEL 3
REMARK VINA RESULT: -7.771880536      3.573      6.149
REMARK  4 active torsions:
REMARK  status: ('A' for Active; 'I' for Inactive)
REMARK    1  A    between atoms: N1_2  and  C2_5 
REMARK    2  A    between atoms: C2_5  and  C4_8 
REMARK    3  A    between atoms: C16_21  and  O2_22 
REMARK    4  A    between atoms: C17_24  and  O3_25 
ROOT
HETATM    1  C4  UNL     1     219.606   7.856  19.884  1.00  0.00     0.136 C 
HETATM    2  C5  UNL     1     218.278   7.285  19.360  1.00  0.00     0.041 C 
HETATM    3  C6  UNL     1     217.798   6.119  20.052  1.00  0.00    -0.002 C 
HETATM    4  C7  UNL     1     216.884   6.404  21.259  1.00  0.00     0.178 C 
HETATM    5  O1  UNL     1     216.984   5.097  21.793  1.00  0.00    -0.385 OA
HETATM    6  C8  UNL     1     216.604   4.287  20.689  1.00  0.00     0.127 C 
HETATM    7  C9  UNL     1     215.173   4.065  20.890  1.00  0.00     0.033 C 
HETATM    8  C10 UNL     1     214.338   3.862  19.663  1.00  0.00     0.008 C 
HETATM    9  C11 UNL     1     214.584   5.084  18.856  1.00  0.00     0.004 C 
HETATM   10  C12 UNL     1     213.979   4.967  17.447  1.00  0.00     0.022 C 
HETATM   11  C13 UNL     1     214.709   3.787  16.923  1.00  0.00     0.009 C 
HETATM   12  C14 UNL     1     216.049   3.847  17.563  1.00  0.00     0.013 C 
HETATM   13  C15 UNL     1     216.057   5.142  18.422  1.00  0.00    -0.001 C 
HETATM   14  C16 UNL     1     216.017   6.223  17.426  1.00  0.00     0.156 C 
HETATM   15  C17 UNL     1     214.583   6.217  16.859  1.00  0.00     0.152 C 
HETATM   16  C18 UNL     1     217.058   5.022  19.432  1.00  0.00     0.037 C 
HETATM   17  C19 UNL     1     219.035   5.487  20.747  1.00  0.00     0.115 C 
HETATM   18  C20 UNL     1     219.479   6.430  21.821  1.00  0.00     0.218 C 
HETATM   19  O4  UNL     1     219.630   6.140  23.012  1.00  0.00    -0.274 OA
HETATM   20  N2  UNL     1     219.723   7.765  21.312  1.00  0.00    -0.353 N 
ATOM     21  H2  UNL     1     219.953   8.559  21.909  1.00  0.00     0.163 HD
ENDROOT
BRANCH   1  22
HETATM   22  C2  UNL     1     219.861   9.221  19.335  1.00  0.00     0.216 C 
HETATM   23  C3  UNL     1     220.507  10.180  20.271  1.00  0.00     0.067 C 
HETATM   24 CL1  UNL     1     218.323   9.977  18.787  1.00  0.00    -0.086 Cl
BRANCH  22  25
HETATM   25  N1  UNL     1     220.644   9.025  18.105  1.00  0.00    -0.055 N 
HETATM   26  C1  UNL     1     221.826   8.224  18.350  1.00  0.00     0.269 C 
ATOM     27  H12 UNL     1     220.881   9.915  17.668  1.00  0.00     0.279 HD
ATOM     28  H11 UNL     1     220.073   8.630  17.358  1.00  0.00     0.279 HD
ENDBRANCH  22  25
ENDBRANCH   1  22
BRANCH  14  29
HETATM   29  O2  UNL     1     216.824   5.963  16.294  1.00  0.00    -0.392 OA
ATOM     30  H2  UNL     1     216.464   5.291  15.727  1.00  0.00     0.210 HD
ENDBRANCH  14  29
BRANCH  15  31
HETATM   31  O3  UNL     1     214.531   6.240  15.497  1.00  0.00    -0.393 OA
ATOM     32  H3  UNL     1     215.285   6.666  15.106  1.00  0.00     0.210 HD
ENDBRANCH  15  31
TORSDOF 4
ENDMDL
MODEL 4
REMARK VINA RESULT: -7.749140746      4.068      6.408
REMARK  4 active torsions:
REMARK  status: ('A' for Active; 'I' for Inactive)
REMARK    1  A    between atoms: N1_2  and  C2_5 
REMARK    2  A    between atoms: C2_5  and  C4_8 
REMARK    3  A    between atoms: C16_21  and  O2_22 
REMARK    4  A    between atoms: C17_24  and  O3_25 
ROOT
HETATM    1  C4  UNL     1     221.728   7.677  19.510  1.00  0.00     0.136 C 
HETATM    2  C5  UNL     1     220.258   7.426  19.135  1.00  0.00     0.041 C 
HETATM    3  C6  UNL     1     219.628   6.336  19.830  1.00  0.00    -0.002 C 
HETATM    4  C7  UNL     1     218.941   6.713  21.156  1.00  0.00     0.178 C 
HETATM    5  O1  UNL     1     218.826   5.378  21.612  1.00  0.00    -0.385 OA
HETATM    6  C8  UNL     1     218.158   4.743  20.530  1.00  0.00     0.127 C 
HETATM    7  C9  UNL     1     216.746   4.803  20.904  1.00  0.00     0.033 C 
HETATM    8  C10 UNL     1     215.750   4.862  19.787  1.00  0.00     0.008 C 
HETATM    9  C11 UNL     1     216.150   6.063  19.012  1.00  0.00     0.004 C 
HETATM   10  C12 UNL     1     215.375   6.173  17.689  1.00  0.00     0.022 C 
HETATM   11  C13 UNL     1     215.773   4.910  17.021  1.00  0.00     0.009 C 
HETATM   12  C14 UNL     1     217.162   4.651  17.486  1.00  0.00     0.013 C 
HETATM   13  C15 UNL     1     217.542   5.852  18.395  1.00  0.00    -0.001 C 
HETATM   14  C16 UNL     1     217.615   6.987  17.463  1.00  0.00     0.156 C 
HETATM   15  C17 UNL     1     216.155   7.313  17.087  1.00  0.00     0.152 C 
HETATM   16  C18 UNL     1     218.606   5.459  19.260  1.00  0.00     0.037 C 
HETATM   17  C19 UNL     1     220.777   5.418  20.330  1.00  0.00     0.115 C 
HETATM   18  C20 UNL     1     221.531   6.172  21.380  1.00  0.00     0.218 C 
HETATM   19  O4  UNL     1     221.755   5.771  22.527  1.00  0.00    -0.274 OA
HETATM   20  N2  UNL     1     221.989   7.461  20.905  1.00  0.00    -0.353 N 
ATOM     21  H2  UNL     1     222.450   8.148  21.503  1.00  0.00     0.163 HD
ENDROOT
BRANCH   1  22
HETATM   22  C2  UNL     1     222.199   8.997  18.995  1.00  0.00     0.216 C 
HETATM   23  C3  UNL     1     221.976  10.157  19.902  1.00  0.00     0.067 C 
HETATM   24 CL1  UNL     1     221.393   9.389  17.435  1.00  0.00    -0.086 Cl
BRANCH  22  25
HETATM   25  N1  UNL     1     223.618   8.819  18.653  1.00  0.00    -0.055 N 
HETATM   26  C1  UNL     1     223.783   7.930  17.520  1.00  0.00     0.269 C 
ATOM     27  H12 UNL     1     224.159   8.502  19.457  1.00  0.00     0.279 HD
ATOM     28  H11 UNL     1     224.079   9.715  18.495  1.00  0.00     0.279 HD
ENDBRANCH  22  25
ENDBRANCH   1  22
BRANCH  14  29
HETATM   29  O2  UNL     1     218.211   6.651  16.225  1.00  0.00    -0.392 OA
ATOM     30  H2  UNL     1     219.160   6.678  16.250  1.00  0.00     0.210 HD
ENDBRANCH  14  29
BRANCH  15  31
HETATM   31  O3  UNL     1     215.951   7.443  15.745  1.00  0.00    -0.393 OA
ATOM     32  H3  UNL     1     216.279   8.265  15.399  1.00  0.00     0.210 HD
ENDBRANCH  15  31
TORSDOF 4
ENDMDL
MODEL 5
REMARK VINA RESULT: -7.709318045      3.037      4.586
REMARK  4 active torsions:
REMARK  status: ('A' for Active; 'I' for Inactive)
REMARK    1  A    between atoms: N1_2  and  C2_5 
REMARK    2  A    between atoms: C2_5  and  C4_8 
REMARK    3  A    between atoms: C16_21  and  O2_22 
REMARK    4  A    between atoms: C17_24  and  O3_25 
ROOT
HETATM    1  C4  UNL     1     220.550   7.031  22.255  1.00  0.00     0.136 C 
HETATM    2  C5  UNL     1     219.456   6.939  21.177  1.00  0.00     0.041 C 
HETATM    3  C6  UNL     1     218.564   5.819  21.305  1.00  0.00    -0.002 C 
HETATM    4  C7  UNL     1     217.311   6.074  22.165  1.00  0.00     0.178 C 
HETATM    5  O1  UNL     1     216.984   4.704  22.304  1.00  0.00    -0.385 OA
HETATM    6  C8  UNL     1     216.938   4.263  20.954  1.00  0.00     0.127 C 
HETATM    7  C9  UNL     1     215.526   4.379  20.593  1.00  0.00     0.033 C 
HETATM    8  C10 UNL     1     215.213   4.653  19.154  1.00  0.00     0.008 C 
HETATM    9  C11 UNL     1     215.946   5.911  18.861  1.00  0.00     0.004 C 
HETATM   10  C12 UNL     1     215.926   6.245  17.361  1.00  0.00     0.022 C 
HETATM   11  C13 UNL     1     216.601   5.052  16.795  1.00  0.00     0.009 C 
HETATM   12  C14 UNL     1     217.578   4.634  17.835  1.00  0.00     0.013 C 
HETATM   13  C15 UNL     1     217.460   5.678  18.980  1.00  0.00    -0.001 C 
HETATM   14  C16 UNL     1     217.986   6.914  18.382  1.00  0.00     0.156 C 
HETATM   15  C17 UNL     1     216.904   7.392  17.392  1.00  0.00     0.152 C 
HETATM   16  C18 UNL     1     217.957   5.100  20.187  1.00  0.00     0.037 C 
HETATM   17  C19 UNL     1     219.314   4.762  22.161  1.00  0.00     0.115 C 
HETATM   18  C20 UNL     1     219.451   5.318  23.544  1.00  0.00     0.218 C 
HETATM   19  O4  UNL     1     219.078   4.760  24.581  1.00  0.00    -0.274 OA
HETATM   20  N2  UNL     1     220.086   6.621  23.550  1.00  0.00    -0.353 N 
ATOM     21  H2  UNL     1     220.191   7.189  24.390  1.00  0.00     0.163 HD
ENDROOT
BRANCH   1  22
HETATM   22  C2  UNL     1     221.214   8.368  22.237  1.00  0.00     0.216 C 
HETATM   23  C3  UNL     1     220.820   9.267  21.118  1.00  0.00     0.067 C 
HETATM   24 CL1  UNL     1     223.002   8.182  22.156  1.00  0.00    -0.086 Cl
BRANCH  22  25
HETATM   25  N1  UNL     1     220.957   8.968  23.555  1.00  0.00    -0.055 N 
HETATM   26  C1  UNL     1     221.235  10.390  23.555  1.00  0.00     0.269 C 
ATOM     27  H12 UNL     1     221.474   8.487  24.291  1.00  0.00     0.279 HD
ATOM     28  H11 UNL     1     220.008   8.773  23.875  1.00  0.00     0.279 HD
ENDBRANCH  22  25
ENDBRANCH   1  22
BRANCH  14  29
HETATM   29  O2  UNL     1     219.116   6.695  17.560  1.00  0.00    -0.392 OA
ATOM     30  H2  UNL     1     219.251   5.778  17.349  1.00  0.00     0.210 HD
ENDBRANCH  14  29
BRANCH  15  31
HETATM   31  O3  UNL     1     217.390   7.707  16.158  1.00  0.00    -0.393 OA
ATOM     32  H3  UNL     1     217.222   7.032  15.511  1.00  0.00     0.210 HD
ENDBRANCH  15  31
TORSDOF 4
ENDMDL
