MODEL 1
REMARK VINA RESULT: -7.840263620      0.000      0.000
REMARK  7 active torsions:
REMARK  status: ('A' for Active; 'I' for Inactive)
REMARK    1  A    between atoms: N1_2  and  C2_5 
REMARK    2  A    between atoms: C2_5  and  C4_7 
REMARK       I    between atoms: C4_7  and  N2_9 
REMARK    3  A    between atoms: N2_9  and  C5_11 
REMARK    4  A    between atoms: C5_11  and  C6_12 
REMARK    5  A    between atoms: C5_11  and  C15_25 
REMARK       I    between atoms: C6_12  and  N3_14 
REMARK    6  A    between atoms: C9_17  and  C10_18 
REMARK    7  A    between atoms: C13_21  and  C14_22 
ROOT
HETATM    1  C5  UNL     1      -3.854   3.738  11.425  1.00  0.00     0.181 C 
ENDROOT
BRANCH   1   2
HETATM    2  N2  UNL     1      -2.770   4.361  12.227  1.00  0.00    -0.346 N 
HETATM    3  C4  UNL     1      -1.472   4.516  11.702  1.00  0.00     0.248 C 
HETATM    4  O1  UNL     1      -1.253   4.114  10.540  1.00  0.00    -0.271 OA
ATOM      5  H2  UNL     1      -2.969   4.683  13.174  1.00  0.00     0.163 HD
BRANCH   3   6
HETATM    6  C2  UNL     1      -0.369   5.134  12.472  1.00  0.00     0.272 C 
HETATM    7  C3  UNL     1      -0.687   6.604  12.602  1.00  0.00     0.050 C 
BRANCH   6   8
HETATM    8  N1  UNL     1       0.874   4.873  11.815  1.00  0.00    -0.067 N 
HETATM    9  C1  UNL     1       1.789   5.976  11.837  1.00  0.00     0.267 C 
ATOM     10  H12 UNL     1       0.713   4.559  10.858  1.00  0.00     0.277 HD
ATOM     11  H11 UNL     1       1.313   4.036  12.201  1.00  0.00     0.277 HD
ENDBRANCH   6   8
ENDBRANCH   3   6
ENDBRANCH   1   2
BRANCH   1  12
HETATM   12  C6  UNL     1      -4.590   2.795  12.296  1.00  0.00     0.243 C 
HETATM   13  O2  UNL     1      -5.175   1.856  11.658  1.00  0.00    -0.271 OA
HETATM   14  N3  UNL     1      -4.697   2.848  13.696  1.00  0.00    -0.337 N 
HETATM   15  C7  UNL     1      -4.134   3.832  14.566  1.00  0.00     0.127 C 
HETATM   16  C13 UNL     1      -5.407   1.924  14.599  1.00  0.00     0.180 C 
HETATM   17  C8  UNL     1      -5.144   3.998  15.652  1.00  0.00     0.027 C 
HETATM   18  C9  UNL     1      -6.157   2.853  15.490  1.00  0.00     0.022 C 
BRANCH  18  19
HETATM   19  C10 UNL     1      -6.547   2.418  16.836  1.00  0.00    -0.016 C 
HETATM   20  C11 UNL     1      -7.528   1.282  16.909  1.00  0.00     0.010 C 
HETATM   21  C12 UNL     1      -7.243   3.607  17.511  1.00  0.00     0.010 C 
ENDBRANCH  18  19
BRANCH  16  22
HETATM   22  C14 UNL     1      -4.537   0.944  15.199  1.00  0.00     0.254 C 
HETATM   23  N4  UNL     1      -4.609  -0.480  14.973  1.00  0.00    -0.060 NA
HETATM   24  O3  UNL     1      -3.609   1.247  15.993  1.00  0.00    -0.275 OA
ENDBRANCH  16  22
ENDBRANCH   1  12
BRANCH   1  25
HETATM   25  C15 UNL     1      -4.692   4.889  10.921  1.00  0.00     0.018 C 
HETATM   26  C16 UNL     1      -4.234   5.432   9.587  1.00  0.00     0.007 C 
HETATM   27  C17 UNL     1      -4.919   6.726   9.245  1.00  0.00     0.000 C 
HETATM   28  C18 UNL     1      -6.223   6.906   9.981  1.00  0.00     0.000 C 
HETATM   29  C19 UNL     1      -6.138   6.793  11.461  1.00  0.00     0.000 C 
HETATM   30  C20 UNL     1      -4.962   5.942  11.924  1.00  0.00     0.007 C 
ENDBRANCH   1  25
TORSDOF 7
ENDMDL
MODEL 2
REMARK VINA RESULT: -7.747443723      2.522      4.576
REMARK  7 active torsions:
REMARK  status: ('A' for Active; 'I' for Inactive)
REMARK    1  A    between atoms: N1_2  and  C2_5 
REMARK    2  A    between atoms: C2_5  and  C4_7 
REMARK       I    between atoms: C4_7  and  N2_9 
REMARK    3  A    between atoms: N2_9  and  C5_11 
REMARK    4  A    between atoms: C5_11  and  C6_12 
REMARK    5  A    between atoms: C5_11  and  C15_25 
REMARK       I    between atoms: C6_12  and  N3_14 
REMARK    6  A    between atoms: C9_17  and  C10_18 
REMARK    7  A    between atoms: C13_21  and  C14_22 
ROOT
HETATM    1  C5  UNL     1      -5.145   6.172  12.526  1.00  0.00     0.181 C 
ENDROOT
BRANCH   1   2
HETATM    2  N2  UNL     1      -5.534   6.152  11.093  1.00  0.00    -0.346 N 
HETATM    3  C4  UNL     1      -6.645   6.883  10.629  1.00  0.00     0.248 C 
HETATM    4  O1  UNL     1      -7.299   7.551  11.457  1.00  0.00    -0.271 OA
ATOM      5  H2  UNL     1      -4.987   5.598  10.433  1.00  0.00     0.163 HD
BRANCH   3   6
HETATM    6  C2  UNL     1      -7.060   6.887   9.208  1.00  0.00     0.272 C 
HETATM    7  C3  UNL     1      -5.801   6.839   8.377  1.00  0.00     0.050 C 
BRANCH   6   8
HETATM    8  N1  UNL     1      -7.871   8.037   8.953  1.00  0.00    -0.067 N 
HETATM    9  C1  UNL     1      -9.019   7.772   8.136  1.00  0.00     0.267 C 
ATOM     10  H12 UNL     1      -7.310   8.788   8.551  1.00  0.00     0.277 HD
ATOM     11  H11 UNL     1      -8.150   8.479   9.829  1.00  0.00     0.277 HD
ENDBRANCH   6   8
ENDBRANCH   3   6
ENDBRANCH   1   2
BRANCH   1  12
HETATM   12  C6  UNL     1      -5.061   4.773  13.002  1.00  0.00     0.243 C 
HETATM   13  O2  UNL     1      -4.764   3.935  12.085  1.00  0.00    -0.271 OA
HETATM   14  N3  UNL     1      -5.275   4.313  14.313  1.00  0.00    -0.337 N 
HETATM   15  C7  UNL     1      -5.637   5.097  15.451  1.00  0.00     0.127 C 
HETATM   16  C13 UNL     1      -5.189   2.934  14.829  1.00  0.00     0.180 C 
HETATM   17  C8  UNL     1      -6.544   4.216  16.243  1.00  0.00     0.027 C 
HETATM   18  C9  UNL     1      -6.438   2.810  15.631  1.00  0.00     0.022 C 
BRANCH  18  19
HETATM   19  C10 UNL     1      -6.503   1.845  16.734  1.00  0.00    -0.016 C 
HETATM   20  C11 UNL     1      -7.722   0.967  16.777  1.00  0.00     0.010 C 
HETATM   21  C12 UNL     1      -6.529   2.650  18.039  1.00  0.00     0.010 C 
ENDBRANCH  18  19
BRANCH  16  22
HETATM   22  C14 UNL     1      -3.927   2.651  15.466  1.00  0.00     0.254 C 
HETATM   23  N4  UNL     1      -3.627   1.457  16.219  1.00  0.00    -0.060 NA
HETATM   24  O3  UNL     1      -2.946   3.439  15.422  1.00  0.00    -0.275 OA
ENDBRANCH  16  22
ENDBRANCH   1  12
BRANCH   1  25
HETATM   25  C15 UNL     1      -3.832   6.916  12.575  1.00  0.00     0.018 C 
HETATM   26  C16 UNL     1      -3.057   6.859  11.279  1.00  0.00     0.007 C 
HETATM   27  C17 UNL     1      -1.656   7.380  11.442  1.00  0.00     0.000 C 
HETATM   28  C18 UNL     1      -1.510   8.296  12.631  1.00  0.00     0.000 C 
HETATM   29  C19 UNL     1      -1.958   7.726  13.930  1.00  0.00     0.000 C 
HETATM   30  C20 UNL     1      -3.006   6.632  13.768  1.00  0.00     0.007 C 
ENDBRANCH   1  25
TORSDOF 7
ENDMDL
MODEL 3
REMARK VINA RESULT: -7.675789810      2.535      4.638
REMARK  7 active torsions:
REMARK  status: ('A' for Active; 'I' for Inactive)
REMARK    1  A    between atoms: N1_2  and  C2_5 
REMARK    2  A    between atoms: C2_5  and  C4_7 
REMARK       I    between atoms: C4_7  and  N2_9 
REMARK    3  A    between atoms: N2_9  and  C5_11 
REMARK    4  A    between atoms: C5_11  and  C6_12 
REMARK    5  A    between atoms: C5_11  and  C15_25 
REMARK       I    between atoms: C6_12  and  N3_14 
REMARK    6  A    between atoms: C9_17  and  C10_18 
REMARK    7  A    between atoms: C13_21  and  C14_22 
ROOT
HETATM    1  C5  UNL     1      -5.011   6.144  12.447  1.00  0.00     0.181 C 
ENDROOT
BRANCH   1   2
HETATM    2  N2  UNL     1      -5.451   6.117  11.029  1.00  0.00    -0.346 N 
HETATM    3  C4  UNL     1      -6.616   6.794  10.615  1.00  0.00     0.248 C 
HETATM    4  O1  UNL     1      -7.272   7.418  11.474  1.00  0.00    -0.271 OA
ATOM      5  H2  UNL     1      -4.901   5.601  10.343  1.00  0.00     0.163 HD
BRANCH   3   6
HETATM    6  C2  UNL     1      -7.083   6.790   9.210  1.00  0.00     0.272 C 
HETATM    7  C3  UNL     1      -5.901   7.161   8.348  1.00  0.00     0.050 C 
BRANCH   6   8
HETATM    8  N1  UNL     1      -8.192   7.682   9.076  1.00  0.00    -0.067 N 
HETATM    9  C1  UNL     1      -8.385   8.178   7.745  1.00  0.00     0.267 C 
ATOM     10  H12 UNL     1      -8.112   8.454   9.738  1.00  0.00     0.277 HD
ATOM     11  H11 UNL     1      -9.047   7.244   9.422  1.00  0.00     0.277 HD
ENDBRANCH   6   8
ENDBRANCH   3   6
ENDBRANCH   1   2
BRANCH   1  12
HETATM   12  C6  UNL     1      -4.974   4.751  12.946  1.00  0.00     0.243 C 
HETATM   13  O2  UNL     1      -4.697   3.889  12.045  1.00  0.00    -0.271 OA
HETATM   14  N3  UNL     1      -5.213   4.320  14.262  1.00  0.00    -0.337 N 
HETATM   15  C7  UNL     1      -5.558   5.133  15.385  1.00  0.00     0.127 C 
HETATM   16  C13 UNL     1      -5.174   2.948  14.801  1.00  0.00     0.180 C 
HETATM   17  C8  UNL     1      -6.499   4.294  16.184  1.00  0.00     0.027 C 
HETATM   18  C9  UNL     1      -6.432   2.876  15.595  1.00  0.00     0.022 C 
BRANCH  18  19
HETATM   19  C10 UNL     1      -6.536   1.931  16.713  1.00  0.00    -0.016 C 
HETATM   20  C11 UNL     1      -7.774   1.079  16.749  1.00  0.00     0.010 C 
HETATM   21  C12 UNL     1      -6.568   2.759  18.003  1.00  0.00     0.010 C 
ENDBRANCH  18  19
BRANCH  16  22
HETATM   22  C14 UNL     1      -3.926   2.636  15.453  1.00  0.00     0.254 C 
HETATM   23  N4  UNL     1      -3.645   1.411  16.164  1.00  0.00    -0.060 NA
HETATM   24  O3  UNL     1      -2.943   3.421  15.461  1.00  0.00    -0.275 OA
ENDBRANCH  16  22
ENDBRANCH   1  12
BRANCH   1  25
HETATM   25  C15 UNL     1      -3.664   6.826  12.436  1.00  0.00     0.018 C 
HETATM   26  C16 UNL     1      -3.141   7.154  13.815  1.00  0.00     0.007 C 
HETATM   27  C17 UNL     1      -1.938   8.054  13.759  1.00  0.00     0.000 C 
HETATM   28  C18 UNL     1      -1.226   7.991  12.431  1.00  0.00     0.000 C 
HETATM   29  C19 UNL     1      -2.077   8.261  11.241  1.00  0.00     0.000 C 
HETATM   30  C20 UNL     1      -3.548   7.949  11.481  1.00  0.00     0.007 C 
ENDBRANCH   1  25
TORSDOF 7
ENDMDL
MODEL 4
REMARK VINA RESULT: -7.321685876      2.141      3.315
REMARK  7 active torsions:
REMARK  status: ('A' for Active; 'I' for Inactive)
REMARK    1  A    between atoms: N1_2  and  C2_5 
REMARK    2  A    between atoms: C2_5  and  C4_7 
REMARK       I    between atoms: C4_7  and  N2_9 
REMARK    3  A    between atoms: N2_9  and  C5_11 
REMARK    4  A    between atoms: C5_11  and  C6_12 
REMARK    5  A    between atoms: C5_11  and  C15_25 
REMARK       I    between atoms: C6_12  and  N3_14 
REMARK    6  A    between atoms: C9_17  and  C10_18 
REMARK    7  A    between atoms: C13_21  and  C14_22 
ROOT
HETATM    1  C5  UNL     1      -4.247   5.019  11.743  1.00  0.00     0.181 C 
ENDROOT
BRANCH   1   2
HETATM    2  N2  UNL     1      -3.396   4.661  10.581  1.00  0.00    -0.346 N 
HETATM    3  C4  UNL     1      -3.770   5.010   9.268  1.00  0.00     0.248 C 
HETATM    4  O1  UNL     1      -4.842   5.630   9.106  1.00  0.00    -0.271 OA
ATOM      5  H2  UNL     1      -2.524   4.153  10.735  1.00  0.00     0.163 HD
BRANCH   3   6
HETATM    6  C2  UNL     1      -2.946   4.671   8.086  1.00  0.00     0.272 C 
HETATM    7  C3  UNL     1      -1.572   5.251   8.322  1.00  0.00     0.050 C 
BRANCH   6   8
HETATM    8  N1  UNL     1      -3.582   5.165   6.905  1.00  0.00    -0.067 N 
HETATM    9  C1  UNL     1      -2.758   6.035   6.119  1.00  0.00     0.267 C 
ATOM     10  H12 UNL     1      -4.464   5.621   7.139  1.00  0.00     0.277 HD
ATOM     11  H11 UNL     1      -3.931   4.392   6.337  1.00  0.00     0.277 HD
ENDBRANCH   6   8
ENDBRANCH   3   6
ENDBRANCH   1   2
BRANCH   1  12
HETATM   12  C6  UNL     1      -4.446   3.802  12.563  1.00  0.00     0.243 C 
HETATM   13  O2  UNL     1      -4.215   2.715  11.934  1.00  0.00    -0.271 OA
HETATM   14  N3  UNL     1      -4.852   3.748  13.907  1.00  0.00    -0.337 N 
HETATM   15  C7  UNL     1      -5.174   4.852  14.754  1.00  0.00     0.127 C 
HETATM   16  C13 UNL     1      -5.048   2.561  14.761  1.00  0.00     0.180 C 
HETATM   17  C8  UNL     1      -6.286   4.355  15.616  1.00  0.00     0.027 C 
HETATM   18  C9  UNL     1      -6.367   2.835  15.397  1.00  0.00     0.022 C 
BRANCH  18  19
HETATM   19  C10 UNL     1      -6.695   2.222  16.689  1.00  0.00    -0.016 C 
HETATM   20  C11 UNL     1      -7.801   1.205  16.680  1.00  0.00     0.010 C 
HETATM   21  C12 UNL     1      -7.177   3.347  17.614  1.00  0.00     0.010 C 
ENDBRANCH  18  19
BRANCH  16  22
HETATM   22  C14 UNL     1      -3.915   2.285  15.609  1.00  0.00     0.254 C 
HETATM   23  N4  UNL     1      -3.692   1.049  16.319  1.00  0.00    -0.060 NA
HETATM   24  O3  UNL     1      -2.993   3.118  15.811  1.00  0.00    -0.275 OA
ENDBRANCH  16  22
ENDBRANCH   1  12
BRANCH   1  25
HETATM   25  C15 UNL     1      -3.506   6.124  12.457  1.00  0.00     0.018 C 
HETATM   26  C16 UNL     1      -3.579   7.456  11.747  1.00  0.00     0.007 C 
HETATM   27  C17 UNL     1      -2.627   8.458  12.340  1.00  0.00     0.000 C 
HETATM   28  C18 UNL     1      -2.238   8.124  13.758  1.00  0.00     0.000 C 
HETATM   29  C19 UNL     1      -1.677   6.761  13.958  1.00  0.00     0.000 C 
HETATM   30  C20 UNL     1      -2.142   5.767  12.901  1.00  0.00     0.007 C 
ENDBRANCH   1  25
TORSDOF 7
ENDMDL
MODEL 5
REMARK VINA RESULT: -7.286187924      2.606      4.620
REMARK  7 active torsions:
REMARK  status: ('A' for Active; 'I' for Inactive)
REMARK    1  A    between atoms: N1_2  and  C2_5 
REMARK    2  A    between atoms: C2_5  and  C4_7 
REMARK       I    between atoms: C4_7  and  N2_9 
REMARK    3  A    between atoms: N2_9  and  C5_11 
REMARK    4  A    between atoms: C5_11  and  C6_12 
REMARK    5  A    between atoms: C5_11  and  C15_25 
REMARK       I    between atoms: C6_12  and  N3_14 
REMARK    6  A    between atoms: C9_17  and  C10_18 
REMARK    7  A    between atoms: C13_21  and  C14_22 
ROOT
HETATM    1  C5  UNL     1      -4.900   6.022  11.860  1.00  0.00     0.181 C 
ENDROOT
BRANCH   1   2
HETATM    2  N2  UNL     1      -5.606   5.884  10.561  1.00  0.00    -0.346 N 
HETATM    3  C4  UNL     1      -6.569   6.828  10.151  1.00  0.00     0.248 C 
HETATM    4  O1  UNL     1      -6.815   7.787  10.911  1.00  0.00    -0.271 OA
ATOM      5  H2  UNL     1      -5.391   5.092   9.955  1.00  0.00     0.163 HD
BRANCH   3   6
HETATM    6  C2  UNL     1      -7.290   6.723   8.863  1.00  0.00     0.272 C 
HETATM    7  C3  UNL     1      -6.286   6.989   7.768  1.00  0.00     0.050 C 
BRANCH   6   8
HETATM    8  N1  UNL     1      -8.394   7.631   8.861  1.00  0.00    -0.067 N 
HETATM    9  C1  UNL     1      -8.461   8.466   7.698  1.00  0.00     0.267 C 
ATOM     10  H12 UNL     1      -8.392   8.198   9.709  1.00  0.00     0.277 HD
ATOM     11  H11 UNL     1      -9.272   7.128   8.991  1.00  0.00     0.277 HD
ENDBRANCH   6   8
ENDBRANCH   3   6
ENDBRANCH   1   2
BRANCH   1  12
HETATM   12  C6  UNL     1      -4.920   4.707  12.539  1.00  0.00     0.243 C 
HETATM   13  O2  UNL     1      -4.707   3.720  11.755  1.00  0.00    -0.271 OA
HETATM   14  N3  UNL     1      -5.146   4.466  13.905  1.00  0.00    -0.337 N 
HETATM   15  C7  UNL     1      -5.423   5.437  14.915  1.00  0.00     0.127 C 
HETATM   16  C13 UNL     1      -5.162   3.177  14.621  1.00  0.00     0.180 C 
HETATM   17  C8  UNL     1      -6.384   4.761  15.835  1.00  0.00     0.027 C 
HETATM   18  C9  UNL     1      -6.402   3.276  15.440  1.00  0.00     0.022 C 
BRANCH  18  19
HETATM   19  C10 UNL     1      -6.525   2.493  16.675  1.00  0.00    -0.016 C 
HETATM   20  C11 UNL     1      -7.412   1.282  16.608  1.00  0.00     0.010 C 
HETATM   21  C12 UNL     1      -7.158   3.410  17.729  1.00  0.00     0.010 C 
ENDBRANCH  18  19
BRANCH  16  22
HETATM   22  C14 UNL     1      -3.916   2.888  15.285  1.00  0.00     0.254 C 
HETATM   23  N4  UNL     1      -3.653   1.715  16.083  1.00  0.00    -0.060 NA
HETATM   24  O3  UNL     1      -2.917   3.652  15.228  1.00  0.00    -0.275 OA
ENDBRANCH  16  22
ENDBRANCH   1  12
BRANCH   1  25
HETATM   25  C15 UNL     1      -3.514   6.511  11.513  1.00  0.00     0.018 C 
HETATM   26  C16 UNL     1      -3.192   7.872  12.087  1.00  0.00     0.007 C 
HETATM   27  C17 UNL     1      -1.922   8.435  11.513  1.00  0.00     0.000 C 
HETATM   28  C18 UNL     1      -1.015   7.369  10.951  1.00  0.00     0.000 C 
HETATM   29  C19 UNL     1      -1.637   6.476   9.938  1.00  0.00     0.000 C 
HETATM   30  C20 UNL     1      -3.149   6.373  10.087  1.00  0.00     0.007 C 
ENDBRANCH   1  25
TORSDOF 7
ENDMDL
