MODEL 1
REMARK VINA RESULT: -7.025813116      0.000      0.000
REMARK  9 active torsions:
REMARK  status: ('A' for Active; 'I' for Inactive)
REMARK    1  A    between atoms: C2_2  and  C3_3 
REMARK    2  A    between atoms: C3_3  and  N1_4 
REMARK    3  A    between atoms: N1_4  and  C4_6 
REMARK    4  A    between atoms: C5_9  and  N3_10 
REMARK    5  A    between atoms: N3_10  and  C6_12 
REMARK    6  A    between atoms: C6_12  and  C7_13 
REMARK    7  A    between atoms: C7_13  and  C8_14 
REMARK    8  A    between atoms: C8_14  and  N4_15 
REMARK    9  A    between atoms: N6_24  and  C14_26 
ROOT
HETATM    1  C4  UNL     1      -2.314   6.504  11.905  1.00  0.00     0.707 A 
HETATM    2  N2  UNL     1      -2.457   5.148  12.069  1.00  0.00    -0.022 N 
ATOM      3  H2  UNL     1      -1.739   4.612  12.558  1.00  0.00     0.203 HD
HETATM    4  C5  UNL     1      -3.540   4.534  11.586  1.00  0.00     0.707 A 
HETATM    5  N5  UNL     1      -4.480   5.288  10.937  1.00  0.00    -0.022 N 
ATOM      6  H5  UNL     1      -5.304   4.810  10.572  1.00  0.00     0.203 HD
HETATM    7  C13 UNL     1      -4.391   6.603  10.751  1.00  0.00     0.707 A 
HETATM    8  N6  UNL     1      -5.261   7.312  10.119  1.00  0.00    -0.220 N 
ATOM      9  H6  UNL     1      -5.068   8.311  10.053  1.00  0.00     0.178 HD
HETATM   10  N7  UNL     1      -3.267   7.193  11.261  1.00  0.00    -0.021 N 
ATOM     11  H7  UNL     1      -3.149   8.200  11.147  1.00  0.00     0.203 HD
ENDROOT
BRANCH   4  12
HETATM   12  N3  UNL     1      -3.763   3.296  11.647  1.00  0.00    -0.225 N 
ATOM     13  H3  UNL     1      -3.318   2.732  10.923  1.00  0.00     0.177 HD
BRANCH  12  14
HETATM   14  C6  UNL     1      -4.566   2.560  12.605  1.00  0.00     0.140 C 
BRANCH  14  15
HETATM   15  C7  UNL     1      -4.821   3.336  13.839  1.00  0.00     0.050 C 
BRANCH  15  16
HETATM   16  C8  UNL     1      -5.980   2.946  14.645  1.00  0.00     0.274 C 
BRANCH  16  17
HETATM   17  N4  UNL     1      -5.759   2.605  16.003  1.00  0.00     0.092 N 
HETATM   18  C9  UNL     1      -4.547   1.746  16.090  1.00  0.00     0.298 C 
HETATM   19  C10 UNL     1      -4.828   0.330  15.717  1.00  0.00     0.198 C 
HETATM   20  O1  UNL     1      -5.674  -0.275  16.649  1.00  0.00    -0.388 OA
HETATM   21  C11 UNL     1      -6.267   0.672  17.460  1.00  0.00     0.198 C 
HETATM   22  C12 UNL     1      -6.805   1.851  16.639  1.00  0.00     0.298 C 
ENDBRANCH  16  17
ENDBRANCH  15  16
ENDBRANCH  14  15
ENDBRANCH  12  14
ENDBRANCH   4  12
BRANCH   1  23
HETATM   23  N1  UNL     1      -1.246   7.012  12.391  1.00  0.00    -0.222 N 
ATOM     24  H1  UNL     1      -0.381   6.541  12.124  1.00  0.00     0.178 HD
BRANCH  23  25
HETATM   25  C3  UNL     1      -1.086   8.132  13.243  1.00  0.00     0.164 C 
BRANCH  25  26
HETATM   26  C2  UNL     1      -1.918   7.880  14.475  1.00  0.00    -0.017 C 
HETATM   27  C1  UNL     1      -1.865   8.704  15.514  1.00  0.00     0.008 C 
ENDBRANCH  25  26
ENDBRANCH  23  25
ENDBRANCH   1  23
BRANCH   8  28
HETATM   28  C14 UNL     1      -6.447   6.866   9.510  1.00  0.00     0.103 C 
HETATM   29  C15 UNL     1      -7.693   7.699   9.837  1.00  0.00     0.030 C 
HETATM   30  C16 UNL     1      -8.541   7.720   8.599  1.00  0.00    -0.012 C 
HETATM   31  C17 UNL     1      -8.049   8.856   7.728  1.00  0.00     0.005 C 
HETATM   32  C20 UNL     1      -7.929   6.558   7.795  1.00  0.00     0.011 C 
HETATM   33  C18 UNL     1      -6.570   8.460   7.619  1.00  0.00     0.007 C 
HETATM   34  C19 UNL     1      -6.468   7.018   7.992  1.00  0.00     0.009 C 
ENDBRANCH   8  28
TORSDOF 9
ENDMDL
MODEL 2
REMARK VINA RESULT: -7.018413254      2.085      2.785
REMARK  9 active torsions:
REMARK  status: ('A' for Active; 'I' for Inactive)
REMARK    1  A    between atoms: C2_2  and  C3_3 
REMARK    2  A    between atoms: C3_3  and  N1_4 
REMARK    3  A    between atoms: N1_4  and  C4_6 
REMARK    4  A    between atoms: C5_9  and  N3_10 
REMARK    5  A    between atoms: N3_10  and  C6_12 
REMARK    6  A    between atoms: C6_12  and  C7_13 
REMARK    7  A    between atoms: C7_13  and  C8_14 
REMARK    8  A    between atoms: C8_14  and  N4_15 
REMARK    9  A    between atoms: N6_24  and  C14_26 
ROOT
HETATM    1  C4  UNL     1      -1.209   4.300  11.863  1.00  0.00     0.707 A 
HETATM    2  N2  UNL     1      -1.747   4.188  13.122  1.00  0.00    -0.022 N 
ATOM      3  H2  UNL     1      -1.183   3.822  13.890  1.00  0.00     0.203 HD
HETATM    4  C5  UNL     1      -3.011   4.560  13.336  1.00  0.00     0.707 A 
HETATM    5  N5  UNL     1      -3.735   5.044  12.281  1.00  0.00    -0.022 N 
ATOM      6  H5  UNL     1      -4.700   5.326  12.454  1.00  0.00     0.203 HD
HETATM    7  C13 UNL     1      -3.263   5.173  11.042  1.00  0.00     0.707 A 
HETATM    8  N6  UNL     1      -3.948   5.606  10.041  1.00  0.00    -0.220 N 
ATOM      9  H6  UNL     1      -3.459   5.655   9.147  1.00  0.00     0.178 HD
HETATM   10  N7  UNL     1      -1.964   4.782  10.866  1.00  0.00    -0.021 N 
ATOM     11  H7  UNL     1      -1.552   4.860   9.936  1.00  0.00     0.203 HD
ENDROOT
BRANCH   4  12
HETATM   12  N3  UNL     1      -3.620   4.473  14.436  1.00  0.00    -0.225 N 
ATOM     13  H3  UNL     1      -3.305   3.725  15.054  1.00  0.00     0.177 HD
BRANCH  12  14
HETATM   14  C6  UNL     1      -4.706   5.288  14.945  1.00  0.00     0.140 C 
BRANCH  14  15
HETATM   15  C7  UNL     1      -6.017   4.608  14.838  1.00  0.00     0.050 C 
BRANCH  15  16
HETATM   16  C8  UNL     1      -6.031   3.154  15.011  1.00  0.00     0.274 C 
BRANCH  16  17
HETATM   17  N4  UNL     1      -5.851   2.641  16.320  1.00  0.00     0.092 N 
HETATM   18  C9  UNL     1      -4.605   1.828  16.349  1.00  0.00     0.298 C 
HETATM   19  C10 UNL     1      -4.803   0.466  15.776  1.00  0.00     0.198 C 
HETATM   20  O1  UNL     1      -5.657  -0.295  16.577  1.00  0.00    -0.388 OA
HETATM   21  C11 UNL     1      -6.327   0.508  17.478  1.00  0.00     0.198 C 
HETATM   22  C12 UNL     1      -6.885   1.764  16.798  1.00  0.00     0.298 C 
ENDBRANCH  16  17
ENDBRANCH  15  16
ENDBRANCH  14  15
ENDBRANCH  12  14
ENDBRANCH   4  12
BRANCH   1  23
HETATM   23  N1  UNL     1       0.005   3.916  11.742  1.00  0.00    -0.222 N 
ATOM     24  H1  UNL     1       0.409   3.487  12.575  1.00  0.00     0.178 HD
BRANCH  23  25
HETATM   25  C3  UNL     1       0.870   3.998  10.624  1.00  0.00     0.164 C 
BRANCH  25  26
HETATM   26  C2  UNL     1       2.231   4.392  11.139  1.00  0.00    -0.017 C 
HETATM   27  C1  UNL     1       2.395   5.500  11.852  1.00  0.00     0.008 C 
ENDBRANCH  25  26
ENDBRANCH  23  25
ENDBRANCH   1  23
BRANCH   8  28
HETATM   28  C14 UNL     1      -5.292   6.017  10.038  1.00  0.00     0.103 C 
HETATM   29  C15 UNL     1      -5.717   6.842  11.258  1.00  0.00     0.030 C 
HETATM   30  C16 UNL     1      -6.707   7.860  10.774  1.00  0.00    -0.012 C 
HETATM   31  C17 UNL     1      -5.924   9.057  10.278  1.00  0.00     0.005 C 
HETATM   32  C20 UNL     1      -7.092   7.277   9.403  1.00  0.00     0.011 C 
HETATM   33  C18 UNL     1      -5.013   8.351   9.263  1.00  0.00     0.007 C 
HETATM   34  C19 UNL     1      -5.636   7.032   8.951  1.00  0.00     0.009 C 
ENDBRANCH   8  28
TORSDOF 9
ENDMDL
MODEL 3
REMARK VINA RESULT: -7.000990771      1.350      1.392
REMARK  9 active torsions:
REMARK  status: ('A' for Active; 'I' for Inactive)
REMARK    1  A    between atoms: C2_2  and  C3_3 
REMARK    2  A    between atoms: C3_3  and  N1_4 
REMARK    3  A    between atoms: N1_4  and  C4_6 
REMARK    4  A    between atoms: C5_9  and  N3_10 
REMARK    5  A    between atoms: N3_10  and  C6_12 
REMARK    6  A    between atoms: C6_12  and  C7_13 
REMARK    7  A    between atoms: C7_13  and  C8_14 
REMARK    8  A    between atoms: C8_14  and  N4_15 
REMARK    9  A    between atoms: N6_24  and  C14_26 
ROOT
HETATM    1  C4  UNL     1      -2.679   7.855  12.105  1.00  0.00     0.707 A 
HETATM    2  N2  UNL     1      -3.141   6.963  13.041  1.00  0.00    -0.022 N 
ATOM      3  H2  UNL     1      -2.609   6.794  13.896  1.00  0.00     0.203 HD
HETATM    4  C5  UNL     1      -4.290   6.317  12.828  1.00  0.00     0.707 A 
HETATM    5  N5  UNL     1      -4.973   6.570  11.670  1.00  0.00    -0.022 N 
ATOM      6  H5  UNL     1      -5.850   6.071  11.516  1.00  0.00     0.203 HD
HETATM    7  C13 UNL     1      -4.571   7.423  10.731  1.00  0.00     0.707 A 
HETATM    8  N6  UNL     1      -5.198   7.645   9.628  1.00  0.00    -0.220 N 
ATOM      9  H6  UNL     1      -4.776   8.328   8.998  1.00  0.00     0.178 HD
HETATM   10  N7  UNL     1      -3.390   8.064  10.988  1.00  0.00    -0.021 N 
ATOM     11  H7  UNL     1      -3.035   8.729  10.301  1.00  0.00     0.203 HD
ENDROOT
BRANCH   4  12
HETATM   12  N3  UNL     1      -4.795   5.455  13.596  1.00  0.00    -0.225 N 
ATOM     13  H3  UNL     1      -4.146   4.758  13.962  1.00  0.00     0.177 HD
BRANCH  12  14
HETATM   14  C6  UNL     1      -6.170   5.317  14.033  1.00  0.00     0.140 C 
BRANCH  14  15
HETATM   15  C7  UNL     1      -6.277   4.672  15.361  1.00  0.00     0.050 C 
BRANCH  15  16
HETATM   16  C8  UNL     1      -6.304   3.209  15.393  1.00  0.00     0.274 C 
BRANCH  16  17
HETATM   17  N4  UNL     1      -5.913   2.564  16.594  1.00  0.00     0.092 N 
HETATM   18  C9  UNL     1      -4.623   1.861  16.363  1.00  0.00     0.298 C 
HETATM   19  C10 UNL     1      -4.804   0.562  15.654  1.00  0.00     0.198 C 
HETATM   20  O1  UNL     1      -5.489  -0.355  16.454  1.00  0.00    -0.388 OA
HETATM   21  C11 UNL     1      -6.083   0.280  17.527  1.00  0.00     0.198 C 
HETATM   22  C12 UNL     1      -6.812   1.555  17.086  1.00  0.00     0.298 C 
ENDBRANCH  16  17
ENDBRANCH  15  16
ENDBRANCH  14  15
ENDBRANCH  12  14
ENDBRANCH   4  12
BRANCH   1  23
HETATM   23  N1  UNL     1      -1.568   8.425  12.383  1.00  0.00    -0.222 N 
ATOM     24  H1  UNL     1      -0.741   7.985  11.979  1.00  0.00     0.178 HD
BRANCH  23  25
HETATM   25  C3  UNL     1      -1.318   9.577  13.169  1.00  0.00     0.164 C 
BRANCH  25  26
HETATM   26  C2  UNL     1      -0.720   9.108  14.471  1.00  0.00    -0.017 C 
HETATM   27  C1  UNL     1      -1.489   8.862  15.525  1.00  0.00     0.008 C 
ENDBRANCH  25  26
ENDBRANCH  23  25
ENDBRANCH   1  23
BRANCH   8  28
HETATM   28  C14 UNL     1      -6.397   7.055   9.193  1.00  0.00     0.103 C 
HETATM   29  C15 UNL     1      -7.670   7.816   9.583  1.00  0.00     0.030 C 
HETATM   30  C16 UNL     1      -8.639   7.657   8.450  1.00  0.00    -0.012 C 
HETATM   31  C17 UNL     1      -8.341   8.742   7.437  1.00  0.00     0.005 C 
HETATM   32  C20 UNL     1      -8.016   6.477   7.683  1.00  0.00     0.011 C 
HETATM   33  C18 UNL     1      -6.851   8.452   7.200  1.00  0.00     0.007 C 
HETATM   34  C19 UNL     1      -6.588   7.064   7.679  1.00  0.00     0.009 C 
ENDBRANCH   8  28
TORSDOF 9
ENDMDL
MODEL 4
REMARK VINA RESULT: -6.982242351      2.104      2.604
REMARK  9 active torsions:
REMARK  status: ('A' for Active; 'I' for Inactive)
REMARK    1  A    between atoms: C2_2  and  C3_3 
REMARK    2  A    between atoms: C3_3  and  N1_4 
REMARK    3  A    between atoms: N1_4  and  C4_6 
REMARK    4  A    between atoms: C5_9  and  N3_10 
REMARK    5  A    between atoms: N3_10  and  C6_12 
REMARK    6  A    between atoms: C6_12  and  C7_13 
REMARK    7  A    between atoms: C7_13  and  C8_14 
REMARK    8  A    between atoms: C8_14  and  N4_15 
REMARK    9  A    between atoms: N6_24  and  C14_26 
ROOT
HETATM    1  C4  UNL     1      -0.529   5.041  12.003  1.00  0.00     0.707 A 
HETATM    2  N2  UNL     1      -1.139   3.889  12.437  1.00  0.00    -0.022 N 
ATOM      3  H2  UNL     1      -0.597   3.172  12.920  1.00  0.00     0.203 HD
HETATM    4  C5  UNL     1      -2.446   3.713  12.224  1.00  0.00     0.707 A 
HETATM    5  N5  UNL     1      -3.138   4.697  11.573  1.00  0.00    -0.022 N 
ATOM      6  H5  UNL     1      -4.135   4.553  11.415  1.00  0.00     0.203 HD
HETATM    7  C13 UNL     1      -2.596   5.830  11.132  1.00  0.00     0.707 A 
HETATM    8  N6  UNL     1      -3.239   6.748  10.497  1.00  0.00    -0.220 N 
ATOM      9  H6  UNL     1      -2.698   7.568  10.219  1.00  0.00     0.178 HD
HETATM   10  N7  UNL     1      -1.256   5.972  11.371  1.00  0.00    -0.021 N 
ATOM     11  H7  UNL     1      -0.791   6.823  11.054  1.00  0.00     0.203 HD
ENDROOT
BRANCH   4  12
HETATM   12  N3  UNL     1      -3.104   2.688  12.546  1.00  0.00    -0.225 N 
ATOM     13  H3  UNL     1      -2.567   1.823  12.614  1.00  0.00     0.177 HD
BRANCH  12  14
HETATM   14  C6  UNL     1      -4.520   2.566  12.834  1.00  0.00     0.140 C 
BRANCH  14  15
HETATM   15  C7  UNL     1      -4.937   3.413  13.974  1.00  0.00     0.050 C 
BRANCH  15  16
HETATM   16  C8  UNL     1      -6.091   2.961  14.755  1.00  0.00     0.274 C 
BRANCH  16  17
HETATM   17  N4  UNL     1      -5.874   2.594  16.107  1.00  0.00     0.092 N 
HETATM   18  C9  UNL     1      -4.623   1.795  16.193  1.00  0.00     0.298 C 
HETATM   19  C10 UNL     1      -4.826   0.377  15.778  1.00  0.00     0.198 C 
HETATM   20  O1  UNL     1      -5.657  -0.294  16.679  1.00  0.00    -0.388 OA
HETATM   21  C11 UNL     1      -6.309   0.600  17.503  1.00  0.00     0.198 C 
HETATM   22  C12 UNL     1      -6.891   1.772  16.704  1.00  0.00     0.298 C 
ENDBRANCH  16  17
ENDBRANCH  15  16
ENDBRANCH  14  15
ENDBRANCH  12  14
ENDBRANCH   4  12
BRANCH   1  23
HETATM   23  N1  UNL     1       0.724   5.128  12.240  1.00  0.00    -0.222 N 
ATOM     24  H1  UNL     1       1.034   4.684  13.105  1.00  0.00     0.178 HD
BRANCH  23  25
HETATM   25  C3  UNL     1       1.746   5.748  11.480  1.00  0.00     0.164 C 
BRANCH  25  26
HETATM   26  C2  UNL     1       3.022   4.989  11.741  1.00  0.00    -0.017 C 
HETATM   27  C1  UNL     1       3.867   5.380  12.686  1.00  0.00     0.008 C 
ENDBRANCH  25  26
ENDBRANCH  23  25
ENDBRANCH   1  23
BRANCH   8  28
HETATM   28  C14 UNL     1      -4.599   6.751  10.143  1.00  0.00     0.103 C 
HETATM   29  C15 UNL     1      -5.548   7.270  11.229  1.00  0.00     0.030 C 
HETATM   30  C16 UNL     1      -6.651   8.008  10.529  1.00  0.00    -0.012 C 
HETATM   31  C17 UNL     1      -6.180   9.429  10.307  1.00  0.00     0.005 C 
HETATM   32  C20 UNL     1      -6.483   7.502   9.086  1.00  0.00     0.011 C 
HETATM   33  C18 UNL     1      -4.873   9.140   9.554  1.00  0.00     0.007 C 
HETATM   34  C19 UNL     1      -4.959   7.742   9.039  1.00  0.00     0.009 C 
ENDBRANCH   8  28
TORSDOF 9
ENDMDL
MODEL 5
REMARK VINA RESULT: -6.964752597      3.773      6.750
REMARK  9 active torsions:
REMARK  status: ('A' for Active; 'I' for Inactive)
REMARK    1  A    between atoms: C2_2  and  C3_3 
REMARK    2  A    between atoms: C3_3  and  N1_4 
REMARK    3  A    between atoms: N1_4  and  C4_6 
REMARK    4  A    between atoms: C5_9  and  N3_10 
REMARK    5  A    between atoms: N3_10  and  C6_12 
REMARK    6  A    between atoms: C6_12  and  C7_13 
REMARK    7  A    between atoms: C7_13  and  C8_14 
REMARK    8  A    between atoms: C8_14  and  N4_15 
REMARK    9  A    between atoms: N6_24  and  C14_26 
ROOT
HETATM    1  C4  UNL     1      -4.931   3.601  14.861  1.00  0.00     0.707 A 
HETATM    2  N2  UNL     1      -3.559   3.591  14.783  1.00  0.00    -0.022 N 
ATOM      3  H2  UNL     1      -3.014   2.990  15.402  1.00  0.00     0.203 HD
HETATM    4  C5  UNL     1      -2.943   4.372  13.892  1.00  0.00     0.707 A 
HETATM    5  N5  UNL     1      -3.708   5.164  13.081  1.00  0.00    -0.022 N 
ATOM      6  H5  UNL     1      -3.228   5.757  12.404  1.00  0.00     0.203 HD
HETATM    7  C13 UNL     1      -5.038   5.212  13.115  1.00  0.00     0.707 A 
HETATM    8  N6  UNL     1      -5.761   5.974  12.370  1.00  0.00    -0.220 N 
ATOM      9  H6  UNL     1      -6.771   5.907  12.501  1.00  0.00     0.178 HD
HETATM   10  N7  UNL     1      -5.631   4.397  14.041  1.00  0.00    -0.021 N 
ATOM     11  H7  UNL     1      -6.649   4.394  14.109  1.00  0.00     0.203 HD
ENDROOT
BRANCH   4  12
HETATM   12  N3  UNL     1      -1.694   4.471  13.752  1.00  0.00    -0.225 N 
ATOM     13  H3  UNL     1      -1.135   4.095  14.517  1.00  0.00     0.177 HD
BRANCH  12  14
HETATM   14  C6  UNL     1      -0.943   5.046  12.653  1.00  0.00     0.140 C 
BRANCH  14  15
HETATM   15  C7  UNL     1      -0.801   4.108  11.517  1.00  0.00     0.050 C 
BRANCH  15  16
HETATM   16  C8  UNL     1       0.558   3.719  11.137  1.00  0.00     0.274 C 
BRANCH  16  17
HETATM   17  N4  UNL     1       1.391   4.706  10.552  1.00  0.00     0.092 N 
HETATM   18  C9  UNL     1       1.563   4.394   9.108  1.00  0.00     0.298 C 
HETATM   19  C10 UNL     1       2.571   3.319   8.876  1.00  0.00     0.198 C 
HETATM   20  O1  UNL     1       3.852   3.749   9.229  1.00  0.00    -0.388 OA
HETATM   21  C11 UNL     1       3.789   4.904   9.984  1.00  0.00     0.198 C 
HETATM   22  C12 UNL     1       2.725   4.796  11.082  1.00  0.00     0.298 C 
ENDBRANCH  16  17
ENDBRANCH  15  16
ENDBRANCH  14  15
ENDBRANCH  12  14
ENDBRANCH   4  12
BRANCH   1  23
HETATM   23  N1  UNL     1      -5.441   2.830  15.744  1.00  0.00    -0.222 N 
ATOM     24  H1  UNL     1      -6.389   3.070  16.035  1.00  0.00     0.178 HD
BRANCH  23  25
HETATM   25  C3  UNL     1      -4.885   1.692  16.379  1.00  0.00     0.164 C 
BRANCH  25  26
HETATM   26  C2  UNL     1      -5.877   1.227  17.414  1.00  0.00    -0.017 C 
HETATM   27  C1  UNL     1      -7.164   1.104  17.117  1.00  0.00     0.008 C 
ENDBRANCH  25  26
ENDBRANCH  23  25
ENDBRANCH   1  23
BRANCH   8  28
HETATM   28  C14 UNL     1      -5.319   6.888  11.398  1.00  0.00     0.103 C 
HETATM   29  C15 UNL     1      -5.106   6.292  10.002  1.00  0.00     0.030 C 
HETATM   30  C16 UNL     1      -5.504   7.346   9.012  1.00  0.00    -0.012 C 
HETATM   31  C17 UNL     1      -6.999   7.230   8.797  1.00  0.00     0.005 C 
HETATM   32  C20 UNL     1      -5.516   8.604   9.899  1.00  0.00     0.011 C 
HETATM   33  C18 UNL     1      -7.466   7.353  10.255  1.00  0.00     0.007 C 
HETATM   34  C19 UNL     1      -6.343   7.958  11.031  1.00  0.00     0.009 C 
ENDBRANCH   8  28
TORSDOF 9
ENDMDL
