MODEL 1
REMARK VINA RESULT: -6.461209528      0.000      0.000
REMARK  7 active torsions:
REMARK  status: ('A' for Active; 'I' for Inactive)
REMARK    1  A    between atoms: C2_2  and  C3_3 
REMARK    2  A    between atoms: C3_3  and  C5_5 
REMARK    3  A    between atoms: C5_5  and  N1_6 
REMARK    4  A    between atoms: C5_5  and  C13_21 
REMARK       I    between atoms: N1_6  and  C6_8 
REMARK    5  A    between atoms: C6_8  and  C7_10 
REMARK    6  A    between atoms: C7_10  and  N2_11 
REMARK       I    between atoms: C13_21  and  N4_23 
REMARK    7  A    between atoms: N5_26  and  C16_27 
ROOT
HETATM    1  C5  UNL     1      -2.140   4.608  11.885  1.00  0.00     0.180 C 
ENDROOT
BRANCH   1   2
HETATM    2  C3  UNL     1      -2.063   6.023  12.425  1.00  0.00     0.013 C 
HETATM    3  C4  UNL     1      -3.021   6.983  11.797  1.00  0.00     0.012 C 
BRANCH   2   4
HETATM    4  C2  UNL     1      -1.921   6.155  13.906  1.00  0.00     0.002 C 
HETATM    5  C1  UNL     1      -2.906   7.057  14.571  1.00  0.00     0.005 C 
ENDBRANCH   2   4
ENDBRANCH   1   2
BRANCH   1   6
HETATM    6  N1  UNL     1      -2.697   3.785  12.991  1.00  0.00    -0.345 N 
HETATM    7  C6  UNL     1      -4.061   3.489  13.084  1.00  0.00     0.255 C 
HETATM    8  O1  UNL     1      -4.823   3.967  12.185  1.00  0.00    -0.271 OA
ATOM      9  H1  UNL     1      -2.064   3.424  13.704  1.00  0.00     0.163 HD
BRANCH   7  10
HETATM   10  C7  UNL     1      -4.685   2.678  14.127  1.00  0.00     0.207 C 
HETATM   11  C9  UNL     1      -6.121   2.912  14.388  1.00  0.00     0.068 C 
HETATM   12  C10 UNL     1      -6.440   2.379  15.771  1.00  0.00     0.116 C 
HETATM   13  N3  UNL     1      -5.513   1.430  16.266  1.00  0.00    -0.421 N 
HETATM   14  C11 UNL     1      -4.155   1.851  16.341  1.00  0.00     0.116 C 
ATOM     15  H3  UNL     1      -5.803   0.495  16.552  1.00  0.00     0.153 HD
HETATM   16  C12 UNL     1      -3.935   3.047  15.432  1.00  0.00     0.068 C 
BRANCH  10  17
HETATM   17  N2  UNL     1      -4.428   1.272  13.866  1.00  0.00    -0.061 N 
HETATM   18  C8  UNL     1      -4.534   1.034  12.437  1.00  0.00     0.268 C 
ATOM     19  H22 UNL     1      -3.535   0.962  14.247  1.00  0.00     0.278 HD
ATOM     20  H21 UNL     1      -5.034   0.658  14.409  1.00  0.00     0.278 HD
ENDBRANCH  10  17
ENDBRANCH   7  10
ENDBRANCH   1   6
BRANCH   1  21
HETATM   21  C13 UNL     1      -0.891   4.045  11.410  1.00  0.00     0.243 C 
HETATM   22  O2  UNL     1      -0.484   2.948  11.974  1.00  0.00    -0.271 OA
HETATM   23  N4  UNL     1      -0.030   4.534  10.392  1.00  0.00    -0.347 N 
HETATM   24  C14 UNL     1       1.212   3.814  10.129  1.00  0.00     0.156 C 
HETATM   25  C20 UNL     1      -0.370   5.686   9.634  1.00  0.00     0.156 C 
HETATM   26  C15 UNL     1       2.006   4.419   9.024  1.00  0.00     0.292 C 
HETATM   27  N5  UNL     1       1.229   4.877   7.915  1.00  0.00     0.095 N 
HETATM   28  C19 UNL     1       0.131   5.703   8.233  1.00  0.00     0.292 C 
BRANCH  27  29
HETATM   29  C16 UNL     1       0.923   3.798   7.003  1.00  0.00     0.215 C 
HETATM   30  C17 UNL     1       2.246   3.220   6.522  1.00  0.00     0.042 C 
HETATM   31  C18 UNL     1       0.152   4.241   5.811  1.00  0.00     0.042 C 
ENDBRANCH  27  29
ENDBRANCH   1  21
TORSDOF 7
ENDMDL
MODEL 2
REMARK VINA RESULT: -6.258141402      2.372      3.451
REMARK  7 active torsions:
REMARK  status: ('A' for Active; 'I' for Inactive)
REMARK    1  A    between atoms: C2_2  and  C3_3 
REMARK    2  A    between atoms: C3_3  and  C5_5 
REMARK    3  A    between atoms: C5_5  and  N1_6 
REMARK    4  A    between atoms: C5_5  and  C13_21 
REMARK       I    between atoms: N1_6  and  C6_8 
REMARK    5  A    between atoms: C6_8  and  C7_10 
REMARK    6  A    between atoms: C7_10  and  N2_11 
REMARK       I    between atoms: C13_21  and  N4_23 
REMARK    7  A    between atoms: N5_26  and  C16_27 
ROOT
HETATM    1  C5  UNL     1      -3.604   5.927  11.771  1.00  0.00     0.180 C 
ENDROOT
BRANCH   1   2
HETATM    2  C3  UNL     1      -4.641   6.824  11.123  1.00  0.00     0.013 C 
HETATM    3  C4  UNL     1      -4.579   6.870   9.630  1.00  0.00     0.012 C 
BRANCH   2   4
HETATM    4  C2  UNL     1      -6.019   6.756  11.693  1.00  0.00     0.002 C 
HETATM    5  C1  UNL     1      -7.036   7.623  11.030  1.00  0.00     0.005 C 
ENDBRANCH   2   4
ENDBRANCH   1   2
BRANCH   1   6
HETATM    6  N1  UNL     1      -4.357   5.055  12.711  1.00  0.00    -0.345 N 
HETATM    7  C6  UNL     1      -3.854   3.827  13.152  1.00  0.00     0.255 C 
HETATM    8  O1  UNL     1      -2.719   3.468  12.704  1.00  0.00    -0.271 OA
ATOM      9  H1  UNL     1      -5.270   5.363  13.045  1.00  0.00     0.163 HD
BRANCH   7  10
HETATM   10  C7  UNL     1      -4.522   2.920  14.084  1.00  0.00     0.207 C 
HETATM   11  C9  UNL     1      -5.943   3.196  14.384  1.00  0.00     0.068 C 
HETATM   12  C10 UNL     1      -6.290   2.503  15.687  1.00  0.00     0.116 C 
HETATM   13  N3  UNL     1      -5.417   1.448  16.045  1.00  0.00    -0.421 N 
HETATM   14  C11 UNL     1      -4.038   1.780  16.165  1.00  0.00     0.116 C 
ATOM     15  H3  UNL     1      -5.758   0.500  16.208  1.00  0.00     0.153 HD
HETATM   16  C12 UNL     1      -3.752   3.072  15.421  1.00  0.00     0.068 C 
BRANCH  10  17
HETATM   17  N2  UNL     1      -4.342   1.550  13.637  1.00  0.00    -0.061 N 
HETATM   18  C8  UNL     1      -4.919   1.409  12.311  1.00  0.00     0.268 C 
ATOM     19  H22 UNL     1      -3.367   1.253  13.671  1.00  0.00     0.278 HD
ATOM     20  H21 UNL     1      -4.719   0.872  14.300  1.00  0.00     0.278 HD
ENDBRANCH  10  17
ENDBRANCH   7  10
ENDBRANCH   1   6
BRANCH   1  21
HETATM   21  C13 UNL     1      -2.524   6.606  12.461  1.00  0.00     0.243 C 
HETATM   22  O2  UNL     1      -2.721   6.918  13.706  1.00  0.00    -0.271 OA
HETATM   23  N4  UNL     1      -1.252   6.987  11.956  1.00  0.00    -0.347 N 
HETATM   24  C14 UNL     1      -0.346   7.717  12.837  1.00  0.00     0.156 C 
HETATM   25  C20 UNL     1      -0.859   6.654  10.632  1.00  0.00     0.156 C 
HETATM   26  C15 UNL     1       0.958   8.031  12.190  1.00  0.00     0.292 C 
HETATM   27  N5  UNL     1       1.487   6.981  11.377  1.00  0.00     0.095 N 
HETATM   28  C19 UNL     1       0.598   6.426  10.434  1.00  0.00     0.292 C 
BRANCH  27  29
HETATM   29  C16 UNL     1       2.202   6.008  12.172  1.00  0.00     0.215 C 
HETATM   30  C17 UNL     1       3.486   6.668  12.654  1.00  0.00     0.042 C 
HETATM   31  C18 UNL     1       2.569   4.786  11.408  1.00  0.00     0.042 C 
ENDBRANCH  27  29
ENDBRANCH   1  21
TORSDOF 7
ENDMDL
MODEL 3
REMARK VINA RESULT: -6.256602355      3.732      4.876
REMARK  7 active torsions:
REMARK  status: ('A' for Active; 'I' for Inactive)
REMARK    1  A    between atoms: C2_2  and  C3_3 
REMARK    2  A    between atoms: C3_3  and  C5_5 
REMARK    3  A    between atoms: C5_5  and  N1_6 
REMARK    4  A    between atoms: C5_5  and  C13_21 
REMARK       I    between atoms: N1_6  and  C6_8 
REMARK    5  A    between atoms: C6_8  and  C7_10 
REMARK    6  A    between atoms: C7_10  and  N2_11 
REMARK       I    between atoms: C13_21  and  N4_23 
REMARK    7  A    between atoms: N5_26  and  C16_27 
ROOT
HETATM    1  C5  UNL     1      -3.607   6.185  12.625  1.00  0.00     0.180 C 
ENDROOT
BRANCH   1   2
HETATM    2  C3  UNL     1      -4.526   6.733  11.550  1.00  0.00     0.013 C 
HETATM    3  C4  UNL     1      -4.140   6.365  10.154  1.00  0.00     0.012 C 
BRANCH   2   4
HETATM    4  C2  UNL     1      -5.990   6.661  11.838  1.00  0.00     0.002 C 
HETATM    5  C1  UNL     1      -6.842   7.631  11.091  1.00  0.00     0.005 C 
ENDBRANCH   2   4
ENDBRANCH   1   2
BRANCH   1   6
HETATM    6  N1  UNL     1      -4.395   5.147  13.339  1.00  0.00    -0.345 N 
HETATM    7  C6  UNL     1      -3.861   3.894  13.657  1.00  0.00     0.255 C 
HETATM    8  O1  UNL     1      -2.663   3.664  13.296  1.00  0.00    -0.271 OA
ATOM      9  H1  UNL     1      -5.357   5.355  13.606  1.00  0.00     0.163 HD
BRANCH   7  10
HETATM   10  C7  UNL     1      -4.562   2.827  14.368  1.00  0.00     0.207 C 
HETATM   11  C9  UNL     1      -6.003   3.029  14.627  1.00  0.00     0.068 C 
HETATM   12  C10 UNL     1      -6.410   2.108  15.761  1.00  0.00     0.116 C 
HETATM   13  N3  UNL     1      -5.537   1.014  15.974  1.00  0.00    -0.421 N 
HETATM   14  C11 UNL     1      -4.174   1.333  16.235  1.00  0.00     0.116 C 
ATOM     15  H3  UNL     1      -5.866   0.049  15.943  1.00  0.00     0.153 HD
HETATM   16  C12 UNL     1      -3.873   2.742  15.754  1.00  0.00     0.068 C 
BRANCH  10  17
HETATM   17  N2  UNL     1      -4.329   1.562  13.694  1.00  0.00    -0.061 N 
HETATM   18  C8  UNL     1      -4.936   1.615  12.375  1.00  0.00     0.268 C 
ATOM     19  H22 UNL     1      -3.340   1.317  13.657  1.00  0.00     0.278 HD
ATOM     20  H21 UNL     1      -4.652   0.764  14.240  1.00  0.00     0.278 HD
ENDBRANCH  10  17
ENDBRANCH   7  10
ENDBRANCH   1   6
BRANCH   1  21
HETATM   21  C13 UNL     1      -3.081   7.160  13.562  1.00  0.00     0.243 C 
HETATM   22  O2  UNL     1      -3.415   7.022  14.809  1.00  0.00    -0.271 OA
HETATM   23  N4  UNL     1      -2.233   8.269  13.303  1.00  0.00    -0.347 N 
HETATM   24  C14 UNL     1      -1.880   9.147  14.414  1.00  0.00     0.156 C 
HETATM   25  C20 UNL     1      -1.724   8.515  12.000  1.00  0.00     0.156 C 
HETATM   26  C15 UNL     1      -0.969  10.253  14.008  1.00  0.00     0.292 C 
HETATM   27  N5  UNL     1       0.051   9.873  13.081  1.00  0.00     0.095 N 
HETATM   28  C19 UNL     1      -0.385   9.160  11.946  1.00  0.00     0.292 C 
BRANCH  27  29
HETATM   29  C16 UNL     1       1.186   9.286  13.758  1.00  0.00     0.215 C 
HETATM   30  C17 UNL     1       1.876  10.398  14.536  1.00  0.00     0.042 C 
HETATM   31  C18 UNL     1       2.179   8.692  12.824  1.00  0.00     0.042 C 
ENDBRANCH  27  29
ENDBRANCH   1  21
TORSDOF 7
ENDMDL
MODEL 4
REMARK VINA RESULT: -6.255535021      3.428      5.652
REMARK  7 active torsions:
REMARK  status: ('A' for Active; 'I' for Inactive)
REMARK    1  A    between atoms: C2_2  and  C3_3 
REMARK    2  A    between atoms: C3_3  and  C5_5 
REMARK    3  A    between atoms: C5_5  and  N1_6 
REMARK    4  A    between atoms: C5_5  and  C13_21 
REMARK       I    between atoms: N1_6  and  C6_8 
REMARK    5  A    between atoms: C6_8  and  C7_10 
REMARK    6  A    between atoms: C7_10  and  N2_11 
REMARK       I    between atoms: C13_21  and  N4_23 
REMARK    7  A    between atoms: N5_26  and  C16_27 
ROOT
HETATM    1  C5  UNL     1      -4.923   6.675  10.601  1.00  0.00     0.180 C 
ENDROOT
BRANCH   1   2
HETATM    2  C3  UNL     1      -6.430   6.673  10.438  1.00  0.00     0.013 C 
HETATM    3  C4  UNL     1      -7.175   7.386  11.520  1.00  0.00     0.012 C 
BRANCH   2   4
HETATM    4  C2  UNL     1      -6.942   6.918   9.056  1.00  0.00     0.002 C 
HETATM    5  C1  UNL     1      -8.217   7.688   8.968  1.00  0.00     0.005 C 
ENDBRANCH   2   4
ENDBRANCH   1   2
BRANCH   1   6
HETATM    6  N1  UNL     1      -4.642   5.779  11.754  1.00  0.00    -0.345 N 
HETATM    7  C6  UNL     1      -4.536   4.392  11.610  1.00  0.00     0.255 C 
HETATM    8  O1  UNL     1      -4.705   3.913  10.444  1.00  0.00    -0.271 OA
ATOM      9  H1  UNL     1      -4.522   6.190  12.679  1.00  0.00     0.163 HD
BRANCH   7  10
HETATM   10  C7  UNL     1      -4.248   3.446  12.686  1.00  0.00     0.207 C 
HETATM   11  C9  UNL     1      -4.363   2.008  12.361  1.00  0.00     0.068 C 
HETATM   12  C10 UNL     1      -4.526   1.245  13.661  1.00  0.00     0.116 C 
HETATM   13  N3  UNL     1      -4.084   1.940  14.813  1.00  0.00    -0.421 N 
HETATM   14  C11 UNL     1      -4.684   3.208  15.056  1.00  0.00     0.116 C 
ATOM     15  H3  UNL     1      -3.373   1.554  15.434  1.00  0.00     0.153 HD
HETATM   16  C12 UNL     1      -5.309   3.737  13.777  1.00  0.00     0.068 C 
BRANCH  10  17
HETATM   17  N2  UNL     1      -2.947   3.745  13.259  1.00  0.00    -0.061 N 
HETATM   18  C8  UNL     1      -1.934   3.590  12.230  1.00  0.00     0.268 C 
ATOM     19  H22 UNL     1      -2.918   4.664  13.699  1.00  0.00     0.278 HD
ATOM     20  H21 UNL     1      -2.749   3.185  14.089  1.00  0.00     0.278 HD
ENDBRANCH  10  17
ENDBRANCH   7  10
ENDBRANCH   1   6
BRANCH   1  21
HETATM   21  C13 UNL     1      -4.311   7.975  10.804  1.00  0.00     0.243 C 
HETATM   22  O2  UNL     1      -5.014   9.016  10.479  1.00  0.00    -0.271 OA
HETATM   23  N4  UNL     1      -3.023   8.275  11.320  1.00  0.00    -0.347 N 
HETATM   24  C14 UNL     1      -2.608   9.673  11.379  1.00  0.00     0.156 C 
HETATM   25  C20 UNL     1      -2.160   7.248  11.786  1.00  0.00     0.156 C 
HETATM   26  C15 UNL     1      -1.249   9.848  11.961  1.00  0.00     0.292 C 
HETATM   27  N5  UNL     1      -0.967   9.000  13.078  1.00  0.00     0.095 N 
HETATM   28  C19 UNL     1      -1.246   7.631  12.895  1.00  0.00     0.292 C 
BRANCH  27  29
HETATM   29  C16 UNL     1      -1.484   9.558  14.307  1.00  0.00     0.215 C 
HETATM   30  C17 UNL     1      -0.304  10.136  15.076  1.00  0.00     0.042 C 
HETATM   31  C18 UNL     1      -2.149   8.549  15.172  1.00  0.00     0.042 C 
ENDBRANCH  27  29
ENDBRANCH   1  21
TORSDOF 7
ENDMDL
MODEL 5
REMARK VINA RESULT: -6.224609080      3.842      5.693
REMARK  7 active torsions:
REMARK  status: ('A' for Active; 'I' for Inactive)
REMARK    1  A    between atoms: C2_2  and  C3_3 
REMARK    2  A    between atoms: C3_3  and  C5_5 
REMARK    3  A    between atoms: C5_5  and  N1_6 
REMARK    4  A    between atoms: C5_5  and  C13_21 
REMARK       I    between atoms: N1_6  and  C6_8 
REMARK    5  A    between atoms: C6_8  and  C7_10 
REMARK    6  A    between atoms: C7_10  and  N2_11 
REMARK       I    between atoms: C13_21  and  N4_23 
REMARK    7  A    between atoms: N5_26  and  C16_27 
ROOT
HETATM    1  C5  UNL     1      -2.720   5.583   9.900  1.00  0.00     0.180 C 
ENDROOT
BRANCH   1   2
HETATM    2  C3  UNL     1      -1.361   4.940   9.694  1.00  0.00     0.013 C 
HETATM    3  C4  UNL     1      -0.459   5.678   8.759  1.00  0.00     0.012 C 
BRANCH   2   4
HETATM    4  C2  UNL     1      -0.695   4.405  10.919  1.00  0.00     0.002 C 
HETATM    5  C1  UNL     1       0.738   4.022  10.759  1.00  0.00     0.005 C 
ENDBRANCH   2   4
ENDBRANCH   1   2
BRANCH   1   6
HETATM    6  N1  UNL     1      -3.326   4.881  11.061  1.00  0.00    -0.345 N 
HETATM    7  C6  UNL     1      -3.896   5.573  12.135  1.00  0.00     0.255 C 
HETATM    8  O1  UNL     1      -3.865   6.844  12.090  1.00  0.00    -0.271 OA
ATOM      9  H1  UNL     1      -3.326   3.861  11.076  1.00  0.00     0.163 HD
BRANCH   7  10
HETATM   10  C7  UNL     1      -4.523   4.961  13.304  1.00  0.00     0.207 C 
HETATM   11  C9  UNL     1      -4.737   3.499  13.261  1.00  0.00     0.068 C 
HETATM   12  C10 UNL     1      -5.805   3.151  14.279  1.00  0.00     0.116 C 
HETATM   13  N3  UNL     1      -5.995   4.122  15.291  1.00  0.00    -0.421 N 
HETATM   14  C11 UNL     1      -6.323   5.436  14.853  1.00  0.00     0.116 C 
ATOM     15  H3  UNL     1      -5.901   3.893  16.280  1.00  0.00     0.153 HD
HETATM   16  C12 UNL     1      -5.928   5.609  13.397  1.00  0.00     0.068 C 
BRANCH  10  17
HETATM   17  N2  UNL     1      -3.793   5.343  14.501  1.00  0.00    -0.061 N 
HETATM   18  C8  UNL     1      -2.472   4.740  14.456  1.00  0.00     0.268 C 
ATOM     19  H22 UNL     1      -3.755   6.354  14.627  1.00  0.00     0.278 HD
ATOM     20  H21 UNL     1      -4.299   5.112  15.356  1.00  0.00     0.278 HD
ENDBRANCH  10  17
ENDBRANCH   7  10
ENDBRANCH   1   6
BRANCH   1  21
HETATM   21  C13 UNL     1      -3.615   5.545   8.758  1.00  0.00     0.243 C 
HETATM   22  O2  UNL     1      -3.764   4.401   8.162  1.00  0.00    -0.271 OA
HETATM   23  N4  UNL     1      -4.366   6.606   8.187  1.00  0.00    -0.347 N 
HETATM   24  C14 UNL     1      -5.161   6.330   6.995  1.00  0.00     0.156 C 
HETATM   25  C20 UNL     1      -4.364   7.902   8.768  1.00  0.00     0.156 C 
HETATM   26  C15 UNL     1      -5.916   7.521   6.517  1.00  0.00     0.292 C 
HETATM   27  N5  UNL     1      -6.491   8.316   7.556  1.00  0.00     0.095 N 
HETATM   28  C19 UNL     1      -5.621   8.681   8.603  1.00  0.00     0.292 C 
BRANCH  27  29
HETATM   29  C16 UNL     1      -7.761   7.779   7.992  1.00  0.00     0.215 C 
HETATM   30  C17 UNL     1      -8.834   8.797   7.630  1.00  0.00     0.042 C 
HETATM   31  C18 UNL     1      -7.823   7.544   9.458  1.00  0.00     0.042 C 
ENDBRANCH  27  29
ENDBRANCH   1  21
TORSDOF 7
ENDMDL
