MODEL 1
REMARK VINA RESULT: -7.735943176      0.000      0.000
REMARK  9 active torsions:
REMARK  status: ('A' for Active; 'I' for Inactive)
REMARK    1  A    between atoms: C1_2  and  C2_3 
REMARK       I    between atoms: C1_2  and  N3_21 
REMARK    2  A    between atoms: C2_3  and  O2_4 
REMARK    3  A    between atoms: O2_4  and  C3_5 
REMARK    4  A    between atoms: C3_5  and  C4_6 
REMARK       I    between atoms: C4_6  and  N1_8 
REMARK    5  A    between atoms: N1_8  and  N2_10 
REMARK       I    between atoms: N2_10  and  C5_12 
REMARK    6  A    between atoms: C5_12  and  C6_14 
REMARK    7  A    between atoms: C6_14  and  C7_15 
REMARK    8  A    between atoms: N3_21  and  C13_23 
REMARK    9  A    between atoms: C13_23  and  C14_24 
ROOT
HETATM    1  C4  UNL     1      -5.777   6.114  10.640  1.00  0.00     0.259 C 
HETATM    2  O3  UNL     1      -6.670   6.376  11.452  1.00  0.00    -0.269 OA
HETATM    3  N1  UNL     1      -5.782   6.724   9.357  1.00  0.00    -0.266 N 
ATOM      4  H1  UNL     1      -5.050   6.517   8.678  1.00  0.00     0.190 HD
ENDROOT
BRANCH   1   5
HETATM    5  C3  UNL     1      -4.683   5.175  10.957  1.00  0.00     0.272 C 
BRANCH   5   6
HETATM    6  O2  UNL     1      -5.074   3.877  11.070  1.00  0.00    -0.373 OA
BRANCH   6   7
HETATM    7  C2  UNL     1      -4.113   2.951  11.339  1.00  0.00     0.271 C 
BRANCH   7   8
HETATM    8  C1  UNL     1      -4.699   1.881  12.243  1.00  0.00     0.245 C 
HETATM    9  O1  UNL     1      -5.654   1.270  11.734  1.00  0.00    -0.271 OA
HETATM   10  N3  UNL     1      -4.150   1.682  13.498  1.00  0.00    -0.333 N 
ATOM     11  H3  UNL     1      -3.357   2.286  13.717  1.00  0.00     0.168 HD
BRANCH  10  12
HETATM   12  C13 UNL     1      -4.506   0.782  14.521  1.00  0.00     0.123 C 
BRANCH  12  13
HETATM   13  C14 UNL     1      -5.429   1.136  15.592  1.00  0.00     0.061 C 
HETATM   14  C15 UNL     1      -5.989   2.475  15.789  1.00  0.00     0.068 C 
HETATM   15  C16 UNL     1      -6.709   2.315  17.152  1.00  0.00     0.033 C 
HETATM   16  C17 UNL     1      -5.948   1.188  17.759  1.00  0.00     0.175 C 
HETATM   17  O5  UNL     1      -5.043   0.664  16.858  1.00  0.00    -0.354 OA
ENDBRANCH  12  13
ENDBRANCH  10  12
ENDBRANCH   7   8
ENDBRANCH   6   7
ENDBRANCH   5   6
ENDBRANCH   1   5
BRANCH   3  18
HETATM   18  N2  UNL     1      -6.812   7.611   9.049  1.00  0.00    -0.267 N 
HETATM   19  C5  UNL     1      -7.888   7.231   8.209  1.00  0.00     0.236 C 
HETATM   20  O4  UNL     1      -7.883   6.065   7.753  1.00  0.00    -0.272 OA
ATOM     21  H2  UNL     1      -6.791   8.554   9.438  1.00  0.00     0.190 HD
BRANCH  19  22
HETATM   22  C6  UNL     1      -8.935   8.214   7.920  1.00  0.00     0.109 C 
BRANCH  22  23
HETATM   23  C7  UNL     1      -8.542   9.340   7.024  1.00  0.00    -0.006 C 
HETATM   24  C8  UNL     1      -9.513   9.637   5.935  1.00  0.00     0.005 C 
HETATM   25  C9  UNL     1     -10.842  10.140   6.467  1.00  0.00     0.000 C 
HETATM   26  C10 UNL     1     -10.683  11.182   7.525  1.00  0.00     0.000 C 
HETATM   27  C11 UNL     1      -9.271  11.640   7.741  1.00  0.00     0.000 C 
HETATM   28  C12 UNL     1      -8.265  10.550   7.893  1.00  0.00     0.005 C 
ENDBRANCH  22  23
ENDBRANCH  19  22
ENDBRANCH   3  18
TORSDOF 9
ENDMDL
MODEL 2
REMARK VINA RESULT: -7.648944316      5.387      6.493
REMARK  9 active torsions:
REMARK  status: ('A' for Active; 'I' for Inactive)
REMARK    1  A    between atoms: C1_2  and  C2_3 
REMARK       I    between atoms: C1_2  and  N3_21 
REMARK    2  A    between atoms: C2_3  and  O2_4 
REMARK    3  A    between atoms: O2_4  and  C3_5 
REMARK    4  A    between atoms: C3_5  and  C4_6 
REMARK       I    between atoms: C4_6  and  N1_8 
REMARK    5  A    between atoms: N1_8  and  N2_10 
REMARK       I    between atoms: N2_10  and  C5_12 
REMARK    6  A    between atoms: C5_12  and  C6_14 
REMARK    7  A    between atoms: C6_14  and  C7_15 
REMARK    8  A    between atoms: N3_21  and  C13_23 
REMARK    9  A    between atoms: C13_23  and  C14_24 
ROOT
HETATM    1  C4  UNL     1      -4.314   3.385  11.052  1.00  0.00     0.259 C 
HETATM    2  O3  UNL     1      -4.983   4.399  10.831  1.00  0.00    -0.269 OA
HETATM    3  N1  UNL     1      -3.024   3.497  11.635  1.00  0.00    -0.266 N 
ATOM      4  H1  UNL     1      -2.462   2.667  11.823  1.00  0.00     0.190 HD
ENDROOT
BRANCH   1   5
HETATM    5  C3  UNL     1      -4.813   2.033  10.728  1.00  0.00     0.272 C 
BRANCH   5   6
HETATM    6  O2  UNL     1      -5.243   1.321  11.806  1.00  0.00    -0.373 OA
BRANCH   6   7
HETATM    7  C2  UNL     1      -4.420   0.351  12.287  1.00  0.00     0.271 C 
BRANCH   7   8
HETATM    8  C1  UNL     1      -4.425   0.409  13.805  1.00  0.00     0.245 C 
HETATM    9  O1  UNL     1      -4.790  -0.652  14.340  1.00  0.00    -0.271 OA
HETATM   10  N3  UNL     1      -4.042   1.579  14.437  1.00  0.00    -0.333 N 
ATOM     11  H3  UNL     1      -3.765   2.333  13.808  1.00  0.00     0.168 HD
BRANCH  10  12
HETATM   12  C13 UNL     1      -3.972   1.898  15.807  1.00  0.00     0.123 C 
BRANCH  12  13
HETATM   13  C14 UNL     1      -5.160   2.061  16.637  1.00  0.00     0.061 C 
HETATM   14  C15 UNL     1      -5.894   0.953  17.251  1.00  0.00     0.068 C 
HETATM   15  C16 UNL     1      -7.139   1.681  17.821  1.00  0.00     0.033 C 
HETATM   16  C17 UNL     1      -7.211   2.878  16.939  1.00  0.00     0.175 C 
HETATM   17  O5  UNL     1      -6.116   2.938  16.100  1.00  0.00    -0.354 OA
ENDBRANCH  12  13
ENDBRANCH  10  12
ENDBRANCH   7   8
ENDBRANCH   6   7
ENDBRANCH   5   6
ENDBRANCH   1   5
BRANCH   3  18
HETATM   18  N2  UNL     1      -2.544   4.770  11.942  1.00  0.00    -0.267 N 
HETATM   19  C5  UNL     1      -2.039   5.078  13.229  1.00  0.00     0.236 C 
HETATM   20  O4  UNL     1      -2.033   4.162  14.083  1.00  0.00    -0.272 OA
ATOM     21  H2  UNL     1      -2.558   5.494  11.224  1.00  0.00     0.190 HD
BRANCH  19  22
HETATM   22  C6  UNL     1      -1.556   6.437  13.488  1.00  0.00     0.109 C 
BRANCH  22  23
HETATM   23  C7  UNL     1      -2.608   7.484  13.631  1.00  0.00    -0.006 C 
HETATM   24  C8  UNL     1      -2.864   7.921  15.031  1.00  0.00     0.005 C 
HETATM   25  C9  UNL     1      -1.668   8.626  15.645  1.00  0.00     0.000 C 
HETATM   26  C10 UNL     1      -1.060   9.637  14.728  1.00  0.00     0.000 C 
HETATM   27  C11 UNL     1      -1.832   9.873  13.462  1.00  0.00     0.000 C 
HETATM   28  C12 UNL     1      -2.238   8.641  12.726  1.00  0.00     0.005 C 
ENDBRANCH  22  23
ENDBRANCH  19  22
ENDBRANCH   3  18
TORSDOF 9
ENDMDL
MODEL 3
REMARK VINA RESULT: -7.499530341      5.202      6.257
REMARK  9 active torsions:
REMARK  status: ('A' for Active; 'I' for Inactive)
REMARK    1  A    between atoms: C1_2  and  C2_3 
REMARK       I    between atoms: C1_2  and  N3_21 
REMARK    2  A    between atoms: C2_3  and  O2_4 
REMARK    3  A    between atoms: O2_4  and  C3_5 
REMARK    4  A    between atoms: C3_5  and  C4_6 
REMARK       I    between atoms: C4_6  and  N1_8 
REMARK    5  A    between atoms: N1_8  and  N2_10 
REMARK       I    between atoms: N2_10  and  C5_12 
REMARK    6  A    between atoms: C5_12  and  C6_14 
REMARK    7  A    between atoms: C6_14  and  C7_15 
REMARK    8  A    between atoms: N3_21  and  C13_23 
REMARK    9  A    between atoms: C13_23  and  C14_24 
ROOT
HETATM    1  C4  UNL     1      -3.761   4.664  11.057  1.00  0.00     0.259 C 
HETATM    2  O3  UNL     1      -2.658   5.180  10.852  1.00  0.00    -0.269 OA
HETATM    3  N1  UNL     1      -4.626   5.205  12.046  1.00  0.00    -0.266 N 
ATOM      4  H1  UNL     1      -5.540   4.788  12.224  1.00  0.00     0.190 HD
ENDROOT
BRANCH   1   5
HETATM    5  C3  UNL     1      -4.225   3.482  10.302  1.00  0.00     0.272 C 
BRANCH   5   6
HETATM    6  O2  UNL     1      -5.127   2.711  10.966  1.00  0.00    -0.373 OA
BRANCH   6   7
HETATM    7  C2  UNL     1      -4.876   1.376  11.044  1.00  0.00     0.271 C 
BRANCH   7   8
HETATM    8  C1  UNL     1      -4.664   0.999  12.500  1.00  0.00     0.245 C 
HETATM    9  O1  UNL     1      -4.528  -0.223  12.681  1.00  0.00    -0.271 OA
HETATM   10  N3  UNL     1      -4.639   1.997  13.459  1.00  0.00    -0.333 N 
ATOM     11  H3  UNL     1      -4.759   2.943  13.094  1.00  0.00     0.168 HD
BRANCH  10  12
HETATM   12  C13 UNL     1      -4.476   1.920  14.856  1.00  0.00     0.123 C 
BRANCH  12  13
HETATM   13  C14 UNL     1      -5.498   1.368  15.737  1.00  0.00     0.061 C 
HETATM   14  C15 UNL     1      -6.628   2.132  16.269  1.00  0.00     0.068 C 
HETATM   15  C16 UNL     1      -7.240   1.124  17.275  1.00  0.00     0.033 C 
HETATM   16  C17 UNL     1      -6.063   0.270  17.592  1.00  0.00     0.175 C 
HETATM   17  O5  UNL     1      -4.985   0.604  16.798  1.00  0.00    -0.354 OA
ENDBRANCH  12  13
ENDBRANCH  10  12
ENDBRANCH   7   8
ENDBRANCH   6   7
ENDBRANCH   5   6
ENDBRANCH   1   5
BRANCH   3  18
HETATM   18  N2  UNL     1      -4.196   6.318  12.765  1.00  0.00    -0.267 N 
HETATM   19  C5  UNL     1      -3.550   6.184  14.019  1.00  0.00     0.236 C 
HETATM   20  O4  UNL     1      -3.375   5.025  14.459  1.00  0.00    -0.272 OA
ATOM     21  H2  UNL     1      -4.349   7.250  12.380  1.00  0.00     0.190 HD
BRANCH  19  22
HETATM   22  C6  UNL     1      -3.129   7.396  14.726  1.00  0.00     0.109 C 
BRANCH  22  23
HETATM   23  C7  UNL     1      -1.670   7.702  14.679  1.00  0.00    -0.006 C 
HETATM   24  C8  UNL     1      -1.110   7.851  13.307  1.00  0.00     0.005 C 
HETATM   25  C9  UNL     1      -1.682   9.052  12.576  1.00  0.00     0.000 C 
HETATM   26  C10 UNL     1      -1.716  10.282  13.423  1.00  0.00     0.000 C 
HETATM   27  C11 UNL     1      -1.041  10.139  14.756  1.00  0.00     0.000 C 
HETATM   28  C12 UNL     1      -1.424   8.927  15.536  1.00  0.00     0.005 C 
ENDBRANCH  22  23
ENDBRANCH  19  22
ENDBRANCH   3  18
TORSDOF 9
ENDMDL
MODEL 4
REMARK VINA RESULT: -7.487598539      1.862      2.617
REMARK  9 active torsions:
REMARK  status: ('A' for Active; 'I' for Inactive)
REMARK    1  A    between atoms: C1_2  and  C2_3 
REMARK       I    between atoms: C1_2  and  N3_21 
REMARK    2  A    between atoms: C2_3  and  O2_4 
REMARK    3  A    between atoms: O2_4  and  C3_5 
REMARK    4  A    between atoms: C3_5  and  C4_6 
REMARK       I    between atoms: C4_6  and  N1_8 
REMARK    5  A    between atoms: N1_8  and  N2_10 
REMARK       I    between atoms: N2_10  and  C5_12 
REMARK    6  A    between atoms: C5_12  and  C6_14 
REMARK    7  A    between atoms: C6_14  and  C7_15 
REMARK    8  A    between atoms: N3_21  and  C13_23 
REMARK    9  A    between atoms: C13_23  and  C14_24 
ROOT
HETATM    1  C4  UNL     1      -3.776   5.804  12.916  1.00  0.00     0.259 C 
HETATM    2  O3  UNL     1      -3.081   6.647  12.341  1.00  0.00    -0.269 OA
HETATM    3  N1  UNL     1      -5.185   5.795  12.729  1.00  0.00    -0.266 N 
ATOM      4  H1  UNL     1      -5.769   5.104  13.197  1.00  0.00     0.190 HD
ENDROOT
BRANCH   1   5
HETATM    5  C3  UNL     1      -3.190   4.784  13.809  1.00  0.00     0.272 C 
BRANCH   5   6
HETATM    6  O2  UNL     1      -2.565   3.764  13.160  1.00  0.00    -0.373 OA
BRANCH   6   7
HETATM    7  C2  UNL     1      -3.308   3.019  12.297  1.00  0.00     0.271 C 
BRANCH   7   8
HETATM    8  C1  UNL     1      -4.370   2.269  13.082  1.00  0.00     0.245 C 
HETATM    9  O1  UNL     1      -5.531   2.553  12.742  1.00  0.00    -0.271 OA
HETATM   10  N3  UNL     1      -3.978   1.373  14.062  1.00  0.00    -0.333 N 
ATOM     11  H3  UNL     1      -2.969   1.277  14.174  1.00  0.00     0.168 HD
BRANCH  10  12
HETATM   12  C13 UNL     1      -4.746   0.572  14.929  1.00  0.00     0.123 C 
BRANCH  12  13
HETATM   13  C14 UNL     1      -5.659   1.135  15.917  1.00  0.00     0.061 C 
HETATM   14  C15 UNL     1      -5.235   1.713  17.195  1.00  0.00     0.068 C 
HETATM   15  C16 UNL     1      -6.596   1.950  17.897  1.00  0.00     0.033 C 
HETATM   16  C17 UNL     1      -7.459   0.946  17.216  1.00  0.00     0.175 C 
HETATM   17  O5  UNL     1      -6.779   0.332  16.184  1.00  0.00    -0.354 OA
ENDBRANCH  12  13
ENDBRANCH  10  12
ENDBRANCH   7   8
ENDBRANCH   6   7
ENDBRANCH   5   6
ENDBRANCH   1   5
BRANCH   3  18
HETATM   18  N2  UNL     1      -5.747   6.755  11.889  1.00  0.00    -0.267 N 
HETATM   19  C5  UNL     1      -6.113   6.447  10.556  1.00  0.00     0.236 C 
HETATM   20  O4  UNL     1      -5.919   5.276  10.158  1.00  0.00    -0.272 OA
ATOM     21  H2  UNL     1      -5.897   7.700  12.243  1.00  0.00     0.190 HD
BRANCH  19  22
HETATM   22  C6  UNL     1      -6.693   7.504   9.724  1.00  0.00     0.109 C 
BRANCH  22  23
HETATM   23  C7  UNL     1      -6.892   7.165   8.286  1.00  0.00    -0.006 C 
HETATM   24  C8  UNL     1      -8.262   6.694   7.941  1.00  0.00     0.005 C 
HETATM   25  C9  UNL     1      -9.311   7.775   8.132  1.00  0.00     0.000 C 
HETATM   26  C10 UNL     1      -8.892   9.091   7.564  1.00  0.00     0.000 C 
HETATM   27  C11 UNL     1      -7.610   9.055   6.785  1.00  0.00     0.000 C 
HETATM   28  C12 UNL     1      -6.474   8.366   7.463  1.00  0.00     0.005 C 
ENDBRANCH  22  23
ENDBRANCH  19  22
ENDBRANCH   3  18
TORSDOF 9
ENDMDL
MODEL 5
REMARK VINA RESULT: -7.462186134      3.189      4.982
REMARK  9 active torsions:
REMARK  status: ('A' for Active; 'I' for Inactive)
REMARK    1  A    between atoms: C1_2  and  C2_3 
REMARK       I    between atoms: C1_2  and  N3_21 
REMARK    2  A    between atoms: C2_3  and  O2_4 
REMARK    3  A    between atoms: O2_4  and  C3_5 
REMARK    4  A    between atoms: C3_5  and  C4_6 
REMARK       I    between atoms: C4_6  and  N1_8 
REMARK    5  A    between atoms: N1_8  and  N2_10 
REMARK       I    between atoms: N2_10  and  C5_12 
REMARK    6  A    between atoms: C5_12  and  C6_14 
REMARK    7  A    between atoms: C6_14  and  C7_15 
REMARK    8  A    between atoms: N3_21  and  C13_23 
REMARK    9  A    between atoms: C13_23  and  C14_24 
ROOT
HETATM    1  C4  UNL     1      -4.623   1.518  11.797  1.00  0.00     0.259 C 
HETATM    2  O3  UNL     1      -5.729   1.434  11.253  1.00  0.00    -0.269 OA
HETATM    3  N1  UNL     1      -3.921   2.753  11.793  1.00  0.00    -0.266 N 
ATOM      4  H1  UNL     1      -3.009   2.835  12.240  1.00  0.00     0.190 HD
ENDROOT
BRANCH   1   5
HETATM    5  C3  UNL     1      -3.990   0.362  12.464  1.00  0.00     0.272 C 
BRANCH   5   6
HETATM    6  O2  UNL     1      -4.765  -0.232  13.411  1.00  0.00    -0.373 OA
BRANCH   6   7
HETATM    7  C2  UNL     1      -4.273  -0.292  14.679  1.00  0.00     0.271 C 
BRANCH   7   8
HETATM    8  C1  UNL     1      -4.478   1.053  15.351  1.00  0.00     0.245 C 
HETATM    9  O1  UNL     1      -3.681   1.270  16.280  1.00  0.00    -0.271 OA
HETATM   10  N3  UNL     1      -5.485   1.888  14.898  1.00  0.00    -0.333 N 
ATOM     11  H3  UNL     1      -6.021   1.522  14.111  1.00  0.00     0.168 HD
BRANCH  10  12
HETATM   12  C13 UNL     1      -5.890   3.160  15.346  1.00  0.00     0.123 C 
BRANCH  12  13
HETATM   13  C14 UNL     1      -5.048   4.344  15.218  1.00  0.00     0.061 C 
HETATM   14  C15 UNL     1      -5.559   5.697  14.991  1.00  0.00     0.068 C 
HETATM   15  C16 UNL     1      -4.249   6.486  14.736  1.00  0.00     0.033 C 
HETATM   16  C17 UNL     1      -3.343   5.408  14.257  1.00  0.00     0.175 C 
HETATM   17  O5  UNL     1      -3.949   4.173  14.360  1.00  0.00    -0.354 OA
ENDBRANCH  12  13
ENDBRANCH  10  12
ENDBRANCH   7   8
ENDBRANCH   6   7
ENDBRANCH   5   6
ENDBRANCH   1   5
BRANCH   3  18
HETATM   18  N2  UNL     1      -4.512   3.848  11.165  1.00  0.00    -0.267 N 
HETATM   19  C5  UNL     1      -3.738   4.945  10.712  1.00  0.00     0.236 C 
HETATM   20  O4  UNL     1      -2.500   4.894  10.892  1.00  0.00    -0.272 OA
ATOM     21  H2  UNL     1      -5.522   3.860  11.028  1.00  0.00     0.190 HD
BRANCH  19  22
HETATM   22  C6  UNL     1      -4.421   6.067  10.064  1.00  0.00     0.109 C 
BRANCH  22  23
HETATM   23  C7  UNL     1      -4.860   7.170  10.968  1.00  0.00    -0.006 C 
HETATM   24  C8  UNL     1      -4.901   8.516  10.332  1.00  0.00     0.005 C 
HETATM   25  C9  UNL     1      -5.947   8.606   9.235  1.00  0.00     0.000 C 
HETATM   26  C10 UNL     1      -7.258   8.015   9.638  1.00  0.00     0.000 C 
HETATM   27  C11 UNL     1      -7.338   7.600  11.078  1.00  0.00     0.000 C 
HETATM   28  C12 UNL     1      -6.195   6.777  11.567  1.00  0.00     0.005 C 
ENDBRANCH  22  23
ENDBRANCH  19  22
ENDBRANCH   3  18
TORSDOF 9
ENDMDL
