MODEL 1
REMARK VINA RESULT: -6.626851053      0.000      0.000
REMARK  9 active torsions:
REMARK  status: ('A' for Active; 'I' for Inactive)
REMARK    1  A    between atoms: O1_2  and  C2_3 
REMARK    2  A    between atoms: C2_3  and  C4_5 
REMARK    3  A    between atoms: C4_5  and  C5_6 
REMARK    4  A    between atoms: C4_5  and  C14_23 
REMARK    5  A    between atoms: C5_6  and  O2_7 
REMARK    6  A    between atoms: C5_6  and  N1_9 
REMARK    7  A    between atoms: N1_9  and  C6_11 
REMARK    8  A    between atoms: C6_11  and  C8_13 
REMARK       I    between atoms: C8_13  and  N2_15 
REMARK    9  A    between atoms: C12_19  and  C13_20 
ROOT
HETATM    1  N1  UNL     1      -3.856   4.707  14.276  1.00  0.00    -0.384 N 
ATOM      2  H1  UNL     1      -3.525   5.034  15.184  1.00  0.00     0.156 HD
ENDROOT
BRANCH   1   3
HETATM    3  C5  UNL     1      -2.967   4.508  13.185  1.00  0.00     0.221 C 
BRANCH   3   4
HETATM    4  C4  UNL     1      -1.781   5.506  13.336  1.00  0.00     0.067 C 
BRANCH   4   5
HETATM    5  C2  UNL     1      -1.234   5.813  11.988  1.00  0.00     0.125 C 
HETATM    6  C3  UNL     1       0.216   5.365  11.788  1.00  0.00     0.040 C 
BRANCH   5   7
HETATM    7  O1  UNL     1      -1.987   5.236  10.943  1.00  0.00    -0.391 OA
HETATM    8  C1  UNL     1      -1.189   4.911   9.852  1.00  0.00     0.202 C 
ENDBRANCH   5   7
ENDBRANCH   4   5
BRANCH   4   9
HETATM    9  C14 UNL     1      -2.270   6.723  14.032  1.00  0.00     0.000 A 
HETATM   10  C15 UNL     1      -2.588   7.955  13.269  1.00  0.00     0.010 A 
HETATM   11  C16 UNL     1      -1.462   7.919  14.314  1.00  0.00    -0.014 A 
HETATM   12  C17 UNL     1      -1.738   8.748  15.526  1.00  0.00     0.010 C 
ENDBRANCH   4   9
ENDBRANCH   3   4
BRANCH   3  13
HETATM   13  O2  UNL     1      -2.522   3.237  12.959  1.00  0.00    -0.377 OA
ATOM     14  H2  UNL     1      -3.214   2.600  13.088  1.00  0.00     0.212 HD
ENDBRANCH   3  13
ENDBRANCH   1   3
BRANCH   1  15
HETATM   15  C6  UNL     1      -5.251   4.423  14.035  1.00  0.00     0.167 C 
HETATM   16  C7  UNL     1      -5.881   5.358  13.059  1.00  0.00     0.042 C 
BRANCH  15  17
HETATM   17  C8  UNL     1      -6.017   4.175  15.252  1.00  0.00     0.242 C 
HETATM   18  O3  UNL     1      -6.659   5.152  15.761  1.00  0.00    -0.271 OA
HETATM   19  N2  UNL     1      -6.118   2.935  15.939  1.00  0.00    -0.336 N 
HETATM   20  C9  UNL     1      -6.911   2.829  17.193  1.00  0.00     0.127 C 
HETATM   21  C12 UNL     1      -5.608   1.636  15.679  1.00  0.00     0.188 C 
HETATM   22  C10 UNL     1      -7.588   1.477  16.984  1.00  0.00     0.022 C 
HETATM   23  C11 UNL     1      -6.419   0.669  16.494  1.00  0.00     0.038 C 
BRANCH  21  24
HETATM   24  C13 UNL     1      -4.155   1.462  15.919  1.00  0.00     0.196 C 
HETATM   25  O4  UNL     1      -3.710   0.314  16.077  1.00  0.00    -0.646 OA
HETATM   26  O5  UNL     1      -3.327   2.551  15.962  1.00  0.00    -0.646 OA
ENDBRANCH  21  24
ENDBRANCH  15  17
ENDBRANCH   1  15
TORSDOF 9
ENDMDL
MODEL 2
REMARK VINA RESULT: -6.554146045      2.707      6.300
REMARK  9 active torsions:
REMARK  status: ('A' for Active; 'I' for Inactive)
REMARK    1  A    between atoms: O1_2  and  C2_3 
REMARK    2  A    between atoms: C2_3  and  C4_5 
REMARK    3  A    between atoms: C4_5  and  C5_6 
REMARK    4  A    between atoms: C4_5  and  C14_23 
REMARK    5  A    between atoms: C5_6  and  O2_7 
REMARK    6  A    between atoms: C5_6  and  N1_9 
REMARK    7  A    between atoms: N1_9  and  C6_11 
REMARK    8  A    between atoms: C6_11  and  C8_13 
REMARK       I    between atoms: C8_13  and  N2_15 
REMARK    9  A    between atoms: C12_19  and  C13_20 
ROOT
HETATM    1  N1  UNL     1      -5.117   4.043  13.719  1.00  0.00    -0.384 N 
ATOM      2  H1  UNL     1      -5.096   3.535  12.835  1.00  0.00     0.156 HD
ENDROOT
BRANCH   1   3
HETATM    3  C5  UNL     1      -4.866   3.395  14.959  1.00  0.00     0.221 C 
BRANCH   3   4
HETATM    4  C4  UNL     1      -5.502   1.975  14.903  1.00  0.00     0.067 C 
BRANCH   4   5
HETATM    5  C2  UNL     1      -4.562   1.052  14.213  1.00  0.00     0.125 C 
HETATM    6  C3  UNL     1      -4.438  -0.321  14.877  1.00  0.00     0.040 C 
BRANCH   5   7
HETATM    7  O1  UNL     1      -4.906   0.824  12.863  1.00  0.00    -0.391 OA
HETATM    8  C1  UNL     1      -4.176  -0.226  12.318  1.00  0.00     0.202 C 
ENDBRANCH   5   7
ENDBRANCH   4   5
BRANCH   4   9
HETATM    9  C14 UNL     1      -5.802   1.535  16.289  1.00  0.00     0.000 A 
HETATM   10  C15 UNL     1      -7.153   1.037  16.649  1.00  0.00     0.010 A 
HETATM   11  C16 UNL     1      -6.565   2.312  17.277  1.00  0.00    -0.014 A 
HETATM   12  C17 UNL     1      -6.265   2.182  18.735  1.00  0.00     0.010 C 
ENDBRANCH   4   9
ENDBRANCH   3   4
BRANCH   3  13
HETATM   13  O2  UNL     1      -3.572   3.344  15.392  1.00  0.00    -0.377 OA
ATOM     14  H2  UNL     1      -3.067   4.077  15.062  1.00  0.00     0.212 HD
ENDBRANCH   3  13
ENDBRANCH   1   3
BRANCH   1  15
HETATM   15  C6  UNL     1      -5.402   5.458  13.773  1.00  0.00     0.167 C 
HETATM   16  C7  UNL     1      -6.011   5.885  15.066  1.00  0.00     0.042 C 
BRANCH  15  17
HETATM   17  C8  UNL     1      -6.053   5.970  12.571  1.00  0.00     0.242 C 
HETATM   18  O3  UNL     1      -7.265   6.355  12.669  1.00  0.00    -0.271 OA
HETATM   19  N2  UNL     1      -5.463   6.083  11.283  1.00  0.00    -0.336 N 
HETATM   20  C9  UNL     1      -6.254   6.595  10.133  1.00  0.00     0.127 C 
HETATM   21  C12 UNL     1      -4.161   5.815  10.785  1.00  0.00     0.188 C 
HETATM   22  C10 UNL     1      -5.212   7.472   9.443  1.00  0.00     0.022 C 
HETATM   23  C11 UNL     1      -4.024   6.551   9.482  1.00  0.00     0.038 C 
BRANCH  21  24
HETATM   24  C13 UNL     1      -3.819   4.380  10.634  1.00  0.00     0.196 C 
HETATM   25  O4  UNL     1      -4.146   3.795   9.590  1.00  0.00    -0.646 OA
HETATM   26  O5  UNL     1      -3.153   3.721  11.632  1.00  0.00    -0.646 OA
ENDBRANCH  21  24
ENDBRANCH  15  17
ENDBRANCH   1  15
TORSDOF 9
ENDMDL
MODEL 3
REMARK VINA RESULT: -6.414016292      2.297      6.574
REMARK  9 active torsions:
REMARK  status: ('A' for Active; 'I' for Inactive)
REMARK    1  A    between atoms: O1_2  and  C2_3 
REMARK    2  A    between atoms: C2_3  and  C4_5 
REMARK    3  A    between atoms: C4_5  and  C5_6 
REMARK    4  A    between atoms: C4_5  and  C14_23 
REMARK    5  A    between atoms: C5_6  and  O2_7 
REMARK    6  A    between atoms: C5_6  and  N1_9 
REMARK    7  A    between atoms: N1_9  and  C6_11 
REMARK    8  A    between atoms: C6_11  and  C8_13 
REMARK       I    between atoms: C8_13  and  N2_15 
REMARK    9  A    between atoms: C12_19  and  C13_20 
ROOT
HETATM    1  N1  UNL     1      -4.121   1.829  13.597  1.00  0.00    -0.384 N 
ATOM      2  H1  UNL     1      -3.978   0.822  13.674  1.00  0.00     0.156 HD
ENDROOT
BRANCH   1   3
HETATM    3  C5  UNL     1      -4.170   2.665  14.746  1.00  0.00     0.221 C 
BRANCH   3   4
HETATM    4  C4  UNL     1      -5.664   2.972  15.061  1.00  0.00     0.067 C 
BRANCH   4   5
HETATM    5  C2  UNL     1      -6.053   2.251  16.302  1.00  0.00     0.125 C 
HETATM    6  C3  UNL     1      -7.339   2.772  16.947  1.00  0.00     0.040 C 
BRANCH   5   7
HETATM    7  O1  UNL     1      -6.229   0.865  16.102  1.00  0.00    -0.391 OA
HETATM    8  C1  UNL     1      -6.150   0.159  17.297  1.00  0.00     0.202 C 
ENDBRANCH   5   7
ENDBRANCH   4   5
BRANCH   4   9
HETATM    9  C14 UNL     1      -5.829   4.442  15.192  1.00  0.00     0.000 A 
HETATM   10  C15 UNL     1      -6.334   5.251  14.056  1.00  0.00     0.010 A 
HETATM   11  C16 UNL     1      -4.920   5.449  14.625  1.00  0.00    -0.014 A 
HETATM   12  C17 UNL     1      -4.724   6.762  15.312  1.00  0.00     0.010 C 
ENDBRANCH   4   9
ENDBRANCH   3   4
BRANCH   3  13
HETATM   13  O2  UNL     1      -3.503   2.244  15.860  1.00  0.00    -0.377 OA
ATOM     14  H2  UNL     1      -3.118   1.386  15.729  1.00  0.00     0.212 HD
ENDBRANCH   3  13
ENDBRANCH   1   3
BRANCH   1  15
HETATM   15  C6  UNL     1      -4.284   2.477  12.316  1.00  0.00     0.167 C 
HETATM   16  C7  UNL     1      -4.980   1.623  11.311  1.00  0.00     0.042 C 
BRANCH  15  17
HETATM   17  C8  UNL     1      -3.079   3.150  11.844  1.00  0.00     0.242 C 
HETATM   18  O3  UNL     1      -1.974   2.856  12.408  1.00  0.00    -0.271 OA
HETATM   19  N2  UNL     1      -3.013   4.116  10.804  1.00  0.00    -0.336 N 
HETATM   20  C9  UNL     1      -1.717   4.750  10.443  1.00  0.00     0.127 C 
HETATM   21  C12 UNL     1      -3.983   4.664   9.924  1.00  0.00     0.188 C 
HETATM   22  C10 UNL     1      -1.831   4.777   8.921  1.00  0.00     0.022 C 
HETATM   23  C11 UNL     1      -3.241   5.278   8.771  1.00  0.00     0.038 C 
BRANCH  21  24
HETATM   24  C13 UNL     1      -4.928   5.629  10.537  1.00  0.00     0.196 C 
HETATM   25  O4  UNL     1      -4.480   6.496  11.304  1.00  0.00    -0.646 OA
HETATM   26  O5  UNL     1      -6.264   5.560  10.255  1.00  0.00    -0.646 OA
ENDBRANCH  21  24
ENDBRANCH  15  17
ENDBRANCH   1  15
TORSDOF 9
ENDMDL
MODEL 4
REMARK VINA RESULT: -6.362652833      2.555      6.522
REMARK  9 active torsions:
REMARK  status: ('A' for Active; 'I' for Inactive)
REMARK    1  A    between atoms: O1_2  and  C2_3 
REMARK    2  A    between atoms: C2_3  and  C4_5 
REMARK    3  A    between atoms: C4_5  and  C5_6 
REMARK    4  A    between atoms: C4_5  and  C14_23 
REMARK    5  A    between atoms: C5_6  and  O2_7 
REMARK    6  A    between atoms: C5_6  and  N1_9 
REMARK    7  A    between atoms: N1_9  and  C6_11 
REMARK    8  A    between atoms: C6_11  and  C8_13 
REMARK       I    between atoms: C8_13  and  N2_15 
REMARK    9  A    between atoms: C12_19  and  C13_20 
ROOT
HETATM    1  N1  UNL     1      -4.876   4.115  13.806  1.00  0.00    -0.384 N 
ATOM      2  H1  UNL     1      -5.293   3.463  13.141  1.00  0.00     0.156 HD
ENDROOT
BRANCH   1   3
HETATM    3  C5  UNL     1      -3.882   3.700  14.734  1.00  0.00     0.221 C 
BRANCH   3   4
HETATM    4  C4  UNL     1      -4.129   2.201  15.074  1.00  0.00     0.067 C 
BRANCH   4   5
HETATM    5  C2  UNL     1      -4.956   2.116  16.307  1.00  0.00     0.125 C 
HETATM    6  C3  UNL     1      -6.455   2.307  16.066  1.00  0.00     0.040 C 
BRANCH   5   7
HETATM    7  O1  UNL     1      -4.805   0.889  16.988  1.00  0.00    -0.391 OA
HETATM    8  C1  UNL     1      -6.031   0.367  17.385  1.00  0.00     0.202 C 
ENDBRANCH   5   7
ENDBRANCH   4   5
BRANCH   4   9
HETATM    9  C14 UNL     1      -4.789   1.553  13.913  1.00  0.00     0.000 A 
HETATM   10  C15 UNL     1      -4.525   0.130  13.588  1.00  0.00     0.010 A 
HETATM   11  C16 UNL     1      -4.141   1.264  12.624  1.00  0.00    -0.014 A 
HETATM   12  C17 UNL     1      -4.937   1.274  11.359  1.00  0.00     0.010 C 
ENDBRANCH   4   9
ENDBRANCH   3   4
BRANCH   3  13
HETATM   13  O2  UNL     1      -2.577   3.925  14.401  1.00  0.00    -0.377 OA
ATOM     14  H2  UNL     1      -2.153   4.497  15.029  1.00  0.00     0.212 HD
ENDBRANCH   3  13
ENDBRANCH   1   3
BRANCH   1  15
HETATM   15  C6  UNL     1      -5.266   5.505  13.853  1.00  0.00     0.167 C 
HETATM   16  C7  UNL     1      -5.811   5.918  15.178  1.00  0.00     0.042 C 
BRANCH  15  17
HETATM   17  C8  UNL     1      -6.039   5.935  12.692  1.00  0.00     0.242 C 
HETATM   18  O3  UNL     1      -7.292   6.113  12.846  1.00  0.00    -0.271 OA
HETATM   19  N2  UNL     1      -5.527   6.175  11.388  1.00  0.00    -0.336 N 
HETATM   20  C9  UNL     1      -6.437   6.581  10.284  1.00  0.00     0.127 C 
HETATM   21  C12 UNL     1      -4.221   6.136  10.835  1.00  0.00     0.188 C 
HETATM   22  C10 UNL     1      -5.580   7.634   9.586  1.00  0.00     0.022 C 
HETATM   23  C11 UNL     1      -4.258   6.919   9.553  1.00  0.00     0.038 C 
BRANCH  21  24
HETATM   24  C13 UNL     1      -3.657   4.781  10.626  1.00  0.00     0.196 C 
HETATM   25  O4  UNL     1      -2.886   4.317  11.482  1.00  0.00    -0.646 OA
HETATM   26  O5  UNL     1      -3.986   4.061   9.510  1.00  0.00    -0.646 OA
ENDBRANCH  21  24
ENDBRANCH  15  17
ENDBRANCH   1  15
TORSDOF 9
ENDMDL
MODEL 5
REMARK VINA RESULT: -6.299770213      2.736      4.251
REMARK  9 active torsions:
REMARK  status: ('A' for Active; 'I' for Inactive)
REMARK    1  A    between atoms: O1_2  and  C2_3 
REMARK    2  A    between atoms: C2_3  and  C4_5 
REMARK    3  A    between atoms: C4_5  and  C5_6 
REMARK    4  A    between atoms: C4_5  and  C14_23 
REMARK    5  A    between atoms: C5_6  and  O2_7 
REMARK    6  A    between atoms: C5_6  and  N1_9 
REMARK    7  A    between atoms: N1_9  and  C6_11 
REMARK    8  A    between atoms: C6_11  and  C8_13 
REMARK       I    between atoms: C8_13  and  N2_15 
REMARK    9  A    between atoms: C12_19  and  C13_20 
ROOT
HETATM    1  N1  UNL     1      -4.646   4.182  14.214  1.00  0.00    -0.384 N 
ATOM      2  H1  UNL     1      -3.631   4.139  14.307  1.00  0.00     0.156 HD
ENDROOT
BRANCH   1   3
HETATM    3  C5  UNL     1      -5.310   5.378  13.830  1.00  0.00     0.221 C 
BRANCH   3   4
HETATM    4  C4  UNL     1      -4.541   5.997  12.625  1.00  0.00     0.067 C 
BRANCH   4   5
HETATM    5  C2  UNL     1      -5.509   6.709  11.749  1.00  0.00     0.125 C 
HETATM    6  C3  UNL     1      -4.883   7.825  10.909  1.00  0.00     0.040 C 
BRANCH   5   7
HETATM    7  O1  UNL     1      -6.177   5.849  10.853  1.00  0.00    -0.391 OA
HETATM    8  C1  UNL     1      -6.646   6.533   9.737  1.00  0.00     0.202 C 
ENDBRANCH   5   7
ENDBRANCH   4   5
BRANCH   4   9
HETATM    9  C14 UNL     1      -3.488   6.903  13.149  1.00  0.00     0.000 A 
HETATM   10  C15 UNL     1      -2.157   6.373  13.535  1.00  0.00     0.010 A 
HETATM   11  C16 UNL     1      -3.099   7.020  14.563  1.00  0.00    -0.014 A 
HETATM   12  C17 UNL     1      -2.600   8.320  15.104  1.00  0.00     0.010 C 
ENDBRANCH   4   9
ENDBRANCH   3   4
BRANCH   3  13
HETATM   13  O2  UNL     1      -6.650   5.301  13.578  1.00  0.00    -0.377 OA
ATOM     14  H2  UNL     1      -6.906   4.421  13.331  1.00  0.00     0.212 HD
ENDBRANCH   3  13
ENDBRANCH   1   3
BRANCH   1  15
HETATM   15  C6  UNL     1      -5.479   3.030  14.467  1.00  0.00     0.167 C 
HETATM   16  C7  UNL     1      -6.193   3.097  15.774  1.00  0.00     0.042 C 
BRANCH  15  17
HETATM   17  C8  UNL     1      -4.826   1.759  14.170  1.00  0.00     0.242 C 
HETATM   18  O3  UNL     1      -4.412   1.060  15.153  1.00  0.00    -0.271 OA
HETATM   19  N2  UNL     1      -4.602   1.215  12.877  1.00  0.00    -0.336 N 
HETATM   20  C9  UNL     1      -3.892  -0.083  12.716  1.00  0.00     0.127 C 
HETATM   21  C12 UNL     1      -4.943   1.647  11.569  1.00  0.00     0.188 C 
HETATM   22  C10 UNL     1      -4.719  -0.719  11.602  1.00  0.00     0.022 C 
HETATM   23  C11 UNL     1      -4.845   0.450  10.666  1.00  0.00     0.038 C 
BRANCH  21  24
HETATM   24  C13 UNL     1      -4.152   2.787  11.046  1.00  0.00     0.196 C 
HETATM   25  O4  UNL     1      -4.482   3.296   9.963  1.00  0.00    -0.646 OA
HETATM   26  O5  UNL     1      -3.080   3.263  11.751  1.00  0.00    -0.646 OA
ENDBRANCH  21  24
ENDBRANCH  15  17
ENDBRANCH   1  15
TORSDOF 9
ENDMDL
