MODEL 1
REMARK VINA RESULT: -6.543365174      0.000      0.000
REMARK  10 active torsions:
REMARK  status: ('A' for Active; 'I' for Inactive)
REMARK    1  A    between atoms: C2_2  and  C4_4 
REMARK    2  A    between atoms: C4_4  and  N1_6 
REMARK    3  A    between atoms: N1_6  and  C6_8 
REMARK    4  A    between atoms: C6_8  and  O1_9 
REMARK    5  A    between atoms: C6_8  and  C7_11 
REMARK    6  A    between atoms: C7_11  and  C8_12 
REMARK    7  A    between atoms: C8_12  and  C9_13 
REMARK       I    between atoms: C9_13  and  N2_15 
REMARK    8  A    between atoms: N2_15  and  C10_17 
REMARK    9  A    between atoms: C10_17  and  C11_18 
REMARK       I    between atoms: C11_18  and  N3_20 
REMARK   10  A    between atoms: N3_20  and  N4_22 
ROOT
HETATM    1  N4  UNL     1      -4.783   2.856  15.056  1.00  0.00    -0.230 N 
HETATM    2  C12 UNL     1      -6.138   3.266  15.394  1.00  0.00     0.191 C 
HETATM    3  C13 UNL     1      -4.258   1.737  15.682  1.00  0.00     0.200 C 
HETATM    4  N5  UNL     1      -3.834   0.781  16.196  1.00  0.00    -0.170 NA
ENDROOT
BRANCH   1   5
HETATM    5  N3  UNL     1      -4.070   3.574  14.124  1.00  0.00    -0.258 N 
HETATM    6  C11 UNL     1      -4.289   3.484  12.760  1.00  0.00     0.254 C 
HETATM    7  O3  UNL     1      -5.183   2.689  12.273  1.00  0.00    -0.270 OA
ATOM      8  H3  UNL     1      -3.341   4.206  14.455  1.00  0.00     0.191 HD
BRANCH   6   9
HETATM    9  C10 UNL     1      -3.514   4.291  11.793  1.00  0.00     0.227 C 
BRANCH   9  10
HETATM   10  N2  UNL     1      -4.238   5.379  11.200  1.00  0.00    -0.352 N 
HETATM   11  C9  UNL     1      -4.415   5.384   9.797  1.00  0.00     0.227 C 
HETATM   12  O2  UNL     1      -3.973   4.468   9.062  1.00  0.00    -0.273 OA
ATOM     13  H2  UNL     1      -4.615   6.132  11.777  1.00  0.00     0.162 HD
BRANCH  11  14
HETATM   14  C8  UNL     1      -5.173   6.545   9.193  1.00  0.00     0.048 C 
HETATM   15  C14 UNL     1      -4.627   7.803   9.750  1.00  0.00     0.020 C 
HETATM   16  C15 UNL     1      -5.674   8.426  10.624  1.00  0.00     0.001 C 
HETATM   17  C16 UNL     1      -6.851   7.474  10.637  1.00  0.00     0.001 C 
HETATM   18  C17 UNL     1      -6.586   6.388   9.641  1.00  0.00     0.020 C 
BRANCH  14  19
HETATM   19  C7  UNL     1      -4.972   6.383   7.695  1.00  0.00     0.103 C 
BRANCH  19  20
HETATM   20  C6  UNL     1      -6.160   6.623   6.892  1.00  0.00     0.112 C 
BRANCH  20  21
HETATM   21  N1  UNL     1      -6.545   7.876   6.464  1.00  0.00    -0.370 N 
ATOM     22  H1  UNL     1      -6.322   8.126   5.500  1.00  0.00     0.161 HD
BRANCH  21  23
HETATM   23  C4  UNL     1      -7.252   8.888   7.277  1.00  0.00     0.082 C 
HETATM   24  C5  UNL     1      -6.497  10.183   7.263  1.00  0.00     0.032 C 
BRANCH  23  25
HETATM   25  C2  UNL     1      -8.701   8.952   6.995  1.00  0.00    -0.000 C 
HETATM   26  C1  UNL     1      -9.458   8.061   7.946  1.00  0.00     0.011 C 
HETATM   27  C3  UNL     1      -9.304  10.329   7.073  1.00  0.00     0.011 C 
ENDBRANCH  23  25
ENDBRANCH  21  23
ENDBRANCH  20  21
BRANCH  20  28
HETATM   28  O1  UNL     1      -6.931   5.619   6.544  1.00  0.00    -0.350 OA
ATOM     29  H1  UNL     1      -6.548   4.967   5.969  1.00  0.00     0.219 HD
ENDBRANCH  20  28
ENDBRANCH  19  20
ENDBRANCH  14  19
ENDBRANCH  11  14
ENDBRANCH   9  10
ENDBRANCH   6   9
ENDBRANCH   1   5
TORSDOF 10
ENDMDL
MODEL 2
REMARK VINA RESULT: -6.488964902      4.297      6.276
REMARK  10 active torsions:
REMARK  status: ('A' for Active; 'I' for Inactive)
REMARK    1  A    between atoms: C2_2  and  C4_4 
REMARK    2  A    between atoms: C4_4  and  N1_6 
REMARK    3  A    between atoms: N1_6  and  C6_8 
REMARK    4  A    between atoms: C6_8  and  O1_9 
REMARK    5  A    between atoms: C6_8  and  C7_11 
REMARK    6  A    between atoms: C7_11  and  C8_12 
REMARK    7  A    between atoms: C8_12  and  C9_13 
REMARK       I    between atoms: C9_13  and  N2_15 
REMARK    8  A    between atoms: N2_15  and  C10_17 
REMARK    9  A    between atoms: C10_17  and  C11_18 
REMARK       I    between atoms: C11_18  and  N3_20 
REMARK   10  A    between atoms: N3_20  and  N4_22 
ROOT
HETATM    1  N4  UNL     1      -4.409  -0.068  11.711  1.00  0.00    -0.230 N 
HETATM    2  C12 UNL     1      -5.214   0.210  10.529  1.00  0.00     0.191 C 
HETATM    3  C13 UNL     1      -3.714  -1.264  11.767  1.00  0.00     0.200 C 
HETATM    4  N5  UNL     1      -3.113  -2.262  11.795  1.00  0.00    -0.170 NA
ENDROOT
BRANCH   1   5
HETATM    5  N3  UNL     1      -4.351   0.861  12.725  1.00  0.00    -0.258 N 
HETATM    6  C11 UNL     1      -4.557   0.548  14.057  1.00  0.00     0.254 C 
HETATM    7  O3  UNL     1      -4.839  -0.655  14.431  1.00  0.00    -0.270 OA
ATOM      8  H3  UNL     1      -4.147   1.830  12.481  1.00  0.00     0.191 HD
BRANCH   6   9
HETATM    9  C10 UNL     1      -4.463   1.574  15.119  1.00  0.00     0.227 C 
BRANCH   9  10
HETATM   10  N2  UNL     1      -4.048   2.871  14.669  1.00  0.00    -0.352 N 
HETATM   11  C9  UNL     1      -5.008   3.711  14.058  1.00  0.00     0.227 C 
HETATM   12  O2  UNL     1      -6.205   3.363  13.909  1.00  0.00    -0.273 OA
ATOM     13  H2  UNL     1      -3.083   3.181  14.787  1.00  0.00     0.162 HD
BRANCH  11  14
HETATM   14  C8  UNL     1      -4.546   5.070  13.582  1.00  0.00     0.048 C 
HETATM   15  C14 UNL     1      -5.734   5.937  13.415  1.00  0.00     0.020 C 
HETATM   16  C15 UNL     1      -5.914   6.215  11.952  1.00  0.00     0.001 C 
HETATM   17  C16 UNL     1      -4.839   5.434  11.227  1.00  0.00     0.001 C 
HETATM   18  C17 UNL     1      -3.917   4.845  12.250  1.00  0.00     0.020 C 
BRANCH  14  19
HETATM   19  C7  UNL     1      -3.578   5.532  14.659  1.00  0.00     0.103 C 
BRANCH  19  20
HETATM   20  C6  UNL     1      -2.183   5.565  14.250  1.00  0.00     0.112 C 
BRANCH  20  21
HETATM   21  N1  UNL     1      -1.550   6.708  13.810  1.00  0.00    -0.370 N 
ATOM     22  H1  UNL     1      -0.636   6.593  13.371  1.00  0.00     0.161 HD
BRANCH  21  23
HETATM   23  C4  UNL     1      -2.077   8.085  13.919  1.00  0.00     0.082 C 
HETATM   24  C5  UNL     1      -1.680   8.690  15.232  1.00  0.00     0.032 C 
BRANCH  23  25
HETATM   25  C2  UNL     1      -1.839   8.896  12.707  1.00  0.00    -0.000 C 
HETATM   26  C1  UNL     1      -2.874   8.585  11.659  1.00  0.00     0.011 C 
HETATM   27  C3  UNL     1      -1.839  10.386  12.929  1.00  0.00     0.011 C 
ENDBRANCH  23  25
ENDBRANCH  21  23
ENDBRANCH  20  21
BRANCH  20  28
HETATM   28  O1  UNL     1      -1.463   4.468  14.283  1.00  0.00    -0.350 OA
ATOM     29  H1  UNL     1      -1.332   4.071  15.136  1.00  0.00     0.219 HD
ENDBRANCH  20  28
ENDBRANCH  19  20
ENDBRANCH  14  19
ENDBRANCH  11  14
ENDBRANCH   9  10
ENDBRANCH   6   9
ENDBRANCH   1   5
TORSDOF 10
ENDMDL
MODEL 3
REMARK VINA RESULT: -6.452074098      2.424      3.916
REMARK  10 active torsions:
REMARK  status: ('A' for Active; 'I' for Inactive)
REMARK    1  A    between atoms: C2_2  and  C4_4 
REMARK    2  A    between atoms: C4_4  and  N1_6 
REMARK    3  A    between atoms: N1_6  and  C6_8 
REMARK    4  A    between atoms: C6_8  and  O1_9 
REMARK    5  A    between atoms: C6_8  and  C7_11 
REMARK    6  A    between atoms: C7_11  and  C8_12 
REMARK    7  A    between atoms: C8_12  and  C9_13 
REMARK       I    between atoms: C9_13  and  N2_15 
REMARK    8  A    between atoms: N2_15  and  C10_17 
REMARK    9  A    between atoms: C10_17  and  C11_18 
REMARK       I    between atoms: C11_18  and  N3_20 
REMARK   10  A    between atoms: N3_20  and  N4_22 
ROOT
HETATM    1  N4  UNL     1      -6.046   2.001  16.307  1.00  0.00    -0.230 N 
HETATM    2  C12 UNL     1      -7.219   1.257  16.744  1.00  0.00     0.191 C 
HETATM    3  C13 UNL     1      -4.831   1.338  16.246  1.00  0.00     0.200 C 
HETATM    4  N5  UNL     1      -3.818   0.766  16.174  1.00  0.00    -0.170 NA
ENDROOT
BRANCH   1   5
HETATM    5  N3  UNL     1      -6.176   3.325  15.959  1.00  0.00    -0.258 N 
HETATM    6  C11 UNL     1      -6.136   3.777  14.651  1.00  0.00     0.254 C 
HETATM    7  O3  UNL     1      -5.954   2.965  13.663  1.00  0.00    -0.270 OA
ATOM      8  H3  UNL     1      -6.307   4.010  16.703  1.00  0.00     0.191 HD
BRANCH   6   9
HETATM    9  C10 UNL     1      -6.302   5.209  14.317  1.00  0.00     0.227 C 
BRANCH   9  10
HETATM   10  N2  UNL     1      -5.623   5.632  13.126  1.00  0.00    -0.352 N 
HETATM   11  C9  UNL     1      -6.353   6.362  12.159  1.00  0.00     0.227 C 
HETATM   12  O2  UNL     1      -7.562   6.658  12.315  1.00  0.00    -0.273 OA
ATOM     13  H2  UNL     1      -4.637   5.412  12.980  1.00  0.00     0.162 HD
BRANCH  11  14
HETATM   14  C8  UNL     1      -5.619   6.791  10.908  1.00  0.00     0.048 C 
HETATM   15  C14 UNL     1      -5.514   8.267  10.908  1.00  0.00     0.020 C 
HETATM   16  C15 UNL     1      -6.370   8.802   9.799  1.00  0.00     0.001 C 
HETATM   17  C16 UNL     1      -7.055   7.610   9.166  1.00  0.00     0.001 C 
HETATM   18  C17 UNL     1      -6.478   6.364   9.766  1.00  0.00     0.020 C 
BRANCH  14  19
HETATM   19  C7  UNL     1      -4.287   6.066  10.990  1.00  0.00     0.103 C 
BRANCH  19  20
HETATM   20  C6  UNL     1      -4.238   4.798  10.281  1.00  0.00     0.112 C 
BRANCH  20  21
HETATM   21  N1  UNL     1      -3.602   4.632   9.068  1.00  0.00    -0.370 N 
ATOM     22  H1  UNL     1      -3.856   3.810   8.519  1.00  0.00     0.161 HD
BRANCH  21  23
HETATM   23  C4  UNL     1      -2.587   5.540   8.494  1.00  0.00     0.082 C 
HETATM   24  C5  UNL     1      -1.305   4.799   8.255  1.00  0.00     0.032 C 
BRANCH  23  25
HETATM   25  C2  UNL     1      -3.105   6.361   7.380  1.00  0.00    -0.000 C 
HETATM   26  C1  UNL     1      -4.325   5.714   6.778  1.00  0.00     0.011 C 
HETATM   27  C3  UNL     1      -3.465   7.776   7.746  1.00  0.00     0.011 C 
ENDBRANCH  23  25
ENDBRANCH  21  23
ENDBRANCH  20  21
BRANCH  20  28
HETATM   28  O1  UNL     1      -4.823   3.739  10.788  1.00  0.00    -0.350 OA
ATOM     29  H1  UNL     1      -5.662   3.496  10.415  1.00  0.00     0.219 HD
ENDBRANCH  20  28
ENDBRANCH  19  20
ENDBRANCH  14  19
ENDBRANCH  11  14
ENDBRANCH   9  10
ENDBRANCH   6   9
ENDBRANCH   1   5
TORSDOF 10
ENDMDL
MODEL 4
REMARK VINA RESULT: -6.409971670      2.368      3.705
REMARK  10 active torsions:
REMARK  status: ('A' for Active; 'I' for Inactive)
REMARK    1  A    between atoms: C2_2  and  C4_4 
REMARK    2  A    between atoms: C4_4  and  N1_6 
REMARK    3  A    between atoms: N1_6  and  C6_8 
REMARK    4  A    between atoms: C6_8  and  O1_9 
REMARK    5  A    between atoms: C6_8  and  C7_11 
REMARK    6  A    between atoms: C7_11  and  C8_12 
REMARK    7  A    between atoms: C8_12  and  C9_13 
REMARK       I    between atoms: C9_13  and  N2_15 
REMARK    8  A    between atoms: N2_15  and  C10_17 
REMARK    9  A    between atoms: C10_17  and  C11_18 
REMARK       I    between atoms: C11_18  and  N3_20 
REMARK   10  A    between atoms: N3_20  and  N4_22 
ROOT
HETATM    1  N4  UNL     1      -6.394   1.994  16.369  1.00  0.00    -0.230 N 
HETATM    2  C12 UNL     1      -7.016   3.039  17.168  1.00  0.00     0.191 C 
HETATM    3  C13 UNL     1      -6.280   0.726  16.916  1.00  0.00     0.200 C 
HETATM    4  N5  UNL     1      -6.210  -0.342  17.375  1.00  0.00    -0.170 NA
ENDROOT
BRANCH   1   5
HETATM    5  N3  UNL     1      -5.951   2.285  15.099  1.00  0.00    -0.258 N 
HETATM    6  C11 UNL     1      -4.762   1.805  14.577  1.00  0.00     0.254 C 
HETATM    7  O3  UNL     1      -3.975   1.055  15.274  1.00  0.00    -0.270 OA
ATOM      8  H3  UNL     1      -6.528   2.887  14.512  1.00  0.00     0.191 HD
BRANCH   6   9
HETATM    9  C10 UNL     1      -4.333   2.125  13.198  1.00  0.00     0.227 C 
BRANCH   9  10
HETATM   10  N2  UNL     1      -4.223   3.527  12.912  1.00  0.00    -0.352 N 
HETATM   11  C9  UNL     1      -2.966   4.035  12.507  1.00  0.00     0.227 C 
HETATM   12  O2  UNL     1      -1.956   3.302  12.381  1.00  0.00    -0.273 OA
ATOM     13  H2  UNL     1      -5.032   4.143  12.998  1.00  0.00     0.162 HD
BRANCH  11  14
HETATM   14  C8  UNL     1      -2.872   5.517  12.219  1.00  0.00     0.048 C 
HETATM   15  C14 UNL     1      -1.561   6.005  12.703  1.00  0.00     0.020 C 
HETATM   16  C15 UNL     1      -1.798   6.916  13.871  1.00  0.00     0.001 C 
HETATM   17  C16 UNL     1      -3.290   6.912  14.128  1.00  0.00     0.001 C 
HETATM   18  C17 UNL     1      -3.955   6.158  13.018  1.00  0.00     0.020 C 
BRANCH  14  19
HETATM   19  C7  UNL     1      -3.063   5.617  10.715  1.00  0.00     0.103 C 
BRANCH  19  20
HETATM   20  C6  UNL     1      -4.444   5.764  10.286  1.00  0.00     0.112 C 
BRANCH  20  21
HETATM   21  N1  UNL     1      -4.946   6.923   9.732  1.00  0.00    -0.370 N 
ATOM     22  H1  UNL     1      -4.937   6.994   8.714  1.00  0.00     0.161 HD
BRANCH  21  23
HETATM   23  C4  UNL     1      -5.496   8.072  10.483  1.00  0.00     0.082 C 
HETATM   24  C5  UNL     1      -4.896   9.352   9.985  1.00  0.00     0.032 C 
BRANCH  23  25
HETATM   25  C2  UNL     1      -6.966   8.028  10.618  1.00  0.00    -0.000 C 
HETATM   26  C1  UNL     1      -7.589   7.464   9.368  1.00  0.00     0.011 C 
HETATM   27  C3  UNL     1      -7.475   7.227  11.788  1.00  0.00     0.011 C 
ENDBRANCH  23  25
ENDBRANCH  21  23
ENDBRANCH  20  21
BRANCH  20  28
HETATM   28  O1  UNL     1      -5.284   4.765  10.422  1.00  0.00    -0.350 OA
ATOM     29  H1  UNL     1      -5.041   4.086  11.041  1.00  0.00     0.219 HD
ENDBRANCH  20  28
ENDBRANCH  19  20
ENDBRANCH  14  19
ENDBRANCH  11  14
ENDBRANCH   9  10
ENDBRANCH   6   9
ENDBRANCH   1   5
TORSDOF 10
ENDMDL
MODEL 5
REMARK VINA RESULT: -6.406825926      4.292      5.785
REMARK  10 active torsions:
REMARK  status: ('A' for Active; 'I' for Inactive)
REMARK    1  A    between atoms: C2_2  and  C4_4 
REMARK    2  A    between atoms: C4_4  and  N1_6 
REMARK    3  A    between atoms: N1_6  and  C6_8 
REMARK    4  A    between atoms: C6_8  and  O1_9 
REMARK    5  A    between atoms: C6_8  and  C7_11 
REMARK    6  A    between atoms: C7_11  and  C8_12 
REMARK    7  A    between atoms: C8_12  and  C9_13 
REMARK       I    between atoms: C9_13  and  N2_15 
REMARK    8  A    between atoms: N2_15  and  C10_17 
REMARK    9  A    between atoms: C10_17  and  C11_18 
REMARK       I    between atoms: C11_18  and  N3_20 
REMARK   10  A    between atoms: N3_20  and  N4_22 
ROOT
HETATM    1  N4  UNL     1      -5.957   1.816  15.995  1.00  0.00    -0.230 N 
HETATM    2  C12 UNL     1      -6.722   2.942  16.514  1.00  0.00     0.191 C 
HETATM    3  C13 UNL     1      -5.957   0.633  16.715  1.00  0.00     0.200 C 
HETATM    4  N5  UNL     1      -5.982  -0.366  17.315  1.00  0.00    -0.170 NA
ENDROOT
BRANCH   1   5
HETATM    5  N3  UNL     1      -5.272   1.952  14.809  1.00  0.00    -0.258 N 
HETATM    6  C11 UNL     1      -4.753   0.881  14.102  1.00  0.00     0.254 C 
HETATM    7  O3  UNL     1      -4.867  -0.330  14.534  1.00  0.00    -0.270 OA
ATOM      8  H3  UNL     1      -5.140   2.890  14.432  1.00  0.00     0.191 HD
BRANCH   6   9
HETATM    9  C10 UNL     1      -4.042   1.069  12.819  1.00  0.00     0.227 C 
BRANCH   9  10
HETATM   10  N2  UNL     1      -3.474   2.374  12.630  1.00  0.00    -0.352 N 
HETATM   11  C9  UNL     1      -4.053   3.225  11.660  1.00  0.00     0.227 C 
HETATM   12  O2  UNL     1      -5.046   2.881  10.973  1.00  0.00    -0.273 OA
ATOM     13  H2  UNL     1      -2.673   2.680  13.182  1.00  0.00     0.162 HD
BRANCH  11  14
HETATM   14  C8  UNL     1      -3.434   4.592  11.471  1.00  0.00     0.048 C 
HETATM   15  C14 UNL     1      -3.701   5.041  10.086  1.00  0.00     0.020 C 
HETATM   16  C15 UNL     1      -2.401   5.073   9.340  1.00  0.00     0.001 C 
HETATM   17  C16 UNL     1      -1.341   4.562  10.294  1.00  0.00     0.001 C 
HETATM   18  C17 UNL     1      -1.965   4.402  11.646  1.00  0.00     0.020 C 
BRANCH  14  19
HETATM   19  C7  UNL     1      -4.084   5.447  12.545  1.00  0.00     0.103 C 
BRANCH  19  20
HETATM   20  C6  UNL     1      -3.358   5.500  13.804  1.00  0.00     0.112 C 
BRANCH  20  21
HETATM   21  N1  UNL     1      -2.386   6.439  14.079  1.00  0.00    -0.370 N 
ATOM     22  H1  UNL     1      -1.496   6.094  14.439  1.00  0.00     0.161 HD
BRANCH  21  23
HETATM   23  C4  UNL     1      -2.520   7.900  13.898  1.00  0.00     0.082 C 
HETATM   24  C5  UNL     1      -2.323   8.604  15.206  1.00  0.00     0.032 C 
BRANCH  23  25
HETATM   25  C2  UNL     1      -1.761   8.414  12.738  1.00  0.00    -0.000 C 
HETATM   26  C1  UNL     1      -0.518   7.592  12.522  1.00  0.00     0.011 C 
HETATM   27  C3  UNL     1      -2.526   8.445  11.441  1.00  0.00     0.011 C 
ENDBRANCH  23  25
ENDBRANCH  21  23
ENDBRANCH  20  21
BRANCH  20  28
HETATM   28  O1  UNL     1      -3.612   4.622  14.745  1.00  0.00    -0.350 OA
ATOM     29  H1  UNL     1      -4.410   4.116  14.651  1.00  0.00     0.219 HD
ENDBRANCH  20  28
ENDBRANCH  19  20
ENDBRANCH  14  19
ENDBRANCH  11  14
ENDBRANCH   9  10
ENDBRANCH   6   9
ENDBRANCH   1   5
TORSDOF 10
ENDMDL
