MODEL 1
REMARK VINA RESULT: -7.067922792      0.000      0.000
REMARK  8 active torsions:
REMARK  status: ('A' for Active; 'I' for Inactive)
REMARK       I    between atoms: N1_2  and  C2_4 
REMARK    1  A    between atoms: C2_4  and  C3_6 
REMARK    2  A    between atoms: C3_6  and  N2_7 
REMARK    3  A    between atoms: C3_6  and  C12_22 
REMARK       I    between atoms: N2_7  and  C4_9 
REMARK    4  A    between atoms: C4_9  and  C5_11 
REMARK    5  A    between atoms: C5_11  and  N3_12 
REMARK    6  A    between atoms: C5_11  and  C9_19 
REMARK       I    between atoms: N3_12  and  C6_14 
REMARK    7  A    between atoms: C6_14  and  C7_16 
REMARK    8  A    between atoms: C7_16  and  S1_17 
ROOT
HETATM    1  N2  UNL     1      -4.735   3.786  13.577  1.00  0.00    -0.346 N 
ATOM      2  H2  UNL     1      -5.646   4.037  13.192  1.00  0.00     0.163 HD
HETATM    3  C4  UNL     1      -3.748   4.785  13.704  1.00  0.00     0.241 C 
HETATM    4  O2  UNL     1      -2.620   4.409  14.191  1.00  0.00    -0.271 OA
ENDROOT
BRANCH   1   5
HETATM    5  C3  UNL     1      -4.500   2.437  13.967  1.00  0.00     0.180 C 
BRANCH   5   6
HETATM    6  C2  UNL     1      -4.819   1.545  12.794  1.00  0.00     0.240 C 
HETATM    7  N1  UNL     1      -4.187   0.297  12.668  1.00  0.00    -0.364 N 
HETATM    8  C1  UNL     1      -4.486  -0.557  11.555  1.00  0.00     0.149 C 
ATOM      9  H1  UNL     1      -3.513  -0.004  13.372  1.00  0.00     0.161 HD
HETATM   10  O1  UNL     1      -5.646   1.901  11.922  1.00  0.00    -0.271 OA
ENDBRANCH   5   6
BRANCH   5  11
HETATM   11  C12 UNL     1      -5.350   1.961  15.096  1.00  0.00     0.018 C 
HETATM   12  C13 UNL     1      -4.614   1.259  16.195  1.00  0.00     0.007 C 
HETATM   13  C14 UNL     1      -5.625   0.528  17.032  1.00  0.00     0.000 C 
HETATM   14  C15 UNL     1      -6.786   1.329  17.475  1.00  0.00     0.000 C 
HETATM   15  C16 UNL     1      -7.292   2.340  16.495  1.00  0.00     0.000 C 
HETATM   16  C17 UNL     1      -6.190   3.035  15.727  1.00  0.00     0.007 C 
ENDBRANCH   5  11
ENDBRANCH   1   5
BRANCH   3  17
HETATM   17  C5  UNL     1      -3.892   6.204  13.330  1.00  0.00     0.180 C 
BRANCH  17  18
HETATM   18  N3  UNL     1      -4.168   6.377  11.925  1.00  0.00    -0.347 N 
HETATM   19  C6  UNL     1      -5.467   6.327  11.369  1.00  0.00     0.227 C 
HETATM   20  O3  UNL     1      -6.425   6.117  12.169  1.00  0.00    -0.273 OA
ATOM     21  H3  UNL     1      -3.382   6.544  11.297  1.00  0.00     0.163 HD
BRANCH  19  22
HETATM   22  C7  UNL     1      -5.770   6.499   9.947  1.00  0.00     0.176 C 
BRANCH  22  23
HETATM   23  S1  UNL     1      -7.311   7.410   9.669  1.00  0.00    -0.164 SA
HETATM   24  C8  UNL     1      -8.120   6.932   8.127  1.00  0.00     0.090 C 
ENDBRANCH  22  23
ENDBRANCH  19  22
ENDBRANCH  17  18
BRANCH  17  25
HETATM   25  C9  UNL     1      -2.725   7.075  13.671  1.00  0.00     0.009 C 
HETATM   26  C10 UNL     1      -2.891   7.828  14.973  1.00  0.00     0.012 C 
HETATM   27  C11 UNL     1      -2.231   7.953  12.574  1.00  0.00     0.012 C 
ENDBRANCH  17  25
ENDBRANCH   3  17
TORSDOF 8
ENDMDL
MODEL 2
REMARK VINA RESULT: -7.063935131      1.128      1.128
REMARK  8 active torsions:
REMARK  status: ('A' for Active; 'I' for Inactive)
REMARK       I    between atoms: N1_2  and  C2_4 
REMARK    1  A    between atoms: C2_4  and  C3_6 
REMARK    2  A    between atoms: C3_6  and  N2_7 
REMARK    3  A    between atoms: C3_6  and  C12_22 
REMARK       I    between atoms: N2_7  and  C4_9 
REMARK    4  A    between atoms: C4_9  and  C5_11 
REMARK    5  A    between atoms: C5_11  and  N3_12 
REMARK    6  A    between atoms: C5_11  and  C9_19 
REMARK       I    between atoms: N3_12  and  C6_14 
REMARK    7  A    between atoms: C6_14  and  C7_16 
REMARK    8  A    between atoms: C7_16  and  S1_17 
ROOT
HETATM    1  N2  UNL     1      -4.517   3.495  13.885  1.00  0.00    -0.346 N 
ATOM      2  H2  UNL     1      -5.358   3.757  13.369  1.00  0.00     0.163 HD
HETATM    3  C4  UNL     1      -3.522   4.470  14.109  1.00  0.00     0.241 C 
HETATM    4  O2  UNL     1      -2.486   4.081  14.761  1.00  0.00    -0.271 OA
ENDROOT
BRANCH   1   5
HETATM    5  C3  UNL     1      -4.386   2.158  14.355  1.00  0.00     0.180 C 
BRANCH   5   6
HETATM    6  C2  UNL     1      -4.604   1.225  13.191  1.00  0.00     0.240 C 
HETATM    7  N1  UNL     1      -4.869   1.745  11.914  1.00  0.00    -0.364 N 
HETATM    8  C1  UNL     1      -5.078   0.863  10.802  1.00  0.00     0.149 C 
ATOM      9  H1  UNL     1      -4.913   2.755  11.776  1.00  0.00     0.161 HD
HETATM   10  O1  UNL     1      -4.553  -0.018  13.346  1.00  0.00    -0.271 OA
ENDBRANCH   5   6
BRANCH   5  11
HETATM   11  C12 UNL     1      -5.379   1.766  15.396  1.00  0.00     0.018 C 
HETATM   12  C13 UNL     1      -4.802   1.113  16.614  1.00  0.00     0.007 C 
HETATM   13  C14 UNL     1      -5.927   0.453  17.359  1.00  0.00     0.000 C 
HETATM   14  C15 UNL     1      -7.110   1.303  17.612  1.00  0.00     0.000 C 
HETATM   15  C16 UNL     1      -7.465   2.266  16.523  1.00  0.00     0.000 C 
HETATM   16  C17 UNL     1      -6.259   2.892  15.860  1.00  0.00     0.007 C 
ENDBRANCH   5  11
ENDBRANCH   1   5
BRANCH   3  17
HETATM   17  C5  UNL     1      -3.564   5.874  13.664  1.00  0.00     0.180 C 
BRANCH  17  18
HETATM   18  N3  UNL     1      -3.741   5.995  12.238  1.00  0.00    -0.347 N 
HETATM   19  C6  UNL     1      -5.001   5.959  11.598  1.00  0.00     0.227 C 
HETATM   20  O3  UNL     1      -6.016   5.812  12.340  1.00  0.00    -0.273 OA
ATOM     21  H3  UNL     1      -2.910   6.112  11.658  1.00  0.00     0.163 HD
BRANCH  19  22
HETATM   22  C7  UNL     1      -5.203   6.079  10.153  1.00  0.00     0.176 C 
BRANCH  22  23
HETATM   23  S1  UNL     1      -6.655   7.078   9.734  1.00  0.00    -0.164 SA
HETATM   24  C8  UNL     1      -6.455   8.809  10.207  1.00  0.00     0.090 C 
ENDBRANCH  22  23
ENDBRANCH  19  22
ENDBRANCH  17  18
BRANCH  17  25
HETATM   25  C9  UNL     1      -2.375   6.698  14.042  1.00  0.00     0.009 C 
HETATM   26  C10 UNL     1      -2.720   7.917  14.869  1.00  0.00     0.012 C 
HETATM   27  C11 UNL     1      -1.432   7.021  12.935  1.00  0.00     0.012 C 
ENDBRANCH  17  25
ENDBRANCH   3  17
TORSDOF 8
ENDMDL
MODEL 3
REMARK VINA RESULT: -7.035422834      2.177      2.373
REMARK  8 active torsions:
REMARK  status: ('A' for Active; 'I' for Inactive)
REMARK       I    between atoms: N1_2  and  C2_4 
REMARK    1  A    between atoms: C2_4  and  C3_6 
REMARK    2  A    between atoms: C3_6  and  N2_7 
REMARK    3  A    between atoms: C3_6  and  C12_22 
REMARK       I    between atoms: N2_7  and  C4_9 
REMARK    4  A    between atoms: C4_9  and  C5_11 
REMARK    5  A    between atoms: C5_11  and  N3_12 
REMARK    6  A    between atoms: C5_11  and  C9_19 
REMARK       I    between atoms: N3_12  and  C6_14 
REMARK    7  A    between atoms: C6_14  and  C7_16 
REMARK    8  A    between atoms: C7_16  and  S1_17 
ROOT
HETATM    1  N2  UNL     1      -4.558   3.434  13.469  1.00  0.00    -0.346 N 
ATOM      2  H2  UNL     1      -5.501   3.688  13.174  1.00  0.00     0.163 HD
HETATM    3  C4  UNL     1      -3.504   4.345  13.249  1.00  0.00     0.241 C 
HETATM    4  O2  UNL     1      -2.339   3.969  13.640  1.00  0.00    -0.271 OA
ENDROOT
BRANCH   1   5
HETATM    5  C3  UNL     1      -4.348   2.171  14.090  1.00  0.00     0.180 C 
BRANCH   5   6
HETATM    6  C2  UNL     1      -4.591   1.094  13.063  1.00  0.00     0.240 C 
HETATM    7  N1  UNL     1      -4.851   1.443  11.727  1.00  0.00    -0.364 N 
HETATM    8  C1  UNL     1      -5.083   0.423  10.745  1.00  0.00     0.149 C 
ATOM      9  H1  UNL     1      -4.875   2.425  11.455  1.00  0.00     0.161 HD
HETATM   10  O1  UNL     1      -4.563  -0.117  13.383  1.00  0.00    -0.271 OA
ENDBRANCH   5   6
BRANCH   5  11
HETATM   11  C12 UNL     1      -5.267   1.877  15.227  1.00  0.00     0.018 C 
HETATM   12  C13 UNL     1      -4.614   1.289  16.439  1.00  0.00     0.007 C 
HETATM   13  C14 UNL     1      -5.694   0.713  17.310  1.00  0.00     0.000 C 
HETATM   14  C15 UNL     1      -6.834   1.612  17.593  1.00  0.00     0.000 C 
HETATM   15  C16 UNL     1      -7.248   2.511  16.471  1.00  0.00     0.000 C 
HETATM   16  C17 UNL     1      -6.081   3.056  15.678  1.00  0.00     0.007 C 
ENDBRANCH   5  11
ENDBRANCH   1   5
BRANCH   3  17
HETATM   17  C5  UNL     1      -3.618   5.672  12.617  1.00  0.00     0.180 C 
BRANCH  17  18
HETATM   18  N3  UNL     1      -3.187   5.664  11.240  1.00  0.00    -0.347 N 
HETATM   19  C6  UNL     1      -3.881   4.995  10.206  1.00  0.00     0.227 C 
HETATM   20  O3  UNL     1      -4.935   4.374  10.531  1.00  0.00    -0.273 OA
ATOM     21  H3  UNL     1      -2.335   6.170  11.000  1.00  0.00     0.163 HD
BRANCH  19  22
HETATM   22  C7  UNL     1      -3.462   4.973   8.803  1.00  0.00     0.176 C 
BRANCH  22  23
HETATM   23  S1  UNL     1      -1.660   4.963   8.615  1.00  0.00    -0.164 SA
HETATM   24  C8  UNL     1      -1.151   4.618   6.917  1.00  0.00     0.090 C 
ENDBRANCH  22  23
ENDBRANCH  19  22
ENDBRANCH  17  18
BRANCH  17  25
HETATM   25  C9  UNL     1      -2.885   6.774  13.313  1.00  0.00     0.009 C 
HETATM   26  C10 UNL     1      -3.423   7.083  14.693  1.00  0.00     0.012 C 
HETATM   27  C11 UNL     1      -2.659   8.009  12.510  1.00  0.00     0.012 C 
ENDBRANCH  17  25
ENDBRANCH   3  17
TORSDOF 8
ENDMDL
MODEL 4
REMARK VINA RESULT: -6.969650024      2.067      2.206
REMARK  8 active torsions:
REMARK  status: ('A' for Active; 'I' for Inactive)
REMARK       I    between atoms: N1_2  and  C2_4 
REMARK    1  A    between atoms: C2_4  and  C3_6 
REMARK    2  A    between atoms: C3_6  and  N2_7 
REMARK    3  A    between atoms: C3_6  and  C12_22 
REMARK       I    between atoms: N2_7  and  C4_9 
REMARK    4  A    between atoms: C4_9  and  C5_11 
REMARK    5  A    between atoms: C5_11  and  N3_12 
REMARK    6  A    between atoms: C5_11  and  C9_19 
REMARK       I    between atoms: N3_12  and  C6_14 
REMARK    7  A    between atoms: C6_14  and  C7_16 
REMARK    8  A    between atoms: C7_16  and  S1_17 
ROOT
HETATM    1  N2  UNL     1      -4.388   3.355  13.047  1.00  0.00    -0.346 N 
ATOM      2  H2  UNL     1      -5.332   3.630  12.772  1.00  0.00     0.163 HD
HETATM    3  C4  UNL     1      -3.306   4.192  12.707  1.00  0.00     0.241 C 
HETATM    4  O2  UNL     1      -2.143   3.793  13.078  1.00  0.00    -0.271 OA
ENDROOT
BRANCH   1   5
HETATM    5  C3  UNL     1      -4.207   2.137  13.762  1.00  0.00     0.180 C 
BRANCH   5   6
HETATM    6  C2  UNL     1      -4.534   0.993  12.836  1.00  0.00     0.240 C 
HETATM    7  N1  UNL     1      -4.778   1.239  11.475  1.00  0.00    -0.364 N 
HETATM    8  C1  UNL     1      -5.090   0.155  10.588  1.00  0.00     0.149 C 
ATOM      9  H1  UNL     1      -4.732   2.192  11.115  1.00  0.00     0.161 HD
HETATM   10  O1  UNL     1      -4.593  -0.183  13.264  1.00  0.00    -0.271 OA
ENDBRANCH   5   6
BRANCH   5  11
HETATM   11  C12 UNL     1      -5.093   1.977  14.951  1.00  0.00     0.018 C 
HETATM   12  C13 UNL     1      -4.450   1.341  16.144  1.00  0.00     0.007 C 
HETATM   13  C14 UNL     1      -5.542   0.915  17.083  1.00  0.00     0.000 C 
HETATM   14  C15 UNL     1      -6.552   1.947  17.399  1.00  0.00     0.000 C 
HETATM   15  C16 UNL     1      -6.917   2.866  16.276  1.00  0.00     0.000 C 
HETATM   16  C17 UNL     1      -5.739   3.253  15.411  1.00  0.00     0.007 C 
ENDBRANCH   5  11
ENDBRANCH   1   5
BRANCH   3  17
HETATM   17  C5  UNL     1      -3.389   5.467  11.972  1.00  0.00     0.180 C 
BRANCH  17  18
HETATM   18  N3  UNL     1      -2.693   5.420  10.709  1.00  0.00    -0.347 N 
HETATM   19  C6  UNL     1      -3.067   4.575   9.639  1.00  0.00     0.227 C 
HETATM   20  O3  UNL     1      -4.071   3.826   9.823  1.00  0.00    -0.273 OA
ATOM     21  H3  UNL     1      -1.887   6.031  10.582  1.00  0.00     0.163 HD
BRANCH  19  22
HETATM   22  C7  UNL     1      -2.375   4.511   8.350  1.00  0.00     0.176 C 
BRANCH  22  23
HETATM   23  S1  UNL     1      -3.345   5.235   7.002  1.00  0.00    -0.164 SA
HETATM   24  C8  UNL     1      -4.447   6.544   7.578  1.00  0.00     0.090 C 
ENDBRANCH  22  23
ENDBRANCH  19  22
ENDBRANCH  17  18
BRANCH  17  25
HETATM   25  C9  UNL     1      -2.893   6.665  12.716  1.00  0.00     0.009 C 
HETATM   26  C10 UNL     1      -3.444   6.776  14.122  1.00  0.00     0.012 C 
HETATM   27  C11 UNL     1      -2.966   7.959  11.982  1.00  0.00     0.012 C 
ENDBRANCH  17  25
ENDBRANCH   3  17
TORSDOF 8
ENDMDL
MODEL 5
REMARK VINA RESULT: -6.955185433      1.501      1.625
REMARK  8 active torsions:
REMARK  status: ('A' for Active; 'I' for Inactive)
REMARK       I    between atoms: N1_2  and  C2_4 
REMARK    1  A    between atoms: C2_4  and  C3_6 
REMARK    2  A    between atoms: C3_6  and  N2_7 
REMARK    3  A    between atoms: C3_6  and  C12_22 
REMARK       I    between atoms: N2_7  and  C4_9 
REMARK    4  A    between atoms: C4_9  and  C5_11 
REMARK    5  A    between atoms: C5_11  and  N3_12 
REMARK    6  A    between atoms: C5_11  and  C9_19 
REMARK       I    between atoms: N3_12  and  C6_14 
REMARK    7  A    between atoms: C6_14  and  C7_16 
REMARK    8  A    between atoms: C7_16  and  S1_17 
ROOT
HETATM    1  N2  UNL     1      -4.495   3.531  13.823  1.00  0.00    -0.346 N 
ATOM      2  H2  UNL     1      -5.353   3.797  13.339  1.00  0.00     0.163 HD
HETATM    3  C4  UNL     1      -3.476   4.492  13.987  1.00  0.00     0.241 C 
HETATM    4  O2  UNL     1      -2.420   4.098  14.602  1.00  0.00    -0.271 OA
ENDROOT
BRANCH   1   5
HETATM    5  C3  UNL     1      -4.365   2.200  14.311  1.00  0.00     0.180 C 
BRANCH   5   6
HETATM    6  C2  UNL     1      -4.605   1.251  13.164  1.00  0.00     0.240 C 
HETATM    7  N1  UNL     1      -4.872   1.754  11.880  1.00  0.00    -0.364 N 
HETATM    8  C1  UNL     1      -5.102   0.857  10.784  1.00  0.00     0.149 C 
ATOM      9  H1  UNL     1      -4.903   2.762  11.726  1.00  0.00     0.161 HD
HETATM   10  O1  UNL     1      -4.569   0.010  13.338  1.00  0.00    -0.271 OA
ENDBRANCH   5   6
BRANCH   5  11
HETATM   11  C12 UNL     1      -5.346   1.828  15.371  1.00  0.00     0.018 C 
HETATM   12  C13 UNL     1      -4.757   1.183  16.587  1.00  0.00     0.007 C 
HETATM   13  C14 UNL     1      -5.876   0.542  17.356  1.00  0.00     0.000 C 
HETATM   14  C15 UNL     1      -7.047   1.406  17.618  1.00  0.00     0.000 C 
HETATM   15  C16 UNL     1      -7.409   2.361  16.525  1.00  0.00     0.000 C 
HETATM   16  C17 UNL     1      -6.208   2.968  15.837  1.00  0.00     0.007 C 
ENDBRANCH   5  11
ENDBRANCH   1   5
BRANCH   3  17
HETATM   17  C5  UNL     1      -3.515   5.889  13.520  1.00  0.00     0.180 C 
BRANCH  17  18
HETATM   18  N3  UNL     1      -3.568   5.987  12.082  1.00  0.00    -0.347 N 
HETATM   19  C6  UNL     1      -4.767   5.932  11.336  1.00  0.00     0.227 C 
HETATM   20  O3  UNL     1      -5.842   5.786  11.989  1.00  0.00    -0.273 OA
ATOM     21  H3  UNL     1      -2.690   6.103  11.576  1.00  0.00     0.163 HD
BRANCH  19  22
HETATM   22  C7  UNL     1      -4.844   6.028   9.877  1.00  0.00     0.176 C 
BRANCH  22  23
HETATM   23  S1  UNL     1      -3.450   5.217   9.051  1.00  0.00    -0.164 SA
HETATM   24  C8  UNL     1      -3.634   5.201   7.255  1.00  0.00     0.090 C 
ENDBRANCH  22  23
ENDBRANCH  19  22
ENDBRANCH  17  18
BRANCH  17  25
HETATM   25  C9  UNL     1      -2.385   6.750  13.990  1.00  0.00     0.009 C 
HETATM   26  C10 UNL     1      -2.821   7.881  14.895  1.00  0.00     0.012 C 
HETATM   27  C11 UNL     1      -1.439   7.209  12.935  1.00  0.00     0.012 C 
ENDBRANCH  17  25
ENDBRANCH   3  17
TORSDOF 8
ENDMDL
