MODEL 1
REMARK VINA RESULT: -6.839107126      0.000      0.000
REMARK  6 active torsions:
REMARK  status: ('A' for Active; 'I' for Inactive)
REMARK    1  A    between atoms: O1_2  and  C2_3 
REMARK    2  A    between atoms: C2_3  and  C3_5 
REMARK    3  A    between atoms: C3_5  and  C4_6 
REMARK    4  A    between atoms: C4_6  and  C5_7 
REMARK       I    between atoms: N1_10  and  C8_12 
REMARK    5  A    between atoms: C8_12  and  C9_14 
REMARK    6  A    between atoms: C9_14  and  C15_27 
REMARK       I    between atoms: N2_15  and  C10_17 
REMARK       I    between atoms: C10_17  and  N3_19 
ROOT
HETATM    1  C9  UNL     1      -3.597   5.700  12.400  1.00  0.00     0.085 C 
HETATM    2  N2  UNL     1      -2.383   5.863  11.887  1.00  0.00    -0.307 N 
ATOM      3  H2  UNL     1      -2.162   6.729  11.394  1.00  0.00     0.170 HD
HETATM    4  C10 UNL     1      -1.379   4.855  12.007  1.00  0.00     0.322 C 
HETATM    5  O4  UNL     1      -1.561   3.828  12.681  1.00  0.00    -0.247 OA
HETATM    6  N3  UNL     1      -0.121   5.108  11.415  1.00  0.00    -0.331 N 
HETATM    7  C11 UNL     1       0.522   4.145  10.541  1.00  0.00     0.155 C 
HETATM    8  C12 UNL     1       1.771   4.807   9.984  1.00  0.00     0.252 C 
HETATM    9  N4  UNL     1       2.642   5.007  11.121  1.00  0.00    -0.072 N 
ATOM     10  H41 UNL     1       3.563   5.330  10.825  1.00  0.00     0.277 HD
ATOM     11  H42 UNL     1       2.909   4.116  11.539  1.00  0.00     0.277 HD
HETATM   12  C13 UNL     1       2.075   5.891  12.105  1.00  0.00     0.252 C 
HETATM   13  C14 UNL     1       0.641   6.273  11.800  1.00  0.00     0.155 C 
ENDROOT
BRANCH   1  14
HETATM   14  C8  UNL     1      -3.886   4.838  13.597  1.00  0.00     0.269 C 
HETATM   15  N1  UNL     1      -4.661   3.697  13.322  1.00  0.00    -0.320 N 
HETATM   16  C3  UNL     1      -4.451   2.520  13.946  1.00  0.00     0.088 C 
ATOM     17  H1  UNL     1      -5.407   3.761  12.629  1.00  0.00     0.169 HD
HETATM   18  O3  UNL     1      -3.398   5.194  14.672  1.00  0.00    -0.266 OA
BRANCH  16  19
HETATM   19  C2  UNL     1      -4.800   1.362  12.984  1.00  0.00     0.305 C 
HETATM   20  O2  UNL     1      -5.292   1.884  12.121  1.00  0.00    -0.258 OA
BRANCH  19  21
HETATM   21  O1  UNL     1      -4.539   0.238  13.165  1.00  0.00    -0.322 OA
HETATM   22  C1  UNL     1      -4.194  -0.695  12.099  1.00  0.00     0.213 C 
ENDBRANCH  19  21
ENDBRANCH  16  19
BRANCH  16  23
HETATM   23  C4  UNL     1      -4.623   2.292  15.416  1.00  0.00     0.067 C 
BRANCH  23  24
HETATM   24  C5  UNL     1      -6.087   2.041  15.803  1.00  0.00    -0.017 C 
HETATM   25  C6  UNL     1      -6.725   3.256  16.431  1.00  0.00     0.010 C 
HETATM   26  C7  UNL     1      -6.015   0.954  16.939  1.00  0.00     0.010 C 
ENDBRANCH  23  24
ENDBRANCH  16  23
ENDBRANCH   1  14
BRANCH   1  27
HETATM   27  C15 UNL     1      -4.824   5.646  11.485  1.00  0.00     0.033 C 
HETATM   28  C16 UNL     1      -5.873   6.710  11.638  1.00  0.00     0.016 C 
HETATM   29  C17 UNL     1      -4.466   5.433  10.075  1.00  0.00     0.016 C 
ENDBRANCH   1  27
TORSDOF 6
ENDMDL
MODEL 2
REMARK VINA RESULT: -6.562964198      2.792      5.029
REMARK  6 active torsions:
REMARK  status: ('A' for Active; 'I' for Inactive)
REMARK    1  A    between atoms: O1_2  and  C2_3 
REMARK    2  A    between atoms: C2_3  and  C3_5 
REMARK    3  A    between atoms: C3_5  and  C4_6 
REMARK    4  A    between atoms: C4_6  and  C5_7 
REMARK       I    between atoms: N1_10  and  C8_12 
REMARK    5  A    between atoms: C8_12  and  C9_14 
REMARK    6  A    between atoms: C9_14  and  C15_27 
REMARK       I    between atoms: N2_15  and  C10_17 
REMARK       I    between atoms: C10_17  and  N3_19 
ROOT
HETATM    1  C9  UNL     1      -3.862   6.155  12.387  1.00  0.00     0.085 C 
HETATM    2  N2  UNL     1      -4.269   6.691  11.242  1.00  0.00    -0.307 N 
ATOM      3  H2  UNL     1      -3.577   6.935  10.533  1.00  0.00     0.170 HD
HETATM    4  C10 UNL     1      -5.652   6.933  10.979  1.00  0.00     0.322 C 
HETATM    5  O4  UNL     1      -6.540   6.562  11.763  1.00  0.00    -0.247 OA
HETATM    6  N3  UNL     1      -5.991   7.521   9.740  1.00  0.00    -0.331 N 
HETATM    7  C11 UNL     1      -6.865   8.676   9.655  1.00  0.00     0.155 C 
HETATM    8  C12 UNL     1      -6.887   9.116   8.201  1.00  0.00     0.252 C 
HETATM    9  N4  UNL     1      -7.526   8.037   7.480  1.00  0.00    -0.072 N 
ATOM     10  H41 UNL     1      -7.703   8.298   6.510  1.00  0.00     0.277 HD
ATOM     11  H42 UNL     1      -8.488   7.906   7.793  1.00  0.00     0.277 HD
HETATM   12  C13 UNL     1      -6.785   6.804   7.557  1.00  0.00     0.252 C 
HETATM   13  C14 UNL     1      -5.605   6.883   8.504  1.00  0.00     0.155 C 
ENDROOT
BRANCH   1  14
HETATM   14  C8  UNL     1      -4.704   5.230  13.220  1.00  0.00     0.269 C 
HETATM   15  N1  UNL     1      -4.873   3.944  12.678  1.00  0.00    -0.320 N 
HETATM   16  C3  UNL     1      -4.914   2.839  13.450  1.00  0.00     0.088 C 
ATOM     17  H1  UNL     1      -4.967   3.843  11.667  1.00  0.00     0.169 HD
HETATM   18  O3  UNL     1      -5.128   5.673  14.291  1.00  0.00    -0.266 OA
BRANCH  16  19
HETATM   19  C2  UNL     1      -4.315   1.648  12.669  1.00  0.00     0.305 C 
HETATM   20  O2  UNL     1      -3.224   1.902  12.607  1.00  0.00    -0.258 OA
BRANCH  19  21
HETATM   21  O1  UNL     1      -4.917   0.716  12.302  1.00  0.00    -0.322 OA
HETATM   22  C1  UNL     1      -4.973   0.286  10.909  1.00  0.00     0.213 C 
ENDBRANCH  19  21
ENDBRANCH  16  19
BRANCH  16  23
HETATM   23  C4  UNL     1      -5.969   2.553  14.473  1.00  0.00     0.067 C 
BRANCH  23  24
HETATM   24  C5  UNL     1      -5.402   2.491  15.898  1.00  0.00    -0.017 C 
HETATM   25  C6  UNL     1      -4.656   1.206  16.157  1.00  0.00     0.010 C 
HETATM   26  C7  UNL     1      -6.672   2.450  16.827  1.00  0.00     0.010 C 
ENDBRANCH  23  24
ENDBRANCH  16  23
ENDBRANCH   1  14
BRANCH   1  27
HETATM   27  C15 UNL     1      -2.972   6.954  13.343  1.00  0.00     0.033 C 
HETATM   28  C16 UNL     1      -1.836   6.243  14.022  1.00  0.00     0.016 C 
HETATM   29  C17 UNL     1      -2.544   8.240  12.772  1.00  0.00     0.016 C 
ENDBRANCH   1  27
TORSDOF 6
ENDMDL
MODEL 3
REMARK VINA RESULT: -6.438921935      2.182      4.781
REMARK  6 active torsions:
REMARK  status: ('A' for Active; 'I' for Inactive)
REMARK    1  A    between atoms: O1_2  and  C2_3 
REMARK    2  A    between atoms: C2_3  and  C3_5 
REMARK    3  A    between atoms: C3_5  and  C4_6 
REMARK    4  A    between atoms: C4_6  and  C5_7 
REMARK       I    between atoms: N1_10  and  C8_12 
REMARK    5  A    between atoms: C8_12  and  C9_14 
REMARK    6  A    between atoms: C9_14  and  C15_27 
REMARK       I    between atoms: N2_15  and  C10_17 
REMARK       I    between atoms: C10_17  and  N3_19 
ROOT
HETATM    1  C9  UNL     1      -2.874   5.238  11.765  1.00  0.00     0.085 C 
HETATM    2  N2  UNL     1      -3.594   5.915  10.879  1.00  0.00    -0.307 N 
ATOM      3  H2  UNL     1      -3.287   5.947   9.906  1.00  0.00     0.170 HD
HETATM    4  C10 UNL     1      -4.789   6.601  11.254  1.00  0.00     0.322 C 
HETATM    5  O4  UNL     1      -5.261   6.512  12.399  1.00  0.00    -0.247 OA
HETATM    6  N3  UNL     1      -5.483   7.310  10.248  1.00  0.00    -0.331 N 
HETATM    7  C11 UNL     1      -5.899   8.688  10.430  1.00  0.00     0.155 C 
HETATM    8  C12 UNL     1      -6.478   9.161   9.107  1.00  0.00     0.252 C 
HETATM    9  N4  UNL     1      -7.673   8.372   8.904  1.00  0.00    -0.072 N 
ATOM     10  H41 UNL     1      -8.203   8.710   8.101  1.00  0.00     0.277 HD
ATOM     11  H42 UNL     1      -8.358   8.550   9.638  1.00  0.00     0.277 HD
HETATM   12  C13 UNL     1      -7.395   6.965   8.786  1.00  0.00     0.252 C 
HETATM   13  C14 UNL     1      -5.945   6.624   9.064  1.00  0.00     0.155 C 
ENDROOT
BRANCH   1  14
HETATM   14  C8  UNL     1      -3.451   4.608  13.001  1.00  0.00     0.269 C 
HETATM   15  N1  UNL     1      -4.349   3.555  12.756  1.00  0.00    -0.320 N 
HETATM   16  C3  UNL     1      -4.410   2.464  13.547  1.00  0.00     0.088 C 
ATOM     17  H1  UNL     1      -4.977   3.617  11.954  1.00  0.00     0.169 HD
HETATM   18  O3  UNL     1      -3.061   5.048  14.086  1.00  0.00    -0.266 OA
BRANCH  16  19
HETATM   19  C2  UNL     1      -4.802   1.236  12.695  1.00  0.00     0.305 C 
HETATM   20  O2  UNL     1      -5.419   1.680  11.871  1.00  0.00    -0.258 OA
BRANCH  19  21
HETATM   21  O1  UNL     1      -4.459   0.139  12.904  1.00  0.00    -0.322 OA
HETATM   22  C1  UNL     1      -4.253  -0.857  11.858  1.00  0.00     0.213 C 
ENDBRANCH  19  21
ENDBRANCH  16  19
BRANCH  16  23
HETATM   23  C4  UNL     1      -4.809   2.479  14.990  1.00  0.00     0.067 C 
BRANCH  23  24
HETATM   24  C5  UNL     1      -6.254   2.958  15.193  1.00  0.00    -0.017 C 
HETATM   25  C6  UNL     1      -6.334   4.451  15.398  1.00  0.00     0.010 C 
HETATM   26  C7  UNL     1      -6.697   2.308  16.557  1.00  0.00     0.010 C 
ENDBRANCH  23  24
ENDBRANCH  16  23
ENDBRANCH   1  14
BRANCH   1  27
HETATM   27  C15 UNL     1      -1.443   5.673  12.094  1.00  0.00     0.033 C 
HETATM   28  C16 UNL     1      -0.308   4.813  11.612  1.00  0.00     0.016 C 
HETATM   29  C17 UNL     1      -1.206   7.095  11.808  1.00  0.00     0.016 C 
ENDBRANCH   1  27
TORSDOF 6
ENDMDL
MODEL 4
REMARK VINA RESULT: -6.354196478      1.228      1.410
REMARK  6 active torsions:
REMARK  status: ('A' for Active; 'I' for Inactive)
REMARK    1  A    between atoms: O1_2  and  C2_3 
REMARK    2  A    between atoms: C2_3  and  C3_5 
REMARK    3  A    between atoms: C3_5  and  C4_6 
REMARK    4  A    between atoms: C4_6  and  C5_7 
REMARK       I    between atoms: N1_10  and  C8_12 
REMARK    5  A    between atoms: C8_12  and  C9_14 
REMARK    6  A    between atoms: C9_14  and  C15_27 
REMARK       I    between atoms: N2_15  and  C10_17 
REMARK       I    between atoms: C10_17  and  N3_19 
ROOT
HETATM    1  C9  UNL     1      -2.847   6.379  11.674  1.00  0.00     0.085 C 
HETATM    2  N2  UNL     1      -1.566   6.357  11.324  1.00  0.00    -0.307 N 
ATOM      3  H2  UNL     1      -1.177   7.147  10.809  1.00  0.00     0.170 HD
HETATM    4  C10 UNL     1      -0.720   5.254  11.652  1.00  0.00     0.322 C 
HETATM    5  O4  UNL     1      -1.115   4.316  12.363  1.00  0.00    -0.247 OA
HETATM    6  N3  UNL     1       0.626   5.309  11.225  1.00  0.00    -0.331 N 
HETATM    7  C11 UNL     1       1.251   4.208  10.517  1.00  0.00     0.155 C 
HETATM    8  C12 UNL     1       2.634   4.673  10.094  1.00  0.00     0.252 C 
HETATM    9  N4  UNL     1       3.369   4.867  11.324  1.00  0.00    -0.072 N 
ATOM     10  H41 UNL     1       4.353   5.056  11.137  1.00  0.00     0.277 HD
ATOM     11  H42 UNL     1       3.465   3.990  11.835  1.00  0.00     0.277 HD
HETATM   12  C13 UNL     1       2.795   5.891  12.157  1.00  0.00     0.252 C 
HETATM   13  C14 UNL     1       1.471   6.407  11.631  1.00  0.00     0.155 C 
ENDROOT
BRANCH   1  14
HETATM   14  C8  UNL     1      -3.395   5.660  12.875  1.00  0.00     0.269 C 
HETATM   15  N1  UNL     1      -4.115   4.489  12.579  1.00  0.00    -0.320 N 
HETATM   16  C3  UNL     1      -4.060   3.395  13.365  1.00  0.00     0.088 C 
ATOM     17  H1  UNL     1      -4.698   4.466  11.742  1.00  0.00     0.169 HD
HETATM   18  O3  UNL     1      -3.136   6.143  13.981  1.00  0.00    -0.266 OA
BRANCH  16  19
HETATM   19  C2  UNL     1      -4.220   2.130  12.492  1.00  0.00     0.305 C 
HETATM   20  O2  UNL     1      -3.280   1.554  12.697  1.00  0.00    -0.258 OA
BRANCH  19  21
HETATM   21  O1  UNL     1      -5.153   1.885  11.832  1.00  0.00    -0.322 OA
HETATM   22  C1  UNL     1      -5.181   0.823  10.833  1.00  0.00     0.213 C 
ENDBRANCH  19  21
ENDBRANCH  16  19
BRANCH  16  23
HETATM   23  C4  UNL     1      -4.538   3.339  14.783  1.00  0.00     0.067 C 
BRANCH  23  24
HETATM   24  C5  UNL     1      -6.039   3.638  14.907  1.00  0.00    -0.017 C 
HETATM   25  C6  UNL     1      -6.304   5.084  15.249  1.00  0.00     0.010 C 
HETATM   26  C7  UNL     1      -6.506   2.804  16.157  1.00  0.00     0.010 C 
ENDBRANCH  23  24
ENDBRANCH  16  23
ENDBRANCH   1  14
BRANCH   1  27
HETATM   27  C15 UNL     1      -3.942   6.388  10.604  1.00  0.00     0.033 C 
HETATM   28  C16 UNL     1      -5.009   7.444  10.686  1.00  0.00     0.016 C 
HETATM   29  C17 UNL     1      -3.400   6.269   9.243  1.00  0.00     0.016 C 
ENDBRANCH   1  27
TORSDOF 6
ENDMDL
MODEL 5
REMARK VINA RESULT: -6.320916361      2.757      5.070
REMARK  6 active torsions:
REMARK  status: ('A' for Active; 'I' for Inactive)
REMARK    1  A    between atoms: O1_2  and  C2_3 
REMARK    2  A    between atoms: C2_3  and  C3_5 
REMARK    3  A    between atoms: C3_5  and  C4_6 
REMARK    4  A    between atoms: C4_6  and  C5_7 
REMARK       I    between atoms: N1_10  and  C8_12 
REMARK    5  A    between atoms: C8_12  and  C9_14 
REMARK    6  A    between atoms: C9_14  and  C15_27 
REMARK       I    between atoms: N2_15  and  C10_17 
REMARK       I    between atoms: C10_17  and  N3_19 
ROOT
HETATM    1  C9  UNL     1      -2.956   5.441  12.683  1.00  0.00     0.085 C 
HETATM    2  N2  UNL     1      -3.529   6.143  11.712  1.00  0.00    -0.307 N 
ATOM      3  H2  UNL     1      -3.102   7.021  11.414  1.00  0.00     0.170 HD
HETATM    4  C10 UNL     1      -4.728   5.700  11.075  1.00  0.00     0.322 C 
HETATM    5  O4  UNL     1      -5.231   4.594  11.329  1.00  0.00    -0.247 OA
HETATM    6  N3  UNL     1      -5.276   6.520  10.063  1.00  0.00    -0.331 N 
HETATM    7  C11 UNL     1      -6.675   6.901  10.060  1.00  0.00     0.155 C 
HETATM    8  C12 UNL     1      -6.870   7.889   8.922  1.00  0.00     0.252 C 
HETATM    9  N4  UNL     1      -6.625   7.136   7.712  1.00  0.00    -0.072 N 
ATOM     10  H41 UNL     1      -6.859   7.685   6.885  1.00  0.00     0.277 HD
ATOM     11  H42 UNL     1      -7.304   6.383   7.605  1.00  0.00     0.277 HD
HETATM   12  C13 UNL     1      -5.278   6.633   7.635  1.00  0.00     0.252 C 
HETATM   13  C14 UNL     1      -4.487   6.867   8.905  1.00  0.00     0.155 C 
ENDROOT
BRANCH   1  14
HETATM   14  C8  UNL     1      -3.075   3.949  12.813  1.00  0.00     0.269 C 
HETATM   15  N1  UNL     1      -3.885   3.517  13.879  1.00  0.00    -0.320 N 
HETATM   16  C3  UNL     1      -4.681   2.433  13.782  1.00  0.00     0.088 C 
ATOM     17  H1  UNL     1      -3.869   4.041  14.754  1.00  0.00     0.169 HD
HETATM   18  O3  UNL     1      -2.489   3.266  11.969  1.00  0.00    -0.266 OA
BRANCH  16  19
HETATM   19  C2  UNL     1      -5.940   2.645  14.652  1.00  0.00     0.305 C 
HETATM   20  O2  UNL     1      -6.477   3.480  14.131  1.00  0.00    -0.258 OA
BRANCH  19  21
HETATM   21  O1  UNL     1      -6.218   2.012  15.594  1.00  0.00    -0.322 OA
HETATM   22  C1  UNL     1      -6.793   2.579  16.810  1.00  0.00     0.213 C 
ENDBRANCH  19  21
ENDBRANCH  16  19
BRANCH  16  23
HETATM   23  C4  UNL     1      -4.193   1.033  13.576  1.00  0.00     0.067 C 
BRANCH  23  24
HETATM   24  C5  UNL     1      -4.102   0.657  12.091  1.00  0.00    -0.017 C 
HETATM   25  C6  UNL     1      -5.279   1.172  11.300  1.00  0.00     0.010 C 
HETATM   26  C7  UNL     1      -4.222  -0.913  12.073  1.00  0.00     0.010 C 
ENDBRANCH  23  24
ENDBRANCH  16  23
ENDBRANCH   1  14
BRANCH   1  27
HETATM   27  C15 UNL     1      -2.846   6.020  14.096  1.00  0.00     0.033 C 
HETATM   28  C16 UNL     1      -1.806   7.072  14.357  1.00  0.00     0.016 C 
HETATM   29  C17 UNL     1      -4.153   6.399  14.652  1.00  0.00     0.016 C 
ENDBRANCH   1  27
TORSDOF 6
ENDMDL
