MODEL 1
REMARK VINA RESULT: -6.956510812      0.000      0.000
REMARK  8 active torsions:
REMARK  status: ('A' for Active; 'I' for Inactive)
REMARK       I    between atoms: C2_2  and  N1_4 
REMARK    1  A    between atoms: N1_4  and  C3_6 
REMARK    2  A    between atoms: C3_6  and  C5_8 
REMARK       I    between atoms: C5_8  and  N2_10 
REMARK    3  A    between atoms: N2_10  and  C6_12 
REMARK    4  A    between atoms: C6_12  and  C7_13 
REMARK    5  A    between atoms: C6_12  and  C11_17 
REMARK    6  A    between atoms: C7_13  and  C8_14 
REMARK       I    between atoms: C11_17  and  N3_19 
REMARK    7  A    between atoms: N3_19  and  C12_21 
REMARK    8  A    between atoms: C12_21  and  C13_22 
ROOT
HETATM    1  C6  UNL     1      -4.746   5.437  13.273  1.00  0.00     0.177 C 
ENDROOT
BRANCH   1   2
HETATM    2  N2  UNL     1      -4.904   4.057  13.629  1.00  0.00    -0.346 N 
HETATM    3  C5  UNL     1      -3.979   3.044  13.277  1.00  0.00     0.240 C 
HETATM    4  O2  UNL     1      -2.927   3.308  12.606  1.00  0.00    -0.271 OA
ATOM      5  H2  UNL     1      -5.729   3.790  14.166  1.00  0.00     0.163 HD
BRANCH   3   6
HETATM    6  C3  UNL     1      -4.172   1.619  13.662  1.00  0.00     0.172 C 
HETATM    7  C4  UNL     1      -4.502   0.806  12.417  1.00  0.00     0.042 C 
BRANCH   6   8
HETATM    8  N1  UNL     1      -5.211   1.454  14.639  1.00  0.00    -0.349 N 
HETATM    9  C2  UNL     1      -4.907   0.969  15.939  1.00  0.00     0.214 C 
HETATM   10  C1  UNL     1      -5.993   0.802  16.946  1.00  0.00     0.117 C 
HETATM   11  O1  UNL     1      -3.723   0.668  16.279  1.00  0.00    -0.274 OA
ATOM     12  H1  UNL     1      -6.174   1.687  14.398  1.00  0.00     0.163 HD
ENDBRANCH   6   8
ENDBRANCH   3   6
ENDBRANCH   1   2
BRANCH   1  13
HETATM   13  C7  UNL     1      -4.085   6.268  14.301  1.00  0.00     0.038 C 
BRANCH  13  14
HETATM   14  C8  UNL     1      -2.969   7.141  13.905  1.00  0.00    -0.020 C 
HETATM   15  C9  UNL     1      -1.665   6.501  13.592  1.00  0.00     0.009 C 
HETATM   16  C10 UNL     1      -2.717   8.103  15.076  1.00  0.00     0.009 C 
ENDBRANCH  13  14
ENDBRANCH   1  13
BRANCH   1  17
HETATM   17  C11 UNL     1      -5.992   6.022  12.746  1.00  0.00     0.240 C 
HETATM   18  O3  UNL     1      -7.128   5.773  13.256  1.00  0.00    -0.271 OA
HETATM   19  N3  UNL     1      -5.958   6.891  11.637  1.00  0.00    -0.358 N 
ATOM     20  H3  UNL     1      -5.057   7.105  11.209  1.00  0.00     0.162 HD
BRANCH  19  21
HETATM   21  C12 UNL     1      -7.154   7.494  11.077  1.00  0.00     0.137 C 
BRANCH  21  22
HETATM   22  C13 UNL     1      -6.986   7.630   9.602  1.00  0.00     0.065 C 
HETATM   23  C14 UNL     1      -8.323   7.519   8.879  1.00  0.00     0.017 C 
HETATM   24  C15 UNL     1      -8.134   8.191   7.533  1.00  0.00     0.011 C 
HETATM   25  C16 UNL     1      -7.774   9.649   7.849  1.00  0.00     0.074 C 
HETATM   26  S1  UNL     1      -6.531   9.358   9.173  1.00  0.00    -0.163 SA
ENDBRANCH  21  22
ENDBRANCH  19  21
ENDBRANCH   1  17
TORSDOF 8
ENDMDL
MODEL 2
REMARK VINA RESULT: -6.874018167      1.939      2.515
REMARK  8 active torsions:
REMARK  status: ('A' for Active; 'I' for Inactive)
REMARK       I    between atoms: C2_2  and  N1_4 
REMARK    1  A    between atoms: N1_4  and  C3_6 
REMARK    2  A    between atoms: C3_6  and  C5_8 
REMARK       I    between atoms: C5_8  and  N2_10 
REMARK    3  A    between atoms: N2_10  and  C6_12 
REMARK    4  A    between atoms: C6_12  and  C7_13 
REMARK    5  A    between atoms: C6_12  and  C11_17 
REMARK    6  A    between atoms: C7_13  and  C8_14 
REMARK       I    between atoms: C11_17  and  N3_19 
REMARK    7  A    between atoms: N3_19  and  C12_21 
REMARK    8  A    between atoms: C12_21  and  C13_22 
ROOT
HETATM    1  C6  UNL     1      -4.279   5.005  11.696  1.00  0.00     0.177 C 
ENDROOT
BRANCH   1   2
HETATM    2  N2  UNL     1      -4.541   3.649  12.082  1.00  0.00    -0.346 N 
HETATM    3  C5  UNL     1      -3.874   2.991  13.144  1.00  0.00     0.240 C 
HETATM    4  O2  UNL     1      -2.980   3.582  13.836  1.00  0.00    -0.271 OA
ATOM      5  H2  UNL     1      -5.247   3.129  11.562  1.00  0.00     0.163 HD
BRANCH   3   6
HETATM    6  C3  UNL     1      -4.169   1.582  13.520  1.00  0.00     0.172 C 
HETATM    7  C4  UNL     1      -4.597   0.813  12.276  1.00  0.00     0.042 C 
BRANCH   6   8
HETATM    8  N1  UNL     1      -5.190   1.487  14.524  1.00  0.00    -0.349 N 
HETATM    9  C2  UNL     1      -4.875   1.026  15.830  1.00  0.00     0.214 C 
HETATM   10  C1  UNL     1      -5.943   0.932  16.866  1.00  0.00     0.117 C 
HETATM   11  O1  UNL     1      -3.697   0.685  16.151  1.00  0.00    -0.274 OA
ATOM     12  H1  UNL     1      -6.149   1.753  14.299  1.00  0.00     0.163 HD
ENDBRANCH   6   8
ENDBRANCH   3   6
ENDBRANCH   1   2
BRANCH   1  13
HETATM   13  C7  UNL     1      -5.009   6.023  12.481  1.00  0.00     0.038 C 
BRANCH  13  14
HETATM   14  C8  UNL     1      -6.281   5.653  13.124  1.00  0.00    -0.020 C 
HETATM   15  C9  UNL     1      -7.465   6.511  12.861  1.00  0.00     0.009 C 
HETATM   16  C10 UNL     1      -6.041   5.686  14.641  1.00  0.00     0.009 C 
ENDBRANCH  13  14
ENDBRANCH   1  13
BRANCH   1  17
HETATM   17  C11 UNL     1      -4.374   5.198  10.239  1.00  0.00     0.240 C 
HETATM   18  O3  UNL     1      -4.059   4.288   9.411  1.00  0.00    -0.271 OA
HETATM   19  N3  UNL     1      -4.826   6.424   9.710  1.00  0.00    -0.358 N 
ATOM     20  H3  UNL     1      -5.084   7.170  10.355  1.00  0.00     0.162 HD
BRANCH  19  21
HETATM   21  C12 UNL     1      -4.939   6.667   8.282  1.00  0.00     0.137 C 
BRANCH  21  22
HETATM   22  C13 UNL     1      -6.382   6.734   7.914  1.00  0.00     0.065 C 
HETATM   23  C14 UNL     1      -7.251   7.025   9.133  1.00  0.00     0.017 C 
HETATM   24  C15 UNL     1      -8.550   7.598   8.601  1.00  0.00     0.011 C 
HETATM   25  C16 UNL     1      -8.157   8.883   7.859  1.00  0.00     0.074 C 
HETATM   26  S1  UNL     1      -6.713   8.243   6.918  1.00  0.00    -0.163 SA
ENDBRANCH  21  22
ENDBRANCH  19  21
ENDBRANCH   1  17
TORSDOF 8
ENDMDL
MODEL 3
REMARK VINA RESULT: -6.623757250      1.344      1.724
REMARK  8 active torsions:
REMARK  status: ('A' for Active; 'I' for Inactive)
REMARK       I    between atoms: C2_2  and  N1_4 
REMARK    1  A    between atoms: N1_4  and  C3_6 
REMARK    2  A    between atoms: C3_6  and  C5_8 
REMARK       I    between atoms: C5_8  and  N2_10 
REMARK    3  A    between atoms: N2_10  and  C6_12 
REMARK    4  A    between atoms: C6_12  and  C7_13 
REMARK    5  A    between atoms: C6_12  and  C11_17 
REMARK    6  A    between atoms: C7_13  and  C8_14 
REMARK       I    between atoms: C11_17  and  N3_19 
REMARK    7  A    between atoms: N3_19  and  C12_21 
REMARK    8  A    between atoms: C12_21  and  C13_22 
ROOT
HETATM    1  C6  UNL     1      -4.243   5.525  13.314  1.00  0.00     0.177 C 
ENDROOT
BRANCH   1   2
HETATM    2  N2  UNL     1      -4.311   4.190  13.833  1.00  0.00    -0.346 N 
HETATM    3  C5  UNL     1      -4.096   3.030  13.049  1.00  0.00     0.240 C 
HETATM    4  O2  UNL     1      -3.823   3.109  11.806  1.00  0.00    -0.271 OA
ATOM      5  H2  UNL     1      -4.526   4.069  14.823  1.00  0.00     0.163 HD
BRANCH   3   6
HETATM    6  C3  UNL     1      -4.173   1.658  13.619  1.00  0.00     0.172 C 
HETATM    7  C4  UNL     1      -4.455   0.666  12.497  1.00  0.00     0.042 C 
BRANCH   6   8
HETATM    8  N1  UNL     1      -5.184   1.544  14.632  1.00  0.00    -0.349 N 
HETATM    9  C2  UNL     1      -4.854   1.064  15.928  1.00  0.00     0.214 C 
HETATM   10  C1  UNL     1      -5.910   0.951  16.974  1.00  0.00     0.117 C 
HETATM   11  O1  UNL     1      -3.671   0.723  16.232  1.00  0.00    -0.274 OA
ATOM     12  H1  UNL     1      -6.146   1.809  14.421  1.00  0.00     0.163 HD
ENDBRANCH   6   8
ENDBRANCH   3   6
ENDBRANCH   1   2
BRANCH   1  13
HETATM   13  C7  UNL     1      -3.946   6.565  14.321  1.00  0.00     0.038 C 
BRANCH  13  14
HETATM   14  C8  UNL     1      -2.636   7.236  14.290  1.00  0.00    -0.020 C 
HETATM   15  C9  UNL     1      -2.402   8.343  15.254  1.00  0.00     0.009 C 
HETATM   16  C10 UNL     1      -2.474   7.835  12.885  1.00  0.00     0.009 C 
ENDBRANCH  13  14
ENDBRANCH   1  13
BRANCH   1  17
HETATM   17  C11 UNL     1      -5.393   5.845  12.450  1.00  0.00     0.240 C 
HETATM   18  O3  UNL     1      -6.573   5.959  12.904  1.00  0.00    -0.271 OA
HETATM   19  N3  UNL     1      -5.213   6.035  11.064  1.00  0.00    -0.358 N 
ATOM     20  H3  UNL     1      -4.274   5.947  10.676  1.00  0.00     0.162 HD
BRANCH  19  21
HETATM   21  C12 UNL     1      -6.310   6.352  10.168  1.00  0.00     0.137 C 
BRANCH  21  22
HETATM   22  C13 UNL     1      -6.024   7.648   9.489  1.00  0.00     0.065 C 
HETATM   23  C14 UNL     1      -6.445   8.831  10.352  1.00  0.00     0.017 C 
HETATM   24  C15 UNL     1      -5.649  10.023   9.857  1.00  0.00     0.011 C 
HETATM   25  C16 UNL     1      -4.176   9.651  10.076  1.00  0.00     0.074 C 
HETATM   26  S1  UNL     1      -4.211   7.937   9.413  1.00  0.00    -0.163 SA
ENDBRANCH  21  22
ENDBRANCH  19  21
ENDBRANCH   1  17
TORSDOF 8
ENDMDL
MODEL 4
REMARK VINA RESULT: -6.521318658      2.963      7.372
REMARK  8 active torsions:
REMARK  status: ('A' for Active; 'I' for Inactive)
REMARK       I    between atoms: C2_2  and  N1_4 
REMARK    1  A    between atoms: N1_4  and  C3_6 
REMARK    2  A    between atoms: C3_6  and  C5_8 
REMARK       I    between atoms: C5_8  and  N2_10 
REMARK    3  A    between atoms: N2_10  and  C6_12 
REMARK    4  A    between atoms: C6_12  and  C7_13 
REMARK    5  A    between atoms: C6_12  and  C11_17 
REMARK    6  A    between atoms: C7_13  and  C8_14 
REMARK       I    between atoms: C11_17  and  N3_19 
REMARK    7  A    between atoms: N3_19  and  C12_21 
REMARK    8  A    between atoms: C12_21  and  C13_22 
ROOT
HETATM    1  C6  UNL     1      -3.920   6.176  13.497  1.00  0.00     0.177 C 
ENDROOT
BRANCH   1   2
HETATM    2  N2  UNL     1      -4.116   6.522  12.119  1.00  0.00    -0.346 N 
HETATM    3  C5  UNL     1      -5.387   6.585  11.498  1.00  0.00     0.240 C 
HETATM    4  O2  UNL     1      -6.457   6.332  12.145  1.00  0.00    -0.271 OA
ATOM      5  H2  UNL     1      -3.293   6.734  11.554  1.00  0.00     0.163 HD
BRANCH   3   6
HETATM    6  C3  UNL     1      -5.557   6.947  10.065  1.00  0.00     0.172 C 
HETATM    7  C4  UNL     1      -4.546   8.027   9.699  1.00  0.00     0.042 C 
BRANCH   6   8
HETATM    8  N1  UNL     1      -6.885   7.407   9.772  1.00  0.00    -0.349 N 
HETATM    9  C2  UNL     1      -7.517   7.054   8.549  1.00  0.00     0.214 C 
HETATM   10  C1  UNL     1      -8.896   7.536   8.255  1.00  0.00     0.117 C 
HETATM   11  O1  UNL     1      -6.937   6.331   7.684  1.00  0.00    -0.274 OA
ATOM     12  H1  UNL     1      -7.380   7.991  10.446  1.00  0.00     0.163 HD
ENDBRANCH   6   8
ENDBRANCH   3   6
ENDBRANCH   1   2
BRANCH   1  13
HETATM   13  C7  UNL     1      -2.711   6.762  14.115  1.00  0.00     0.038 C 
BRANCH  13  14
HETATM   14  C8  UNL     1      -2.572   8.226  14.165  1.00  0.00    -0.020 C 
HETATM   15  C9  UNL     1      -1.800   8.886  13.080  1.00  0.00     0.009 C 
HETATM   16  C10 UNL     1      -1.856   8.562  15.482  1.00  0.00     0.009 C 
ENDBRANCH  13  14
ENDBRANCH   1  13
BRANCH   1  17
HETATM   17  C11 UNL     1      -4.067   4.730  13.734  1.00  0.00     0.240 C 
HETATM   18  O3  UNL     1      -3.090   3.924  13.647  1.00  0.00    -0.271 OA
HETATM   19  N3  UNL     1      -5.324   4.187  14.069  1.00  0.00    -0.358 N 
ATOM     20  H3  UNL     1      -6.125   4.814  14.143  1.00  0.00     0.162 HD
BRANCH  19  21
HETATM   21  C12 UNL     1      -5.525   2.769  14.313  1.00  0.00     0.137 C 
BRANCH  21  22
HETATM   22  C13 UNL     1      -5.325   2.494  15.764  1.00  0.00     0.065 C 
HETATM   23  C14 UNL     1      -6.636   2.598  16.534  1.00  0.00     0.017 C 
HETATM   24  C15 UNL     1      -6.444   1.800  17.809  1.00  0.00     0.011 C 
HETATM   25  C16 UNL     1      -6.161   0.362  17.354  1.00  0.00     0.074 C 
HETATM   26  S1  UNL     1      -4.940   0.716  16.025  1.00  0.00    -0.163 SA
ENDBRANCH  21  22
ENDBRANCH  19  21
ENDBRANCH   1  17
TORSDOF 8
ENDMDL
MODEL 5
REMARK VINA RESULT: -6.448538388      2.546      6.883
REMARK  8 active torsions:
REMARK  status: ('A' for Active; 'I' for Inactive)
REMARK       I    between atoms: C2_2  and  N1_4 
REMARK    1  A    between atoms: N1_4  and  C3_6 
REMARK    2  A    between atoms: C3_6  and  C5_8 
REMARK       I    between atoms: C5_8  and  N2_10 
REMARK    3  A    between atoms: N2_10  and  C6_12 
REMARK    4  A    between atoms: C6_12  and  C7_13 
REMARK    5  A    between atoms: C6_12  and  C11_17 
REMARK    6  A    between atoms: C7_13  and  C8_14 
REMARK       I    between atoms: C11_17  and  N3_19 
REMARK    7  A    between atoms: N3_19  and  C12_21 
REMARK    8  A    between atoms: C12_21  and  C13_22 
ROOT
HETATM    1  C6  UNL     1      -5.244   5.821  13.840  1.00  0.00     0.177 C 
ENDROOT
BRANCH   1   2
HETATM    2  N2  UNL     1      -5.112   6.181  12.458  1.00  0.00    -0.346 N 
HETATM    3  C5  UNL     1      -6.196   6.600  11.649  1.00  0.00     0.240 C 
HETATM    4  O2  UNL     1      -7.381   6.684  12.115  1.00  0.00    -0.271 OA
ATOM      5  H2  UNL     1      -4.186   6.132  12.035  1.00  0.00     0.163 HD
BRANCH   3   6
HETATM    6  C3  UNL     1      -6.026   6.967  10.217  1.00  0.00     0.172 C 
HETATM    7  C4  UNL     1      -4.763   7.805  10.063  1.00  0.00     0.042 C 
BRANCH   6   8
HETATM    8  N1  UNL     1      -7.154   7.690   9.701  1.00  0.00    -0.349 N 
HETATM    9  C2  UNL     1      -7.916   7.164   8.624  1.00  0.00     0.214 C 
HETATM   10  C1  UNL     1      -9.086   7.922   8.097  1.00  0.00     0.117 C 
HETATM   11  O1  UNL     1      -7.631   6.052   8.086  1.00  0.00    -0.274 OA
ATOM     12  H1  UNL     1      -7.411   8.588  10.111  1.00  0.00     0.163 HD
ENDBRANCH   6   8
ENDBRANCH   3   6
ENDBRANCH   1   2
BRANCH   1  13
HETATM   13  C7  UNL     1      -4.158   6.314  14.713  1.00  0.00     0.038 C 
BRANCH  13  14
HETATM   14  C8  UNL     1      -3.003   6.992  14.104  1.00  0.00    -0.020 C 
HETATM   15  C9  UNL     1      -1.782   6.185  13.845  1.00  0.00     0.009 C 
HETATM   16  C10 UNL     1      -2.590   8.120  15.062  1.00  0.00     0.009 C 
ENDBRANCH  13  14
ENDBRANCH   1  13
BRANCH   1  17
HETATM   17  C11 UNL     1      -5.544   4.389  14.016  1.00  0.00     0.240 C 
HETATM   18  O3  UNL     1      -6.725   3.960  14.200  1.00  0.00    -0.271 OA
HETATM   19  N3  UNL     1      -4.507   3.434  13.987  1.00  0.00    -0.358 N 
ATOM     20  H3  UNL     1      -3.550   3.755  13.843  1.00  0.00     0.162 HD
BRANCH  19  21
HETATM   21  C12 UNL     1      -4.747   2.012  14.155  1.00  0.00     0.137 C 
BRANCH  21  22
HETATM   22  C13 UNL     1      -4.055   1.271  13.062  1.00  0.00     0.065 C 
HETATM   23  C14 UNL     1      -4.414  -0.210  13.083  1.00  0.00     0.017 C 
HETATM   24  C15 UNL     1      -4.132  -0.736  11.690  1.00  0.00     0.011 C 
HETATM   25  C16 UNL     1      -5.053   0.062  10.757  1.00  0.00     0.074 C 
HETATM   26  S1  UNL     1      -4.756   1.747  11.431  1.00  0.00    -0.163 SA
ENDBRANCH  21  22
ENDBRANCH  19  21
ENDBRANCH   1  17
TORSDOF 8
ENDMDL
