MODEL 1
REMARK VINA RESULT: -7.080235286      0.000      0.000
REMARK  9 active torsions:
REMARK  status: ('A' for Active; 'I' for Inactive)
REMARK    1  A    between atoms: C2_2  and  O1_3 
REMARK    2  A    between atoms: O1_3  and  C3_4 
REMARK    3  A    between atoms: C3_4  and  C4_6 
REMARK    4  A    between atoms: C4_6  and  N1_7 
REMARK       I    between atoms: N1_7  and  C5_9 
REMARK    5  A    between atoms: C5_9  and  C6_11 
REMARK    6  A    between atoms: C6_11  and  C7_12 
REMARK    7  A    between atoms: C6_11  and  N2_16 
REMARK    8  A    between atoms: C7_12  and  C8_13 
REMARK       I    between atoms: N2_16  and  C11_18 
REMARK       I    between atoms: C11_18  and  N3_20 
REMARK    9  A    between atoms: N3_20  and  C12_22 
ROOT
HETATM    1  N1  UNL     1      -4.995   3.177  15.363  1.00  0.00    -0.339 N 
ATOM      2  H1  UNL     1      -4.277   3.644  15.916  1.00  0.00     0.164 HD
HETATM    3  C5  UNL     1      -5.456   3.863  14.221  1.00  0.00     0.241 C 
HETATM    4  O3  UNL     1      -6.345   3.311  13.531  1.00  0.00    -0.271 OA
ENDROOT
BRANCH   3   5
HETATM    5  C6  UNL     1      -4.970   5.188  13.770  1.00  0.00     0.178 C 
BRANCH   5   6
HETATM    6  C7  UNL     1      -4.205   5.963  14.760  1.00  0.00     0.038 C 
BRANCH   6   7
HETATM    7  C8  UNL     1      -3.089   6.821  14.355  1.00  0.00    -0.020 C 
HETATM    8  C9  UNL     1      -2.796   7.992  15.285  1.00  0.00     0.009 C 
HETATM    9  C10 UNL     1      -1.814   6.175  13.939  1.00  0.00     0.009 C 
ENDBRANCH   6   7
ENDBRANCH   5   6
BRANCH   5  10
HETATM   10  N2  UNL     1      -5.995   5.928  13.073  1.00  0.00    -0.330 N 
HETATM   11  C11 UNL     1      -5.921   6.329  11.716  1.00  0.00     0.317 C 
HETATM   12  O4  UNL     1      -4.895   6.024  11.068  1.00  0.00    -0.247 OA
HETATM   13  N3  UNL     1      -6.938   7.052  11.058  1.00  0.00    -0.339 N 
ATOM     14  H3  UNL     1      -7.782   7.308  11.571  1.00  0.00     0.164 HD
ATOM     15  H2  UNL     1      -6.834   6.180  13.596  1.00  0.00     0.165 HD
BRANCH  13  16
HETATM   16  C12 UNL     1      -6.808   7.431   9.684  1.00  0.00     0.086 A 
HETATM   17  C13 UNL     1      -7.162   8.781   9.235  1.00  0.00     0.027 A 
HETATM   18  C14 UNL     1      -8.118   7.639   8.943  1.00  0.00     0.027 A 
ENDBRANCH  13  16
ENDBRANCH   5  10
ENDBRANCH   3   5
BRANCH   1  19
HETATM   19  C4  UNL     1      -5.425   1.906  15.824  1.00  0.00     0.144 C 
HETATM   20  C15 UNL     1      -5.271   1.770  17.347  1.00  0.00     0.070 C 
HETATM   21  C16 UNL     1      -6.303   0.714  17.634  1.00  0.00     0.170 C 
HETATM   22  O5  UNL     1      -7.074   0.541  16.509  1.00  0.00    -0.388 OA
HETATM   23  C17 UNL     1      -6.916   1.665  15.703  1.00  0.00     0.209 C 
BRANCH  19  24
HETATM   24  C3  UNL     1      -4.636   0.824  15.238  1.00  0.00     0.289 C 
HETATM   25  O2  UNL     1      -3.716   0.291  15.904  1.00  0.00    -0.262 OA
BRANCH  24  26
HETATM   26  O1  UNL     1      -4.828   0.318  13.958  1.00  0.00    -0.320 OA
BRANCH  26  27
HETATM   27  C2  UNL     1      -4.100   0.702  12.831  1.00  0.00     0.174 C 
HETATM   28  C1  UNL     1      -4.887   0.717  11.562  1.00  0.00     0.034 C 
ENDBRANCH  26  27
ENDBRANCH  24  26
ENDBRANCH  19  24
ENDBRANCH   1  19
TORSDOF 9
ENDMDL
MODEL 2
REMARK VINA RESULT: -6.850991137      1.618      3.833
REMARK  9 active torsions:
REMARK  status: ('A' for Active; 'I' for Inactive)
REMARK    1  A    between atoms: C2_2  and  O1_3 
REMARK    2  A    between atoms: O1_3  and  C3_4 
REMARK    3  A    between atoms: C3_4  and  C4_6 
REMARK    4  A    between atoms: C4_6  and  N1_7 
REMARK       I    between atoms: N1_7  and  C5_9 
REMARK    5  A    between atoms: C5_9  and  C6_11 
REMARK    6  A    between atoms: C6_11  and  C7_12 
REMARK    7  A    between atoms: C6_11  and  N2_16 
REMARK    8  A    between atoms: C7_12  and  C8_13 
REMARK       I    between atoms: N2_16  and  C11_18 
REMARK       I    between atoms: C11_18  and  N3_20 
REMARK    9  A    between atoms: N3_20  and  C12_22 
ROOT
HETATM    1  N1  UNL     1      -5.478   3.254  15.743  1.00  0.00    -0.339 N 
ATOM      2  H1  UNL     1      -4.955   3.830  16.402  1.00  0.00     0.164 HD
HETATM    3  C5  UNL     1      -5.966   3.901  14.590  1.00  0.00     0.241 C 
HETATM    4  O3  UNL     1      -6.618   3.214  13.770  1.00  0.00    -0.271 OA
ENDROOT
BRANCH   3   5
HETATM    5  C6  UNL     1      -5.764   5.333  14.267  1.00  0.00     0.178 C 
BRANCH   5   6
HETATM    6  C7  UNL     1      -6.742   5.927  13.341  1.00  0.00     0.038 C 
BRANCH   6   7
HETATM    7  C8  UNL     1      -6.311   6.615  12.122  1.00  0.00    -0.020 C 
HETATM    8  C9  UNL     1      -5.563   5.750  11.115  1.00  0.00     0.009 C 
HETATM    9  C10 UNL     1      -7.294   7.481  11.414  1.00  0.00     0.009 C 
ENDBRANCH   6   7
ENDBRANCH   5   6
BRANCH   5  10
HETATM   10  N2  UNL     1      -4.382   5.627  13.969  1.00  0.00    -0.330 N 
HETATM   11  C11 UNL     1      -3.613   6.629  14.611  1.00  0.00     0.317 C 
HETATM   12  O4  UNL     1      -4.163   7.313  15.502  1.00  0.00    -0.247 OA
HETATM   13  N3  UNL     1      -2.262   6.895  14.301  1.00  0.00    -0.339 N 
ATOM     14  H3  UNL     1      -1.797   6.346  13.578  1.00  0.00     0.164 HD
ATOM     15  H2  UNL     1      -3.926   5.073  13.244  1.00  0.00     0.165 HD
BRANCH  13  16
HETATM   16  C12 UNL     1      -1.534   7.921  14.984  1.00  0.00     0.086 A 
HETATM   17  C13 UNL     1      -1.786   9.340  14.707  1.00  0.00     0.027 A 
HETATM   18  C14 UNL     1      -0.544   8.692  14.126  1.00  0.00     0.027 A 
ENDBRANCH  13  16
ENDBRANCH   5  10
ENDBRANCH   3   5
BRANCH   1  19
HETATM   19  C4  UNL     1      -5.639   1.886  16.085  1.00  0.00     0.144 C 
HETATM   20  C15 UNL     1      -5.454   1.649  17.592  1.00  0.00     0.070 C 
HETATM   21  C16 UNL     1      -6.250   0.385  17.769  1.00  0.00     0.170 C 
HETATM   22  O5  UNL     1      -6.973   0.160  16.623  1.00  0.00    -0.388 OA
HETATM   23  C17 UNL     1      -7.050   1.359  15.921  1.00  0.00     0.209 C 
BRANCH  19  24
HETATM   24  C3  UNL     1      -4.648   1.043  15.417  1.00  0.00     0.289 C 
HETATM   25  O2  UNL     1      -3.597   0.721  16.019  1.00  0.00    -0.262 OA
BRANCH  24  26
HETATM   26  O1  UNL     1      -4.781   0.552  14.124  1.00  0.00    -0.320 OA
BRANCH  26  27
HETATM   27  C2  UNL     1      -4.149   1.083  12.999  1.00  0.00     0.174 C 
HETATM   28  C1  UNL     1      -4.839   0.795  11.707  1.00  0.00     0.034 C 
ENDBRANCH  26  27
ENDBRANCH  24  26
ENDBRANCH  19  24
ENDBRANCH   1  19
TORSDOF 9
ENDMDL
MODEL 3
REMARK VINA RESULT: -6.684769201      2.983      4.041
REMARK  9 active torsions:
REMARK  status: ('A' for Active; 'I' for Inactive)
REMARK    1  A    between atoms: C2_2  and  O1_3 
REMARK    2  A    between atoms: O1_3  and  C3_4 
REMARK    3  A    between atoms: C3_4  and  C4_6 
REMARK    4  A    between atoms: C4_6  and  N1_7 
REMARK       I    between atoms: N1_7  and  C5_9 
REMARK    5  A    between atoms: C5_9  and  C6_11 
REMARK    6  A    between atoms: C6_11  and  C7_12 
REMARK    7  A    between atoms: C6_11  and  N2_16 
REMARK    8  A    between atoms: C7_12  and  C8_13 
REMARK       I    between atoms: N2_16  and  C11_18 
REMARK       I    between atoms: C11_18  and  N3_20 
REMARK    9  A    between atoms: N3_20  and  C12_22 
ROOT
HETATM    1  N1  UNL     1      -3.989   3.060  15.646  1.00  0.00    -0.339 N 
ATOM      2  H1  UNL     1      -3.341   3.146  16.429  1.00  0.00     0.164 HD
HETATM    3  C5  UNL     1      -3.818   3.972  14.585  1.00  0.00     0.241 C 
HETATM    4  O3  UNL     1      -4.607   3.889  13.615  1.00  0.00    -0.271 OA
ENDROOT
BRANCH   3   5
HETATM    5  C6  UNL     1      -2.774   5.021  14.523  1.00  0.00     0.178 C 
BRANCH   5   6
HETATM    6  C7  UNL     1      -3.207   6.329  14.004  1.00  0.00     0.038 C 
BRANCH   6   7
HETATM    7  C8  UNL     1      -2.345   7.509  14.106  1.00  0.00    -0.020 C 
HETATM    8  C9  UNL     1      -2.270   8.372  12.851  1.00  0.00     0.009 C 
HETATM    9  C10 UNL     1      -2.473   8.377  15.309  1.00  0.00     0.009 C 
ENDBRANCH   6   7
ENDBRANCH   5   6
BRANCH   5  10
HETATM   10  N2  UNL     1      -1.540   4.519  13.964  1.00  0.00    -0.330 N 
HETATM   11  C11 UNL     1      -1.219   4.524  12.585  1.00  0.00     0.317 C 
HETATM   12  O4  UNL     1      -2.058   4.995  11.786  1.00  0.00    -0.247 OA
HETATM   13  N3  UNL     1      -0.005   4.028  12.064  1.00  0.00    -0.339 N 
ATOM     14  H3  UNL     1       0.692   3.640  12.701  1.00  0.00     0.164 HD
ATOM     15  H2  UNL     1      -0.851   4.133  14.610  1.00  0.00     0.165 HD
BRANCH  13  16
HETATM   16  C12 UNL     1       0.266   4.058  10.659  1.00  0.00     0.086 A 
HETATM   17  C13 UNL     1       1.601   3.743  10.138  1.00  0.00     0.027 A 
HETATM   18  C14 UNL     1       1.163   5.195  10.197  1.00  0.00     0.027 A 
ENDBRANCH  13  16
ENDBRANCH   5  10
ENDBRANCH   3   5
BRANCH   1  19
HETATM   19  C4  UNL     1      -4.966   2.036  15.740  1.00  0.00     0.144 C 
HETATM   20  C15 UNL     1      -5.309   1.708  17.202  1.00  0.00     0.070 C 
HETATM   21  C16 UNL     1      -6.692   1.140  17.037  1.00  0.00     0.170 C 
HETATM   22  O5  UNL     1      -7.120   1.399  15.758  1.00  0.00    -0.388 OA
HETATM   23  C17 UNL     1      -6.341   2.432  15.244  1.00  0.00     0.209 C 
BRANCH  19  24
HETATM   24  C3  UNL     1      -4.496   0.786  15.144  1.00  0.00     0.289 C 
HETATM   25  O2  UNL     1      -3.744   0.026  15.799  1.00  0.00    -0.262 OA
BRANCH  24  26
HETATM   26  O1  UNL     1      -4.827   0.355  13.865  1.00  0.00    -0.320 OA
BRANCH  26  27
HETATM   27  C2  UNL     1      -4.118   0.674  12.707  1.00  0.00     0.174 C 
HETATM   28  C1  UNL     1      -4.973   1.011  11.530  1.00  0.00     0.034 C 
ENDBRANCH  26  27
ENDBRANCH  24  26
ENDBRANCH  19  24
ENDBRANCH   1  19
TORSDOF 9
ENDMDL
MODEL 4
REMARK VINA RESULT: -6.495149485      2.101      2.185
REMARK  9 active torsions:
REMARK  status: ('A' for Active; 'I' for Inactive)
REMARK    1  A    between atoms: C2_2  and  O1_3 
REMARK    2  A    between atoms: O1_3  and  C3_4 
REMARK    3  A    between atoms: C3_4  and  C4_6 
REMARK    4  A    between atoms: C4_6  and  N1_7 
REMARK       I    between atoms: N1_7  and  C5_9 
REMARK    5  A    between atoms: C5_9  and  C6_11 
REMARK    6  A    between atoms: C6_11  and  C7_12 
REMARK    7  A    between atoms: C6_11  and  N2_16 
REMARK    8  A    between atoms: C7_12  and  C8_13 
REMARK       I    between atoms: N2_16  and  C11_18 
REMARK       I    between atoms: C11_18  and  N3_20 
REMARK    9  A    between atoms: N3_20  and  C12_22 
ROOT
HETATM    1  N1  UNL     1      -4.447   3.027  15.131  1.00  0.00    -0.339 N 
ATOM      2  H1  UNL     1      -3.668   3.359  15.700  1.00  0.00     0.164 HD
HETATM    3  C5  UNL     1      -4.714   3.746  13.948  1.00  0.00     0.241 C 
HETATM    4  O3  UNL     1      -5.671   3.361  13.238  1.00  0.00    -0.271 OA
ENDROOT
BRANCH   3   5
HETATM    5  C6  UNL     1      -3.947   4.922  13.475  1.00  0.00     0.178 C 
BRANCH   5   6
HETATM    6  C7  UNL     1      -3.836   6.041  14.425  1.00  0.00     0.038 C 
BRANCH   6   7
HETATM    7  C8  UNL     1      -2.911   7.152  14.185  1.00  0.00    -0.020 C 
HETATM    8  C9  UNL     1      -2.794   8.160  15.322  1.00  0.00     0.009 C 
HETATM    9  C10 UNL     1      -1.559   6.842  13.643  1.00  0.00     0.009 C 
ENDBRANCH   6   7
ENDBRANCH   5   6
BRANCH   5  10
HETATM   10  N2  UNL     1      -4.312   5.296  12.129  1.00  0.00    -0.330 N 
HETATM   11  C11 UNL     1      -3.573   4.957  10.968  1.00  0.00     0.317 C 
HETATM   12  O4  UNL     1      -2.527   4.286  11.111  1.00  0.00    -0.247 OA
HETATM   13  N3  UNL     1      -3.953   5.334   9.663  1.00  0.00    -0.339 N 
ATOM     14  H3  UNL     1      -4.804   5.881   9.527  1.00  0.00     0.164 HD
ATOM     15  H2  UNL     1      -5.164   5.843  12.004  1.00  0.00     0.165 HD
BRANCH  13  16
HETATM   16  C12 UNL     1      -3.166   4.963   8.526  1.00  0.00     0.086 A 
HETATM   17  C13 UNL     1      -2.526   5.980   7.684  1.00  0.00     0.027 A 
HETATM   18  C14 UNL     1      -3.781   5.295   7.177  1.00  0.00     0.027 A 
ENDBRANCH  13  16
ENDBRANCH   5  10
ENDBRANCH   3   5
BRANCH   1  19
HETATM   19  C4  UNL     1      -5.148   1.892  15.614  1.00  0.00     0.144 C 
HETATM   20  C15 UNL     1      -5.096   1.800  17.148  1.00  0.00     0.070 C 
HETATM   21  C16 UNL     1      -6.335   0.989  17.415  1.00  0.00     0.170 C 
HETATM   22  O5  UNL     1      -7.070   0.921  16.256  1.00  0.00    -0.388 OA
HETATM   23  C17 UNL     1      -6.649   1.950  15.418  1.00  0.00     0.209 C 
BRANCH  19  24
HETATM   24  C3  UNL     1      -4.568   0.647  15.114  1.00  0.00     0.289 C 
HETATM   25  O2  UNL     1      -3.772  -0.003  15.832  1.00  0.00    -0.262 OA
BRANCH  24  26
HETATM   26  O1  UNL     1      -4.836   0.104  13.863  1.00  0.00    -0.320 OA
BRANCH  26  27
HETATM   27  C2  UNL     1      -4.066   0.315  12.720  1.00  0.00     0.174 C 
HETATM   28  C1  UNL     1      -4.855   0.471  11.461  1.00  0.00     0.034 C 
ENDBRANCH  26  27
ENDBRANCH  24  26
ENDBRANCH  19  24
ENDBRANCH   1  19
TORSDOF 9
ENDMDL
MODEL 5
REMARK VINA RESULT: -6.459004760      3.034      4.262
REMARK  9 active torsions:
REMARK  status: ('A' for Active; 'I' for Inactive)
REMARK    1  A    between atoms: C2_2  and  O1_3 
REMARK    2  A    between atoms: O1_3  and  C3_4 
REMARK    3  A    between atoms: C3_4  and  C4_6 
REMARK    4  A    between atoms: C4_6  and  N1_7 
REMARK       I    between atoms: N1_7  and  C5_9 
REMARK    5  A    between atoms: C5_9  and  C6_11 
REMARK    6  A    between atoms: C6_11  and  C7_12 
REMARK    7  A    between atoms: C6_11  and  N2_16 
REMARK    8  A    between atoms: C7_12  and  C8_13 
REMARK       I    between atoms: N2_16  and  C11_18 
REMARK       I    between atoms: C11_18  and  N3_20 
REMARK    9  A    between atoms: N3_20  and  C12_22 
ROOT
HETATM    1  N1  UNL     1      -3.599   3.725  14.917  1.00  0.00    -0.339 N 
ATOM      2  H1  UNL     1      -2.676   3.450  15.252  1.00  0.00     0.164 HD
HETATM    3  C5  UNL     1      -3.728   5.044  14.436  1.00  0.00     0.241 C 
HETATM    4  O3  UNL     1      -4.855   5.406  14.027  1.00  0.00    -0.271 OA
ENDROOT
BRANCH   3   5
HETATM    5  C6  UNL     1      -2.630   6.038  14.373  1.00  0.00     0.178 C 
BRANCH   5   6
HETATM    6  C7  UNL     1      -2.977   7.340  13.781  1.00  0.00     0.038 C 
BRANCH   6   7
HETATM    7  C8  UNL     1      -2.249   8.558  14.146  1.00  0.00    -0.020 C 
HETATM    8  C9  UNL     1      -1.775   8.625  15.593  1.00  0.00     0.009 C 
HETATM    9  C10 UNL     1      -1.170   9.037  13.238  1.00  0.00     0.009 C 
ENDBRANCH   6   7
ENDBRANCH   5   6
BRANCH   5  10
HETATM   10  N2  UNL     1      -1.403   5.452  13.887  1.00  0.00    -0.330 N 
HETATM   11  C11 UNL     1      -1.119   5.187  12.524  1.00  0.00     0.317 C 
HETATM   12  O4  UNL     1      -1.989   5.479  11.674  1.00  0.00    -0.247 OA
HETATM   13  N3  UNL     1       0.090   4.615  12.075  1.00  0.00    -0.339 N 
ATOM     14  H3  UNL     1       0.811   4.371  12.755  1.00  0.00     0.164 HD
ATOM     15  H2  UNL     1      -0.689   5.211  14.574  1.00  0.00     0.165 HD
BRANCH  13  16
HETATM   16  C12 UNL     1       0.322   4.370  10.684  1.00  0.00     0.086 A 
HETATM   17  C13 UNL     1       1.583   3.783  10.219  1.00  0.00     0.027 A 
HETATM   18  C14 UNL     1       1.357   5.271  10.032  1.00  0.00     0.027 A 
ENDBRANCH  13  16
ENDBRANCH   5  10
ENDBRANCH   3   5
BRANCH   1  19
HETATM   19  C4  UNL     1      -4.618   2.741  14.986  1.00  0.00     0.144 C 
HETATM   20  C15 UNL     1      -4.253   1.608  15.959  1.00  0.00     0.070 C 
HETATM   21  C16 UNL     1      -5.624   1.105  16.319  1.00  0.00     0.170 C 
HETATM   22  O5  UNL     1      -6.554   2.003  15.855  1.00  0.00    -0.388 OA
HETATM   23  C17 UNL     1      -5.907   3.213  15.626  1.00  0.00     0.209 C 
BRANCH  19  24
HETATM   24  C3  UNL     1      -4.841   2.104  13.688  1.00  0.00     0.289 C 
HETATM   25  O2  UNL     1      -5.665   2.599  12.884  1.00  0.00    -0.262 OA
BRANCH  24  26
HETATM   26  O1  UNL     1      -4.191   0.954  13.258  1.00  0.00    -0.320 OA
BRANCH  26  27
HETATM   27  C2  UNL     1      -4.402   0.331  12.028  1.00  0.00     0.174 C 
HETATM   28  C1  UNL     1      -4.089  -1.130  12.012  1.00  0.00     0.034 C 
ENDBRANCH  26  27
ENDBRANCH  24  26
ENDBRANCH  19  24
ENDBRANCH   1  19
TORSDOF 9
ENDMDL
