MODEL 1
REMARK VINA RESULT: -7.238109513      0.000      0.000
REMARK  5 active torsions:
REMARK  status: ('A' for Active; 'I' for Inactive)
REMARK       I    between atoms: C1_2  and  N2_4 
REMARK    1  A    between atoms: N2_4  and  C2_6 
REMARK    2  A    between atoms: C11_18  and  O2_19 
REMARK    3  A    between atoms: O2_19  and  C12_20 
REMARK    4  A    between atoms: C12_20  and  C13_21 
REMARK    5  A    between atoms: C13_21  and  N4_22 
ROOT
HETATM    1  C2  UNL     1      -5.452   5.029  13.775  1.00  0.00     0.116 C 
HETATM    2  C3  UNL     1      -6.292   4.752  15.016  1.00  0.00     0.061 C 
HETATM    3  C4  UNL     1      -6.098   3.333  15.406  1.00  0.00     0.192 C 
HETATM    4  N3  UNL     1      -6.731   3.033  16.688  1.00  0.00    -0.070 N 
ATOM      5  H31 UNL     1      -7.387   3.768  16.951  1.00  0.00     0.277 HD
ATOM      6  H32 UNL     1      -6.062   3.124  17.453  1.00  0.00     0.277 HD
HETATM    7  C5  UNL     1      -7.363   1.754  16.717  1.00  0.00     0.232 C 
HETATM    8  C6  UNL     1      -6.468   0.621  17.080  1.00  0.00     0.027 C 
HETATM    9  C7  UNL     1      -5.011   0.875  16.832  1.00  0.00     0.002 C 
HETATM   10  C8  UNL     1      -4.712   1.344  15.442  1.00  0.00     0.007 C 
HETATM   11  C9  UNL     1      -4.684   2.874  15.483  1.00  0.00     0.019 C 
HETATM   12  C10 UNL     1      -3.813   3.379  14.366  1.00  0.00     0.041 C 
HETATM   13  C11 UNL     1      -4.018   4.873  14.230  1.00  0.00     0.144 C 
ENDROOT
BRANCH  13  14
HETATM   14  O2  UNL     1      -3.109   5.521  13.460  1.00  0.00    -0.382 OA
BRANCH  14  15
HETATM   15  C12 UNL     1      -2.272   4.751  12.702  1.00  0.00     0.198 C 
BRANCH  15  16
HETATM   16  C13 UNL     1      -2.493   4.775  11.227  1.00  0.00     0.298 C 
BRANCH  16  17
HETATM   17  N4  UNL     1      -2.484   3.465  10.613  1.00  0.00     0.094 N 
HETATM   18  C14 UNL     1      -3.746   2.842  10.634  1.00  0.00     0.298 C 
HETATM   19  C15 UNL     1      -3.869   1.536  11.296  1.00  0.00     0.198 C 
HETATM   20  O3  UNL     1      -2.754   1.049  11.922  1.00  0.00    -0.388 OA
HETATM   21  C16 UNL     1      -1.664   1.194  11.030  1.00  0.00     0.198 C 
HETATM   22  C17 UNL     1      -1.373   2.702  11.053  1.00  0.00     0.298 C 
ENDBRANCH  16  17
ENDBRANCH  15  16
ENDBRANCH  14  15
ENDBRANCH  13  14
BRANCH   1  23
HETATM   23  N2  UNL     1      -5.738   6.294  13.185  1.00  0.00    -0.338 N 
HETATM   24  C1  UNL     1      -5.954   6.489  11.798  1.00  0.00     0.329 C 
HETATM   25  N1  UNL     1      -6.235   7.786  11.291  1.00  0.00    -0.040 NA
HETATM   26  O1  UNL     1      -5.910   5.537  10.966  1.00  0.00    -0.251 OA
ATOM     27  H2  UNL     1      -5.790   7.108  13.798  1.00  0.00     0.164 HD
ENDBRANCH   1  23
TORSDOF 5
ENDMDL
MODEL 2
REMARK VINA RESULT: -7.191918577      2.259      6.512
REMARK  5 active torsions:
REMARK  status: ('A' for Active; 'I' for Inactive)
REMARK       I    between atoms: C1_2  and  N2_4 
REMARK    1  A    between atoms: N2_4  and  C2_6 
REMARK    2  A    between atoms: C11_18  and  O2_19 
REMARK    3  A    between atoms: O2_19  and  C12_20 
REMARK    4  A    between atoms: C12_20  and  C13_21 
REMARK    5  A    between atoms: C13_21  and  N4_22 
ROOT
HETATM    1  C2  UNL     1      -4.726   4.474  11.830  1.00  0.00     0.116 C 
HETATM    2  C3  UNL     1      -4.227   5.260  10.624  1.00  0.00     0.061 C 
HETATM    3  C4  UNL     1      -5.242   6.289  10.284  1.00  0.00     0.192 C 
HETATM    4  N3  UNL     1      -4.762   7.202   9.250  1.00  0.00    -0.070 N 
ATOM      5  H31 UNL     1      -3.938   6.822   8.784  1.00  0.00     0.277 HD
ATOM      6  H32 UNL     1      -4.349   8.037   9.665  1.00  0.00     0.277 HD
HETATM    7  C5  UNL     1      -5.767   7.552   8.299  1.00  0.00     0.232 C 
HETATM    8  C6  UNL     1      -6.622   8.707   8.689  1.00  0.00     0.027 C 
HETATM    9  C7  UNL     1      -6.681   8.968  10.164  1.00  0.00     0.002 C 
HETATM   10  C8  UNL     1      -7.041   7.761  10.973  1.00  0.00     0.007 C 
HETATM   11  C9  UNL     1      -5.728   7.116  11.423  1.00  0.00     0.019 C 
HETATM   12  C10 UNL     1      -5.972   6.336  12.686  1.00  0.00     0.041 C 
HETATM   13  C11 UNL     1      -4.759   5.474  12.964  1.00  0.00     0.144 C 
ENDROOT
BRANCH  13  14
HETATM   14  O2  UNL     1      -4.704   4.922  14.203  1.00  0.00    -0.382 OA
BRANCH  14  15
HETATM   15  C12 UNL     1      -5.892   4.711  14.844  1.00  0.00     0.198 C 
BRANCH  15  16
HETATM   16  C13 UNL     1      -6.359   3.297  14.936  1.00  0.00     0.298 C 
BRANCH  16  17
HETATM   17  N4  UNL     1      -5.773   2.559  16.034  1.00  0.00     0.094 N 
HETATM   18  C14 UNL     1      -4.582   1.898  15.675  1.00  0.00     0.298 C 
HETATM   19  C15 UNL     1      -4.514   0.442  15.845  1.00  0.00     0.198 C 
HETATM   20  O3  UNL     1      -5.651  -0.189  16.269  1.00  0.00    -0.388 OA
HETATM   21  C16 UNL     1      -6.162   0.542  17.369  1.00  0.00     0.198 C 
HETATM   22  C17 UNL     1      -6.754   1.804  16.724  1.00  0.00     0.298 C 
ENDBRANCH  16  17
ENDBRANCH  15  16
ENDBRANCH  14  15
ENDBRANCH  13  14
BRANCH   1  23
HETATM   23  N2  UNL     1      -3.936   3.318  12.100  1.00  0.00    -0.338 N 
HETATM   24  C1  UNL     1      -4.415   1.989  11.983  1.00  0.00     0.329 C 
HETATM   25  N1  UNL     1      -3.561   0.891  12.272  1.00  0.00    -0.040 NA
HETATM   26  O1  UNL     1      -5.599   1.725  11.624  1.00  0.00    -0.251 OA
ATOM     27  H2  UNL     1      -2.970   3.456  12.394  1.00  0.00     0.164 HD
ENDBRANCH   1  23
TORSDOF 5
ENDMDL
MODEL 3
REMARK VINA RESULT: -6.926759471      3.059      6.027
REMARK  5 active torsions:
REMARK  status: ('A' for Active; 'I' for Inactive)
REMARK       I    between atoms: C1_2  and  N2_4 
REMARK    1  A    between atoms: N2_4  and  C2_6 
REMARK    2  A    between atoms: C11_18  and  O2_19 
REMARK    3  A    between atoms: O2_19  and  C12_20 
REMARK    4  A    between atoms: C12_20  and  C13_21 
REMARK    5  A    between atoms: C13_21  and  N4_22 
ROOT
HETATM    1  C2  UNL     1      -4.325   6.647  12.360  1.00  0.00     0.116 C 
HETATM    2  C3  UNL     1      -3.047   7.389  11.988  1.00  0.00     0.061 C 
HETATM    3  C4  UNL     1      -2.581   8.143  13.179  1.00  0.00     0.192 C 
HETATM    4  N3  UNL     1      -1.266   8.741  12.961  1.00  0.00    -0.070 N 
ATOM      5  H31 UNL     1      -1.028   8.743  11.969  1.00  0.00     0.277 HD
ATOM      6  H32 UNL     1      -0.527   8.131  13.309  1.00  0.00     0.277 HD
HETATM    7  C5  UNL     1      -1.145  10.050  13.514  1.00  0.00     0.232 C 
HETATM    8  C6  UNL     1      -0.742  10.090  14.947  1.00  0.00     0.027 C 
HETATM    9  C7  UNL     1      -1.046   8.837  15.714  1.00  0.00     0.002 C 
HETATM   10  C8  UNL     1      -2.468   8.387  15.588  1.00  0.00     0.007 C 
HETATM   11  C9  UNL     1      -2.517   7.368  14.449  1.00  0.00     0.019 C 
HETATM   12  C10 UNL     1      -3.686   6.446  14.663  1.00  0.00     0.041 C 
HETATM   13  C11 UNL     1      -3.902   5.636  13.403  1.00  0.00     0.144 C 
ENDROOT
BRANCH  13  14
HETATM   14  O2  UNL     1      -4.735   4.572  13.525  1.00  0.00    -0.382 OA
BRANCH  14  15
HETATM   15  C12 UNL     1      -5.645   4.608  14.544  1.00  0.00     0.198 C 
BRANCH  15  16
HETATM   16  C13 UNL     1      -6.343   3.329  14.861  1.00  0.00     0.298 C 
BRANCH  16  17
HETATM   17  N4  UNL     1      -5.769   2.611  15.979  1.00  0.00     0.094 N 
HETATM   18  C14 UNL     1      -4.581   1.935  15.643  1.00  0.00     0.298 C 
HETATM   19  C15 UNL     1      -4.524   0.482  15.845  1.00  0.00     0.198 C 
HETATM   20  O3  UNL     1      -5.668  -0.132  16.276  1.00  0.00    -0.388 OA
HETATM   21  C16 UNL     1      -6.181   0.627  17.356  1.00  0.00     0.198 C 
HETATM   22  C17 UNL     1      -6.760   1.878  16.679  1.00  0.00     0.298 C 
ENDBRANCH  16  17
ENDBRANCH  15  16
ENDBRANCH  14  15
ENDBRANCH  13  14
BRANCH   1  23
HETATM   23  N2  UNL     1      -4.978   6.074  11.230  1.00  0.00    -0.338 N 
HETATM   24  C1  UNL     1      -6.209   6.545  10.707  1.00  0.00     0.329 C 
HETATM   25  N1  UNL     1      -6.794   5.916   9.575  1.00  0.00    -0.040 NA
HETATM   26  O1  UNL     1      -6.829   7.526  11.212  1.00  0.00    -0.251 OA
ATOM     27  H2  UNL     1      -4.535   5.279  10.771  1.00  0.00     0.164 HD
ENDBRANCH   1  23
TORSDOF 5
ENDMDL
MODEL 4
REMARK VINA RESULT: -6.870543655      2.252      6.542
REMARK  5 active torsions:
REMARK  status: ('A' for Active; 'I' for Inactive)
REMARK       I    between atoms: C1_2  and  N2_4 
REMARK    1  A    between atoms: N2_4  and  C2_6 
REMARK    2  A    between atoms: C11_18  and  O2_19 
REMARK    3  A    between atoms: O2_19  and  C12_20 
REMARK    4  A    between atoms: C12_20  and  C13_21 
REMARK    5  A    between atoms: C13_21  and  N4_22 
ROOT
HETATM    1  C2  UNL     1      -4.497   4.757  11.812  1.00  0.00     0.116 C 
HETATM    2  C3  UNL     1      -3.840   5.686  10.799  1.00  0.00     0.061 C 
HETATM    3  C4  UNL     1      -4.842   6.694  10.370  1.00  0.00     0.192 C 
HETATM    4  N3  UNL     1      -4.243   7.731   9.533  1.00  0.00    -0.070 N 
ATOM      5  H31 UNL     1      -3.324   7.441   9.198  1.00  0.00     0.277 HD
ATOM      6  H32 UNL     1      -3.970   8.538  10.094  1.00  0.00     0.277 HD
HETATM    7  C5  UNL     1      -5.078   8.128   8.447  1.00  0.00     0.232 C 
HETATM    8  C6  UNL     1      -6.065   9.194   8.772  1.00  0.00     0.027 C 
HETATM    9  C7  UNL     1      -6.410   9.299  10.228  1.00  0.00     0.002 C 
HETATM   10  C8  UNL     1      -6.830   7.999  10.840  1.00  0.00     0.007 C 
HETATM   11  C9  UNL     1      -5.582   7.375  11.468  1.00  0.00     0.019 C 
HETATM   12  C10 UNL     1      -6.000   6.459  12.585  1.00  0.00     0.041 C 
HETATM   13  C11 UNL     1      -4.804   5.632  13.007  1.00  0.00     0.144 C 
ENDROOT
BRANCH  13  14
HETATM   14  O2  UNL     1      -4.939   4.960  14.177  1.00  0.00    -0.382 OA
BRANCH  14  15
HETATM   15  C12 UNL     1      -6.186   4.494  14.487  1.00  0.00     0.198 C 
BRANCH  15  16
HETATM   16  C13 UNL     1      -6.316   3.730  15.761  1.00  0.00     0.298 C 
BRANCH  16  17
HETATM   17  N4  UNL     1      -6.274   2.293  15.588  1.00  0.00     0.094 N 
HETATM   18  C14 UNL     1      -6.802   1.594  16.691  1.00  0.00     0.298 C 
HETATM   19  C15 UNL     1      -5.939   0.629  17.383  1.00  0.00     0.198 C 
HETATM   20  O3  UNL     1      -4.643   0.535  16.956  1.00  0.00    -0.388 OA
HETATM   21  C16 UNL     1      -4.664   0.448  15.543  1.00  0.00     0.198 C 
HETATM   22  C17 UNL     1      -5.013   1.875  15.095  1.00  0.00     0.298 C 
ENDBRANCH  16  17
ENDBRANCH  15  16
ENDBRANCH  14  15
ENDBRANCH  13  14
BRANCH   1  23
HETATM   23  N2  UNL     1      -3.695   3.619  12.118  1.00  0.00    -0.338 N 
HETATM   24  C1  UNL     1      -3.725   2.410  11.380  1.00  0.00     0.329 C 
HETATM   25  N1  UNL     1      -2.891   1.321  11.753  1.00  0.00    -0.040 NA
HETATM   26  O1  UNL     1      -4.477   2.248  10.376  1.00  0.00    -0.251 OA
ATOM     27  H2  UNL     1      -3.063   3.679  12.916  1.00  0.00     0.164 HD
ENDBRANCH   1  23
TORSDOF 5
ENDMDL
MODEL 5
REMARK VINA RESULT: -6.804980735      3.187      6.148
REMARK  5 active torsions:
REMARK  status: ('A' for Active; 'I' for Inactive)
REMARK       I    between atoms: C1_2  and  N2_4 
REMARK    1  A    between atoms: N2_4  and  C2_6 
REMARK    2  A    between atoms: C11_18  and  O2_19 
REMARK    3  A    between atoms: O2_19  and  C12_20 
REMARK    4  A    between atoms: C12_20  and  C13_21 
REMARK    5  A    between atoms: C13_21  and  N4_22 
ROOT
HETATM    1  C2  UNL     1      -2.591   5.853  12.247  1.00  0.00     0.116 C 
HETATM    2  C3  UNL     1      -1.523   6.880  11.891  1.00  0.00     0.061 C 
HETATM    3  C4  UNL     1      -1.583   7.981  12.885  1.00  0.00     0.192 C 
HETATM    4  N3  UNL     1      -0.476   8.920  12.720  1.00  0.00    -0.070 N 
ATOM      5  H31 UNL     1      -0.021   8.790  11.816  1.00  0.00     0.277 HD
ATOM      6  H32 UNL     1       0.300   8.679  13.336  1.00  0.00     0.277 HD
HETATM    7  C5  UNL     1      -0.863  10.282  12.902  1.00  0.00     0.232 C 
HETATM    8  C6  UNL     1      -0.838  10.756  14.313  1.00  0.00     0.027 C 
HETATM    9  C7  UNL     1      -0.950   9.667  15.338  1.00  0.00     0.002 C 
HETATM   10  C8  UNL     1      -2.117   8.756  15.119  1.00  0.00     0.007 C 
HETATM   11  C9  UNL     1      -1.606   7.560  14.313  1.00  0.00     0.019 C 
HETATM   12  C10 UNL     1      -2.485   6.371  14.587  1.00  0.00     0.041 C 
HETATM   13  C11 UNL     1      -2.161   5.286  13.582  1.00  0.00     0.144 C 
ENDROOT
BRANCH  13  14
HETATM   14  O2  UNL     1      -2.665   4.058  13.861  1.00  0.00    -0.382 OA
BRANCH  14  15
HETATM   15  C12 UNL     1      -3.700   3.998  14.751  1.00  0.00     0.198 C 
BRANCH  15  16
HETATM   16  C13 UNL     1      -5.022   3.568  14.210  1.00  0.00     0.298 C 
BRANCH  16  17
HETATM   17  N4  UNL     1      -5.456   2.273  14.689  1.00  0.00     0.094 N 
HETATM   18  C14 UNL     1      -5.862   2.297  16.037  1.00  0.00     0.298 C 
HETATM   19  C15 UNL     1      -5.176   1.412  16.988  1.00  0.00     0.198 C 
HETATM   20  O3  UNL     1      -4.126   0.679  16.508  1.00  0.00    -0.388 OA
HETATM   21  C16 UNL     1      -4.540   0.083  15.292  1.00  0.00     0.198 C 
HETATM   22  C17 UNL     1      -4.552   1.254  14.299  1.00  0.00     0.298 C 
ENDBRANCH  16  17
ENDBRANCH  15  16
ENDBRANCH  14  15
ENDBRANCH  13  14
BRANCH   1  23
HETATM   23  N2  UNL     1      -2.770   4.869  11.231  1.00  0.00    -0.338 N 
HETATM   24  C1  UNL     1      -4.029   4.527  10.676  1.00  0.00     0.329 C 
HETATM   25  N1  UNL     1      -4.121   3.533   9.665  1.00  0.00    -0.040 NA
HETATM   26  O1  UNL     1      -5.105   5.080  11.046  1.00  0.00    -0.251 OA
ATOM     27  H2  UNL     1      -1.945   4.382  10.883  1.00  0.00     0.164 HD
ENDBRANCH   1  23
TORSDOF 5
ENDMDL
