MODEL 1
REMARK VINA RESULT: -7.277149525      0.000      0.000
REMARK  7 active torsions:
REMARK  status: ('A' for Active; 'I' for Inactive)
REMARK    1  A    between atoms: C5_9  and  C6_10 
REMARK    2  A    between atoms: C6_10  and  N3_11 
REMARK    3  A    between atoms: N3_11  and  C7_13 
REMARK    4  A    between atoms: C10_20  and  N6_21 
REMARK    5  A    between atoms: N6_21  and  C11_23 
REMARK    6  A    between atoms: C12_24  and  C13_25 
REMARK    7  A    between atoms: C13_25  and  C15_27 
ROOT
HETATM    1  C7  UNL     1      -4.969   1.709  14.526  1.00  0.00     0.698 A 
HETATM    2  N4  UNL     1      -5.501   1.311  15.688  1.00  0.00    -0.180 N 
ATOM      3  H4  UNL     1      -5.373   0.352  16.008  1.00  0.00     0.185 HD
HETATM    4  C8  UNL     1      -6.212   2.191  16.437  1.00  0.00     0.109 A 
HETATM    5  C9  UNL     1      -6.797   1.729  17.726  1.00  0.00     0.090 C 
HETATM    6  N5  UNL     1      -6.350   3.440  15.972  1.00  0.00    -0.180 N 
ATOM      7  H5  UNL     1      -6.883   4.106  16.532  1.00  0.00     0.185 HD
HETATM    8  C10 UNL     1      -5.824   3.866  14.807  1.00  0.00     0.698 A 
HETATM    9  N7  UNL     1      -5.125   2.970  14.087  1.00  0.00    -0.022 N 
ATOM     10  H7  UNL     1      -4.710   3.251  13.199  1.00  0.00     0.203 HD
ENDROOT
BRANCH   1  11
HETATM   11  N3  UNL     1      -4.295   0.908  13.798  1.00  0.00    -0.200 N 
ATOM     12  H3  UNL     1      -3.729   0.175  14.225  1.00  0.00     0.183 HD
BRANCH  11  13
HETATM   13  C6  UNL     1      -4.342   1.047  12.377  1.00  0.00     0.125 C 
BRANCH  13  14
HETATM   14  C5  UNL     1      -3.243   1.285  11.684  1.00  0.00     0.076 A 
HETATM   15  C2  UNL     1      -2.720   0.513  10.674  1.00  0.00     0.056 A 
HETATM   16  C1  UNL     1      -3.228  -0.628  10.202  1.00  0.00     0.045 C 
HETATM   17  N1  UNL     1      -1.596   1.138  10.257  1.00  0.00    -0.296 N 
HETATM   18  N2  UNL     1      -1.375   2.238  10.925  1.00  0.00    -0.261 N 
ATOM     19  H1  UNL     1      -0.994   0.792   9.510  1.00  0.00     0.187 HD
HETATM   20  C3  UNL     1      -0.269   3.191  10.774  1.00  0.00     0.181 C 
HETATM   21  C4  UNL     1      -2.378   2.353  11.814  1.00  0.00     0.275 A 
HETATM   22  O1  UNL     1      -2.503   3.304  12.644  1.00  0.00    -0.266 OA
ENDBRANCH  13  14
ENDBRANCH  11  13
ENDBRANCH   1  11
BRANCH   8  23
HETATM   23  N6  UNL     1      -5.986   5.093  14.396  1.00  0.00    -0.201 N 
ATOM     24  H6  UNL     1      -6.918   5.463  14.210  1.00  0.00     0.183 HD
BRANCH  23  25
HETATM   25  C11 UNL     1      -4.837   5.900  14.213  1.00  0.00     0.102 C 
HETATM   26  C12 UNL     1      -4.553   6.384  13.024  1.00  0.00    -0.005 C 
BRANCH  26  27
HETATM   27  C13 UNL     1      -5.462   6.064  11.897  1.00  0.00     0.005 C 
HETATM   28  C14 UNL     1      -4.684   5.351  10.822  1.00  0.00     0.014 C 
BRANCH  27  29
HETATM   29  C15 UNL     1      -6.056   7.361  11.412  1.00  0.00     0.003 C 
HETATM   30  C16 UNL     1      -7.497   7.529  11.807  1.00  0.00     0.006 C 
ENDBRANCH  27  29
ENDBRANCH  26  27
ENDBRANCH  23  25
ENDBRANCH   8  23
TORSDOF 7
ENDMDL
MODEL 2
REMARK VINA RESULT: -6.960230728      2.236      4.731
REMARK  7 active torsions:
REMARK  status: ('A' for Active; 'I' for Inactive)
REMARK    1  A    between atoms: C5_9  and  C6_10 
REMARK    2  A    between atoms: C6_10  and  N3_11 
REMARK    3  A    between atoms: N3_11  and  C7_13 
REMARK    4  A    between atoms: C10_20  and  N6_21 
REMARK    5  A    between atoms: N6_21  and  C11_23 
REMARK    6  A    between atoms: C12_24  and  C13_25 
REMARK    7  A    between atoms: C13_25  and  C15_27 
ROOT
HETATM    1  C7  UNL     1      -2.114   5.237  13.825  1.00  0.00     0.698 A 
HETATM    2  N4  UNL     1      -1.679   6.462  14.141  1.00  0.00    -0.180 N 
ATOM      3  H4  UNL     1      -0.727   6.744  13.909  1.00  0.00     0.185 HD
HETATM    4  C8  UNL     1      -2.512   7.329  14.770  1.00  0.00     0.109 A 
HETATM    5  C9  UNL     1      -2.010   8.688  15.112  1.00  0.00     0.090 C 
HETATM    6  N5  UNL     1      -3.754   6.911  15.050  1.00  0.00    -0.180 N 
ATOM      7  H5  UNL     1      -4.386   7.559  15.522  1.00  0.00     0.185 HD
HETATM    8  C10 UNL     1      -4.216   5.684  14.742  1.00  0.00     0.698 A 
HETATM    9  N7  UNL     1      -3.367   4.847  14.120  1.00  0.00    -0.022 N 
ATOM     10  H7  UNL     1      -3.676   3.908  13.869  1.00  0.00     0.203 HD
ENDROOT
BRANCH   1  11
HETATM   11  N3  UNL     1      -1.356   4.398  13.233  1.00  0.00    -0.200 N 
ATOM     12  H3  UNL     1      -0.675   3.856  13.764  1.00  0.00     0.183 HD
BRANCH  11  13
HETATM   13  C6  UNL     1      -1.473   4.226  11.820  1.00  0.00     0.125 C 
BRANCH  13  14
HETATM   14  C5  UNL     1      -1.685   3.031  11.299  1.00  0.00     0.076 A 
HETATM   15  C2  UNL     1      -1.057   2.484  10.205  1.00  0.00     0.056 A 
HETATM   16  C1  UNL     1      -0.112   3.063   9.460  1.00  0.00     0.045 C 
HETATM   17  N1  UNL     1      -1.586   1.251  10.037  1.00  0.00    -0.296 N 
HETATM   18  N2  UNL     1      -2.493   0.984  10.938  1.00  0.00    -0.261 N 
ATOM     19  H1  UNL     1      -1.309   0.608   9.296  1.00  0.00     0.187 HD
HETATM   20  C3  UNL     1      -3.290  -0.238  11.096  1.00  0.00     0.181 C 
HETATM   21  C4  UNL     1      -2.574   2.067  11.732  1.00  0.00     0.275 A 
HETATM   22  O1  UNL     1      -3.353   2.179  12.726  1.00  0.00    -0.266 OA
ENDBRANCH  13  14
ENDBRANCH  11  13
ENDBRANCH   1  11
BRANCH   8  23
HETATM   23  N6  UNL     1      -5.435   5.322  15.036  1.00  0.00    -0.201 N 
ATOM     24  H6  UNL     1      -5.937   5.759  15.809  1.00  0.00     0.183 HD
BRANCH  23  25
HETATM   25  C11 UNL     1      -6.043   4.308  14.257  1.00  0.00     0.102 C 
HETATM   26  C12 UNL     1      -6.195   3.099  14.750  1.00  0.00    -0.005 C 
BRANCH  26  27
HETATM   27  C13 UNL     1      -5.715   2.834  16.128  1.00  0.00     0.005 C 
HETATM   28  C14 UNL     1      -4.651   1.769  16.084  1.00  0.00     0.014 C 
BRANCH  27  29
HETATM   29  C15 UNL     1      -6.908   2.422  16.951  1.00  0.00     0.003 C 
HETATM   30  C16 UNL     1      -7.067   0.930  17.044  1.00  0.00     0.006 C 
ENDBRANCH  27  29
ENDBRANCH  26  27
ENDBRANCH  23  25
ENDBRANCH   8  23
TORSDOF 7
ENDMDL
MODEL 3
REMARK VINA RESULT: -6.867865510      1.179      1.559
REMARK  7 active torsions:
REMARK  status: ('A' for Active; 'I' for Inactive)
REMARK    1  A    between atoms: C5_9  and  C6_10 
REMARK    2  A    between atoms: C6_10  and  N3_11 
REMARK    3  A    between atoms: N3_11  and  C7_13 
REMARK    4  A    between atoms: C10_20  and  N6_21 
REMARK    5  A    between atoms: N6_21  and  C11_23 
REMARK    6  A    between atoms: C12_24  and  C13_25 
REMARK    7  A    between atoms: C13_25  and  C15_27 
ROOT
HETATM    1  C7  UNL     1      -4.887   2.457  14.356  1.00  0.00     0.698 A 
HETATM    2  N4  UNL     1      -5.567   2.317  15.500  1.00  0.00    -0.180 N 
ATOM      3  H4  UNL     1      -5.495   1.452  16.036  1.00  0.00     0.185 HD
HETATM    4  C8  UNL     1      -6.352   3.331  15.943  1.00  0.00     0.109 A 
HETATM    5  C9  UNL     1      -7.100   3.155  17.218  1.00  0.00     0.090 C 
HETATM    6  N5  UNL     1      -6.410   4.447  15.203  1.00  0.00    -0.180 N 
ATOM      7  H5  UNL     1      -6.998   5.213  15.532  1.00  0.00     0.185 HD
HETATM    8  C10 UNL     1      -5.735   4.613  14.049  1.00  0.00     0.698 A 
HETATM    9  N7  UNL     1      -4.966   3.590  13.635  1.00  0.00    -0.022 N 
ATOM     10  H7  UNL     1      -4.438   3.674  12.767  1.00  0.00     0.203 HD
ENDROOT
BRANCH   1  11
HETATM   11  N3  UNL     1      -4.140   1.524  13.911  1.00  0.00    -0.200 N 
ATOM     12  H3  UNL     1      -3.413   1.120  14.501  1.00  0.00     0.183 HD
BRANCH  11  13
HETATM   13  C6  UNL     1      -4.333   1.049  12.578  1.00  0.00     0.125 C 
BRANCH  13  14
HETATM   14  C5  UNL     1      -3.367   1.138  11.682  1.00  0.00     0.076 A 
HETATM   15  C2  UNL     1      -2.817   0.108  10.955  1.00  0.00     0.056 A 
HETATM   16  C1  UNL     1      -3.160  -1.181  11.020  1.00  0.00     0.045 C 
HETATM   17  N1  UNL     1      -1.868   0.659  10.166  1.00  0.00    -0.296 N 
HETATM   18  N2  UNL     1      -1.781   1.951  10.341  1.00  0.00    -0.261 N 
ATOM     19  H1  UNL     1      -1.291   0.131   9.513  1.00  0.00     0.187 HD
HETATM   20  C3  UNL     1      -0.882   2.903   9.679  1.00  0.00     0.181 C 
HETATM   21  C4  UNL     1      -2.696   2.273  11.273  1.00  0.00     0.275 A 
HETATM   22  O1  UNL     1      -2.906   3.447  11.706  1.00  0.00    -0.266 OA
ENDBRANCH  13  14
ENDBRANCH  11  13
ENDBRANCH   1  11
BRANCH   8  23
HETATM   23  N6  UNL     1      -5.824   5.719  13.362  1.00  0.00    -0.201 N 
ATOM     24  H6  UNL     1      -4.992   6.151  12.959  1.00  0.00     0.183 HD
BRANCH  23  25
HETATM   25  C11 UNL     1      -7.100   6.305  13.191  1.00  0.00     0.102 C 
HETATM   26  C12 UNL     1      -7.341   7.069  12.149  1.00  0.00    -0.005 C 
BRANCH  26  27
HETATM   27  C13 UNL     1      -6.247   7.295  11.173  1.00  0.00     0.005 C 
HETATM   28  C14 UNL     1      -6.051   8.777  10.984  1.00  0.00     0.014 C 
BRANCH  27  29
HETATM   29  C15 UNL     1      -6.632   6.598   9.893  1.00  0.00     0.003 C 
HETATM   30  C16 UNL     1      -7.691   7.335   9.121  1.00  0.00     0.006 C 
ENDBRANCH  27  29
ENDBRANCH  26  27
ENDBRANCH  23  25
ENDBRANCH   8  23
TORSDOF 7
ENDMDL
MODEL 4
REMARK VINA RESULT: -6.861489876      2.410      6.375
REMARK  7 active torsions:
REMARK  status: ('A' for Active; 'I' for Inactive)
REMARK    1  A    between atoms: C5_9  and  C6_10 
REMARK    2  A    between atoms: C6_10  and  N3_11 
REMARK    3  A    between atoms: N3_11  and  C7_13 
REMARK    4  A    between atoms: C10_20  and  N6_21 
REMARK    5  A    between atoms: N6_21  and  C11_23 
REMARK    6  A    between atoms: C12_24  and  C13_25 
REMARK    7  A    between atoms: C13_25  and  C15_27 
ROOT
HETATM    1  C7  UNL     1      -4.074   1.058  11.917  1.00  0.00     0.698 A 
HETATM    2  N4  UNL     1      -4.091  -0.279  11.851  1.00  0.00    -0.180 N 
ATOM      3  H4  UNL     1      -4.912  -0.797  12.163  1.00  0.00     0.185 HD
HETATM    4  C8  UNL     1      -3.011  -0.941  11.366  1.00  0.00     0.109 A 
HETATM    5  C9  UNL     1      -3.049  -2.428  11.301  1.00  0.00     0.090 C 
HETATM    6  N5  UNL     1      -1.958  -0.214  10.967  1.00  0.00    -0.180 N 
ATOM      7  H5  UNL     1      -1.143  -0.706  10.601  1.00  0.00     0.185 HD
HETATM    8  C10 UNL     1      -1.917   1.132  11.022  1.00  0.00     0.698 A 
HETATM    9  N7  UNL     1      -3.002   1.760  11.508  1.00  0.00    -0.022 N 
ATOM     10  H7  UNL     1      -3.013   2.778  11.567  1.00  0.00     0.203 HD
ENDROOT
BRANCH   1  11
HETATM   11  N3  UNL     1      -5.073   1.711  12.367  1.00  0.00    -0.200 N 
ATOM     12  H3  UNL     1      -6.004   1.561  11.978  1.00  0.00     0.183 HD
BRANCH  11  13
HETATM   13  C6  UNL     1      -4.874   2.654  13.421  1.00  0.00     0.125 C 
BRANCH  13  14
HETATM   14  C5  UNL     1      -5.374   2.439  14.624  1.00  0.00     0.076 A 
HETATM   15  C2  UNL     1      -6.035   3.347  15.419  1.00  0.00     0.056 A 
HETATM   16  C1  UNL     1      -6.295   4.622  15.120  1.00  0.00     0.045 C 
HETATM   17  N1  UNL     1      -6.365   2.693  16.554  1.00  0.00    -0.296 N 
HETATM   18  N2  UNL     1      -5.965   1.450  16.534  1.00  0.00    -0.261 N 
ATOM     19  H1  UNL     1      -6.868   3.118  17.333  1.00  0.00     0.187 HD
HETATM   20  C3  UNL     1      -6.130   0.420  17.566  1.00  0.00     0.181 C 
HETATM   21  C4  UNL     1      -5.349   1.266  15.352  1.00  0.00     0.275 A 
HETATM   22  O1  UNL     1      -4.826   0.175  14.970  1.00  0.00    -0.266 OA
ENDBRANCH  13  14
ENDBRANCH  11  13
ENDBRANCH   1  11
BRANCH   8  23
HETATM   23  N6  UNL     1      -0.868   1.797  10.622  1.00  0.00    -0.201 N 
ATOM     24  H6  UNL     1      -0.317   1.473   9.827  1.00  0.00     0.183 HD
BRANCH  23  25
HETATM   25  C11 UNL     1      -0.513   2.978  11.317  1.00  0.00     0.102 C 
HETATM   26  C12 UNL     1       0.272   3.867  10.750  1.00  0.00    -0.005 C 
BRANCH  26  27
HETATM   27  C13 UNL     1       0.767   3.597   9.378  1.00  0.00     0.005 C 
HETATM   28  C14 UNL     1       2.272   3.637   9.379  1.00  0.00     0.014 C 
BRANCH  27  29
HETATM   29  C15 UNL     1       0.164   4.636   8.468  1.00  0.00     0.003 C 
HETATM   30  C16 UNL     1      -1.127   4.188   7.842  1.00  0.00     0.006 C 
ENDBRANCH  27  29
ENDBRANCH  26  27
ENDBRANCH  23  25
ENDBRANCH   8  23
TORSDOF 7
ENDMDL
MODEL 5
REMARK VINA RESULT: -6.820036658      2.414      6.684
REMARK  7 active torsions:
REMARK  status: ('A' for Active; 'I' for Inactive)
REMARK    1  A    between atoms: C5_9  and  C6_10 
REMARK    2  A    between atoms: C6_10  and  N3_11 
REMARK    3  A    between atoms: N3_11  and  C7_13 
REMARK    4  A    between atoms: C10_20  and  N6_21 
REMARK    5  A    between atoms: N6_21  and  C11_23 
REMARK    6  A    between atoms: C12_24  and  C13_25 
REMARK    7  A    between atoms: C13_25  and  C15_27 
ROOT
HETATM    1  C7  UNL     1      -4.062   1.135  11.883  1.00  0.00     0.698 A 
HETATM    2  N4  UNL     1      -4.080  -0.202  11.855  1.00  0.00    -0.180 N 
ATOM      3  H4  UNL     1      -4.888  -0.712  12.212  1.00  0.00     0.185 HD
HETATM    4  C8  UNL     1      -3.017  -0.877  11.348  1.00  0.00     0.109 A 
HETATM    5  C9  UNL     1      -3.056  -2.365  11.326  1.00  0.00     0.090 C 
HETATM    6  N5  UNL     1      -1.982  -0.161  10.889  1.00  0.00    -0.180 N 
ATOM      7  H5  UNL     1      -1.180  -0.663  10.507  1.00  0.00     0.185 HD
HETATM    8  C10 UNL     1      -1.940   1.185  10.906  1.00  0.00     0.698 A 
HETATM    9  N7  UNL     1      -3.007   1.826  11.415  1.00  0.00    -0.022 N 
ATOM     10  H7  UNL     1      -3.017   2.845  11.446  1.00  0.00     0.203 HD
ENDROOT
BRANCH   1  11
HETATM   11  N3  UNL     1      -5.044   1.800  12.352  1.00  0.00    -0.200 N 
ATOM     12  H3  UNL     1      -5.977   1.690  11.957  1.00  0.00     0.183 HD
BRANCH  11  13
HETATM   13  C6  UNL     1      -4.823   2.702  13.438  1.00  0.00     0.125 C 
BRANCH  13  14
HETATM   14  C5  UNL     1      -5.353   2.474  14.626  1.00  0.00     0.076 A 
HETATM   15  C2  UNL     1      -6.033   3.373  15.413  1.00  0.00     0.056 A 
HETATM   16  C1  UNL     1      -6.285   4.652  15.122  1.00  0.00     0.045 C 
HETATM   17  N1  UNL     1      -6.394   2.706  16.532  1.00  0.00    -0.296 N 
HETATM   18  N2  UNL     1      -5.994   1.463  16.508  1.00  0.00    -0.261 N 
ATOM     19  H1  UNL     1      -6.915   3.123  17.303  1.00  0.00     0.187 HD
HETATM   20  C3  UNL     1      -6.186   0.422  17.524  1.00  0.00     0.181 C 
HETATM   21  C4  UNL     1      -5.348   1.292  15.340  1.00  0.00     0.275 A 
HETATM   22  O1  UNL     1      -4.816   0.206  14.959  1.00  0.00    -0.266 OA
ENDBRANCH  13  14
ENDBRANCH  11  13
ENDBRANCH   1  11
BRANCH   8  23
HETATM   23  N6  UNL     1      -0.908   1.840  10.448  1.00  0.00    -0.201 N 
ATOM     24  H6  UNL     1       0.040   1.564  10.704  1.00  0.00     0.183 HD
BRANCH  23  25
HETATM   25  C11 UNL     1      -1.135   2.940   9.588  1.00  0.00     0.102 C 
HETATM   26  C12 UNL     1      -0.183   3.822   9.379  1.00  0.00    -0.005 C 
BRANCH  26  27
HETATM   27  C13 UNL     1       1.119   3.628  10.062  1.00  0.00     0.005 C 
HETATM   28  C14 UNL     1       1.307   4.718  11.085  1.00  0.00     0.014 C 
BRANCH  27  29
HETATM   29  C15 UNL     1       2.192   3.642   9.003  1.00  0.00     0.003 C 
HETATM   30  C16 UNL     1       3.399   4.443   9.404  1.00  0.00     0.006 C 
ENDBRANCH  27  29
ENDBRANCH  26  27
ENDBRANCH  23  25
ENDBRANCH   8  23
TORSDOF 7
ENDMDL
