MODEL 1
REMARK VINA RESULT: -6.790402405      0.000      0.000
REMARK  8 active torsions:
REMARK  status: ('A' for Active; 'I' for Inactive)
REMARK    1  A    between atoms: N1_2  and  C3_4 
REMARK    2  A    between atoms: C3_4  and  C4_5 
REMARK    3  A    between atoms: C4_5  and  N2_6 
REMARK    4  A    between atoms: N2_6  and  C5_8 
REMARK    5  A    between atoms: C6_11  and  N4_12 
REMARK    6  A    between atoms: N4_12  and  C7_14 
REMARK    7  A    between atoms: C10_19  and  N6_20 
REMARK    8  A    between atoms: N6_20  and  C11_22 
ROOT
HETATM    1  C5  UNL     1      -5.844   5.529  13.171  1.00  0.00     0.707 A 
HETATM    2  N3  UNL     1      -6.404   5.031  14.301  1.00  0.00    -0.022 N 
ATOM      3  H3  UNL     1      -7.186   5.536  14.717  1.00  0.00     0.203 HD
HETATM    4  C6  UNL     1      -5.987   3.921  14.894  1.00  0.00     0.707 A 
HETATM    5  N5  UNL     1      -4.951   3.247  14.349  1.00  0.00    -0.021 N 
ATOM      6  H5  UNL     1      -4.611   2.391  14.789  1.00  0.00     0.203 HD
HETATM    7  C10 UNL     1      -4.368   3.703  13.231  1.00  0.00     0.707 A 
HETATM    8  N8  UNL     1      -4.828   4.850  12.650  1.00  0.00    -0.022 N 
ATOM      9  H8  UNL     1      -4.381   5.193  11.800  1.00  0.00     0.203 HD
ENDROOT
BRANCH   7  10
HETATM   10  N6  UNL     1      -3.379   3.071  12.698  1.00  0.00    -0.220 N 
ATOM     11  H6  UNL     1      -2.436   3.413  12.884  1.00  0.00     0.178 HD
BRANCH  10  12
HETATM   12  C11 UNL     1      -3.526   1.922  11.862  1.00  0.00     0.102 C 
HETATM   13  C12 UNL     1      -4.074   0.713  12.594  1.00  0.00     0.056 C 
HETATM   14  C13 UNL     1      -4.431  -0.309  11.520  1.00  0.00     0.274 C 
HETATM   15  N7  UNL     1      -3.239  -0.716  10.844  1.00  0.00     0.084 N 
HETATM   16  C14 UNL     1      -3.005  -2.131  11.176  1.00  0.00     0.309 C 
HETATM   17  C15 UNL     1      -2.059  -0.002  11.217  1.00  0.00     0.274 C 
HETATM   18  C16 UNL     1      -2.211   1.486  11.240  1.00  0.00     0.056 C 
ENDBRANCH  10  12
ENDBRANCH   7  10
BRANCH   4  19
HETATM   19  N4  UNL     1      -6.536   3.453  15.987  1.00  0.00    -0.220 N 
ATOM     20  H4  UNL     1      -7.202   4.006  16.525  1.00  0.00     0.178 HD
BRANCH  19  21
HETATM   21  C7  UNL     1      -6.160   2.119  16.397  1.00  0.00     0.099 A 
HETATM   22  C8  UNL     1      -7.322   1.309  16.977  1.00  0.00     0.028 A 
HETATM   23  C9  UNL     1      -6.173   1.691  17.800  1.00  0.00     0.028 A 
ENDBRANCH  19  21
ENDBRANCH   4  19
BRANCH   1  24
HETATM   24  N2  UNL     1      -6.341   6.603  12.702  1.00  0.00    -0.223 N 
ATOM     25  H2  UNL     1      -7.140   6.991  13.203  1.00  0.00     0.177 HD
BRANCH  24  26
HETATM   26  C4  UNL     1      -5.900   7.325  11.551  1.00  0.00     0.168 C 
BRANCH  26  27
HETATM   27  C3  UNL     1      -7.104   7.457  10.616  1.00  0.00     0.291 C 
BRANCH  27  28
HETATM   28  N1  UNL     1      -6.876   6.622   9.452  1.00  0.00     0.081 N 
HETATM   29  C1  UNL     1      -7.806   6.974   8.407  1.00  0.00     0.309 C 
HETATM   30  C2  UNL     1      -5.491   6.695   9.011  1.00  0.00     0.309 C 
ENDBRANCH  27  28
ENDBRANCH  26  27
ENDBRANCH  24  26
ENDBRANCH   1  24
TORSDOF 8
ENDMDL
MODEL 2
REMARK VINA RESULT: -6.742552347      1.000      6.118
REMARK  8 active torsions:
REMARK  status: ('A' for Active; 'I' for Inactive)
REMARK    1  A    between atoms: N1_2  and  C3_4 
REMARK    2  A    between atoms: C3_4  and  C4_5 
REMARK    3  A    between atoms: C4_5  and  N2_6 
REMARK    4  A    between atoms: N2_6  and  C5_8 
REMARK    5  A    between atoms: C6_11  and  N4_12 
REMARK    6  A    between atoms: N4_12  and  C7_14 
REMARK    7  A    between atoms: C10_19  and  N6_20 
REMARK    8  A    between atoms: N6_20  and  C11_22 
ROOT
HETATM    1  C5  UNL     1      -4.054   3.080  13.102  1.00  0.00     0.707 A 
HETATM    2  N3  UNL     1      -4.778   2.680  14.176  1.00  0.00    -0.022 N 
ATOM      3  H3  UNL     1      -4.622   1.741  14.542  1.00  0.00     0.203 HD
HETATM    4  C6  UNL     1      -5.679   3.446  14.775  1.00  0.00     0.707 A 
HETATM    5  N5  UNL     1      -5.891   4.690  14.295  1.00  0.00    -0.021 N 
ATOM      6  H5  UNL     1      -6.581   5.297  14.739  1.00  0.00     0.203 HD
HETATM    7  C10 UNL     1      -5.196   5.128  13.235  1.00  0.00     0.707 A 
HETATM    8  N8  UNL     1      -4.276   4.308  12.646  1.00  0.00    -0.022 N 
ATOM      9  H8  UNL     1      -3.750   4.645  11.840  1.00  0.00     0.203 HD
ENDROOT
BRANCH   7  10
HETATM   10  N6  UNL     1      -5.386   6.313  12.765  1.00  0.00    -0.220 N 
ATOM     11  H6  UNL     1      -5.195   7.108  13.376  1.00  0.00     0.178 HD
BRANCH  10  12
HETATM   12  C11 UNL     1      -5.847   6.579  11.440  1.00  0.00     0.102 C 
HETATM   13  C12 UNL     1      -4.746   7.028  10.499  1.00  0.00     0.056 C 
HETATM   14  C13 UNL     1      -5.343   6.990   9.096  1.00  0.00     0.274 C 
HETATM   15  N7  UNL     1      -6.402   7.947   9.010  1.00  0.00     0.084 N 
HETATM   16  C14 UNL     1      -5.968   9.002   8.079  1.00  0.00     0.309 C 
HETATM   17  C15 UNL     1      -6.736   8.590  10.241  1.00  0.00     0.274 C 
HETATM   18  C16 UNL     1      -6.909   7.664  11.402  1.00  0.00     0.056 C 
ENDBRANCH  10  12
ENDBRANCH   7  10
BRANCH   4  19
HETATM   19  N4  UNL     1      -6.372   3.046  15.811  1.00  0.00    -0.220 N 
ATOM     20  H4  UNL     1      -7.098   3.633  16.223  1.00  0.00     0.178 HD
BRANCH  19  21
HETATM   21  C7  UNL     1      -6.068   1.739  16.347  1.00  0.00     0.099 A 
HETATM   22  C8  UNL     1      -7.245   1.090  17.079  1.00  0.00     0.028 A 
HETATM   23  C9  UNL     1      -6.020   1.467  17.787  1.00  0.00     0.028 A 
ENDBRANCH  19  21
ENDBRANCH   4  19
BRANCH   1  24
HETATM   24  N2  UNL     1      -3.219   2.247  12.622  1.00  0.00    -0.223 N 
ATOM     25  H2  UNL     1      -2.699   1.685  13.295  1.00  0.00     0.177 HD
BRANCH  24  26
HETATM   26  C4  UNL     1      -2.933   2.014  11.242  1.00  0.00     0.168 C 
BRANCH  26  27
HETATM   27  C3  UNL     1      -2.516   0.547  11.111  1.00  0.00     0.291 C 
BRANCH  27  28
HETATM   28  N1  UNL     1      -3.660  -0.286  11.434  1.00  0.00     0.081 N 
HETATM   29  C1  UNL     1      -4.765   0.045  10.568  1.00  0.00     0.309 C 
HETATM   30  C2  UNL     1      -3.318  -1.698  11.385  1.00  0.00     0.309 C 
ENDBRANCH  27  28
ENDBRANCH  26  27
ENDBRANCH  24  26
ENDBRANCH   1  24
TORSDOF 8
ENDMDL
MODEL 3
REMARK VINA RESULT: -6.739561288      3.103      6.047
REMARK  8 active torsions:
REMARK  status: ('A' for Active; 'I' for Inactive)
REMARK    1  A    between atoms: N1_2  and  C3_4 
REMARK    2  A    between atoms: C3_4  and  C4_5 
REMARK    3  A    between atoms: C4_5  and  N2_6 
REMARK    4  A    between atoms: N2_6  and  C5_8 
REMARK    5  A    between atoms: C6_11  and  N4_12 
REMARK    6  A    between atoms: N4_12  and  C7_14 
REMARK    7  A    between atoms: C10_19  and  N6_20 
REMARK    8  A    between atoms: N6_20  and  C11_22 
ROOT
HETATM    1  C5  UNL     1      -4.664   2.126  13.151  1.00  0.00     0.707 A 
HETATM    2  N3  UNL     1      -4.957   1.368  14.235  1.00  0.00    -0.022 N 
ATOM      3  H3  UNL     1      -5.565   0.558  14.110  1.00  0.00     0.203 HD
HETATM    4  C6  UNL     1      -4.495   1.623  15.451  1.00  0.00     0.707 A 
HETATM    5  N5  UNL     1      -3.690   2.693  15.625  1.00  0.00    -0.021 N 
ATOM      6  H5  UNL     1      -3.323   2.911  16.552  1.00  0.00     0.203 HD
HETATM    7  C10 UNL     1      -3.373   3.471  14.580  1.00  0.00     0.707 A 
HETATM    8  N8  UNL     1      -3.870   3.174  13.343  1.00  0.00    -0.022 N 
ATOM      9  H8  UNL     1      -3.626   3.768  12.550  1.00  0.00     0.203 HD
ENDROOT
BRANCH   7  10
HETATM   10  N6  UNL     1      -2.605   4.496  14.728  1.00  0.00    -0.220 N 
ATOM     11  H6  UNL     1      -1.926   4.480  15.489  1.00  0.00     0.178 HD
BRANCH  10  12
HETATM   12  C11 UNL     1      -2.649   5.651  13.889  1.00  0.00     0.102 C 
HETATM   13  C12 UNL     1      -1.339   5.928  13.178  1.00  0.00     0.056 C 
HETATM   14  C13 UNL     1      -1.640   6.995  12.131  1.00  0.00     0.274 C 
HETATM   15  N7  UNL     1      -2.037   8.201  12.790  1.00  0.00     0.084 N 
HETATM   16  C14 UNL     1      -0.986   9.202  12.548  1.00  0.00     0.309 C 
HETATM   17  C15 UNL     1      -2.190   8.092  14.206  1.00  0.00     0.274 C 
HETATM   18  C16 UNL     1      -2.992   6.914  14.660  1.00  0.00     0.056 C 
ENDBRANCH  10  12
ENDBRANCH   7  10
BRANCH   4  19
HETATM   19  N4  UNL     1      -4.788   0.882  16.490  1.00  0.00    -0.220 N 
ATOM     20  H4  UNL     1      -4.365  -0.037  16.622  1.00  0.00     0.178 HD
BRANCH  19  21
HETATM   21  C7  UNL     1      -5.732   1.419  17.442  1.00  0.00     0.099 A 
HETATM   22  C8  UNL     1      -7.164   0.925  17.226  1.00  0.00     0.028 A 
HETATM   23  C9  UNL     1      -6.810   2.336  17.055  1.00  0.00     0.028 A 
ENDBRANCH  19  21
ENDBRANCH   4  19
BRANCH   1  24
HETATM   24  N2  UNL     1      -5.173   1.771  12.039  1.00  0.00    -0.223 N 
ATOM     25  H2  UNL     1      -6.191   1.751  11.990  1.00  0.00     0.177 HD
BRANCH  24  26
HETATM   26  C4  UNL     1      -4.472   1.396  10.852  1.00  0.00     0.168 C 
BRANCH  26  27
HETATM   27  C3  UNL     1      -4.590  -0.125  10.722  1.00  0.00     0.291 C 
BRANCH  27  28
HETATM   28  N1  UNL     1      -3.259  -0.676  10.556  1.00  0.00     0.081 N 
HETATM   29  C1  UNL     1      -2.272   0.326  10.875  1.00  0.00     0.309 C 
HETATM   30  C2  UNL     1      -3.088  -1.892  11.336  1.00  0.00     0.309 C 
ENDBRANCH  27  28
ENDBRANCH  26  27
ENDBRANCH  24  26
ENDBRANCH   1  24
TORSDOF 8
ENDMDL
MODEL 4
REMARK VINA RESULT: -6.566448277      1.021      5.760
REMARK  8 active torsions:
REMARK  status: ('A' for Active; 'I' for Inactive)
REMARK    1  A    between atoms: N1_2  and  C3_4 
REMARK    2  A    between atoms: C3_4  and  C4_5 
REMARK    3  A    between atoms: C4_5  and  N2_6 
REMARK    4  A    between atoms: N2_6  and  C5_8 
REMARK    5  A    between atoms: C6_11  and  N4_12 
REMARK    6  A    between atoms: N4_12  and  C7_14 
REMARK    7  A    between atoms: C10_19  and  N6_20 
REMARK    8  A    between atoms: N6_20  and  C11_22 
ROOT
HETATM    1  C5  UNL     1      -3.878   2.903  13.078  1.00  0.00     0.707 A 
HETATM    2  N3  UNL     1      -4.759   2.563  14.050  1.00  0.00    -0.022 N 
ATOM      3  H3  UNL     1      -4.870   1.575  14.278  1.00  0.00     0.203 HD
HETATM    4  C6  UNL     1      -5.484   3.446  14.720  1.00  0.00     0.707 A 
HETATM    5  N5  UNL     1      -5.343   4.756  14.423  1.00  0.00    -0.021 N 
ATOM      6  H5  UNL     1      -5.892   5.455  14.925  1.00  0.00     0.203 HD
HETATM    7  C10 UNL     1      -4.483   5.139  13.469  1.00  0.00     0.707 A 
HETATM    8  N8  UNL     1      -3.753   4.197  12.802  1.00  0.00    -0.022 N 
ATOM      9  H8  UNL     1      -3.100   4.492  12.076  1.00  0.00     0.203 HD
ENDROOT
BRANCH   7  10
HETATM   10  N6  UNL     1      -4.335   6.385  13.174  1.00  0.00    -0.220 N 
ATOM     11  H6  UNL     1      -3.713   6.946  13.757  1.00  0.00     0.178 HD
BRANCH  10  12
HETATM   12  C11 UNL     1      -4.990   7.027  12.079  1.00  0.00     0.102 C 
HETATM   13  C12 UNL     1      -6.465   6.693  11.981  1.00  0.00     0.056 C 
HETATM   14  C13 UNL     1      -7.055   7.662  10.962  1.00  0.00     0.274 C 
HETATM   15  N7  UNL     1      -6.469   7.411   9.682  1.00  0.00     0.084 N 
HETATM   16  C14 UNL     1      -7.530   6.884   8.807  1.00  0.00     0.309 C 
HETATM   17  C15 UNL     1      -5.413   6.449   9.679  1.00  0.00     0.274 C 
HETATM   18  C16 UNL     1      -4.378   6.655  10.739  1.00  0.00     0.056 C 
ENDBRANCH  10  12
ENDBRANCH   7  10
BRANCH   4  19
HETATM   19  N4  UNL     1      -6.333   3.103  15.657  1.00  0.00    -0.220 N 
ATOM     20  H4  UNL     1      -7.140   3.685  15.881  1.00  0.00     0.178 HD
BRANCH  19  21
HETATM   21  C7  UNL     1      -6.078   1.866  16.359  1.00  0.00     0.099 A 
HETATM   22  C8  UNL     1      -7.337   1.235  16.959  1.00  0.00     0.028 A 
HETATM   23  C9  UNL     1      -6.253   1.730  17.809  1.00  0.00     0.028 A 
ENDBRANCH  19  21
ENDBRANCH   4  19
BRANCH   1  24
HETATM   24  N2  UNL     1      -3.243   1.956  12.512  1.00  0.00    -0.223 N 
ATOM     25  H2  UNL     1      -3.112   1.105  13.059  1.00  0.00     0.177 HD
BRANCH  24  26
HETATM   26  C4  UNL     1      -2.695   1.954  11.193  1.00  0.00     0.168 C 
BRANCH  26  27
HETATM   27  C3  UNL     1      -2.510   0.490  10.785  1.00  0.00     0.291 C 
BRANCH  27  28
HETATM   28  N1  UNL     1      -3.636  -0.272  11.288  1.00  0.00     0.081 N 
HETATM   29  C1  UNL     1      -4.800  -0.020  10.474  1.00  0.00     0.309 C 
HETATM   30  C2  UNL     1      -3.319  -1.689  11.379  1.00  0.00     0.309 C 
ENDBRANCH  27  28
ENDBRANCH  26  27
ENDBRANCH  24  26
ENDBRANCH   1  24
TORSDOF 8
ENDMDL
MODEL 5
REMARK VINA RESULT: -6.555341242      2.919      6.492
REMARK  8 active torsions:
REMARK  status: ('A' for Active; 'I' for Inactive)
REMARK    1  A    between atoms: N1_2  and  C3_4 
REMARK    2  A    between atoms: C3_4  and  C4_5 
REMARK    3  A    between atoms: C4_5  and  N2_6 
REMARK    4  A    between atoms: N2_6  and  C5_8 
REMARK    5  A    between atoms: C6_11  and  N4_12 
REMARK    6  A    between atoms: N4_12  and  C7_14 
REMARK    7  A    between atoms: C10_19  and  N6_20 
REMARK    8  A    between atoms: N6_20  and  C11_22 
ROOT
HETATM    1  C5  UNL     1      -3.624   3.122  13.174  1.00  0.00     0.707 A 
HETATM    2  N3  UNL     1      -4.603   2.583  13.942  1.00  0.00    -0.022 N 
ATOM      3  H3  UNL     1      -4.731   1.571  13.923  1.00  0.00     0.203 HD
HETATM    4  C6  UNL     1      -5.402   3.302  14.717  1.00  0.00     0.707 A 
HETATM    5  N5  UNL     1      -5.237   4.642  14.747  1.00  0.00    -0.021 N 
ATOM      6  H5  UNL     1      -5.842   5.217  15.335  1.00  0.00     0.203 HD
HETATM    7  C10 UNL     1      -4.281   5.218  14.005  1.00  0.00     0.707 A 
HETATM    8  N8  UNL     1      -3.478   4.441  13.220  1.00  0.00    -0.022 N 
ATOM      9  H8  UNL     1      -2.751   4.884  12.657  1.00  0.00     0.203 HD
ENDROOT
BRANCH   7  10
HETATM   10  N6  UNL     1      -4.110   6.495  14.024  1.00  0.00    -0.220 N 
ATOM     11  H6  UNL     1      -4.939   7.090  14.037  1.00  0.00     0.178 HD
BRANCH  10  12
HETATM   12  C11 UNL     1      -2.829   7.127  14.027  1.00  0.00     0.102 C 
HETATM   13  C12 UNL     1      -2.664   8.147  15.136  1.00  0.00     0.056 C 
HETATM   14  C13 UNL     1      -1.181   8.503  15.170  1.00  0.00     0.274 C 
HETATM   15  N7  UNL     1      -0.823   9.141  13.941  1.00  0.00     0.084 N 
HETATM   16  C14 UNL     1      -0.488  10.540  14.252  1.00  0.00     0.309 C 
HETATM   17  C15 UNL     1      -1.854   9.169  12.953  1.00  0.00     0.274 C 
HETATM   18  C16 UNL     1      -2.540   7.859  12.727  1.00  0.00     0.056 C 
ENDBRANCH  10  12
ENDBRANCH   7  10
BRANCH   4  19
HETATM   19  N4  UNL     1      -6.344   2.768  15.452  1.00  0.00    -0.220 N 
ATOM     20  H4  UNL     1      -7.306   3.106  15.409  1.00  0.00     0.178 HD
BRANCH  19  21
HETATM   21  C7  UNL     1      -5.966   1.682  16.327  1.00  0.00     0.099 A 
HETATM   22  C8  UNL     1      -7.156   1.015  17.021  1.00  0.00     0.028 A 
HETATM   23  C9  UNL     1      -6.138   1.742  17.782  1.00  0.00     0.028 A 
ENDBRANCH  19  21
ENDBRANCH   4  19
BRANCH   1  24
HETATM   24  N2  UNL     1      -2.925   2.318  12.476  1.00  0.00    -0.223 N 
ATOM     25  H2  UNL     1      -2.075   1.959  12.911  1.00  0.00     0.177 HD
BRANCH  24  26
HETATM   26  C4  UNL     1      -3.202   1.865  11.150  1.00  0.00     0.168 C 
BRANCH  26  27
HETATM   27  C3  UNL     1      -2.464   0.537  10.966  1.00  0.00     0.291 C 
BRANCH  27  28
HETATM   28  N1  UNL     1      -3.422  -0.466  10.541  1.00  0.00     0.081 N 
HETATM   29  C1  UNL     1      -3.252  -1.666  11.325  1.00  0.00     0.309 C 
HETATM   30  C2  UNL     1      -4.783   0.045  10.595  1.00  0.00     0.309 C 
ENDBRANCH  27  28
ENDBRANCH  26  27
ENDBRANCH  24  26
ENDBRANCH   1  24
TORSDOF 8
ENDMDL
