MODEL 1
REMARK VINA RESULT: -6.926720132      0.000      0.000
REMARK  9 active torsions:
REMARK  status: ('A' for Active; 'I' for Inactive)
REMARK    1  A    between atoms: C2_2  and  O1_5 
REMARK    2  A    between atoms: O1_5  and  C5_6 
REMARK    3  A    between atoms: C5_6  and  C6_8 
REMARK    4  A    between atoms: C6_8  and  S1_9 
REMARK    5  A    between atoms: S1_9  and  C7_10 
REMARK    6  A    between atoms: C7_10  and  C8_11 
REMARK    7  A    between atoms: C7_10  and  C9_13 
REMARK    8  A    between atoms: C9_13  and  C11_21 
REMARK    9  A    between atoms: N1_14  and  N2_16 
REMARK       I    between atoms: N2_16  and  C10_18 
ROOT
HETATM    1  C7  UNL     1      -9.915   9.224 -21.736  1.00  0.00     0.156 C 
ENDROOT
BRANCH   1   2
HETATM    2  S1  UNL     1      -8.747  10.258 -20.812  1.00  0.00    -0.141 SA
BRANCH   2   3
HETATM    3  C6  UNL     1      -8.794   9.999 -19.045  1.00  0.00     0.186 C 
BRANCH   3   4
HETATM    4  C5  UNL     1      -7.793  10.872 -18.393  1.00  0.00     0.268 C 
HETATM    5  O2  UNL     1      -7.729  11.010 -17.139  1.00  0.00    -0.264 OA
BRANCH   4   6
HETATM    6  O1  UNL     1      -6.890  11.567 -19.182  1.00  0.00    -0.311 OA
BRANCH   6   7
HETATM    7  C2  UNL     1      -6.917  13.004 -19.194  1.00  0.00     0.060 C 
HETATM    8  C1  UNL     1      -8.336  13.500 -19.373  1.00  0.00     0.045 C 
HETATM    9  C3  UNL     1      -6.331  13.571 -17.935  1.00  0.00     0.045 C 
HETATM   10  C4  UNL     1      -6.150  13.450 -20.438  1.00  0.00     0.045 C 
ENDBRANCH   6   7
ENDBRANCH   4   6
ENDBRANCH   3   4
ENDBRANCH   2   3
ENDBRANCH   1   2
BRANCH   1  11
HETATM   11  C8  UNL     1     -10.785   8.433 -20.820  1.00  0.00     0.252 C 
HETATM   12  O3  UNL     1     -11.441   7.472 -21.176  1.00  0.00    -0.305 OA
ENDBRANCH   1  11
BRANCH   1  13
HETATM   13  C9  UNL     1     -10.660  10.098 -22.644  1.00  0.00     0.032 C 
HETATM   14  N1  UNL     1     -11.108   9.652 -23.752  1.00  0.00    -0.302 N 
ATOM     15  H1  UNL     1     -11.619  10.310 -24.342  1.00  0.00     0.186 HD
BRANCH  14  16
HETATM   16  N2  UNL     1     -10.967   8.381 -24.222  1.00  0.00    -0.244 N 
HETATM   17  C10 UNL     1     -10.408   8.206 -25.541  1.00  0.00     0.303 C 
HETATM   18  O4  UNL     1     -10.064   9.200 -26.221  1.00  0.00    -0.628 OA
HETATM   19  O5  UNL     1     -10.272   6.918 -26.009  1.00  0.00    -0.628 OA
ATOM     20  H2  UNL     1     -11.247   7.578 -23.660  1.00  0.00     0.193 HD
ENDBRANCH  14  16
BRANCH  13  21
HETATM   21  C11 UNL     1     -10.953  11.527 -22.359  1.00  0.00    -0.010 C 
HETATM   22  C12 UNL     1      -9.755  12.396 -22.675  1.00  0.00     0.021 C 
HETATM   23  C13 UNL     1     -11.302  11.787 -20.919  1.00  0.00     0.021 C 
HETATM   24  C14 UNL     1     -12.073  11.997 -23.241  1.00  0.00     0.021 C 
ENDBRANCH  13  21
ENDBRANCH   1  13
TORSDOF 9
ENDMDL
MODEL 2
REMARK VINA RESULT: -6.863146033      2.730      6.265
REMARK  9 active torsions:
REMARK  status: ('A' for Active; 'I' for Inactive)
REMARK    1  A    between atoms: C2_2  and  O1_5 
REMARK    2  A    between atoms: O1_5  and  C5_6 
REMARK    3  A    between atoms: C5_6  and  C6_8 
REMARK    4  A    between atoms: C6_8  and  S1_9 
REMARK    5  A    between atoms: S1_9  and  C7_10 
REMARK    6  A    between atoms: C7_10  and  C8_11 
REMARK    7  A    between atoms: C7_10  and  C9_13 
REMARK    8  A    between atoms: C9_13  and  C11_21 
REMARK    9  A    between atoms: N1_14  and  N2_16 
REMARK       I    between atoms: N2_16  and  C10_18 
ROOT
HETATM    1  C7  UNL     1      -9.590  12.132 -20.492  1.00  0.00     0.156 C 
ENDROOT
BRANCH   1   2
HETATM    2  S1  UNL     1      -9.121  10.388 -20.655  1.00  0.00    -0.141 SA
BRANCH   2   3
HETATM    3  C6  UNL     1     -10.457   9.248 -20.333  1.00  0.00     0.186 C 
BRANCH   3   4
HETATM    4  C5  UNL     1     -10.831   8.561 -21.589  1.00  0.00     0.268 C 
HETATM    5  O2  UNL     1     -10.963   9.176 -22.685  1.00  0.00    -0.264 OA
BRANCH   4   6
HETATM    6  O1  UNL     1     -11.045   7.192 -21.569  1.00  0.00    -0.311 OA
BRANCH   6   7
HETATM    7  C2  UNL     1     -10.069   6.312 -22.149  1.00  0.00     0.060 C 
HETATM    8  C1  UNL     1     -10.324   6.148 -23.632  1.00  0.00     0.045 C 
HETATM    9  C3  UNL     1      -8.675   6.819 -21.922  1.00  0.00     0.045 C 
HETATM   10  C4  UNL     1     -10.287   4.934 -21.524  1.00  0.00     0.045 C 
ENDBRANCH   6   7
ENDBRANCH   4   6
ENDBRANCH   3   4
ENDBRANCH   2   3
ENDBRANCH   1   2
BRANCH   1  11
HETATM   11  C8  UNL     1      -8.932  12.766 -19.314  1.00  0.00     0.252 C 
HETATM   12  O3  UNL     1      -8.890  13.968 -19.131  1.00  0.00    -0.305 OA
ENDBRANCH   1  11
BRANCH   1  13
HETATM   13  C9  UNL     1      -9.285  12.795 -21.761  1.00  0.00     0.032 C 
HETATM   14  N1  UNL     1      -8.120  13.263 -21.986  1.00  0.00    -0.302 N 
ATOM     15  H1  UNL     1      -7.969  13.714 -22.889  1.00  0.00     0.186 HD
BRANCH  14  16
HETATM   16  N2  UNL     1      -7.059  13.218 -21.132  1.00  0.00    -0.244 N 
HETATM   17  C10 UNL     1      -6.027  14.215 -21.283  1.00  0.00     0.303 C 
HETATM   18  O4  UNL     1      -6.117  15.092 -22.173  1.00  0.00    -0.628 OA
HETATM   19  O5  UNL     1      -4.956  14.160 -20.418  1.00  0.00    -0.628 OA
ATOM     20  H2  UNL     1      -6.995  12.501 -20.409  1.00  0.00     0.193 HD
ENDBRANCH  14  16
BRANCH  13  21
HETATM   21  C11 UNL     1     -10.271  12.967 -22.860  1.00  0.00    -0.010 C 
HETATM   22  C12 UNL     1     -11.687  12.867 -22.335  1.00  0.00     0.021 C 
HETATM   23  C13 UNL     1     -10.142  11.931 -23.944  1.00  0.00     0.021 C 
HETATM   24  C14 UNL     1     -10.127  14.338 -23.456  1.00  0.00     0.021 C 
ENDBRANCH  13  21
ENDBRANCH   1  13
TORSDOF 9
ENDMDL
MODEL 3
REMARK VINA RESULT: -6.855403771      1.593      1.988
REMARK  9 active torsions:
REMARK  status: ('A' for Active; 'I' for Inactive)
REMARK    1  A    between atoms: C2_2  and  O1_5 
REMARK    2  A    between atoms: O1_5  and  C5_6 
REMARK    3  A    between atoms: C5_6  and  C6_8 
REMARK    4  A    between atoms: C6_8  and  S1_9 
REMARK    5  A    between atoms: S1_9  and  C7_10 
REMARK    6  A    between atoms: C7_10  and  C8_11 
REMARK    7  A    between atoms: C7_10  and  C9_13 
REMARK    8  A    between atoms: C9_13  and  C11_21 
REMARK    9  A    between atoms: N1_14  and  N2_16 
REMARK       I    between atoms: N2_16  and  C10_18 
ROOT
HETATM    1  C7  UNL     1     -10.778   9.985 -21.356  1.00  0.00     0.156 C 
ENDROOT
BRANCH   1   2
HETATM    2  S1  UNL     1      -9.047  10.155 -20.841  1.00  0.00    -0.141 SA
BRANCH   2   3
HETATM    3  C6  UNL     1      -8.798   9.989 -19.080  1.00  0.00     0.186 C 
BRANCH   3   4
HETATM    4  C5  UNL     1      -7.794  10.979 -18.630  1.00  0.00     0.268 C 
HETATM    5  O2  UNL     1      -7.665  11.310 -17.418  1.00  0.00    -0.264 OA
BRANCH   4   6
HETATM    6  O1  UNL     1      -6.962  11.567 -19.569  1.00  0.00    -0.311 OA
BRANCH   6   7
HETATM    7  C2  UNL     1      -6.865  13.000 -19.633  1.00  0.00     0.060 C 
HETATM    8  C1  UNL     1      -8.240  13.611 -19.802  1.00  0.00     0.045 C 
HETATM    9  C3  UNL     1      -6.203  13.557 -18.408  1.00  0.00     0.045 C 
HETATM   10  C4  UNL     1      -6.091  13.335 -20.908  1.00  0.00     0.045 C 
ENDBRANCH   6   7
ENDBRANCH   4   6
ENDBRANCH   3   4
ENDBRANCH   2   3
ENDBRANCH   1   2
BRANCH   1  11
HETATM   11  C8  UNL     1     -11.621  11.081 -20.801  1.00  0.00     0.252 C 
HETATM   12  O3  UNL     1     -11.175  12.144 -20.412  1.00  0.00    -0.305 OA
ENDBRANCH   1  11
BRANCH   1  13
HETATM   13  C9  UNL     1     -10.801   9.908 -22.817  1.00  0.00     0.032 C 
HETATM   14  N1  UNL     1     -10.826   8.778 -23.408  1.00  0.00    -0.302 N 
ATOM     15  H1  UNL     1     -10.841   8.790 -24.428  1.00  0.00     0.186 HD
BRANCH  14  16
HETATM   16  N2  UNL     1     -10.834   7.556 -22.804  1.00  0.00    -0.244 N 
HETATM   17  C10 UNL     1     -10.171   6.465 -23.476  1.00  0.00     0.303 C 
HETATM   18  O4  UNL     1      -9.607   6.649 -24.579  1.00  0.00    -0.628 OA
HETATM   19  O5  UNL     1     -10.187   5.234 -22.860  1.00  0.00    -0.628 OA
ATOM     20  H2  UNL     1     -11.294   7.417 -21.904  1.00  0.00     0.193 HD
ENDBRANCH  14  16
BRANCH  13  21
HETATM   21  C11 UNL     1     -10.803  11.099 -23.706  1.00  0.00    -0.010 C 
HETATM   22  C12 UNL     1     -10.605  10.694 -25.151  1.00  0.00     0.021 C 
HETATM   23  C13 UNL     1      -9.711  12.084 -23.385  1.00  0.00     0.021 C 
HETATM   24  C14 UNL     1     -12.136  11.784 -23.628  1.00  0.00     0.021 C 
ENDBRANCH  13  21
ENDBRANCH   1  13
TORSDOF 9
ENDMDL
MODEL 4
REMARK VINA RESULT: -6.833136242      2.778      6.014
REMARK  9 active torsions:
REMARK  status: ('A' for Active; 'I' for Inactive)
REMARK    1  A    between atoms: C2_2  and  O1_5 
REMARK    2  A    between atoms: O1_5  and  C5_6 
REMARK    3  A    between atoms: C5_6  and  C6_8 
REMARK    4  A    between atoms: C6_8  and  S1_9 
REMARK    5  A    between atoms: S1_9  and  C7_10 
REMARK    6  A    between atoms: C7_10  and  C8_11 
REMARK    7  A    between atoms: C7_10  and  C9_13 
REMARK    8  A    between atoms: C9_13  and  C11_21 
REMARK    9  A    between atoms: N1_14  and  N2_16 
REMARK       I    between atoms: N2_16  and  C10_18 
ROOT
HETATM    1  C7  UNL     1      -9.397  12.180 -20.276  1.00  0.00     0.156 C 
ENDROOT
BRANCH   1   2
HETATM    2  S1  UNL     1      -8.414  10.657 -20.226  1.00  0.00    -0.141 SA
BRANCH   2   3
HETATM    3  C6  UNL     1      -9.368   9.193 -19.859  1.00  0.00     0.186 C 
BRANCH   3   4
HETATM    4  C5  UNL     1     -10.332   8.946 -20.955  1.00  0.00     0.268 C 
HETATM    5  O2  UNL     1     -11.572   9.150 -20.824  1.00  0.00    -0.264 OA
BRANCH   4   6
HETATM    6  O1  UNL     1      -9.863   8.475 -22.170  1.00  0.00    -0.311 OA
BRANCH   6   7
HETATM    7  C2  UNL     1      -9.828   7.059 -22.416  1.00  0.00     0.060 C 
HETATM    8  C1  UNL     1      -8.419   6.532 -22.244  1.00  0.00     0.045 C 
HETATM    9  C3  UNL     1     -10.765   6.324 -21.505  1.00  0.00     0.045 C 
HETATM   10  C4  UNL     1     -10.182   6.857 -23.890  1.00  0.00     0.045 C 
ENDBRANCH   6   7
ENDBRANCH   4   6
ENDBRANCH   3   4
ENDBRANCH   2   3
ENDBRANCH   1   2
BRANCH   1  11
HETATM   11  C8  UNL     1      -9.008  13.116 -19.183  1.00  0.00     0.252 C 
HETATM   12  O3  UNL     1      -9.054  14.327 -19.285  1.00  0.00    -0.305 OA
ENDBRANCH   1  11
BRANCH   1  13
HETATM   13  C9  UNL     1      -9.260  12.753 -21.616  1.00  0.00     0.032 C 
HETATM   14  N1  UNL     1      -8.148  13.249 -21.999  1.00  0.00    -0.302 N 
ATOM     15  H1  UNL     1      -8.115  13.633 -22.944  1.00  0.00     0.186 HD
BRANCH  14  16
HETATM   16  N2  UNL     1      -7.002  13.313 -21.265  1.00  0.00    -0.244 N 
HETATM   17  C10 UNL     1      -6.075  14.381 -21.551  1.00  0.00     0.303 C 
HETATM   18  O4  UNL     1      -6.329  15.219 -22.447  1.00  0.00    -0.628 OA
HETATM   19  O5  UNL     1      -4.918  14.436 -20.807  1.00  0.00    -0.628 OA
ATOM     20  H2  UNL     1      -6.805  12.627 -20.536  1.00  0.00     0.193 HD
ENDBRANCH  14  16
BRANCH  13  21
HETATM   21  C11 UNL     1     -10.362  12.800 -22.611  1.00  0.00    -0.010 C 
HETATM   22  C12 UNL     1     -11.706  12.913 -21.922  1.00  0.00     0.021 C 
HETATM   23  C13 UNL     1     -10.431  11.575 -23.482  1.00  0.00     0.021 C 
HETATM   24  C14 UNL     1     -10.214  14.021 -23.472  1.00  0.00     0.021 C 
ENDBRANCH  13  21
ENDBRANCH   1  13
TORSDOF 9
ENDMDL
MODEL 5
REMARK VINA RESULT: -6.792661133      2.536      5.814
REMARK  9 active torsions:
REMARK  status: ('A' for Active; 'I' for Inactive)
REMARK    1  A    between atoms: C2_2  and  O1_5 
REMARK    2  A    between atoms: O1_5  and  C5_6 
REMARK    3  A    between atoms: C5_6  and  C6_8 
REMARK    4  A    between atoms: C6_8  and  S1_9 
REMARK    5  A    between atoms: S1_9  and  C7_10 
REMARK    6  A    between atoms: C7_10  and  C8_11 
REMARK    7  A    between atoms: C7_10  and  C9_13 
REMARK    8  A    between atoms: C9_13  and  C11_21 
REMARK    9  A    between atoms: N1_14  and  N2_16 
REMARK       I    between atoms: N2_16  and  C10_18 
ROOT
HETATM    1  C7  UNL     1      -9.138  11.410 -19.632  1.00  0.00     0.156 C 
ENDROOT
BRANCH   1   2
HETATM    2  S1  UNL     1      -9.127   9.995 -20.766  1.00  0.00    -0.141 SA
BRANCH   2   3
HETATM    3  C6  UNL     1     -10.669   9.095 -20.814  1.00  0.00     0.186 C 
BRANCH   3   4
HETATM    4  C5  UNL     1     -10.760   8.343 -22.084  1.00  0.00     0.268 C 
HETATM    5  O2  UNL     1     -10.608   8.895 -23.211  1.00  0.00    -0.264 OA
BRANCH   4   6
HETATM    6  O1  UNL     1     -11.023   6.983 -22.044  1.00  0.00    -0.311 OA
BRANCH   6   7
HETATM    7  C2  UNL     1      -9.996   6.050 -22.418  1.00  0.00     0.060 C 
HETATM    8  C1  UNL     1     -10.118   5.695 -23.884  1.00  0.00     0.045 C 
HETATM    9  C3  UNL     1      -8.629   6.603 -22.137  1.00  0.00     0.045 C 
HETATM   10  C4  UNL     1     -10.265   4.760 -21.643  1.00  0.00     0.045 C 
ENDBRANCH   6   7
ENDBRANCH   4   6
ENDBRANCH   3   4
ENDBRANCH   2   3
ENDBRANCH   1   2
BRANCH   1  11
HETATM   11  C8  UNL     1      -8.258  11.171 -18.453  1.00  0.00     0.252 C 
HETATM   12  O3  UNL     1      -7.672  10.124 -18.251  1.00  0.00    -0.305 OA
ENDBRANCH   1  11
BRANCH   1  13
HETATM   13  C9  UNL     1      -8.775  12.600 -20.404  1.00  0.00     0.032 C 
HETATM   14  N1  UNL     1      -9.612  13.137 -21.202  1.00  0.00    -0.302 N 
ATOM     15  H1  UNL     1      -9.300  13.964 -21.711  1.00  0.00     0.186 HD
BRANCH  14  16
HETATM   16  N2  UNL     1     -10.884  12.709 -21.437  1.00  0.00    -0.244 N 
HETATM   17  C10 UNL     1     -11.222  12.299 -22.779  1.00  0.00     0.303 C 
HETATM   18  O4  UNL     1     -10.363  12.336 -23.689  1.00  0.00    -0.628 OA
HETATM   19  O5  UNL     1     -12.511  11.871 -23.009  1.00  0.00    -0.628 OA
ATOM     20  H2  UNL     1     -11.577  12.680 -20.689  1.00  0.00     0.193 HD
ENDBRANCH  14  16
BRANCH  13  21
HETATM   21  C11 UNL     1      -7.447  13.263 -20.321  1.00  0.00    -0.010 C 
HETATM   22  C12 UNL     1      -6.338  12.297 -20.678  1.00  0.00     0.021 C 
HETATM   23  C13 UNL     1      -7.130  13.791 -18.949  1.00  0.00     0.021 C 
HETATM   24  C14 UNL     1      -7.382  14.384 -21.318  1.00  0.00     0.021 C 
ENDBRANCH  13  21
ENDBRANCH   1  13
TORSDOF 9
ENDMDL
