MODEL 1
REMARK VINA RESULT: -7.832320572      0.000      0.000
REMARK  9 active torsions:
REMARK  status: ('A' for Active; 'I' for Inactive)
REMARK    1  A    between atoms: C2_2  and  C13_19 
REMARK    2  A    between atoms: N1_3  and  O1_5 
REMARK    3  A    between atoms: O1_5  and  C3_6 
REMARK    4  A    between atoms: C3_6  and  C4_7 
REMARK    5  A    between atoms: C4_7  and  O2_8 
REMARK    6  A    between atoms: C4_7  and  C5_10 
REMARK    7  A    between atoms: C5_10  and  N2_11 
REMARK    8  A    between atoms: C13_19  and  O3_20 
REMARK    9  A    between atoms: C13_19  and  N3_22 
ROOT
HETATM    1  O1  UNL     1      -9.016   8.704 -19.259  1.00  0.00    -0.278 OA
ENDROOT
BRANCH   1   2
HETATM    2  N1  UNL     1     -10.041   8.616 -20.160  1.00  0.00    -0.271 N 
HETATM    3  C2  UNL     1      -9.926   8.014 -21.299  1.00  0.00     0.054 C 
HETATM    4  C1  UNL     1      -8.608   7.393 -21.626  1.00  0.00     0.070 C 
ATOM      5  H1  UNL     1     -10.936   9.045 -19.923  1.00  0.00     0.193 HD
BRANCH   3   6
HETATM    6  C13 UNL     1     -11.068   7.948 -22.237  1.00  0.00     0.273 C 
BRANCH   6   7
HETATM    7  O3  UNL     1     -11.214   6.620 -22.667  1.00  0.00    -0.371 OA
ATOM      8  H3  UNL     1     -12.082   6.319 -22.425  1.00  0.00     0.212 HD
ENDBRANCH   6   7
BRANCH   6   9
HETATM    9  N3  UNL     1     -10.901   8.812 -23.381  1.00  0.00    -0.320 N 
HETATM   10  C14 UNL     1     -10.678   8.416 -24.649  1.00  0.00     0.112 A 
HETATM   11  C15 UNL     1     -10.573   9.510 -25.463  1.00  0.00     0.106 A 
HETATM   12  N4  UNL     1     -10.735  10.586 -24.681  1.00  0.00    -0.361 N 
HETATM   13  C16 UNL     1     -10.938  10.170 -23.396  1.00  0.00     0.185 A 
ATOM     14  H4  UNL     1     -10.712  11.556 -24.994  1.00  0.00     0.166 HD
ENDBRANCH   6   9
ENDBRANCH   3   6
ENDBRANCH   1   2
BRANCH   1  15
HETATM   15  C3  UNL     1      -8.766   9.910 -18.545  1.00  0.00     0.238 C 
BRANCH  15  16
HETATM   16  C4  UNL     1      -8.218  10.966 -19.473  1.00  0.00     0.183 C 
BRANCH  16  17
HETATM   17  O2  UNL     1      -7.267  10.393 -20.317  1.00  0.00    -0.388 OA
ATOM     18  H2  UNL     1      -6.409  10.744 -20.110  1.00  0.00     0.210 HD
ENDBRANCH  16  17
BRANCH  16  19
HETATM   19  C5  UNL     1      -9.270  11.761 -20.179  1.00  0.00     0.101 C 
BRANCH  19  20
HETATM   20  N2  UNL     1      -8.857  12.861 -20.944  1.00  0.00    -0.351 N 
HETATM   21  C6  UNL     1      -8.195  13.939 -20.351  1.00  0.00     0.072 C 
HETATM   22  C7  UNL     1      -7.048  14.372 -21.240  1.00  0.00     0.021 C 
HETATM   23  C8  UNL     1      -5.927  13.351 -21.242  1.00  0.00     0.015 C 
HETATM   24  C9  UNL     1      -7.478  14.664 -22.624  1.00  0.00     0.019 C 
HETATM   25  C10 UNL     1      -8.691  13.983 -23.132  1.00  0.00     0.021 C 
HETATM   26  C11 UNL     1      -9.715  15.003 -23.660  1.00  0.00     0.015 C 
HETATM   27  C12 UNL     1      -9.338  12.984 -22.256  1.00  0.00     0.072 C 
ENDBRANCH  19  20
ENDBRANCH  16  19
ENDBRANCH  15  16
ENDBRANCH   1  15
TORSDOF 9
ENDMDL
MODEL 2
REMARK VINA RESULT: -7.726675250      2.111      3.731
REMARK  9 active torsions:
REMARK  status: ('A' for Active; 'I' for Inactive)
REMARK    1  A    between atoms: C2_2  and  C13_19 
REMARK    2  A    between atoms: N1_3  and  O1_5 
REMARK    3  A    between atoms: O1_5  and  C3_6 
REMARK    4  A    between atoms: C3_6  and  C4_7 
REMARK    5  A    between atoms: C4_7  and  O2_8 
REMARK    6  A    between atoms: C4_7  and  C5_10 
REMARK    7  A    between atoms: C5_10  and  N2_11 
REMARK    8  A    between atoms: C13_19  and  O3_20 
REMARK    9  A    between atoms: C13_19  and  N3_22 
ROOT
HETATM    1  O1  UNL     1     -11.191  11.199 -23.405  1.00  0.00    -0.278 OA
ENDROOT
BRANCH   1   2
HETATM    2  N1  UNL     1     -11.000   9.847 -23.458  1.00  0.00    -0.271 N 
HETATM    3  C2  UNL     1     -10.749   9.214 -24.558  1.00  0.00     0.054 C 
HETATM    4  C1  UNL     1     -10.668  10.014 -25.816  1.00  0.00     0.070 C 
ATOM      5  H1  UNL     1     -11.058   9.313 -22.591  1.00  0.00     0.193 HD
BRANCH   3   6
HETATM    6  C13 UNL     1     -10.549   7.748 -24.558  1.00  0.00     0.273 C 
BRANCH   6   7
HETATM    7  O3  UNL     1     -11.744   7.137 -24.967  1.00  0.00    -0.371 OA
ATOM      8  H3  UNL     1     -12.431   7.382 -24.358  1.00  0.00     0.212 HD
ENDBRANCH   6   7
BRANCH   6   9
HETATM    9  N3  UNL     1     -10.161   7.238 -23.264  1.00  0.00    -0.320 N 
HETATM   10  C14 UNL     1      -8.998   6.626 -22.970  1.00  0.00     0.112 A 
HETATM   11  C15 UNL     1      -8.981   6.281 -21.646  1.00  0.00     0.106 A 
HETATM   12  N4  UNL     1     -10.147   6.690 -21.128  1.00  0.00    -0.361 N 
HETATM   13  C16 UNL     1     -10.884   7.281 -22.114  1.00  0.00     0.185 A 
ATOM     14  H4  UNL     1     -10.437   6.579 -20.157  1.00  0.00     0.166 HD
ENDBRANCH   6   9
ENDBRANCH   3   6
ENDBRANCH   1   2
BRANCH   1  15
HETATM   15  C3  UNL     1     -10.257  12.049 -22.750  1.00  0.00     0.238 C 
BRANCH  15  16
HETATM   16  C4  UNL     1     -10.585  12.158 -21.281  1.00  0.00     0.183 C 
BRANCH  16  17
HETATM   17  O2  UNL     1     -11.850  11.620 -21.048  1.00  0.00    -0.388 OA
ATOM     18  H2  UNL     1     -12.012  11.589 -20.112  1.00  0.00     0.210 HD
ENDBRANCH  16  17
BRANCH  16  19
HETATM   19  C5  UNL     1      -9.514  11.632 -20.378  1.00  0.00     0.101 C 
BRANCH  19  20
HETATM   20  N2  UNL     1      -8.447  12.485 -20.062  1.00  0.00    -0.351 N 
HETATM   21  C6  UNL     1      -8.596  13.499 -19.113  1.00  0.00     0.072 C 
HETATM   22  C7  UNL     1      -7.366  13.545 -18.232  1.00  0.00     0.021 C 
HETATM   23  C8  UNL     1      -7.291  12.341 -17.313  1.00  0.00     0.015 C 
HETATM   24  C9  UNL     1      -6.114  13.676 -19.008  1.00  0.00     0.019 C 
HETATM   25  C10 UNL     1      -6.102  13.166 -20.398  1.00  0.00     0.021 C 
HETATM   26  C11 UNL     1      -5.653  14.261 -21.382  1.00  0.00     0.015 C 
HETATM   27  C12 UNL     1      -7.313  12.474 -20.888  1.00  0.00     0.072 C 
ENDBRANCH  19  20
ENDBRANCH  16  19
ENDBRANCH  15  16
ENDBRANCH   1  15
TORSDOF 9
ENDMDL
MODEL 3
REMARK VINA RESULT: -7.635673141      1.047      2.023
REMARK  9 active torsions:
REMARK  status: ('A' for Active; 'I' for Inactive)
REMARK    1  A    between atoms: C2_2  and  C13_19 
REMARK    2  A    between atoms: N1_3  and  O1_5 
REMARK    3  A    between atoms: O1_5  and  C3_6 
REMARK    4  A    between atoms: C3_6  and  C4_7 
REMARK    5  A    between atoms: C4_7  and  O2_8 
REMARK    6  A    between atoms: C4_7  and  C5_10 
REMARK    7  A    between atoms: C5_10  and  N2_11 
REMARK    8  A    between atoms: C13_19  and  O3_20 
REMARK    9  A    between atoms: C13_19  and  N3_22 
ROOT
HETATM    1  O1  UNL     1      -8.650   9.017 -19.036  1.00  0.00    -0.278 OA
ENDROOT
BRANCH   1   2
HETATM    2  N1  UNL     1      -9.778   8.868 -19.793  1.00  0.00    -0.271 N 
HETATM    3  C2  UNL     1      -9.774   8.307 -20.959  1.00  0.00     0.054 C 
HETATM    4  C1  UNL     1      -8.469   7.806 -21.484  1.00  0.00     0.070 C 
ATOM      5  H1  UNL     1     -10.663   9.214 -19.422  1.00  0.00     0.193 HD
BRANCH   3   6
HETATM    6  C13 UNL     1     -11.026   8.170 -21.736  1.00  0.00     0.273 C 
BRANCH   6   7
HETATM    7  O3  UNL     1     -11.593   6.920 -21.448  1.00  0.00    -0.371 OA
ATOM      8  H3  UNL     1     -12.529   7.034 -21.327  1.00  0.00     0.212 HD
ENDBRANCH   6   7
BRANCH   6   9
HETATM    9  N3  UNL     1     -10.814   8.290 -23.159  1.00  0.00    -0.320 N 
HETATM   10  C14 UNL     1     -10.867   9.430 -23.876  1.00  0.00     0.112 A 
HETATM   11  C15 UNL     1     -10.614   9.159 -25.192  1.00  0.00     0.106 A 
HETATM   12  N4  UNL     1     -10.403   7.839 -25.278  1.00  0.00    -0.361 N 
HETATM   13  C16 UNL     1     -10.524   7.291 -24.034  1.00  0.00     0.185 A 
ATOM     14  H4  UNL     1     -10.188   7.327 -26.133  1.00  0.00     0.166 HD
ENDBRANCH   6   9
ENDBRANCH   3   6
ENDBRANCH   1   2
BRANCH   1  15
HETATM   15  C3  UNL     1      -8.450  10.176 -18.235  1.00  0.00     0.238 C 
BRANCH  15  16
HETATM   16  C4  UNL     1      -7.918  11.311 -19.075  1.00  0.00     0.183 C 
BRANCH  16  17
HETATM   17  O2  UNL     1      -7.185  10.794 -20.142  1.00  0.00    -0.388 OA
ATOM     18  H2  UNL     1      -6.972   9.884 -19.968  1.00  0.00     0.210 HD
ENDBRANCH  16  17
BRANCH  16  19
HETATM   19  C5  UNL     1      -8.956  12.314 -19.469  1.00  0.00     0.101 C 
BRANCH  19  20
HETATM   20  N2  UNL     1      -8.910  12.825 -20.774  1.00  0.00    -0.351 N 
HETATM   21  C6  UNL     1      -9.311  12.048 -21.863  1.00  0.00     0.072 C 
HETATM   22  C7  UNL     1     -10.133  12.897 -22.809  1.00  0.00     0.021 C 
HETATM   23  C8  UNL     1     -11.489  13.236 -22.220  1.00  0.00     0.015 C 
HETATM   24  C9  UNL     1      -9.431  14.131 -23.222  1.00  0.00     0.019 C 
HETATM   25  C10 UNL     1      -8.408  14.687 -22.309  1.00  0.00     0.021 C 
HETATM   26  C11 UNL     1      -7.063  14.869 -23.035  1.00  0.00     0.015 C 
HETATM   27  C12 UNL     1      -8.220  14.026 -21.000  1.00  0.00     0.072 C 
ENDBRANCH  19  20
ENDBRANCH  16  19
ENDBRANCH  15  16
ENDBRANCH   1  15
TORSDOF 9
ENDMDL
MODEL 4
REMARK VINA RESULT: -7.567078099      1.708      2.377
REMARK  9 active torsions:
REMARK  status: ('A' for Active; 'I' for Inactive)
REMARK    1  A    between atoms: C2_2  and  C13_19 
REMARK    2  A    between atoms: N1_3  and  O1_5 
REMARK    3  A    between atoms: O1_5  and  C3_6 
REMARK    4  A    between atoms: C3_6  and  C4_7 
REMARK    5  A    between atoms: C4_7  and  O2_8 
REMARK    6  A    between atoms: C4_7  and  C5_10 
REMARK    7  A    between atoms: C5_10  and  N2_11 
REMARK    8  A    between atoms: C13_19  and  O3_20 
REMARK    9  A    between atoms: C13_19  and  N3_22 
ROOT
HETATM    1  O1  UNL     1      -8.314   9.411 -18.595  1.00  0.00    -0.278 OA
ENDROOT
BRANCH   1   2
HETATM    2  N1  UNL     1      -9.555   9.412 -19.168  1.00  0.00    -0.271 N 
HETATM    3  C2  UNL     1      -9.787   8.925 -20.343  1.00  0.00     0.054 C 
HETATM    4  C1  UNL     1      -8.636   8.339 -21.092  1.00  0.00     0.070 C 
ATOM      5  H1  UNL     1     -10.332   9.816 -18.645  1.00  0.00     0.193 HD
BRANCH   3   6
HETATM    6  C13 UNL     1     -11.151   8.951 -20.917  1.00  0.00     0.273 C 
BRANCH   6   7
HETATM    7  O3  UNL     1     -11.349   7.769 -21.646  1.00  0.00    -0.371 OA
ATOM      8  H3  UNL     1     -11.688   7.105 -21.058  1.00  0.00     0.212 HD
ENDBRANCH   6   7
BRANCH   6   9
HETATM    9  N3  UNL     1     -11.375  10.093 -21.771  1.00  0.00    -0.320 N 
HETATM   10  C14 UNL     1     -10.999  10.204 -23.060  1.00  0.00     0.112 A 
HETATM   11  C15 UNL     1     -11.380  11.425 -23.548  1.00  0.00     0.106 A 
HETATM   12  N4  UNL     1     -11.995  12.063 -22.543  1.00  0.00    -0.361 N 
HETATM   13  C16 UNL     1     -11.998  11.255 -21.443  1.00  0.00     0.185 A 
ATOM     14  H4  UNL     1     -12.395  13.000 -22.592  1.00  0.00     0.166 HD
ENDBRANCH   6   9
ENDBRANCH   3   6
ENDBRANCH   1   2
BRANCH   1  15
HETATM   15  C3  UNL     1      -8.007  10.270 -17.502  1.00  0.00     0.238 C 
BRANCH  15  16
HETATM   16  C4  UNL     1      -7.683  11.658 -17.999  1.00  0.00     0.183 C 
BRANCH  16  17
HETATM   17  O2  UNL     1      -7.146  12.410 -16.955  1.00  0.00    -0.388 OA
ATOM     18  H2  UNL     1      -7.390  13.321 -17.063  1.00  0.00     0.210 HD
ENDBRANCH  16  17
BRANCH  16  19
HETATM   19  C5  UNL     1      -6.873  11.680 -19.256  1.00  0.00     0.101 C 
BRANCH  19  20
HETATM   20  N2  UNL     1      -7.291  12.530 -20.289  1.00  0.00    -0.351 N 
HETATM   21  C6  UNL     1      -8.506  12.318 -20.945  1.00  0.00     0.072 C 
HETATM   22  C7  UNL     1      -9.205  13.647 -21.148  1.00  0.00     0.021 C 
HETATM   23  C8  UNL     1      -9.714  14.215 -19.838  1.00  0.00     0.015 C 
HETATM   24  C9  UNL     1      -8.353  14.638 -21.839  1.00  0.00     0.019 C 
HETATM   25  C10 UNL     1      -6.884  14.501 -21.714  1.00  0.00     0.021 C 
HETATM   26  C11 UNL     1      -6.216  14.442 -23.099  1.00  0.00     0.015 C 
HETATM   27  C12 UNL     1      -6.365  13.438 -20.827  1.00  0.00     0.072 C 
ENDBRANCH  19  20
ENDBRANCH  16  19
ENDBRANCH  15  16
ENDBRANCH   1  15
TORSDOF 9
ENDMDL
MODEL 5
REMARK VINA RESULT: -7.510347703      1.280      2.019
REMARK  9 active torsions:
REMARK  status: ('A' for Active; 'I' for Inactive)
REMARK    1  A    between atoms: C2_2  and  C13_19 
REMARK    2  A    between atoms: N1_3  and  O1_5 
REMARK    3  A    between atoms: O1_5  and  C3_6 
REMARK    4  A    between atoms: C3_6  and  C4_7 
REMARK    5  A    between atoms: C4_7  and  O2_8 
REMARK    6  A    between atoms: C4_7  and  C5_10 
REMARK    7  A    between atoms: C5_10  and  N2_11 
REMARK    8  A    between atoms: C13_19  and  O3_20 
REMARK    9  A    between atoms: C13_19  and  N3_22 
ROOT
HETATM    1  O1  UNL     1      -8.445   9.468 -19.249  1.00  0.00    -0.278 OA
ENDROOT
BRANCH   1   2
HETATM    2  N1  UNL     1      -9.607   9.408 -19.965  1.00  0.00    -0.271 N 
HETATM    3  C2  UNL     1      -9.755   8.653 -21.005  1.00  0.00     0.054 C 
HETATM    4  C1  UNL     1      -8.592   7.816 -21.426  1.00  0.00     0.070 C 
ATOM      5  H1  UNL     1     -10.394   9.985 -19.666  1.00  0.00     0.193 HD
BRANCH   3   6
HETATM    6  C13 UNL     1     -11.037   8.625 -21.743  1.00  0.00     0.273 C 
BRANCH   6   7
HETATM    7  O3  UNL     1     -11.467   7.293 -21.837  1.00  0.00    -0.371 OA
ATOM      8  H3  UNL     1     -10.710   6.743 -22.000  1.00  0.00     0.212 HD
ENDBRANCH   6   7
BRANCH   6   9
HETATM    9  N3  UNL     1     -10.931   9.196 -23.065  1.00  0.00    -0.320 N 
HETATM   10  C14 UNL     1     -10.979  10.507 -23.369  1.00  0.00     0.112 A 
HETATM   11  C15 UNL     1     -10.844  10.673 -24.720  1.00  0.00     0.106 A 
HETATM   12  N4  UNL     1     -10.712   9.447 -25.245  1.00  0.00    -0.361 N 
HETATM   13  C16 UNL     1     -10.764   8.528 -24.237  1.00  0.00     0.185 A 
ATOM     14  H4  UNL     1     -10.591   9.235 -26.235  1.00  0.00     0.166 HD
ENDBRANCH   6   9
ENDBRANCH   3   6
ENDBRANCH   1   2
BRANCH   1  15
HETATM   15  C3  UNL     1      -8.361  10.222 -18.044  1.00  0.00     0.238 C 
BRANCH  15  16
HETATM   16  C4  UNL     1      -7.704  11.556 -18.302  1.00  0.00     0.183 C 
BRANCH  16  17
HETATM   17  O2  UNL     1      -6.941  11.918 -17.193  1.00  0.00    -0.388 OA
ATOM     18  H2  UNL     1      -6.124  11.434 -17.199  1.00  0.00     0.210 HD
ENDBRANCH  16  17
BRANCH  16  19
HETATM   19  C5  UNL     1      -6.972  11.631 -19.605  1.00  0.00     0.101 C 
BRANCH  19  20
HETATM   20  N2  UNL     1      -7.437  12.542 -20.564  1.00  0.00    -0.351 N 
HETATM   21  C6  UNL     1      -8.680  12.367 -21.177  1.00  0.00     0.072 C 
HETATM   22  C7  UNL     1      -9.387  13.703 -21.266  1.00  0.00     0.021 C 
HETATM   23  C8  UNL     1      -9.837  14.188 -19.902  1.00  0.00     0.015 C 
HETATM   24  C9  UNL     1      -8.567  14.738 -21.933  1.00  0.00     0.019 C 
HETATM   25  C10 UNL     1      -7.095  14.598 -21.881  1.00  0.00     0.021 C 
HETATM   26  C11 UNL     1      -6.489  14.626 -23.296  1.00  0.00     0.015 C 
HETATM   27  C12 UNL     1      -6.536  13.483 -21.086  1.00  0.00     0.072 C 
ENDBRANCH  19  20
ENDBRANCH  16  19
ENDBRANCH  15  16
ENDBRANCH   1  15
TORSDOF 9
ENDMDL
