MODEL 1
REMARK VINA RESULT: -7.145732348      0.000      0.000
REMARK  8 active torsions:
REMARK  status: ('A' for Active; 'I' for Inactive)
REMARK    1  A    between atoms: C2_2  and  C3_3 
REMARK    2  A    between atoms: C3_3  and  C4_4 
REMARK    3  A    between atoms: C4_4  and  C5_5 
REMARK    4  A    between atoms: N1_7  and  C7_8 
REMARK    5  A    between atoms: C9_10  and  O1_11 
REMARK    6  A    between atoms: O1_11  and  S1_12 
REMARK    7  A    between atoms: C10_16  and  C11_17 
REMARK    8  A    between atoms: C11_17  and  O5_18 
ROOT
HETATM    1  C7  UNL     1      -9.806   9.901 -20.281  1.00  0.00     0.237 C 
HETATM    2  C8  UNL     1      -9.119   9.344 -21.510  1.00  0.00     0.091 C 
HETATM    3  C9  UNL     1     -10.343   8.664 -22.146  1.00  0.00     0.180 C 
HETATM    4  C10 UNL     1     -11.372   9.741 -21.871  1.00  0.00     0.178 C 
HETATM    5  O6  UNL     1     -10.993  10.406 -20.735  1.00  0.00    -0.356 OA
ENDROOT
BRANCH   1   6
HETATM    6  N1  UNL     1      -8.985  10.835 -19.565  1.00  0.00    -0.299 N 
HETATM    7  C6  UNL     1      -8.835  12.167 -19.669  1.00  0.00     0.117 A 
HETATM    8  C5  UNL     1      -7.888  12.345 -18.662  1.00  0.00     0.016 A 
HETATM    9  S2  UNL     1      -7.884  10.666 -18.317  1.00  0.00    -0.014 SA
BRANCH   8  10
HETATM   10  C4  UNL     1      -7.140  13.489 -18.069  1.00  0.00     0.049 C 
BRANCH  10  11
HETATM   11  C3  UNL     1      -5.896  13.686 -18.910  1.00  0.00     0.005 C 
BRANCH  11  12
HETATM   12  C2  UNL     1      -6.142  13.335 -20.361  1.00  0.00    -0.004 C 
HETATM   13  C1  UNL     1      -5.452  14.273 -21.302  1.00  0.00     0.005 C 
ENDBRANCH  11  12
ENDBRANCH  10  11
ENDBRANCH   8  10
ENDBRANCH   1   6
BRANCH   3  14
HETATM   14  O1  UNL     1     -10.586   7.533 -21.374  1.00  0.00    -0.249 OA
BRANCH  14  15
HETATM   15  S1  UNL     1      -9.801   6.179 -21.907  1.00  0.00     0.252 S 
HETATM   16  O2  UNL     1     -10.282   5.006 -21.075  1.00  0.00    -0.572 OA
HETATM   17  O3  UNL     1     -10.243   5.924 -23.342  1.00  0.00    -0.572 OA
HETATM   18  O4  UNL     1      -8.147   6.310 -21.916  1.00  0.00    -0.572 OA
ENDBRANCH  14  15
ENDBRANCH   3  14
BRANCH   4  19
HETATM   19  C11 UNL     1     -11.326  10.743 -23.032  1.00  0.00     0.198 C 
BRANCH  19  20
HETATM   20  O5  UNL     1     -12.303  11.721 -22.869  1.00  0.00    -0.398 OA
ATOM     21  H5  UNL     1     -12.678  11.960 -23.709  1.00  0.00     0.209 HD
ENDBRANCH  19  20
ENDBRANCH   4  19
TORSDOF 8
ENDMDL
MODEL 2
REMARK VINA RESULT: -7.141716568      0.102      1.004
REMARK  8 active torsions:
REMARK  status: ('A' for Active; 'I' for Inactive)
REMARK    1  A    between atoms: C2_2  and  C3_3 
REMARK    2  A    between atoms: C3_3  and  C4_4 
REMARK    3  A    between atoms: C4_4  and  C5_5 
REMARK    4  A    between atoms: N1_7  and  C7_8 
REMARK    5  A    between atoms: C9_10  and  O1_11 
REMARK    6  A    between atoms: O1_11  and  S1_12 
REMARK    7  A    between atoms: C10_16  and  C11_17 
REMARK    8  A    between atoms: C11_17  and  O5_18 
ROOT
HETATM    1  C7  UNL     1      -9.779   9.874 -20.251  1.00  0.00     0.237 C 
HETATM    2  C8  UNL     1      -9.085   9.298 -21.467  1.00  0.00     0.091 C 
HETATM    3  C9  UNL     1     -10.305   8.608 -22.100  1.00  0.00     0.180 C 
HETATM    4  C10 UNL     1     -11.335   9.690 -21.849  1.00  0.00     0.178 C 
HETATM    5  O6  UNL     1     -10.963  10.373 -20.722  1.00  0.00    -0.356 OA
ENDROOT
BRANCH   1   6
HETATM    6  N1  UNL     1      -8.963  10.820 -19.545  1.00  0.00    -0.299 N 
HETATM    7  C6  UNL     1      -8.813  12.150 -19.668  1.00  0.00     0.117 A 
HETATM    8  C5  UNL     1      -7.872  12.344 -18.659  1.00  0.00     0.016 A 
HETATM    9  S2  UNL     1      -7.868  10.669 -18.289  1.00  0.00    -0.014 SA
BRANCH   8  10
HETATM   10  C4  UNL     1      -7.127  13.497 -18.078  1.00  0.00     0.049 C 
BRANCH  10  11
HETATM   11  C3  UNL     1      -5.885  13.689 -18.922  1.00  0.00     0.005 C 
BRANCH  11  12
HETATM   12  C2  UNL     1      -6.137  13.346 -20.374  1.00  0.00    -0.004 C 
HETATM   13  C1  UNL     1      -5.454  14.291 -21.314  1.00  0.00     0.005 C 
ENDBRANCH  11  12
ENDBRANCH  10  11
ENDBRANCH   8  10
ENDBRANCH   1   6
BRANCH   3  14
HETATM   14  O1  UNL     1     -10.553   7.490 -21.312  1.00  0.00    -0.249 OA
BRANCH  14  15
HETATM   15  S1  UNL     1      -9.882   6.098 -21.898  1.00  0.00     0.252 S 
HETATM   16  O2  UNL     1     -10.233   5.997 -23.370  1.00  0.00    -0.572 OA
HETATM   17  O3  UNL     1      -8.368   6.240 -21.806  1.00  0.00    -0.572 OA
HETATM   18  O4  UNL     1     -10.301   4.732 -21.055  1.00  0.00    -0.572 OA
ENDBRANCH  14  15
ENDBRANCH   3  14
BRANCH   4  19
HETATM   19  C11 UNL     1     -11.281  10.674 -23.025  1.00  0.00     0.198 C 
BRANCH  19  20
HETATM   20  O5  UNL     1     -12.265  11.649 -22.889  1.00  0.00    -0.398 OA
ATOM     21  H5  UNL     1     -12.297  12.199 -23.663  1.00  0.00     0.209 HD
ENDBRANCH  19  20
ENDBRANCH   4  19
TORSDOF 8
ENDMDL
MODEL 3
REMARK VINA RESULT: -6.708110980      3.187      4.759
REMARK  8 active torsions:
REMARK  status: ('A' for Active; 'I' for Inactive)
REMARK    1  A    between atoms: C2_2  and  C3_3 
REMARK    2  A    between atoms: C3_3  and  C4_4 
REMARK    3  A    between atoms: C4_4  and  C5_5 
REMARK    4  A    between atoms: N1_7  and  C7_8 
REMARK    5  A    between atoms: C9_10  and  O1_11 
REMARK    6  A    between atoms: O1_11  and  S1_12 
REMARK    7  A    between atoms: C10_16  and  C11_17 
REMARK    8  A    between atoms: C11_17  and  O5_18 
ROOT
HETATM    1  C7  UNL     1      -9.519  11.384 -20.064  1.00  0.00     0.237 C 
HETATM    2  C8  UNL     1      -8.196  10.728 -19.724  1.00  0.00     0.091 C 
HETATM    3  C9  UNL     1      -8.749   9.546 -18.911  1.00  0.00     0.180 C 
HETATM    4  C10 UNL     1      -9.937   9.203 -19.786  1.00  0.00     0.178 C 
HETATM    5  O6  UNL     1     -10.348  10.351 -20.409  1.00  0.00    -0.356 OA
ENDROOT
BRANCH   1   6
HETATM    6  N1  UNL     1      -9.387  12.411 -21.056  1.00  0.00    -0.299 N 
HETATM    7  C6  UNL     1      -8.909  13.666 -20.997  1.00  0.00     0.117 A 
HETATM    8  C5  UNL     1      -9.110  14.025 -22.329  1.00  0.00     0.016 A 
HETATM    9  S2  UNL     1      -9.769  12.482 -22.684  1.00  0.00    -0.014 SA
BRANCH   8  10
HETATM   10  C4  UNL     1      -8.876  15.230 -23.174  1.00  0.00     0.049 C 
BRANCH  10  11
HETATM   11  C3  UNL     1      -7.424  15.621 -22.991  1.00  0.00     0.005 C 
BRANCH  11  12
HETATM   12  C2  UNL     1      -6.510  14.417 -23.049  1.00  0.00    -0.004 C 
HETATM   13  C1  UNL     1      -5.567  14.357 -21.887  1.00  0.00     0.005 C 
ENDBRANCH  11  12
ENDBRANCH  10  11
ENDBRANCH   8  10
ENDBRANCH   1   6
BRANCH   3  14
HETATM   14  O1  UNL     1      -9.162  10.086 -17.699  1.00  0.00    -0.249 OA
BRANCH  14  15
HETATM   15  S1  UNL     1      -7.934  10.307 -16.614  1.00  0.00     0.252 S 
HETATM   16  O2  UNL     1      -7.693  11.799 -16.484  1.00  0.00    -0.572 OA
HETATM   17  O3  UNL     1      -8.418   9.809 -15.258  1.00  0.00    -0.572 OA
HETATM   18  O4  UNL     1      -6.546   9.473 -16.978  1.00  0.00    -0.572 OA
ENDBRANCH  14  15
ENDBRANCH   3  14
BRANCH   4  19
HETATM   19  C11 UNL     1      -9.458   8.232 -20.873  1.00  0.00     0.198 C 
BRANCH  19  20
HETATM   20  O5  UNL     1     -10.364   7.187 -21.027  1.00  0.00    -0.398 OA
ATOM     21  H5  UNL     1     -10.265   6.554 -20.326  1.00  0.00     0.209 HD
ENDBRANCH  19  20
ENDBRANCH   4  19
TORSDOF 8
ENDMDL
MODEL 4
REMARK VINA RESULT: -6.657844160      2.716      4.210
REMARK  8 active torsions:
REMARK  status: ('A' for Active; 'I' for Inactive)
REMARK    1  A    between atoms: C2_2  and  C3_3 
REMARK    2  A    between atoms: C3_3  and  C4_4 
REMARK    3  A    between atoms: C4_4  and  C5_5 
REMARK    4  A    between atoms: N1_7  and  C7_8 
REMARK    5  A    between atoms: C9_10  and  O1_11 
REMARK    6  A    between atoms: O1_11  and  S1_12 
REMARK    7  A    between atoms: C10_16  and  C11_17 
REMARK    8  A    between atoms: C11_17  and  O5_18 
ROOT
HETATM    1  C7  UNL     1      -9.527   8.097 -22.397  1.00  0.00     0.237 C 
HETATM    2  C8  UNL     1     -10.738   7.356 -22.926  1.00  0.00     0.091 C 
HETATM    3  C9  UNL     1     -10.055   6.006 -23.202  1.00  0.00     0.180 C 
HETATM    4  C10 UNL     1      -9.192   5.927 -21.960  1.00  0.00     0.178 C 
HETATM    5  O6  UNL     1      -8.902   7.207 -21.567  1.00  0.00    -0.356 OA
ENDROOT
BRANCH   1   6
HETATM    6  N1  UNL     1      -9.868   9.352 -21.792  1.00  0.00    -0.299 N 
HETATM    7  C6  UNL     1     -10.634  10.375 -22.208  1.00  0.00     0.117 A 
HETATM    8  C5  UNL     1     -10.482  11.208 -21.101  1.00  0.00     0.016 A 
HETATM    9  S2  UNL     1      -9.462  10.063 -20.333  1.00  0.00    -0.014 SA
BRANCH   8  10
HETATM   10  C4  UNL     1     -10.969  12.552 -20.681  1.00  0.00     0.049 C 
BRANCH  10  11
HETATM   11  C3  UNL     1      -9.759  13.461 -20.621  1.00  0.00     0.005 C 
BRANCH  11  12
HETATM   12  C2  UNL     1      -9.277  13.841 -22.005  1.00  0.00    -0.004 C 
HETATM   13  C1  UNL     1      -7.896  14.420 -21.991  1.00  0.00     0.005 C 
ENDBRANCH  11  12
ENDBRANCH  10  11
ENDBRANCH   8  10
ENDBRANCH   1   6
BRANCH   3  14
HETATM   14  O1  UNL     1      -9.279   6.204 -24.338  1.00  0.00    -0.249 OA
BRANCH  14  15
HETATM   15  S1  UNL     1      -9.830   5.398 -25.672  1.00  0.00     0.252 S 
HETATM   16  O2  UNL     1      -8.633   5.077 -26.548  1.00  0.00    -0.572 OA
HETATM   17  O3  UNL     1     -10.413   4.071 -25.204  1.00  0.00    -0.572 OA
HETATM   18  O4  UNL     1     -11.024   6.195 -26.505  1.00  0.00    -0.572 OA
ENDBRANCH  14  15
ENDBRANCH   3  14
BRANCH   4  19
HETATM   19  C11 UNL     1     -10.025   5.279 -20.847  1.00  0.00     0.198 C 
BRANCH  19  20
HETATM   20  O5  UNL     1     -10.724   4.180 -21.339  1.00  0.00    -0.398 OA
ATOM     21  H5  UNL     1     -11.063   3.655 -20.624  1.00  0.00     0.209 HD
ENDBRANCH  19  20
ENDBRANCH   4  19
TORSDOF 8
ENDMDL
MODEL 5
REMARK VINA RESULT: -6.437335942      4.045      5.491
REMARK  8 active torsions:
REMARK  status: ('A' for Active; 'I' for Inactive)
REMARK    1  A    between atoms: C2_2  and  C3_3 
REMARK    2  A    between atoms: C3_3  and  C4_4 
REMARK    3  A    between atoms: C4_4  and  C5_5 
REMARK    4  A    between atoms: N1_7  and  C7_8 
REMARK    5  A    between atoms: C9_10  and  O1_11 
REMARK    6  A    between atoms: O1_11  and  S1_12 
REMARK    7  A    between atoms: C10_16  and  C11_17 
REMARK    8  A    between atoms: C11_17  and  O5_18 
ROOT
HETATM    1  C7  UNL     1     -10.481   8.182 -25.206  1.00  0.00     0.237 C 
HETATM    2  C8  UNL     1     -10.241   8.441 -26.679  1.00  0.00     0.091 C 
HETATM    3  C9  UNL     1     -10.423   6.999 -27.180  1.00  0.00     0.180 C 
HETATM    4  C10 UNL     1     -11.612   6.609 -26.327  1.00  0.00     0.178 C 
HETATM    5  O6  UNL     1     -11.555   7.334 -25.167  1.00  0.00    -0.356 OA
ENDROOT
BRANCH   1   6
HETATM    6  N1  UNL     1     -10.638   9.391 -24.451  1.00  0.00    -0.299 N 
HETATM    7  C6  UNL     1     -10.790  10.674 -24.823  1.00  0.00     0.117 A 
HETATM    8  C5  UNL     1     -10.874  11.246 -23.555  1.00  0.00     0.016 A 
HETATM    9  S2  UNL     1     -10.695   9.713 -22.809  1.00  0.00    -0.014 SA
BRANCH   8  10
HETATM   10  C4  UNL     1     -11.048  12.616 -22.994  1.00  0.00     0.049 C 
BRANCH  10  11
HETATM   11  C3  UNL     1      -9.833  13.419 -23.408  1.00  0.00     0.005 C 
BRANCH  11  12
HETATM   12  C2  UNL     1      -9.139  14.038 -22.214  1.00  0.00    -0.004 C 
HETATM   13  C1  UNL     1      -7.858  14.719 -22.585  1.00  0.00     0.005 C 
ENDBRANCH  11  12
ENDBRANCH  10  11
ENDBRANCH   8  10
ENDBRANCH   1   6
BRANCH   3  14
HETATM   14  O1  UNL     1      -9.279   6.317 -26.783  1.00  0.00    -0.249 OA
BRANCH  14  15
HETATM   15  S1  UNL     1      -9.326   4.695 -27.098  1.00  0.00     0.252 S 
HETATM   16  O2  UNL     1      -9.990   4.503 -28.449  1.00  0.00    -0.572 OA
HETATM   17  O3  UNL     1      -7.889   4.207 -27.229  1.00  0.00    -0.572 OA
HETATM   18  O4  UNL     1     -10.048   3.791 -25.908  1.00  0.00    -0.572 OA
ENDBRANCH  14  15
ENDBRANCH   3  14
BRANCH   4  19
HETATM   19  C11 UNL     1     -12.886   7.030 -27.073  1.00  0.00     0.198 C 
BRANCH  19  20
HETATM   20  O5  UNL     1     -14.015   6.727 -26.317  1.00  0.00    -0.398 OA
ATOM     21  H5  UNL     1     -14.804   6.860 -26.830  1.00  0.00     0.209 HD
ENDBRANCH  19  20
ENDBRANCH   4  19
TORSDOF 8
ENDMDL
