MODEL 1
REMARK VINA RESULT: -3.721137061      0.000      0.000
REMARK  3 active torsions:
REMARK  status: ('A' for Active; 'I' for Inactive)
REMARK    1  A    between atoms: C2_2  and  C4_4 
REMARK    2  A    between atoms: C5_5  and  O1_6 
REMARK    3  A    between atoms: C8_12  and  O4_14 
ROOT
HETATM    1  C4  UNL     1      15.353  19.321   6.243  1.00  0.00     0.103 C 
HETATM    2  C5  UNL     1      16.094  20.623   6.552  1.00  0.00     0.271 C 
HETATM    3  O2  UNL     1      16.274  21.453   5.521  1.00  0.00    -0.324 OA
HETATM    4  C6  UNL     1      15.364  22.478   5.328  1.00  0.00     0.186 C 
HETATM    5  C7  UNL     1      15.453  23.418   6.458  1.00  0.00     0.080 C 
HETATM    6  O3  UNL     1      15.819  23.108   4.160  1.00  0.00    -0.293 OA
HETATM    7  C8  UNL     1      16.358  22.256   3.237  1.00  0.00     0.307 C 
HETATM    8  C9  UNL     1      16.555  23.092   1.958  1.00  0.00     0.118 C 
HETATM    9  O5  UNL     1      15.837  21.057   3.025  1.00  0.00    -0.169 OA
HETATM   10  O6  UNL     1      14.802  20.562   3.411  1.00  0.00    -0.191 OA
HETATM   11  C10 UNL     1      14.199  20.572   4.577  1.00  0.00     0.242 A 
HETATM   12  O7  UNL     1      13.299  19.544   4.696  1.00  0.00    -0.338 OA
HETATM   13  C11 UNL     1      14.057  19.778   5.739  1.00  0.00     0.204 A 
HETATM   14  C12 UNL     1      13.970  22.008   4.966  1.00  0.00     0.120 C 
HETATM   15  C13 UNL     1      12.945  22.231   6.016  1.00  0.00     0.194 C 
HETATM   16  O8  UNL     1      12.329  23.500   5.882  1.00  0.00    -0.355 OA
HETATM   17  C14 UNL     1      11.567  23.599   4.748  1.00  0.00     0.156 C 
HETATM   18  C15 UNL     1      10.149  23.119   5.084  1.00  0.00     0.078 C 
HETATM   19  C16 UNL     1      11.457  25.020   4.255  1.00  0.00     0.078 C 
HETATM   20  O9  UNL     1      12.037  22.798   3.745  1.00  0.00    -0.355 OA
HETATM   21  C17 UNL     1      13.428  22.692   3.707  1.00  0.00     0.194 C 
ENDROOT
BRANCH   2  22
HETATM   22  O1  UNL     1      17.266  20.399   7.279  1.00  0.00    -0.370 OA
ATOM     23  H1  UNL     1      17.707  21.210   7.505  1.00  0.00     0.212 HD
ENDBRANCH   2  22
BRANCH   7  24
HETATM   24  O4  UNL     1      17.697  22.047   3.678  1.00  0.00    -0.342 OA
ATOM     25  H4  UNL     1      18.231  22.209   2.910  1.00  0.00     0.215 HD
ENDBRANCH   7  24
BRANCH   1  26
HETATM   26  C2  UNL     1      16.098  18.313   5.534  1.00  0.00    -0.082 C 
HETATM   27  C1  UNL     1      15.734  17.058   5.494  1.00  0.00     0.014 C 
HETATM   28  C3  UNL     1      17.328  18.724   4.815  1.00  0.00     0.043 C 
ENDBRANCH   1  26
TORSDOF 3
ENDMDL
MODEL 2
REMARK VINA RESULT: -2.126321852      1.773      3.462
REMARK  3 active torsions:
REMARK  status: ('A' for Active; 'I' for Inactive)
REMARK    1  A    between atoms: C2_2  and  C4_4 
REMARK    2  A    between atoms: C5_5  and  O1_6 
REMARK    3  A    between atoms: C8_12  and  O4_14 
ROOT
HETATM    1  C4  UNL     1      16.801  22.403   6.152  1.00  0.00     0.103 C 
HETATM    2  C5  UNL     1      16.906  21.759   4.769  1.00  0.00     0.271 C 
HETATM    3  O2  UNL     1      15.807  21.141   4.327  1.00  0.00    -0.324 OA
HETATM    4  C6  UNL     1      14.940  21.838   3.503  1.00  0.00     0.186 C 
HETATM    5  C7  UNL     1      15.620  22.135   2.231  1.00  0.00     0.080 C 
HETATM    6  O3  UNL     1      13.897  20.926   3.274  1.00  0.00    -0.293 OA
HETATM    7  C8  UNL     1      13.606  20.127   4.343  1.00  0.00     0.307 C 
HETATM    8  C9  UNL     1      12.300  19.397   3.978  1.00  0.00     0.118 C 
HETATM    9  O5  UNL     1      13.635  20.600   5.580  1.00  0.00    -0.169 OA
HETATM   10  O6  UNL     1      13.737  21.734   5.994  1.00  0.00    -0.191 OA
HETATM   11  C10 UNL     1      14.501  22.739   5.636  1.00  0.00     0.242 A 
HETATM   12  O7  UNL     1      14.608  23.678   6.630  1.00  0.00    -0.338 OA
HETATM   13  C11 UNL     1      15.714  23.370   5.996  1.00  0.00     0.204 A 
HETATM   14  C12 UNL     1      14.254  23.009   4.175  1.00  0.00     0.120 C 
HETATM   15  C13 UNL     1      14.683  24.345   3.690  1.00  0.00     0.194 C 
HETATM   16  O8  UNL     1      13.896  24.779   2.595  1.00  0.00    -0.355 OA
HETATM   17  C14 UNL     1      12.597  25.034   2.947  1.00  0.00     0.156 C 
HETATM   18  C15 UNL     1      12.503  26.498   3.394  1.00  0.00     0.078 C 
HETATM   19  C16 UNL     1      11.645  24.853   1.791  1.00  0.00     0.078 C 
HETATM   20  O9  UNL     1      12.193  24.263   4.001  1.00  0.00    -0.355 OA
HETATM   21  C17 UNL     1      12.732  22.976   4.005  1.00  0.00     0.194 C 
ENDROOT
BRANCH   2  22
HETATM   22  O1  UNL     1      18.056  20.976   4.639  1.00  0.00    -0.370 OA
ATOM     23  H1  UNL     1      17.852  20.053   4.549  1.00  0.00     0.212 HD
ENDBRANCH   2  22
BRANCH   7  24
HETATM   24  O4  UNL     1      14.571  19.080   4.284  1.00  0.00    -0.342 OA
ATOM     25  H4  UNL     1      14.628  18.755   5.175  1.00  0.00     0.215 HD
ENDBRANCH   7  24
BRANCH   1  26
HETATM   26  C2  UNL     1      16.826  21.507   7.279  1.00  0.00    -0.082 C 
HETATM   27  C1  UNL     1      16.840  21.925   8.518  1.00  0.00     0.014 C 
HETATM   28  C3  UNL     1      16.831  20.048   7.017  1.00  0.00     0.043 C 
ENDBRANCH   1  26
TORSDOF 3
ENDMDL
MODEL 3
REMARK VINA RESULT: -2.028771844      2.058      3.011
REMARK  3 active torsions:
REMARK  status: ('A' for Active; 'I' for Inactive)
REMARK    1  A    between atoms: C2_2  and  C4_4 
REMARK    2  A    between atoms: C5_5  and  O1_6 
REMARK    3  A    between atoms: C8_12  and  O4_14 
ROOT
HETATM    1  C4  UNL     1      15.660  21.401   6.261  1.00  0.00     0.103 C 
HETATM    2  C5  UNL     1      14.865  22.647   6.659  1.00  0.00     0.271 C 
HETATM    3  O2  UNL     1      14.302  23.327   5.657  1.00  0.00    -0.324 OA
HETATM    4  C6  UNL     1      12.980  23.067   5.338  1.00  0.00     0.186 C 
HETATM    5  C7  UNL     1      12.125  23.479   6.465  1.00  0.00     0.080 C 
HETATM    6  O3  UNL     1      12.736  23.902   4.237  1.00  0.00    -0.293 OA
HETATM    7  C8  UNL     1      13.805  24.053   3.399  1.00  0.00     0.307 C 
HETATM    8  C9  UNL     1      13.262  24.778   2.153  1.00  0.00     0.118 C 
HETATM    9  O5  UNL     1      14.610  23.037   3.126  1.00  0.00    -0.169 OA
HETATM   10  O6  UNL     1      14.509  21.856   3.374  1.00  0.00    -0.191 OA
HETATM   11  C10 UNL     1      14.126  21.209   4.450  1.00  0.00     0.242 A 
HETATM   12  O7  UNL     1      14.574  19.912   4.454  1.00  0.00    -0.338 OA
HETATM   13  C11 UNL     1      14.666  20.565   5.587  1.00  0.00     0.204 A 
HETATM   14  C12 UNL     1      12.736  21.674   4.797  1.00  0.00     0.120 C 
HETATM   15  C13 UNL     1      11.969  20.780   5.700  1.00  0.00     0.194 C 
HETATM   16  O8  UNL     1      10.574  20.887   5.478  1.00  0.00    -0.355 OA
HETATM   17  C14 UNL     1      10.196  20.406   4.252  1.00  0.00     0.156 C 
HETATM   18  C15 UNL     1       9.900  18.908   4.399  1.00  0.00     0.078 C 
HETATM   19  C16 UNL     1       8.941  21.066   3.740  1.00  0.00     0.078 C 
HETATM   20  O9  UNL     1      11.194  20.531   3.325  1.00  0.00    -0.355 OA
HETATM   21  C17 UNL     1      11.966  21.684   3.473  1.00  0.00     0.194 C 
ENDROOT
BRANCH   2  22
HETATM   22  O1  UNL     1      15.579  23.467   7.537  1.00  0.00    -0.370 OA
ATOM     23  H1  UNL     1      15.758  23.035   8.364  1.00  0.00     0.212 HD
ENDBRANCH   2  22
BRANCH   7  24
HETATM   24  O4  UNL     1      14.607  25.056   4.016  1.00  0.00    -0.342 OA
ATOM     25  H4  UNL     1      15.432  24.622   4.202  1.00  0.00     0.215 HD
ENDBRANCH   7  24
BRANCH   1  26
HETATM   26  C2  UNL     1      16.950  21.629   5.664  1.00  0.00    -0.082 C 
HETATM   27  C1  UNL     1      17.197  21.399   4.401  1.00  0.00     0.014 C 
HETATM   28  C3  UNL     1      18.040  22.152   6.523  1.00  0.00     0.043 C 
ENDBRANCH   1  26
TORSDOF 3
ENDMDL
MODEL 4
REMARK VINA RESULT: -1.683940625      1.613      5.349
REMARK  3 active torsions:
REMARK  status: ('A' for Active; 'I' for Inactive)
REMARK    1  A    between atoms: C2_2  and  C4_4 
REMARK    2  A    between atoms: C5_5  and  O1_6 
REMARK    3  A    between atoms: C8_12  and  O4_14 
ROOT
HETATM    1  C4  UNL     1      15.265  23.981   3.075  1.00  0.00     0.103 C 
HETATM    2  C5  UNL     1      14.942  24.326   4.530  1.00  0.00     0.271 C 
HETATM    3  O2  UNL     1      13.931  23.649   5.082  1.00  0.00    -0.324 OA
HETATM    4  C6  UNL     1      14.218  22.518   5.826  1.00  0.00     0.186 C 
HETATM    5  C7  UNL     1      14.973  22.912   7.027  1.00  0.00     0.080 C 
HETATM    6  O3  UNL     1      12.953  22.042   6.205  1.00  0.00    -0.293 OA
HETATM    7  C8  UNL     1      11.981  22.222   5.262  1.00  0.00     0.307 C 
HETATM    8  C9  UNL     1      10.762  21.422   5.758  1.00  0.00     0.118 C 
HETATM    9  O5  UNL     1      12.240  22.070   3.972  1.00  0.00    -0.169 OA
HETATM   10  O6  UNL     1      13.214  21.626   3.406  1.00  0.00    -0.191 OA
HETATM   11  C10 UNL     1      14.501  21.788   3.603  1.00  0.00     0.242 A 
HETATM   12  O7  UNL     1      15.234  21.467   2.489  1.00  0.00    -0.338 OA
HETATM   13  C11 UNL     1      15.591  22.555   3.128  1.00  0.00     0.204 A 
HETATM   14  C12 UNL     1      14.806  21.378   5.020  1.00  0.00     0.120 C 
HETATM   15  C13 UNL     1      16.232  21.082   5.308  1.00  0.00     0.194 C 
HETATM   16  O8  UNL     1      16.367  20.137   6.354  1.00  0.00    -0.355 OA
HETATM   17  C14 UNL     1      15.907  18.894   6.006  1.00  0.00     0.156 C 
HETATM   18  C15 UNL     1      17.067  18.119   5.368  1.00  0.00     0.078 C 
HETATM   19  C16 UNL     1      15.439  18.102   7.201  1.00  0.00     0.078 C 
HETATM   20  O9  UNL     1      14.906  18.962   5.077  1.00  0.00    -0.355 OA
HETATM   21  C17 UNL     1      14.057  20.059   5.234  1.00  0.00     0.194 C 
ENDROOT
BRANCH   2  22
HETATM   22  O1  UNL     1      14.845  25.705   4.734  1.00  0.00    -0.370 OA
ATOM     23  H1  UNL     1      14.439  25.916   5.566  1.00  0.00     0.212 HD
ENDBRANCH   2  22
BRANCH   7  24
HETATM   24  O4  UNL     1      11.556  23.571   5.437  1.00  0.00    -0.342 OA
ATOM     25  H4  UNL     1      10.764  23.643   4.918  1.00  0.00     0.215 HD
ENDBRANCH   7  24
BRANCH   1  26
HETATM   26  C2  UNL     1      14.356  24.487   2.080  1.00  0.00    -0.082 C 
HETATM   27  C1  UNL     1      14.667  24.574   0.814  1.00  0.00     0.014 C 
HETATM   28  C3  UNL     1      13.007  24.922   2.517  1.00  0.00     0.043 C 
ENDBRANCH   1  26
TORSDOF 3
ENDMDL
MODEL 5
REMARK VINA RESULT: -1.169513861      1.620      4.150
REMARK  3 active torsions:
REMARK  status: ('A' for Active; 'I' for Inactive)
REMARK    1  A    between atoms: C2_2  and  C4_4 
REMARK    2  A    between atoms: C5_5  and  O1_6 
REMARK    3  A    between atoms: C8_12  and  O4_14 
ROOT
HETATM    1  C4  UNL     1      16.390  19.519   5.700  1.00  0.00     0.103 C 
HETATM    2  C5  UNL     1      15.057  19.250   4.999  1.00  0.00     0.271 C 
HETATM    3  O2  UNL     1      14.142  20.219   5.091  1.00  0.00    -0.324 OA
HETATM    4  C6  UNL     1      14.046  21.141   4.062  1.00  0.00     0.186 C 
HETATM    5  C7  UNL     1      13.597  20.452   2.840  1.00  0.00     0.080 C 
HETATM    6  O3  UNL     1      13.043  22.020   4.498  1.00  0.00    -0.293 OA
HETATM    7  C8  UNL     1      13.037  22.239   5.847  1.00  0.00     0.307 C 
HETATM    8  C9  UNL     1      12.051  23.400   6.080  1.00  0.00     0.118 C 
HETATM    9  O5  UNL     1      14.167  22.343   6.530  1.00  0.00    -0.169 OA
HETATM   10  O6  UNL     1      15.315  22.435   6.155  1.00  0.00    -0.191 OA
HETATM   11  C10 UNL     1      15.989  21.816   5.214  1.00  0.00     0.242 A 
HETATM   12  O7  UNL     1      17.343  21.901   5.415  1.00  0.00    -0.338 OA
HETATM   13  C11 UNL     1      16.881  20.732   5.044  1.00  0.00     0.204 A 
HETATM   14  C12 UNL     1      15.265  22.029   3.911  1.00  0.00     0.120 C 
HETATM   15  C13 UNL     1      16.066  21.784   2.686  1.00  0.00     0.194 C 
HETATM   16  O8  UNL     1      15.612  22.573   1.601  1.00  0.00    -0.355 OA
HETATM   17  C14 UNL     1      15.832  23.912   1.793  1.00  0.00     0.156 C 
HETATM   18  C15 UNL     1      17.227  24.248   1.252  1.00  0.00     0.078 C 
HETATM   19  C16 UNL     1      14.839  24.768   1.046  1.00  0.00     0.078 C 
HETATM   20  O9  UNL     1      15.821  24.245   3.119  1.00  0.00    -0.355 OA
HETATM   21  C17 UNL     1      14.906  23.518   3.882  1.00  0.00     0.194 C 
ENDROOT
BRANCH   2  22
HETATM   22  O1  UNL     1      14.543  17.989   5.314  1.00  0.00    -0.370 OA
ATOM     23  H1  UNL     1      13.628  17.905   5.071  1.00  0.00     0.212 HD
ENDBRANCH   2  22
BRANCH   7  24
HETATM   24  O4  UNL     1      12.334  21.124   6.389  1.00  0.00    -0.342 OA
ATOM     25  H4  UNL     1      11.862  21.477   7.134  1.00  0.00     0.215 HD
ENDBRANCH   7  24
BRANCH   1  26
HETATM   26  C2  UNL     1      16.391  19.413   7.136  1.00  0.00    -0.082 C 
HETATM   27  C1  UNL     1      16.686  20.416   7.921  1.00  0.00     0.014 C 
HETATM   28  C3  UNL     1      16.037  18.109   7.745  1.00  0.00     0.043 C 
ENDBRANCH   1  26
TORSDOF 3
ENDMDL
