MODEL 1
REMARK VINA RESULT: -6.089602231      0.000      0.000
REMARK  2 active torsions:
REMARK  status: ('A' for Active; 'I' for Inactive)
REMARK    1  A    between atoms: C10_12  and  O3_13 
REMARK    2  A    between atoms: C13_18  and  O5_19 
ROOT
HETATM    1  C1  UNL     1      10.007  23.138   3.677  1.00  0.00     0.071 C 
HETATM    2  C2  UNL     1      10.776  22.919   4.953  1.00  0.00     0.260 C 
HETATM    3  O1  UNL     1      11.355  21.692   4.946  1.00  0.00    -0.329 OA
HETATM    4  C3  UNL     1      12.703  21.891   4.514  1.00  0.00     0.301 C 
HETATM    5  O2  UNL     1      13.383  20.982   5.219  1.00  0.00    -0.347 OA
HETATM    6  C4  UNL     1      14.535  20.422   4.844  1.00  0.00     0.066 C 
HETATM    7  C5  UNL     1      14.786  19.331   5.916  1.00  0.00     0.046 C 
HETATM    8  C6  UNL     1      14.446  19.624   3.543  1.00  0.00     0.046 C 
HETATM    9  C7  UNL     1      15.763  21.297   4.901  1.00  0.00     0.091 C 
HETATM   10  C8  UNL     1      15.810  21.974   6.213  1.00  0.00     0.023 C 
HETATM   11  C9  UNL     1      17.287  22.245   6.552  1.00  0.00     0.013 C 
HETATM   12  C10 UNL     1      15.049  23.174   6.520  1.00  0.00     0.125 C 
HETATM   13  C11 UNL     1      13.582  23.152   6.392  1.00  0.00     0.078 C 
HETATM   14  C12 UNL     1      12.999  23.270   5.004  1.00  0.00     0.146 C 
HETATM   15  O4  UNL     1      11.713  23.844   5.234  1.00  0.00    -0.343 OA
HETATM   16  C13 UNL     1      13.659  24.207   4.104  1.00  0.00     0.222 C 
HETATM   17  C14 UNL     1      14.763  23.804   3.225  1.00  0.00     0.225 C 
HETATM   18  C15 UNL     1      15.103  25.050   2.376  1.00  0.00     0.085 C 
HETATM   19  O6  UNL     1      14.549  22.800   2.340  1.00  0.00    -0.195 OA
HETATM   20  O7  UNL     1      15.370  21.833   2.560  1.00  0.00    -0.197 OA
HETATM   21  C16 UNL     1      16.089  22.083   3.705  1.00  0.00     0.204 C 
HETATM   22  C17 UNL     1      17.556  21.912   3.240  1.00  0.00     0.082 C 
HETATM   23  O8  UNL     1      15.946  23.460   3.836  1.00  0.00    -0.311 OA
ENDROOT
BRANCH  12  24
HETATM   24  O3  UNL     1      15.279  23.361   7.924  1.00  0.00    -0.395 OA
ATOM     25  H3  UNL     1      16.088  23.859   7.948  1.00  0.00     0.210 HD
ENDBRANCH  12  24
BRANCH  16  26
HETATM   26  O5  UNL     1      12.717  24.865   3.269  1.00  0.00    -0.387 OA
ATOM     27  H5  UNL     1      12.139  25.422   3.776  1.00  0.00     0.210 HD
ENDBRANCH  16  26
TORSDOF 2
ENDMDL
