MODEL 1
REMARK VINA RESULT: -7.576460518      0.000      0.000
REMARK  7 active torsions:
REMARK  status: ('A' for Active; 'I' for Inactive)
REMARK    1  A    between atoms: C2_2  and  C4_5 
REMARK    2  A    between atoms: C4_5  and  C5_6 
REMARK    3  A    between atoms: C5_6  and  C6_7 
REMARK    4  A    between atoms: C6_7  and  C7_8 
REMARK    5  A    between atoms: C7_8  and  N1_9 
REMARK    6  A    between atoms: N1_9  and  C8_11 
REMARK    7  A    between atoms: C12_18  and  N3_19 
ROOT
HETATM    1  C8  UNL     1      13.697  22.161   3.981  1.00  0.00     0.160 A 
HETATM    2  N2  UNL     1      12.998  21.929   2.831  1.00  0.00    -0.337 N 
ATOM      3  H2  UNL     1      13.545  21.950   1.971  1.00  0.00     0.168 HD
HETATM    4  C9  UNL     1      11.718  21.681   2.682  1.00  0.00     0.073 A 
HETATM    5  C10 UNL     1      11.226  21.473   1.381  1.00  0.00     0.064 A 
HETATM    6 CL2  UNL     1      12.289  21.541  -0.019  1.00  0.00    -0.082 Cl
HETATM    7  C11 UNL     1       9.900  21.209   1.145  1.00  0.00     0.062 A 
HETATM    8  C12 UNL     1       8.981  21.131   2.158  1.00  0.00     0.105 A 
HETATM    9  C13 UNL     1       9.457  21.334   3.435  1.00  0.00     0.057 A 
HETATM   10  C14 UNL     1      10.792  21.603   3.696  1.00  0.00     0.039 A 
HETATM   11  S1  UNL     1      11.434  21.861   5.252  1.00  0.00    -0.042 SA
HETATM   12  C15 UNL     1      13.123  22.169   5.229  1.00  0.00     0.257 A 
HETATM   13  O3  UNL     1      13.765  22.384   6.311  1.00  0.00    -0.276 OA
ENDROOT
BRANCH   1  14
HETATM   14  N1  UNL     1      14.952  22.378   3.829  1.00  0.00    -0.373 N 
ATOM     15  H1  UNL     1      15.359  23.145   4.365  1.00  0.00     0.161 HD
BRANCH  14  16
HETATM   16  C7  UNL     1      15.822  21.650   2.989  1.00  0.00     0.121 C 
BRANCH  16  17
HETATM   17  C6  UNL     1      17.130  21.302   3.702  1.00  0.00     0.020 C 
BRANCH  17  18
HETATM   18  C5  UNL     1      16.958  20.911   5.116  1.00  0.00     0.004 C 
BRANCH  18  19
HETATM   19  C4  UNL     1      17.487  19.608   5.567  1.00  0.00     0.025 C 
BRANCH  19  20
HETATM   20  C2  UNL     1      16.530  18.566   6.006  1.00  0.00     0.030 C 
HETATM   21  C1  UNL     1      15.100  18.948   5.647  1.00  0.00     0.032 C 
HETATM   22  C3  UNL     1      16.789  17.289   5.180  1.00  0.00     0.032 C 
HETATM   23 CL1  UNL     1      16.607  18.060   7.687  1.00  0.00    -0.120 Cl
ENDBRANCH  19  20
ENDBRANCH  18  19
ENDBRANCH  17  18
ENDBRANCH  16  17
ENDBRANCH  14  16
ENDBRANCH   1  14
BRANCH   8  24
HETATM   24  N3  UNL     1       7.609  20.860   1.934  1.00  0.00    -0.116 N 
HETATM   25  O1  UNL     1       6.751  21.754   1.932  1.00  0.00    -0.532 OA
HETATM   26  O2  UNL     1       7.221  19.573   1.714  1.00  0.00    -0.532 OA
ENDBRANCH   8  24
TORSDOF 7
ENDMDL
MODEL 2
REMARK VINA RESULT: -7.450840148      3.133      6.743
REMARK  7 active torsions:
REMARK  status: ('A' for Active; 'I' for Inactive)
REMARK    1  A    between atoms: C2_2  and  C4_5 
REMARK    2  A    between atoms: C4_5  and  C5_6 
REMARK    3  A    between atoms: C5_6  and  C6_7 
REMARK    4  A    between atoms: C6_7  and  C7_8 
REMARK    5  A    between atoms: C7_8  and  N1_9 
REMARK    6  A    between atoms: N1_9  and  C8_11 
REMARK    7  A    between atoms: C12_18  and  N3_19 
ROOT
HETATM    1  C8  UNL     1      11.081  22.348   1.888  1.00  0.00     0.160 A 
HETATM    2  N2  UNL     1      11.669  22.298   3.120  1.00  0.00    -0.337 N 
ATOM      3  H2  UNL     1      11.071  22.558   3.904  1.00  0.00     0.168 HD
HETATM    4  C9  UNL     1      12.897  21.961   3.432  1.00  0.00     0.073 A 
HETATM    5  C10 UNL     1      13.273  21.986   4.788  1.00  0.00     0.064 A 
HETATM    6 CL2  UNL     1      12.132  22.460   6.041  1.00  0.00    -0.082 Cl
HETATM    7  C11 UNL     1      14.540  21.648   5.192  1.00  0.00     0.062 A 
HETATM    8  C12 UNL     1      15.509  21.263   4.304  1.00  0.00     0.105 A 
HETATM    9  C13 UNL     1      15.147  21.235   2.975  1.00  0.00     0.057 A 
HETATM   10  C14 UNL     1      13.875  21.574   2.545  1.00  0.00     0.039 A 
HETATM   11  S1  UNL     1      13.374  21.556   0.917  1.00  0.00    -0.042 SA
HETATM   12  C15 UNL     1      11.735  22.031   0.723  1.00  0.00     0.257 A 
HETATM   13  O3  UNL     1      11.198  22.073  -0.435  1.00  0.00    -0.276 OA
ENDROOT
BRANCH   1  14
HETATM   14  N1  UNL     1       9.853  22.717   1.877  1.00  0.00    -0.373 N 
ATOM     15  H1  UNL     1       9.589  23.432   1.198  1.00  0.00     0.161 HD
BRANCH  14  16
HETATM   16  C7  UNL     1       8.833  22.224   2.719  1.00  0.00     0.121 C 
BRANCH  16  17
HETATM   17  C6  UNL     1       8.062  21.081   2.056  1.00  0.00     0.020 C 
BRANCH  17  18
HETATM   18  C5  UNL     1       8.686  19.754   2.234  1.00  0.00     0.004 C 
BRANCH  18  19
HETATM   19  C4  UNL     1       9.311  19.425   3.531  1.00  0.00     0.025 C 
BRANCH  19  20
HETATM   20  C2  UNL     1      10.496  18.535   3.544  1.00  0.00     0.030 C 
HETATM   21  C1  UNL     1      10.081  17.070   3.573  1.00  0.00     0.032 C 
HETATM   22  C3  UNL     1      11.231  18.684   2.195  1.00  0.00     0.032 C 
HETATM   23 CL1  UNL     1      11.712  18.834   4.776  1.00  0.00    -0.120 Cl
ENDBRANCH  19  20
ENDBRANCH  18  19
ENDBRANCH  17  18
ENDBRANCH  16  17
ENDBRANCH  14  16
ENDBRANCH   1  14
BRANCH   8  24
HETATM   24  N3  UNL     1      16.822  20.909   4.703  1.00  0.00    -0.116 N 
HETATM   25  O1  UNL     1      17.820  21.225   4.042  1.00  0.00    -0.532 OA
HETATM   26  O2  UNL     1      16.990  20.197   5.852  1.00  0.00    -0.532 OA
ENDBRANCH   8  24
TORSDOF 7
ENDMDL
MODEL 3
REMARK VINA RESULT: -7.410133068      0.700      1.138
REMARK  7 active torsions:
REMARK  status: ('A' for Active; 'I' for Inactive)
REMARK    1  A    between atoms: C2_2  and  C4_5 
REMARK    2  A    between atoms: C4_5  and  C5_6 
REMARK    3  A    between atoms: C5_6  and  C6_7 
REMARK    4  A    between atoms: C6_7  and  C7_8 
REMARK    5  A    between atoms: C7_8  and  N1_9 
REMARK    6  A    between atoms: N1_9  and  C8_11 
REMARK    7  A    between atoms: C12_18  and  N3_19 
ROOT
HETATM    1  C8  UNL     1      13.681  22.118   3.930  1.00  0.00     0.160 A 
HETATM    2  N2  UNL     1      12.992  21.869   2.778  1.00  0.00    -0.337 N 
ATOM      3  H2  UNL     1      13.544  21.891   1.921  1.00  0.00     0.168 HD
HETATM    4  C9  UNL     1      11.717  21.604   2.622  1.00  0.00     0.073 A 
HETATM    5  C10 UNL     1      11.234  21.381   1.319  1.00  0.00     0.064 A 
HETATM    6 CL2  UNL     1      12.306  21.453  -0.074  1.00  0.00    -0.082 Cl
HETATM    7  C11 UNL     1       9.914  21.099   1.077  1.00  0.00     0.062 A 
HETATM    8  C12 UNL     1       8.990  21.016   2.085  1.00  0.00     0.105 A 
HETATM    9  C13 UNL     1       9.455  21.234   3.363  1.00  0.00     0.057 A 
HETATM   10  C14 UNL     1      10.785  21.521   3.631  1.00  0.00     0.039 A 
HETATM   11  S1  UNL     1      11.413  21.798   5.189  1.00  0.00    -0.042 SA
HETATM   12  C15 UNL     1      13.099  22.127   5.174  1.00  0.00     0.257 A 
HETATM   13  O3  UNL     1      13.731  22.358   6.259  1.00  0.00    -0.276 OA
ENDROOT
BRANCH   1  14
HETATM   14  N1  UNL     1      14.934  22.349   3.785  1.00  0.00    -0.373 N 
ATOM     15  H1  UNL     1      15.295  23.216   4.185  1.00  0.00     0.161 HD
BRANCH  14  16
HETATM   16  C7  UNL     1      15.859  21.514   3.122  1.00  0.00     0.121 C 
BRANCH  16  17
HETATM   17  C6  UNL     1      17.076  21.218   4.000  1.00  0.00     0.020 C 
BRANCH  17  18
HETATM   18  C5  UNL     1      16.740  20.874   5.397  1.00  0.00     0.004 C 
BRANCH  18  19
HETATM   19  C4  UNL     1      17.339  19.666   6.000  1.00  0.00     0.025 C 
BRANCH  19  20
HETATM   20  C2  UNL     1      16.522  18.433   6.083  1.00  0.00     0.030 C 
HETATM   21  C1  UNL     1      16.469  17.905   7.510  1.00  0.00     0.032 C 
HETATM   22  C3  UNL     1      15.056  18.798   5.770  1.00  0.00     0.032 C 
HETATM   23 CL1  UNL     1      16.925  17.126   4.979  1.00  0.00    -0.120 Cl
ENDBRANCH  19  20
ENDBRANCH  18  19
ENDBRANCH  17  18
ENDBRANCH  16  17
ENDBRANCH  14  16
ENDBRANCH   1  14
BRANCH   8  24
HETATM   24  N3  UNL     1       7.622  20.726   1.854  1.00  0.00    -0.116 N 
HETATM   25  O1  UNL     1       7.201  19.564   1.761  1.00  0.00    -0.532 OA
HETATM   26  O2  UNL     1       6.743  21.758   1.732  1.00  0.00    -0.532 OA
ENDBRANCH   8  24
TORSDOF 7
ENDMDL
MODEL 4
REMARK VINA RESULT: -7.376745110      4.196      8.519
REMARK  7 active torsions:
REMARK  status: ('A' for Active; 'I' for Inactive)
REMARK    1  A    between atoms: C2_2  and  C4_5 
REMARK    2  A    between atoms: C4_5  and  C5_6 
REMARK    3  A    between atoms: C5_6  and  C6_7 
REMARK    4  A    between atoms: C6_7  and  C7_8 
REMARK    5  A    between atoms: C7_8  and  N1_9 
REMARK    6  A    between atoms: N1_9  and  C8_11 
REMARK    7  A    between atoms: C12_18  and  N3_19 
ROOT
HETATM    1  C8  UNL     1      12.320  21.831   0.914  1.00  0.00     0.160 A 
HETATM    2  N2  UNL     1      13.631  22.088   1.198  1.00  0.00    -0.337 N 
ATOM      3  H2  UNL     1      14.106  22.716   0.549  1.00  0.00     0.168 HD
HETATM    4  C9  UNL     1      14.362  21.639   2.189  1.00  0.00     0.073 A 
HETATM    5  C10 UNL     1      15.705  22.052   2.269  1.00  0.00     0.064 A 
HETATM    6 CL2  UNL     1      16.397  23.141   1.073  1.00  0.00    -0.082 Cl
HETATM    7  C11 UNL     1      16.532  21.624   3.277  1.00  0.00     0.062 A 
HETATM    8  C12 UNL     1      16.101  20.776   4.263  1.00  0.00     0.105 A 
HETATM    9  C13 UNL     1      14.787  20.369   4.191  1.00  0.00     0.057 A 
HETATM   10  C14 UNL     1      13.935  20.787   3.181  1.00  0.00     0.039 A 
HETATM   11  S1  UNL     1      12.304  20.316   3.044  1.00  0.00    -0.042 SA
HETATM   12  C15 UNL     1      11.526  21.012   1.680  1.00  0.00     0.257 A 
HETATM   13  O3  UNL     1      10.299  20.764   1.427  1.00  0.00    -0.276 OA
ENDROOT
BRANCH   1  14
HETATM   14  N1  UNL     1      11.857  22.412  -0.131  1.00  0.00    -0.373 N 
ATOM     15  H1  UNL     1      12.052  21.971  -1.031  1.00  0.00     0.161 HD
BRANCH  14  16
HETATM   16  C7  UNL     1      11.101  23.604  -0.151  1.00  0.00     0.121 C 
BRANCH  16  17
HETATM   17  C6  UNL     1      10.927  24.134  -1.575  1.00  0.00     0.020 C 
BRANCH  17  18
HETATM   18  C5  UNL     1      11.445  25.504  -1.774  1.00  0.00     0.004 C 
BRANCH  18  19
HETATM   19  C4  UNL     1      12.684  25.693  -2.556  1.00  0.00     0.025 C 
BRANCH  19  20
HETATM   20  C2  UNL     1      12.571  26.058  -3.988  1.00  0.00     0.030 C 
HETATM   21  C1  UNL     1      11.971  27.448  -4.154  1.00  0.00     0.032 C 
HETATM   22  C3  UNL     1      13.994  26.198  -4.567  1.00  0.00     0.032 C 
HETATM   23 CL1  UNL     1      11.744  24.923  -5.044  1.00  0.00    -0.120 Cl
ENDBRANCH  19  20
ENDBRANCH  18  19
ENDBRANCH  17  18
ENDBRANCH  16  17
ENDBRANCH  14  16
ENDBRANCH   1  14
BRANCH   8  24
HETATM   24  N3  UNL     1      16.940  20.325   5.312  1.00  0.00    -0.116 N 
HETATM   25  O1  UNL     1      17.299  21.068   6.236  1.00  0.00    -0.532 OA
HETATM   26  O2  UNL     1      17.366  19.031   5.302  1.00  0.00    -0.532 OA
ENDBRANCH   8  24
TORSDOF 7
ENDMDL
MODEL 5
REMARK VINA RESULT: -7.334200056      4.099      7.131
REMARK  7 active torsions:
REMARK  status: ('A' for Active; 'I' for Inactive)
REMARK    1  A    between atoms: C2_2  and  C4_5 
REMARK    2  A    between atoms: C4_5  and  C5_6 
REMARK    3  A    between atoms: C5_6  and  C6_7 
REMARK    4  A    between atoms: C6_7  and  C7_8 
REMARK    5  A    between atoms: C7_8  and  N1_9 
REMARK    6  A    between atoms: N1_9  and  C8_11 
REMARK    7  A    between atoms: C12_18  and  N3_19 
ROOT
HETATM    1  C8  UNL     1      13.664  19.277   4.894  1.00  0.00     0.160 A 
HETATM    2  N2  UNL     1      13.648  20.187   3.876  1.00  0.00    -0.337 N 
ATOM      3  H2  UNL     1      12.741  20.334   3.432  1.00  0.00     0.168 HD
HETATM    4  C9  UNL     1      14.637  20.897   3.389  1.00  0.00     0.073 A 
HETATM    5  C10 UNL     1      14.368  21.777   2.326  1.00  0.00     0.064 A 
HETATM    6 CL2  UNL     1      12.749  21.929   1.655  1.00  0.00    -0.082 Cl
HETATM    7  C11 UNL     1      15.352  22.553   1.765  1.00  0.00     0.062 A 
HETATM    8  C12 UNL     1      16.648  22.518   2.207  1.00  0.00     0.105 A 
HETATM    9  C13 UNL     1      16.918  21.658   3.249  1.00  0.00     0.057 A 
HETATM   10  C14 UNL     1      15.940  20.865   3.829  1.00  0.00     0.039 A 
HETATM   11  S1  UNL     1      16.218  19.787   5.118  1.00  0.00    -0.042 SA
HETATM   12  C15 UNL     1      14.796  18.955   5.604  1.00  0.00     0.257 A 
HETATM   13  O3  UNL     1      14.826  18.108   6.558  1.00  0.00    -0.276 OA
ENDROOT
BRANCH   1  14
HETATM   14  N1  UNL     1      12.538  18.725   5.160  1.00  0.00    -0.373 N 
ATOM     15  H1  UNL     1      12.565  17.814   5.619  1.00  0.00     0.161 HD
BRANCH  14  16
HETATM   16  C7  UNL     1      11.264  19.264   4.877  1.00  0.00     0.121 C 
BRANCH  16  17
HETATM   17  C6  UNL     1      10.273  18.173   4.468  1.00  0.00     0.020 C 
BRANCH  17  18
HETATM   18  C5  UNL     1       9.525  18.475   3.230  1.00  0.00     0.004 C 
BRANCH  18  19
HETATM   19  C4  UNL     1      10.050  19.505   2.310  1.00  0.00     0.025 C 
BRANCH  19  20
HETATM   20  C2  UNL     1       9.192  20.667   1.980  1.00  0.00     0.030 C 
HETATM   21  C1  UNL     1       9.345  21.064   0.518  1.00  0.00     0.032 C 
HETATM   22  C3  UNL     1       7.717  20.230   2.092  1.00  0.00     0.032 C 
HETATM   23 CL1  UNL     1       9.338  22.090   3.002  1.00  0.00    -0.120 Cl
ENDBRANCH  19  20
ENDBRANCH  18  19
ENDBRANCH  17  18
ENDBRANCH  16  17
ENDBRANCH  14  16
ENDBRANCH   1  14
BRANCH   8  24
HETATM   24  N3  UNL     1      17.676  23.311   1.640  1.00  0.00    -0.116 N 
HETATM   25  O1  UNL     1      17.434  24.311   0.950  1.00  0.00    -0.532 OA
HETATM   26  O2  UNL     1      18.973  22.963   1.864  1.00  0.00    -0.532 OA
ENDBRANCH   8  24
TORSDOF 7
ENDMDL
