MODEL 1
REMARK VINA RESULT: -8.479418406      0.000      0.000
REMARK  6 active torsions:
REMARK  status: ('A' for Active; 'I' for Inactive)
REMARK    1  A    between atoms: C2_2  and  C3_3 
REMARK    2  A    between atoms: C2_2  and  C5_10 
REMARK       I    between atoms: C3_3  and  N1_5 
REMARK       I    between atoms: N1_5  and  C4_7 
REMARK    3  A    between atoms: C5_10  and  O3_11 
REMARK    4  A    between atoms: C5_10  and  C6_13 
REMARK    5  A    between atoms: C7_15  and  S2_16 
REMARK    6  A    between atoms: S2_16  and  C8_17 
ROOT
HETATM    1  C6  UNL     1       9.850  20.890   2.901  1.00  0.00     0.076 A 
HETATM    2  S1  UNL     1      11.359  20.118   2.428  1.00  0.00    -0.076 SA
HETATM    3  C7  UNL     1      12.470  20.978   3.385  1.00  0.00     0.067 A 
HETATM    4  C14 UNL     1      11.660  21.835   4.047  1.00  0.00     0.097 A 
HETATM    5 CL1  UNL     1      12.354  23.018   5.224  1.00  0.00    -0.079 Cl
HETATM    6  C15 UNL     1      10.330  21.792   3.801  1.00  0.00     0.159 A 
HETATM    7  F1  UNL     1       9.482  22.670   4.473  1.00  0.00    -0.203 F 
ENDROOT
BRANCH   1   8
HETATM    8  C5  UNL     1       8.543  20.528   2.390  1.00  0.00     0.076 C 
BRANCH   8   9
HETATM    9  C2  UNL     1       7.535  21.114   1.581  1.00  0.00     0.132 C 
HETATM   10  C1  UNL     1       6.845  22.386   1.869  1.00  0.00     0.027 C 
BRANCH   9  11
HETATM   11  C3  UNL     1       6.405  20.113   1.431  1.00  0.00     0.235 C 
HETATM   12  O1  UNL     1       6.326  19.384   0.436  1.00  0.00    -0.272 OA
HETATM   13  N1  UNL     1       5.445  20.036   2.464  1.00  0.00    -0.281 N 
HETATM   14  C4  UNL     1       4.330  19.153   2.397  1.00  0.00     0.335 C 
ATOM     15  H1  UNL     1       5.554  20.632   3.285  1.00  0.00     0.173 HD
HETATM   16  N2  UNL     1       4.192  18.299   1.280  1.00  0.00    -0.040 NA
HETATM   17  O2  UNL     1       3.475  19.142   3.347  1.00  0.00    -0.251 OA
ENDBRANCH   9  11
ENDBRANCH   8   9
BRANCH   8  18
HETATM   18  O3  UNL     1       8.213  19.299   2.778  1.00  0.00    -0.363 OA
ATOM     19  H3  UNL     1       8.953  18.706   2.737  1.00  0.00     0.217 HD
ENDBRANCH   8  18
ENDBRANCH   1   8
BRANCH   3  20
HETATM   20  S2  UNL     1      14.214  20.748   3.227  1.00  0.00    -0.116 SA
BRANCH  20  21
HETATM   21  C8  UNL     1      15.230  22.109   2.843  1.00  0.00     0.053 C 
HETATM   22  C9  UNL     1      16.565  22.055   3.595  1.00  0.00     0.015 C 
HETATM   23  C10 UNL     1      17.705  22.019   2.573  1.00  0.00     0.001 C 
HETATM   24  C11 UNL     1      17.711  23.230   1.672  1.00  0.00     0.000 C 
HETATM   25  C12 UNL     1      16.303  23.681   1.374  1.00  0.00     0.001 C 
HETATM   26  C13 UNL     1      15.467  22.390   1.367  1.00  0.00     0.015 C 
ENDBRANCH  20  21
ENDBRANCH   3  20
TORSDOF 6
ENDMDL
MODEL 2
REMARK VINA RESULT: -8.471162418      2.195      2.895
REMARK  6 active torsions:
REMARK  status: ('A' for Active; 'I' for Inactive)
REMARK    1  A    between atoms: C2_2  and  C3_3 
REMARK    2  A    between atoms: C2_2  and  C5_10 
REMARK       I    between atoms: C3_3  and  N1_5 
REMARK       I    between atoms: N1_5  and  C4_7 
REMARK    3  A    between atoms: C5_10  and  O3_11 
REMARK    4  A    between atoms: C5_10  and  C6_13 
REMARK    5  A    between atoms: C7_15  and  S2_16 
REMARK    6  A    between atoms: S2_16  and  C8_17 
ROOT
HETATM    1  C6  UNL     1       9.685  21.955   2.828  1.00  0.00     0.076 A 
HETATM    2  S1  UNL     1      11.011  21.218   1.937  1.00  0.00    -0.076 SA
HETATM    3  C7  UNL     1      12.296  21.455   3.026  1.00  0.00     0.067 A 
HETATM    4  C14 UNL     1      11.679  22.091   4.047  1.00  0.00     0.097 A 
HETATM    5 CL1  UNL     1      12.619  22.595   5.506  1.00  0.00    -0.079 Cl
HETATM    6  C15 UNL     1      10.353  22.346   3.947  1.00  0.00     0.159 A 
HETATM    7  F1  UNL     1       9.703  23.003   4.990  1.00  0.00    -0.203 F 
ENDROOT
BRANCH   1   8
HETATM    8  C5  UNL     1       8.315  22.023   2.360  1.00  0.00     0.076 C 
BRANCH   8   9
HETATM    9  C2  UNL     1       7.492  22.939   1.652  1.00  0.00     0.132 C 
HETATM   10  C1  UNL     1       6.020  22.995   1.730  1.00  0.00     0.027 C 
BRANCH   9  11
HETATM   11  C3  UNL     1       7.772  22.781   0.170  1.00  0.00     0.235 C 
HETATM   12  O1  UNL     1       7.891  23.768  -0.566  1.00  0.00    -0.272 OA
HETATM   13  N1  UNL     1       7.896  21.473  -0.346  1.00  0.00    -0.281 N 
HETATM   14  C4  UNL     1       8.123  21.224  -1.730  1.00  0.00     0.335 C 
ATOM     15  H1  UNL     1       7.820  20.681   0.292  1.00  0.00     0.173 HD
HETATM   16  N2  UNL     1       8.265  22.316  -2.614  1.00  0.00    -0.040 NA
HETATM   17  O2  UNL     1       8.200  20.019  -2.150  1.00  0.00    -0.251 OA
ENDBRANCH   9  11
ENDBRANCH   8   9
BRANCH   8  18
HETATM   18  O3  UNL     1       7.659  20.907   2.668  1.00  0.00    -0.363 OA
ATOM     19  H3  UNL     1       6.738  20.967   2.449  1.00  0.00     0.217 HD
ENDBRANCH   8  18
ENDBRANCH   1   8
BRANCH   3  20
HETATM   20  S2  UNL     1      13.962  21.050   2.607  1.00  0.00    -0.116 SA
BRANCH  20  21
HETATM   21  C8  UNL     1      15.146  22.319   2.461  1.00  0.00     0.053 C 
HETATM   22  C9  UNL     1      16.335  22.101   3.403  1.00  0.00     0.015 C 
HETATM   23  C10 UNL     1      17.614  21.996   2.566  1.00  0.00     0.001 C 
HETATM   24  C11 UNL     1      17.872  23.239   1.749  1.00  0.00     0.000 C 
HETATM   25  C12 UNL     1      16.575  23.839   1.265  1.00  0.00     0.001 C 
HETATM   26  C13 UNL     1      15.636  22.638   1.056  1.00  0.00     0.015 C 
ENDBRANCH  20  21
ENDBRANCH   3  20
TORSDOF 6
ENDMDL
MODEL 3
REMARK VINA RESULT: -8.403796388      1.295      1.677
REMARK  6 active torsions:
REMARK  status: ('A' for Active; 'I' for Inactive)
REMARK    1  A    between atoms: C2_2  and  C3_3 
REMARK    2  A    between atoms: C2_2  and  C5_10 
REMARK       I    between atoms: C3_3  and  N1_5 
REMARK       I    between atoms: N1_5  and  C4_7 
REMARK    3  A    between atoms: C5_10  and  O3_11 
REMARK    4  A    between atoms: C5_10  and  C6_13 
REMARK    5  A    between atoms: C7_15  and  S2_16 
REMARK    6  A    between atoms: S2_16  and  C8_17 
ROOT
HETATM    1  C6  UNL     1      10.042  20.542   3.217  1.00  0.00     0.076 A 
HETATM    2  S1  UNL     1      11.521  19.612   3.420  1.00  0.00    -0.076 SA
HETATM    3  C7  UNL     1      12.422  20.658   4.412  1.00  0.00     0.067 A 
HETATM    4  C14 UNL     1      11.567  21.694   4.568  1.00  0.00     0.097 A 
HETATM    5 CL1  UNL     1      12.046  23.127   5.560  1.00  0.00    -0.079 Cl
HETATM    6  C15 UNL     1      10.359  21.637   3.960  1.00  0.00     0.159 A 
HETATM    7  F1  UNL     1       9.468  22.698   4.109  1.00  0.00    -0.203 F 
ENDROOT
BRANCH   1   8
HETATM    8  C5  UNL     1       8.891  20.104   2.452  1.00  0.00     0.076 C 
BRANCH   8   9
HETATM    9  C2  UNL     1       8.196  20.506   1.281  1.00  0.00     0.132 C 
HETATM   10  C1  UNL     1       8.301  21.831   0.642  1.00  0.00     0.027 C 
BRANCH   9  11
HETATM   11  C3  UNL     1       6.709  20.339   1.532  1.00  0.00     0.235 C 
HETATM   12  O1  UNL     1       6.115  19.310   1.190  1.00  0.00    -0.272 OA
HETATM   13  N1  UNL     1       6.022  21.395   2.170  1.00  0.00    -0.281 N 
HETATM   14  C4  UNL     1       4.620  21.346   2.415  1.00  0.00     0.335 C 
ATOM     15  H1  UNL     1       6.546  22.219   2.464  1.00  0.00     0.173 HD
HETATM   16  N2  UNL     1       3.894  20.194   2.043  1.00  0.00    -0.040 NA
HETATM   17  O2  UNL     1       4.041  22.341   2.973  1.00  0.00    -0.251 OA
ENDBRANCH   9  11
ENDBRANCH   8   9
BRANCH   8  18
HETATM   18  O3  UNL     1       8.355  19.014   2.996  1.00  0.00    -0.363 OA
ATOM     19  H3  UNL     1       7.407  19.027   2.952  1.00  0.00     0.217 HD
ENDBRANCH   8  18
ENDBRANCH   1   8
BRANCH   3  20
HETATM   20  S2  UNL     1      14.103  20.326   4.838  1.00  0.00    -0.116 SA
BRANCH  20  21
HETATM   21  C8  UNL     1      15.371  20.728   3.714  1.00  0.00     0.053 C 
HETATM   22  C9  UNL     1      14.817  21.357   2.431  1.00  0.00     0.015 C 
HETATM   23  C10 UNL     1      15.418  22.757   2.271  1.00  0.00     0.001 C 
HETATM   24  C11 UNL     1      16.924  22.732   2.181  1.00  0.00     0.000 C 
HETATM   25  C12 UNL     1      17.494  21.648   3.062  1.00  0.00     0.001 C 
HETATM   26  C13 UNL     1      16.526  21.557   4.254  1.00  0.00     0.015 C 
ENDBRANCH  20  21
ENDBRANCH   3  20
TORSDOF 6
ENDMDL
MODEL 4
REMARK VINA RESULT: -8.331984988      0.914      1.141
REMARK  6 active torsions:
REMARK  status: ('A' for Active; 'I' for Inactive)
REMARK    1  A    between atoms: C2_2  and  C3_3 
REMARK    2  A    between atoms: C2_2  and  C5_10 
REMARK       I    between atoms: C3_3  and  N1_5 
REMARK       I    between atoms: N1_5  and  C4_7 
REMARK    3  A    between atoms: C5_10  and  O3_11 
REMARK    4  A    between atoms: C5_10  and  C6_13 
REMARK    5  A    between atoms: C7_15  and  S2_16 
REMARK    6  A    between atoms: S2_16  and  C8_17 
ROOT
HETATM    1  C6  UNL     1       9.777  21.120   2.955  1.00  0.00     0.076 A 
HETATM    2  S1  UNL     1      11.223  20.315   2.357  1.00  0.00    -0.076 SA
HETATM    3  C7  UNL     1      12.423  21.091   3.278  1.00  0.00     0.067 A 
HETATM    4  C14 UNL     1      11.690  21.946   4.025  1.00  0.00     0.097 A 
HETATM    5 CL1  UNL     1      12.500  23.049   5.205  1.00  0.00    -0.079 Cl
HETATM    6  C15 UNL     1      10.346  21.963   3.860  1.00  0.00     0.159 A 
HETATM    7  F1  UNL     1       9.576  22.841   4.621  1.00  0.00    -0.203 F 
ENDROOT
BRANCH   1   8
HETATM    8  C5  UNL     1       8.429  20.830   2.512  1.00  0.00     0.076 C 
BRANCH   8   9
HETATM    9  C2  UNL     1       7.425  21.455   1.726  1.00  0.00     0.132 C 
HETATM   10  C1  UNL     1       6.926  22.829   1.921  1.00  0.00     0.027 C 
BRANCH   9  11
HETATM   11  C3  UNL     1       6.173  20.601   1.788  1.00  0.00     0.235 C 
HETATM   12  O1  UNL     1       5.286  20.827   2.619  1.00  0.00    -0.272 OA
HETATM   13  N1  UNL     1       6.048  19.539   0.865  1.00  0.00    -0.281 N 
HETATM   14  C4  UNL     1       4.927  18.662   0.869  1.00  0.00     0.335 C 
ATOM     15  H1  UNL     1       6.785  19.396   0.174  1.00  0.00     0.173 HD
HETATM   16  N2  UNL     1       3.886  18.876   1.799  1.00  0.00    -0.040 NA
HETATM   17  O2  UNL     1       4.875  17.699   0.029  1.00  0.00    -0.251 OA
ENDBRANCH   9  11
ENDBRANCH   8   9
BRANCH   8  18
HETATM   18  O3  UNL     1       8.037  19.638   2.956  1.00  0.00    -0.363 OA
ATOM     19  H3  UNL     1       8.682  19.247   3.534  1.00  0.00     0.217 HD
ENDBRANCH   8  18
ENDBRANCH   1   8
BRANCH   3  20
HETATM   20  S2  UNL     1      14.144  20.804   3.001  1.00  0.00    -0.116 SA
BRANCH  20  21
HETATM   21  C8  UNL     1      15.206  22.154   2.716  1.00  0.00     0.053 C 
HETATM   22  C9  UNL     1      16.508  22.034   3.516  1.00  0.00     0.015 C 
HETATM   23  C10 UNL     1      17.687  22.013   2.538  1.00  0.00     0.001 C 
HETATM   24  C11 UNL     1      17.758  23.261   1.692  1.00  0.00     0.000 C 
HETATM   25  C12 UNL     1      16.373  23.759   1.359  1.00  0.00     0.001 C 
HETATM   26  C13 UNL     1      15.508  22.491   1.263  1.00  0.00     0.015 C 
ENDBRANCH  20  21
ENDBRANCH   3  20
TORSDOF 6
ENDMDL
MODEL 5
REMARK VINA RESULT: -8.310535350      1.433      2.023
REMARK  6 active torsions:
REMARK  status: ('A' for Active; 'I' for Inactive)
REMARK    1  A    between atoms: C2_2  and  C3_3 
REMARK    2  A    between atoms: C2_2  and  C5_10 
REMARK       I    between atoms: C3_3  and  N1_5 
REMARK       I    between atoms: N1_5  and  C4_7 
REMARK    3  A    between atoms: C5_10  and  O3_11 
REMARK    4  A    between atoms: C5_10  and  C6_13 
REMARK    5  A    between atoms: C7_15  and  S2_16 
REMARK    6  A    between atoms: S2_16  and  C8_17 
ROOT
HETATM    1  C6  UNL     1      10.014  20.580   3.152  1.00  0.00     0.076 A 
HETATM    2  S1  UNL     1      11.521  19.704   3.386  1.00  0.00    -0.076 SA
HETATM    3  C7  UNL     1      12.376  20.798   4.367  1.00  0.00     0.067 A 
HETATM    4  C14 UNL     1      11.487  21.808   4.496  1.00  0.00     0.097 A 
HETATM    5 CL1  UNL     1      11.908  23.274   5.465  1.00  0.00    -0.079 Cl
HETATM    6  C15 UNL     1      10.287  21.699   3.877  1.00  0.00     0.159 A 
HETATM    7  F1  UNL     1       9.360  22.732   3.998  1.00  0.00    -0.203 F 
ENDROOT
BRANCH   1   8
HETATM    8  C5  UNL     1       8.886  20.091   2.385  1.00  0.00     0.076 C 
BRANCH   8   9
HETATM    9  C2  UNL     1       8.233  20.404   1.163  1.00  0.00     0.132 C 
HETATM   10  C1  UNL     1       8.887  20.985  -0.025  1.00  0.00     0.027 C 
BRANCH   9  11
HETATM   11  C3  UNL     1       7.101  21.368   1.463  1.00  0.00     0.235 C 
HETATM   12  O1  UNL     1       7.220  22.580   1.245  1.00  0.00    -0.272 OA
HETATM   13  N1  UNL     1       5.905  20.842   1.998  1.00  0.00    -0.281 N 
HETATM   14  C4  UNL     1       4.802  21.672   2.345  1.00  0.00     0.335 C 
ATOM     15  H1  UNL     1       5.830  19.834   2.140  1.00  0.00     0.173 HD
HETATM   16  N2  UNL     1       4.886  23.063   2.117  1.00  0.00    -0.040 NA
HETATM   17  O2  UNL     1       3.751  21.147   2.851  1.00  0.00    -0.251 OA
ENDBRANCH   9  11
ENDBRANCH   8   9
BRANCH   8  18
HETATM   18  O3  UNL     1       8.323  19.050   2.993  1.00  0.00    -0.363 OA
ATOM     19  H3  UNL     1       7.910  18.461   2.373  1.00  0.00     0.217 HD
ENDBRANCH   8  18
ENDBRANCH   1   8
BRANCH   3  20
HETATM   20  S2  UNL     1      14.063  20.530   4.815  1.00  0.00    -0.116 SA
BRANCH  20  21
HETATM   21  C8  UNL     1      15.323  20.854   3.658  1.00  0.00     0.053 C 
HETATM   22  C9  UNL     1      14.767  21.460   2.365  1.00  0.00     0.015 C 
HETATM   23  C10 UNL     1      15.408  22.835   2.150  1.00  0.00     0.001 C 
HETATM   24  C11 UNL     1      16.911  22.759   2.035  1.00  0.00     0.000 C 
HETATM   25  C12 UNL     1      17.462  21.686   2.941  1.00  0.00     0.001 C 
HETATM   26  C13 UNL     1      16.513  21.663   4.151  1.00  0.00     0.015 C 
ENDBRANCH  20  21
ENDBRANCH   3  20
TORSDOF 6
ENDMDL
