MODEL 1
REMARK VINA RESULT: -7.160177569      0.000      0.000
REMARK  4 active torsions:
REMARK  status: ('A' for Active; 'I' for Inactive)
REMARK    1  A    between atoms: C2_2  and  N1_3 
REMARK    2  A    between atoms: C2_2  and  C11_18 
REMARK    3  A    between atoms: C3_5  and  N2_6 
REMARK    4  A    between atoms: C3_5  and  C5_11 
ROOT
HETATM    1  N1  UNL     1     123.618 102.040 -45.436  1.00  0.00    -0.367 N 
ATOM      2  H1  UNL     1     123.545 102.784 -46.130  1.00  0.00     0.161 HD
HETATM    3  C3  UNL     1     123.758 102.394 -44.207  1.00  0.00     0.114 C 
ENDROOT
BRANCH   3   4
HETATM    4  N2  UNL     1     123.861 101.386 -43.228  1.00  0.00    -0.319 N 
HETATM    5  C4  UNL     1     124.931 100.967 -42.705  1.00  0.00     0.202 C 
HETATM    6  N3  UNL     1     126.177 101.515 -43.092  1.00  0.00    -0.066 NA
HETATM    7  N4  UNL     1     124.905  99.944 -41.727  1.00  0.00    -0.066 NA
ATOM      8  H2  UNL     1     122.992 100.956 -42.912  1.00  0.00     0.169 HD
ENDBRANCH   3   4
BRANCH   3   9
HETATM    9  C5  UNL     1     123.802 103.815 -43.907  1.00  0.00     0.008 A 
HETATM   10  C6  UNL     1     123.832 104.302 -42.615  1.00  0.00     0.018 A 
HETATM   11  C7  UNL     1     123.873 105.640 -42.304  1.00  0.00     0.043 A 
HETATM   12  C8  UNL     1     123.886 106.547 -43.346  1.00  0.00     0.116 A 
HETATM   13  F1  UNL     1     123.926 107.877 -43.080  1.00  0.00    -0.206 F 
HETATM   14  C9  UNL     1     123.858 106.106 -44.672  1.00  0.00     0.043 A 
HETATM   15  C10 UNL     1     123.816 104.737 -44.921  1.00  0.00     0.018 A 
ENDBRANCH   3   9
BRANCH   1  16
HETATM   16  C2  UNL     1     123.555 100.694 -45.913  1.00  0.00     0.112 C 
HETATM   17  C1  UNL     1     124.955 100.146 -46.174  1.00  0.00     0.037 C 
BRANCH  16  18
HETATM   18  C11 UNL     1     122.812 100.635 -47.204  1.00  0.00    -0.036 A 
HETATM   19  C12 UNL     1     122.540 101.795 -47.895  1.00  0.00     0.009 A 
HETATM   20  C13 UNL     1     121.852 101.761 -49.094  1.00  0.00     0.001 A 
HETATM   21  C14 UNL     1     121.431 100.573 -49.610  1.00  0.00     0.000 A 
HETATM   22  C15 UNL     1     121.687  99.395 -48.941  1.00  0.00     0.001 A 
HETATM   23  C16 UNL     1     122.383  99.449 -47.733  1.00  0.00     0.009 A 
ENDBRANCH  16  18
ENDBRANCH   1  16
TORSDOF 4
ENDMDL
MODEL 2
REMARK VINA RESULT: -7.155409516      0.026      1.039
REMARK  4 active torsions:
REMARK  status: ('A' for Active; 'I' for Inactive)
REMARK    1  A    between atoms: C2_2  and  N1_3 
REMARK    2  A    between atoms: C2_2  and  C11_18 
REMARK    3  A    between atoms: C3_5  and  N2_6 
REMARK    4  A    between atoms: C3_5  and  C5_11 
ROOT
HETATM    1  N1  UNL     1     123.623 102.039 -45.437  1.00  0.00    -0.367 N 
ATOM      2  H1  UNL     1     123.556 102.779 -46.136  1.00  0.00     0.161 HD
HETATM    3  C3  UNL     1     123.762 102.400 -44.209  1.00  0.00     0.114 C 
ENDROOT
BRANCH   3   4
HETATM    4  N2  UNL     1     123.859 101.397 -43.224  1.00  0.00    -0.319 N 
HETATM    5  C4  UNL     1     124.926 100.973 -42.700  1.00  0.00     0.202 C 
HETATM    6  N3  UNL     1     126.175 101.509 -43.091  1.00  0.00    -0.066 NA
HETATM    7  N4  UNL     1     124.892  99.956 -41.716  1.00  0.00    -0.066 NA
ATOM      8  H2  UNL     1     122.986 100.976 -42.905  1.00  0.00     0.169 HD
ENDBRANCH   3   4
BRANCH   3   9
HETATM    9  C5  UNL     1     123.813 103.822 -43.918  1.00  0.00     0.008 A 
HETATM   10  C6  UNL     1     123.844 104.784 -44.910  1.00  0.00     0.018 A 
HETATM   11  C7  UNL     1     123.893 106.135 -44.662  1.00  0.00     0.043 A 
HETATM   12  C8  UNL     1     123.911 106.551 -43.345  1.00  0.00     0.116 A 
HETATM   13  F1  UNL     1     123.959 107.877 -43.058  1.00  0.00    -0.206 F 
HETATM   14  C9  UNL     1     123.881 105.619 -42.304  1.00  0.00     0.043 A 
HETATM   15  C10 UNL     1     123.833 104.264 -42.621  1.00  0.00     0.018 A 
ENDBRANCH   3   9
BRANCH   1  16
HETATM   16  C2  UNL     1     123.555 100.691 -45.906  1.00  0.00     0.112 C 
HETATM   17  C1  UNL     1     124.953 100.132 -46.154  1.00  0.00     0.037 C 
BRANCH  16  18
HETATM   18  C11 UNL     1     122.820 100.629 -47.202  1.00  0.00    -0.036 A 
HETATM   19  C12 UNL     1     122.561 101.787 -47.902  1.00  0.00     0.009 A 
HETATM   20  C13 UNL     1     121.881 101.750 -49.105  1.00  0.00     0.001 A 
HETATM   21  C14 UNL     1     121.455 100.561 -49.617  1.00  0.00     0.000 A 
HETATM   22  C15 UNL     1     121.700  99.386 -48.940  1.00  0.00     0.001 A 
HETATM   23  C16 UNL     1     122.388  99.443 -47.726  1.00  0.00     0.009 A 
ENDBRANCH  16  18
ENDBRANCH   1  16
TORSDOF 4
ENDMDL
MODEL 3
REMARK VINA RESULT: -6.605756074      2.548      6.238
REMARK  4 active torsions:
REMARK  status: ('A' for Active; 'I' for Inactive)
REMARK    1  A    between atoms: C2_2  and  N1_3 
REMARK    2  A    between atoms: C2_2  and  C11_18 
REMARK    3  A    between atoms: C3_5  and  N2_6 
REMARK    4  A    between atoms: C3_5  and  C5_11 
ROOT
HETATM    1  N1  UNL     1     123.914 103.706 -43.702  1.00  0.00    -0.367 N 
ATOM      2  H1  UNL     1     123.059 103.964 -44.195  1.00  0.00     0.161 HD
HETATM    3  C3  UNL     1     124.513 102.633 -44.084  1.00  0.00     0.114 C 
ENDROOT
BRANCH   3   4
HETATM    4  N2  UNL     1     125.696 102.254 -43.419  1.00  0.00    -0.319 N 
HETATM    5  C4  UNL     1     125.783 101.407 -42.487  1.00  0.00     0.202 C 
HETATM    6  N3  UNL     1     124.627 100.739 -42.019  1.00  0.00    -0.066 NA
HETATM    7  N4  UNL     1     127.035 101.110 -41.896  1.00  0.00    -0.066 NA
ATOM      8  H2  UNL     1     126.560 102.705 -43.717  1.00  0.00     0.169 HD
ENDBRANCH   3   4
BRANCH   3   9
HETATM    9  C5  UNL     1     123.928 101.879 -45.180  1.00  0.00     0.008 A 
HETATM   10  C6  UNL     1     124.237 100.554 -45.419  1.00  0.00     0.018 A 
HETATM   11  C7  UNL     1     123.700  99.818 -46.448  1.00  0.00     0.043 A 
HETATM   12  C8  UNL     1     122.798 100.442 -47.288  1.00  0.00     0.116 A 
HETATM   13  F1  UNL     1     122.245  99.750 -48.316  1.00  0.00    -0.206 F 
HETATM   14  C9  UNL     1     122.451 101.781 -47.089  1.00  0.00     0.043 A 
HETATM   15  C10 UNL     1     123.031 102.473 -46.029  1.00  0.00     0.018 A 
ENDBRANCH   3   9
BRANCH   1  16
HETATM   16  C2  UNL     1     124.343 104.568 -42.645  1.00  0.00     0.112 C 
HETATM   17  C1  UNL     1     123.691 104.171 -41.324  1.00  0.00     0.037 C 
BRANCH  16  18
HETATM   18  C11 UNL     1     123.941 105.976 -42.929  1.00  0.00    -0.036 A 
HETATM   19  C12 UNL     1     123.176 106.263 -44.038  1.00  0.00     0.009 A 
HETATM   20  C13 UNL     1     122.794 107.562 -44.317  1.00  0.00     0.001 A 
HETATM   21  C14 UNL     1     123.171 108.581 -43.495  1.00  0.00     0.000 A 
HETATM   22  C15 UNL     1     123.936 108.324 -42.378  1.00  0.00     0.001 A 
HETATM   23  C16 UNL     1     124.312 107.007 -42.112  1.00  0.00     0.009 A 
ENDBRANCH  16  18
ENDBRANCH   1  16
TORSDOF 4
ENDMDL
MODEL 4
REMARK VINA RESULT: -6.453929179      3.441      5.623
REMARK  4 active torsions:
REMARK  status: ('A' for Active; 'I' for Inactive)
REMARK    1  A    between atoms: C2_2  and  N1_3 
REMARK    2  A    between atoms: C2_2  and  C11_18 
REMARK    3  A    between atoms: C3_5  and  N2_6 
REMARK    4  A    between atoms: C3_5  and  C5_11 
ROOT
HETATM    1  N1  UNL     1     121.886  99.477 -48.089  1.00  0.00    -0.367 N 
ATOM      2  H1  UNL     1     121.513  99.217 -47.176  1.00  0.00     0.161 HD
HETATM    3  C3  UNL     1     122.776 100.407 -48.117  1.00  0.00     0.114 C 
ENDROOT
BRANCH   3   4
HETATM    4  N2  UNL     1     123.308 100.786 -49.365  1.00  0.00    -0.319 N 
HETATM    5  C4  UNL     1     122.841 101.673 -50.132  1.00  0.00     0.202 C 
HETATM    6  N3  UNL     1     121.678 102.391 -49.767  1.00  0.00    -0.066 NA
HETATM    7  N4  UNL     1     123.468 101.964 -51.367  1.00  0.00    -0.066 NA
ATOM      8  H2  UNL     1     124.148 100.300 -49.678  1.00  0.00     0.169 HD
ENDBRANCH   3   4
BRANCH   3   9
HETATM    9  C5  UNL     1     123.174 101.009 -46.856  1.00  0.00     0.008 A 
HETATM   10  C6  UNL     1     122.781 102.279 -46.481  1.00  0.00     0.018 A 
HETATM   11  C7  UNL     1     123.143 102.872 -45.296  1.00  0.00     0.043 A 
HETATM   12  C8  UNL     1     123.945 102.153 -44.431  1.00  0.00     0.116 A 
HETATM   13  F1  UNL     1     124.325 102.703 -43.250  1.00  0.00    -0.206 F 
HETATM   14  C9  UNL     1     124.370 100.863 -44.762  1.00  0.00     0.043 A 
HETATM   15  C10 UNL     1     123.970 100.319 -45.979  1.00  0.00     0.018 A 
ENDBRANCH   3   9
BRANCH   1  16
HETATM   16  C2  UNL     1     121.377  98.777 -49.227  1.00  0.00     0.112 C 
HETATM   17  C1  UNL     1     120.017  99.332 -49.639  1.00  0.00     0.037 C 
BRANCH  16  18
HETATM   18  C11 UNL     1     121.185  97.334 -48.904  1.00  0.00    -0.036 A 
HETATM   19  C12 UNL     1     120.106  96.937 -48.144  1.00  0.00     0.009 A 
HETATM   20  C13 UNL     1     119.911  95.604 -47.834  1.00  0.00     0.001 A 
HETATM   21  C14 UNL     1     120.786  94.660 -48.280  1.00  0.00     0.000 A 
HETATM   22  C15 UNL     1     121.874  95.027 -49.042  1.00  0.00     0.001 A 
HETATM   23  C16 UNL     1     122.056  96.377 -49.345  1.00  0.00     0.009 A 
ENDBRANCH  16  18
ENDBRANCH   1  16
TORSDOF 4
ENDMDL
MODEL 5
REMARK VINA RESULT: -6.406995731      3.445      5.587
REMARK  4 active torsions:
REMARK  status: ('A' for Active; 'I' for Inactive)
REMARK    1  A    between atoms: C2_2  and  N1_3 
REMARK    2  A    between atoms: C2_2  and  C11_18 
REMARK    3  A    between atoms: C3_5  and  N2_6 
REMARK    4  A    between atoms: C3_5  and  C5_11 
ROOT
HETATM    1  N1  UNL     1     121.897  99.463 -48.087  1.00  0.00    -0.367 N 
ATOM      2  H1  UNL     1     121.526  99.199 -47.174  1.00  0.00     0.161 HD
HETATM    3  C3  UNL     1     122.788 100.392 -48.113  1.00  0.00     0.114 C 
ENDROOT
BRANCH   3   4
HETATM    4  N2  UNL     1     123.317 100.776 -49.360  1.00  0.00    -0.319 N 
HETATM    5  C4  UNL     1     122.847 101.665 -50.123  1.00  0.00     0.202 C 
HETATM    6  N3  UNL     1     121.683 102.380 -49.753  1.00  0.00    -0.066 NA
HETATM    7  N4  UNL     1     123.472 101.962 -51.358  1.00  0.00    -0.066 NA
ATOM      8  H2  UNL     1     124.158 100.293 -49.676  1.00  0.00     0.169 HD
ENDBRANCH   3   4
BRANCH   3   9
HETATM    9  C5  UNL     1     123.191 100.986 -46.849  1.00  0.00     0.008 A 
HETATM   10  C6  UNL     1     124.002 100.330 -45.944  1.00  0.00     0.018 A 
HETATM   11  C7  UNL     1     124.396 100.868 -44.742  1.00  0.00     0.043 A 
HETATM   12  C8  UNL     1     123.956 102.139 -44.427  1.00  0.00     0.116 A 
HETATM   13  F1  UNL     1     124.323 102.706 -43.250  1.00  0.00    -0.206 F 
HETATM   14  C9  UNL     1     123.134 102.846 -45.308  1.00  0.00     0.043 A 
HETATM   15  C10 UNL     1     122.768 102.245 -46.510  1.00  0.00     0.018 A 
ENDBRANCH   3   9
BRANCH   1  16
HETATM   16  C2  UNL     1     121.384  98.770 -49.226  1.00  0.00     0.112 C 
HETATM   17  C1  UNL     1     120.025  99.333 -49.635  1.00  0.00     0.037 C 
BRANCH  16  18
HETATM   18  C11 UNL     1     121.185  97.327 -48.910  1.00  0.00    -0.036 A 
HETATM   19  C12 UNL     1     120.108  96.932 -48.146  1.00  0.00     0.009 A 
HETATM   20  C13 UNL     1     119.907  95.598 -47.842  1.00  0.00     0.001 A 
HETATM   21  C14 UNL     1     120.775  94.652 -48.295  1.00  0.00     0.000 A 
HETATM   22  C15 UNL     1     121.862  95.016 -49.061  1.00  0.00     0.001 A 
HETATM   23  C16 UNL     1     122.049  96.367 -49.359  1.00  0.00     0.009 A 
ENDBRANCH  16  18
ENDBRANCH   1  16
TORSDOF 4
ENDMDL
