MODEL 1
REMARK VINA RESULT: -7.392746304      0.000      0.000
REMARK  3 active torsions:
REMARK  status: ('A' for Active; 'I' for Inactive)
REMARK       I    between atoms: C1_2  and  N3_16 
REMARK       I    between atoms: N2_3  and  C2_5 
REMARK    1  A    between atoms: C2_5  and  C3_7 
REMARK    2  A    between atoms: C4_8  and  C5_9 
REMARK    3  A    between atoms: N3_16  and  C11_18 
ROOT
HETATM    1  N1  UNL     1     122.609  99.847 -49.351  1.00  0.00    -0.063 NA
HETATM    2  C1  UNL     1     122.152  99.027 -48.275  1.00  0.00     0.191 C 
HETATM    3  N2  UNL     1     122.492  99.360 -47.085  1.00  0.00    -0.298 N 
ATOM      4  H2  UNL     1     122.177  98.787 -46.302  1.00  0.00     0.171 HD
HETATM    5  C2  UNL     1     123.291 100.498 -46.822  1.00  0.00     0.247 C 
HETATM    6  O1  UNL     1     123.161 101.501 -47.575  1.00  0.00    -0.268 OA
HETATM    7  N3  UNL     1     121.353  97.893 -48.567  1.00  0.00    -0.359 N 
ATOM      8  H3  UNL     1     120.429  97.796 -48.146  1.00  0.00     0.162 HD
ENDROOT
BRANCH   5   9
HETATM    9  C3  UNL     1     124.248 100.548 -45.724  1.00  0.00     0.075 C 
HETATM   10  C4  UNL     1     124.076 101.354 -44.715  1.00  0.00     0.017 C 
BRANCH  10  11
HETATM   11  C5  UNL     1     124.992 101.451 -43.590  1.00  0.00    -0.036 A 
HETATM   12  C6  UNL     1     126.112 100.606 -43.559  1.00  0.00     0.014 A 
HETATM   13  C7  UNL     1     126.982 100.691 -42.503  1.00  0.00     0.043 A 
HETATM   14  C8  UNL     1     126.816 101.568 -41.458  1.00  0.00     0.116 A 
HETATM   15  F1  UNL     1     127.704 101.627 -40.418  1.00  0.00    -0.206 F 
HETATM   16  C9  UNL     1     125.718 102.390 -41.498  1.00  0.00     0.043 A 
HETATM   17  C10 UNL     1     124.818 102.326 -42.558  1.00  0.00     0.014 A 
ENDBRANCH  10  11
ENDBRANCH   5   9
BRANCH   7  18
HETATM   18  C11 UNL     1     121.851  96.872 -49.464  1.00  0.00     0.091 C 
HETATM   19  C12 UNL     1     121.812  95.500 -48.829  1.00  0.00     0.052 C 
HETATM   20  C13 UNL     1     121.785  94.606 -50.044  1.00  0.00    -0.029 C 
HETATM   21  C14 UNL     1     121.292  95.286 -51.072  1.00  0.00    -0.029 C 
HETATM   22  C15 UNL     1     120.944  96.675 -50.666  1.00  0.00     0.052 C 
ENDBRANCH   7  18
TORSDOF 3
ENDMDL
MODEL 2
REMARK VINA RESULT: -7.353559260      0.100      1.059
REMARK  3 active torsions:
REMARK  status: ('A' for Active; 'I' for Inactive)
REMARK       I    between atoms: C1_2  and  N3_16 
REMARK       I    between atoms: N2_3  and  C2_5 
REMARK    1  A    between atoms: C2_5  and  C3_7 
REMARK    2  A    between atoms: C4_8  and  C5_9 
REMARK    3  A    between atoms: N3_16  and  C11_18 
ROOT
HETATM    1  N1  UNL     1     122.498  99.907 -49.342  1.00  0.00    -0.063 NA
HETATM    2  C1  UNL     1     122.075  99.043 -48.287  1.00  0.00     0.191 C 
HETATM    3  N2  UNL     1     122.433  99.337 -47.092  1.00  0.00    -0.298 N 
ATOM      4  H2  UNL     1     122.141  98.731 -46.325  1.00  0.00     0.171 HD
HETATM    5  C2  UNL     1     123.221 100.476 -46.804  1.00  0.00     0.247 C 
HETATM    6  O1  UNL     1     123.063 101.503 -47.517  1.00  0.00    -0.268 OA
HETATM    7  N3  UNL     1     121.285  97.908 -48.605  1.00  0.00    -0.359 N 
ATOM      8  H3  UNL     1     120.371  97.783 -48.170  1.00  0.00     0.162 HD
ENDROOT
BRANCH   5   9
HETATM    9  C3  UNL     1     124.199 100.500 -45.724  1.00  0.00     0.075 C 
HETATM   10  C4  UNL     1     124.096 101.346 -44.738  1.00  0.00     0.017 C 
BRANCH  10  11
HETATM   11  C5  UNL     1     125.035 101.421 -43.632  1.00  0.00    -0.036 A 
HETATM   12  C6  UNL     1     124.796 102.351 -42.607  1.00  0.00     0.014 A 
HETATM   13  C7  UNL     1     125.677 102.429 -41.559  1.00  0.00     0.043 A 
HETATM   14  C8  UNL     1     126.796 101.638 -41.454  1.00  0.00     0.116 A 
HETATM   15  F1  UNL     1     127.655 101.742 -40.394  1.00  0.00    -0.206 F 
HETATM   16  C9  UNL     1     127.020 100.733 -42.461  1.00  0.00     0.043 A 
HETATM   17  C10 UNL     1     126.143 100.631 -43.537  1.00  0.00     0.014 A 
ENDBRANCH  10  11
ENDBRANCH   5   9
BRANCH   7  18
HETATM   18  C11 UNL     1     121.779  96.928 -49.548  1.00  0.00     0.091 C 
HETATM   19  C12 UNL     1     121.810  95.540 -48.950  1.00  0.00     0.052 C 
HETATM   20  C13 UNL     1     121.764  94.676 -50.185  1.00  0.00    -0.029 C 
HETATM   21  C14 UNL     1     121.208  95.366 -51.175  1.00  0.00    -0.029 C 
HETATM   22  C15 UNL     1     120.832  96.731 -50.718  1.00  0.00     0.052 C 
ENDBRANCH   7  18
TORSDOF 3
ENDMDL
MODEL 3
REMARK VINA RESULT: -7.260298945      5.788     10.064
REMARK  3 active torsions:
REMARK  status: ('A' for Active; 'I' for Inactive)
REMARK       I    between atoms: C1_2  and  N3_16 
REMARK       I    between atoms: N2_3  and  C2_5 
REMARK    1  A    between atoms: C2_5  and  C3_7 
REMARK    2  A    between atoms: C4_8  and  C5_9 
REMARK    3  A    between atoms: N3_16  and  C11_18 
ROOT
HETATM    1  N1  UNL     1     124.900 105.820 -40.846  1.00  0.00    -0.063 NA
HETATM    2  C1  UNL     1     123.997 106.107 -41.914  1.00  0.00     0.191 C 
HETATM    3  N2  UNL     1     123.606 105.131 -42.645  1.00  0.00    -0.298 N 
ATOM      4  H2  UNL     1     122.961 105.316 -43.414  1.00  0.00     0.171 HD
HETATM    5  C2  UNL     1     124.041 103.803 -42.421  1.00  0.00     0.247 C 
HETATM    6  O1  UNL     1     124.264 103.445 -41.233  1.00  0.00    -0.268 OA
HETATM    7  N3  UNL     1     123.577 107.447 -42.116  1.00  0.00    -0.359 N 
ATOM      8  H3  UNL     1     122.584 107.679 -42.107  1.00  0.00     0.162 HD
ENDROOT
BRANCH   5   9
HETATM    9  C3  UNL     1     124.238 102.848 -43.504  1.00  0.00     0.075 C 
HETATM   10  C4  UNL     1     123.345 102.695 -44.441  1.00  0.00     0.017 C 
BRANCH  10  11
HETATM   11  C5  UNL     1     123.482 101.762 -45.547  1.00  0.00    -0.036 A 
HETATM   12  C6  UNL     1     122.768 102.012 -46.730  1.00  0.00     0.014 A 
HETATM   13  C7  UNL     1     122.891 101.138 -47.779  1.00  0.00     0.043 A 
HETATM   14  C8  UNL     1     123.682 100.015 -47.737  1.00  0.00     0.116 A 
HETATM   15  F1  UNL     1     123.782  99.163 -48.803  1.00  0.00    -0.206 F 
HETATM   16  C9  UNL     1     124.375  99.781 -46.576  1.00  0.00     0.043 A 
HETATM   17  C10 UNL     1     124.271 100.651 -45.494  1.00  0.00     0.014 A 
ENDBRANCH  10  11
ENDBRANCH   5   9
BRANCH   7  18
HETATM   18  C11 UNL     1     124.562 108.485 -42.335  1.00  0.00     0.091 C 
HETATM   19  C12 UNL     1     124.845 108.687 -43.806  1.00  0.00     0.052 C 
HETATM   20  C13 UNL     1     125.372 110.100 -43.822  1.00  0.00    -0.029 C 
HETATM   21  C14 UNL     1     124.910 110.746 -42.758  1.00  0.00    -0.029 C 
HETATM   22  C15 UNL     1     124.046 109.857 -41.936  1.00  0.00     0.052 C 
ENDBRANCH   7  18
TORSDOF 3
ENDMDL
MODEL 4
REMARK VINA RESULT: -7.012127059      6.109      8.294
REMARK  3 active torsions:
REMARK  status: ('A' for Active; 'I' for Inactive)
REMARK       I    between atoms: C1_2  and  N3_16 
REMARK       I    between atoms: N2_3  and  C2_5 
REMARK    1  A    between atoms: C2_5  and  C3_7 
REMARK    2  A    between atoms: C4_8  and  C5_9 
REMARK    3  A    between atoms: N3_16  and  C11_18 
ROOT
HETATM    1  N1  UNL     1     123.781 102.870 -45.384  1.00  0.00    -0.063 NA
HETATM    2  C1  UNL     1     123.740 103.145 -43.983  1.00  0.00     0.191 C 
HETATM    3  N2  UNL     1     123.623 104.367 -43.617  1.00  0.00    -0.298 N 
ATOM      4  H2  UNL     1     123.593 104.584 -42.621  1.00  0.00     0.171 HD
HETATM    5  C2  UNL     1     123.534 105.426 -44.552  1.00  0.00     0.247 C 
HETATM    6  O1  UNL     1     122.953 105.202 -45.648  1.00  0.00    -0.268 OA
HETATM    7  N3  UNL     1     123.832 102.064 -43.069  1.00  0.00    -0.359 N 
ATOM      8  H3  UNL     1     123.095 101.914 -42.380  1.00  0.00     0.162 HD
ENDROOT
BRANCH   5   9
HETATM    9  C3  UNL     1     124.086 106.749 -44.293  1.00  0.00     0.075 C 
HETATM   10  C4  UNL     1     123.962 107.317 -43.127  1.00  0.00     0.017 C 
BRANCH  10  11
HETATM   11  C5  UNL     1     124.489 108.633 -42.805  1.00  0.00    -0.036 A 
HETATM   12  C6  UNL     1     125.094 109.383 -43.825  1.00  0.00     0.014 A 
HETATM   13  C7  UNL     1     125.595 110.625 -43.531  1.00  0.00     0.043 A 
HETATM   14  C8  UNL     1     125.538 111.184 -42.277  1.00  0.00     0.116 A 
HETATM   15  F1  UNL     1     126.047 112.428 -42.017  1.00  0.00    -0.206 F 
HETATM   16  C9  UNL     1     124.945 110.442 -41.287  1.00  0.00     0.043 A 
HETATM   17  C10 UNL     1     124.427 109.177 -41.556  1.00  0.00     0.014 A 
ENDBRANCH  10  11
ENDBRANCH   5   9
BRANCH   7  18
HETATM   18  C11 UNL     1     124.973 101.175 -43.116  1.00  0.00     0.091 C 
HETATM   19  C12 UNL     1     126.276 101.938 -43.170  1.00  0.00     0.052 C 
HETATM   20  C13 UNL     1     127.246 100.917 -42.629  1.00  0.00    -0.029 C 
HETATM   21  C14 UNL     1     126.585 100.048 -41.874  1.00  0.00    -0.029 C 
HETATM   22  C15 UNL     1     125.137 100.386 -41.829  1.00  0.00     0.052 C 
ENDBRANCH   7  18
TORSDOF 3
ENDMDL
MODEL 5
REMARK VINA RESULT: -6.982725406      6.118      8.345
REMARK  3 active torsions:
REMARK  status: ('A' for Active; 'I' for Inactive)
REMARK       I    between atoms: C1_2  and  N3_16 
REMARK       I    between atoms: N2_3  and  C2_5 
REMARK    1  A    between atoms: C2_5  and  C3_7 
REMARK    2  A    between atoms: C4_8  and  C5_9 
REMARK    3  A    between atoms: N3_16  and  C11_18 
ROOT
HETATM    1  N1  UNL     1     123.758 102.900 -45.377  1.00  0.00    -0.063 NA
HETATM    2  C1  UNL     1     123.740 103.181 -43.977  1.00  0.00     0.191 C 
HETATM    3  N2  UNL     1     123.644 104.407 -43.615  1.00  0.00    -0.298 N 
ATOM      4  H2  UNL     1     123.630 104.629 -42.619  1.00  0.00     0.171 HD
HETATM    5  C2  UNL     1     123.557 105.462 -44.553  1.00  0.00     0.247 C 
HETATM    6  O1  UNL     1     122.958 105.242 -45.640  1.00  0.00    -0.268 OA
HETATM    7  N3  UNL     1     123.829 102.104 -43.059  1.00  0.00    -0.359 N 
ATOM      8  H3  UNL     1     123.100 101.967 -42.359  1.00  0.00     0.162 HD
ENDROOT
BRANCH   5   9
HETATM    9  C3  UNL     1     124.130 106.780 -44.308  1.00  0.00     0.075 C 
HETATM   10  C4  UNL     1     123.968 107.385 -43.165  1.00  0.00     0.017 C 
BRANCH  10  11
HETATM   11  C5  UNL     1     124.514 108.696 -42.857  1.00  0.00    -0.036 A 
HETATM   12  C6  UNL     1     124.418 109.173 -41.540  1.00  0.00     0.014 A 
HETATM   13  C7  UNL     1     124.930 110.409 -41.240  1.00  0.00     0.043 A 
HETATM   14  C8  UNL     1     125.539 111.219 -42.168  1.00  0.00     0.116 A 
HETATM   15  F1  UNL     1     126.040 112.448 -41.836  1.00  0.00    -0.206 F 
HETATM   16  C9  UNL     1     125.627 110.744 -43.453  1.00  0.00     0.043 A 
HETATM   17  C10 UNL     1     125.116 109.492 -43.787  1.00  0.00     0.014 A 
ENDBRANCH  10  11
ENDBRANCH   5   9
BRANCH   7  18
HETATM   18  C11 UNL     1     124.957 101.199 -43.117  1.00  0.00     0.091 C 
HETATM   19  C12 UNL     1     126.270 101.944 -43.188  1.00  0.00     0.052 C 
HETATM   20  C13 UNL     1     127.233 100.912 -42.656  1.00  0.00    -0.029 C 
HETATM   21  C14 UNL     1     126.569 100.054 -41.891  1.00  0.00    -0.029 C 
HETATM   22  C15 UNL     1     125.126 100.411 -41.830  1.00  0.00     0.052 C 
ENDBRANCH   7  18
TORSDOF 3
ENDMDL
