MODEL 1
REMARK VINA RESULT: -7.394642930      0.000      0.000
REMARK  3 active torsions:
REMARK  status: ('A' for Active; 'I' for Inactive)
REMARK       I    between atoms: C1_2  and  N4_17 
REMARK       I    between atoms: N2_3  and  C2_5 
REMARK       I    between atoms: C2_5  and  N3_7 
REMARK    1  A    between atoms: N3_7  and  C3_9 
REMARK    2  A    between atoms: C3_9  and  C4_10 
REMARK    3  A    between atoms: N4_17  and  C10_19 
ROOT
HETATM    1  N1  UNL     1     124.650 106.112 -41.796  1.00  0.00    -0.063 NA
HETATM    2  C1  UNL     1     123.731 106.990 -42.477  1.00  0.00     0.196 C 
HETATM    3  N2  UNL     1     123.223 106.652 -43.608  1.00  0.00    -0.283 N 
ATOM      4  H2  UNL     1     122.573 107.272 -44.091  1.00  0.00     0.173 HD
HETATM    5  C2  UNL     1     123.582 105.402 -44.172  1.00  0.00     0.322 C 
HETATM    6  O1  UNL     1     124.120 105.296 -45.306  1.00  0.00    -0.247 OA
HETATM    7  N3  UNL     1     123.331 104.215 -43.442  1.00  0.00    -0.339 N 
ATOM      8  H3  UNL     1     122.895 104.276 -42.522  1.00  0.00     0.164 HD
HETATM    9  N4  UNL     1     123.374 108.243 -41.907  1.00  0.00    -0.330 N 
ATOM     10  H4  UNL     1     122.446 108.388 -41.508  1.00  0.00     0.168 HD
ENDROOT
BRANCH   9  11
HETATM   11  C10 UNL     1     124.326 109.277 -41.906  1.00  0.00     0.034 A 
HETATM   12  C11 UNL     1     124.804 109.789 -43.078  1.00  0.00     0.029 A 
HETATM   13  C12 UNL     1     125.743 110.807 -43.003  1.00  0.00     0.002 A 
HETATM   14  C13 UNL     1     126.192 111.300 -41.810  1.00  0.00     0.000 A 
HETATM   15  C14 UNL     1     125.695 110.768 -40.642  1.00  0.00     0.002 A 
HETATM   16  C15 UNL     1     124.766 109.762 -40.694  1.00  0.00     0.029 A 
ENDBRANCH   9  11
BRANCH   7  17
HETATM   17  C3  UNL     1     123.682 102.915 -43.978  1.00  0.00     0.162 C 
BRANCH  17  18
HETATM   18  C4  UNL     1     124.769 102.325 -43.158  1.00  0.00    -0.040 A 
HETATM   19  C5  UNL     1     125.509 101.246 -43.656  1.00  0.00     0.012 A 
HETATM   20  C6  UNL     1     126.531 100.660 -42.943  1.00  0.00     0.043 A 
HETATM   21  C7  UNL     1     126.863 101.130 -41.688  1.00  0.00     0.116 A 
HETATM   22  F1  UNL     1     127.876 100.534 -41.002  1.00  0.00    -0.206 F 
HETATM   23  C8  UNL     1     126.155 102.191 -41.165  1.00  0.00     0.043 A 
HETATM   24  C9  UNL     1     125.123 102.773 -41.902  1.00  0.00     0.012 A 
ENDBRANCH  17  18
ENDBRANCH   7  17
TORSDOF 3
ENDMDL
MODEL 2
REMARK VINA RESULT: -7.374420700      0.051      1.037
REMARK  3 active torsions:
REMARK  status: ('A' for Active; 'I' for Inactive)
REMARK       I    between atoms: C1_2  and  N4_17 
REMARK       I    between atoms: N2_3  and  C2_5 
REMARK       I    between atoms: C2_5  and  N3_7 
REMARK    1  A    between atoms: N3_7  and  C3_9 
REMARK    2  A    between atoms: C3_9  and  C4_10 
REMARK    3  A    between atoms: N4_17  and  C10_19 
ROOT
HETATM    1  N1  UNL     1     124.593 106.089 -41.751  1.00  0.00    -0.063 NA
HETATM    2  C1  UNL     1     123.707 106.977 -42.463  1.00  0.00     0.196 C 
HETATM    3  N2  UNL     1     123.234 106.643 -43.610  1.00  0.00    -0.283 N 
ATOM      4  H2  UNL     1     122.608 107.271 -44.115  1.00  0.00     0.173 HD
HETATM    5  C2  UNL     1     123.596 105.389 -44.161  1.00  0.00     0.322 C 
HETATM    6  O1  UNL     1     124.171 105.275 -45.276  1.00  0.00    -0.247 OA
HETATM    7  N3  UNL     1     123.307 104.206 -43.439  1.00  0.00    -0.339 N 
ATOM      8  H3  UNL     1     122.842 104.273 -42.534  1.00  0.00     0.164 HD
HETATM    9  N4  UNL     1     123.346 108.234 -41.906  1.00  0.00    -0.330 N 
ATOM     10  H4  UNL     1     122.408 108.390 -41.538  1.00  0.00     0.168 HD
ENDROOT
BRANCH   9  11
HETATM   11  C10 UNL     1     124.310 109.257 -41.873  1.00  0.00     0.034 A 
HETATM   12  C11 UNL     1     124.772 109.743 -40.684  1.00  0.00     0.029 A 
HETATM   13  C12 UNL     1     125.721 110.754 -40.724  1.00  0.00     0.002 A 
HETATM   14  C13 UNL     1     126.195 111.265 -41.900  1.00  0.00     0.000 A 
HETATM   15  C14 UNL     1     125.714 110.757 -43.086  1.00  0.00     0.002 A 
HETATM   16  C15 UNL     1     124.776 109.758 -43.068  1.00  0.00     0.029 A 
ENDBRANCH   9  11
BRANCH   7  17
HETATM   17  C3  UNL     1     123.661 102.901 -43.963  1.00  0.00     0.162 C 
BRANCH  17  18
HETATM   18  C4  UNL     1     124.759 102.327 -43.146  1.00  0.00    -0.040 A 
HETATM   19  C5  UNL     1     125.527 101.273 -43.655  1.00  0.00     0.012 A 
HETATM   20  C6  UNL     1     126.560 100.703 -42.945  1.00  0.00     0.043 A 
HETATM   21  C7  UNL     1     126.876 101.165 -41.682  1.00  0.00     0.116 A 
HETATM   22  F1  UNL     1     127.901 100.585 -41.000  1.00  0.00    -0.206 F 
HETATM   23  C8  UNL     1     126.141 102.202 -41.149  1.00  0.00     0.043 A 
HETATM   24  C9  UNL     1     125.097 102.768 -41.883  1.00  0.00     0.012 A 
ENDBRANCH  17  18
ENDBRANCH   7  17
TORSDOF 3
ENDMDL
MODEL 3
REMARK VINA RESULT: -6.985960827      0.930      1.443
REMARK  3 active torsions:
REMARK  status: ('A' for Active; 'I' for Inactive)
REMARK       I    between atoms: C1_2  and  N4_17 
REMARK       I    between atoms: N2_3  and  C2_5 
REMARK       I    between atoms: C2_5  and  N3_7 
REMARK    1  A    between atoms: N3_7  and  C3_9 
REMARK    2  A    between atoms: C3_9  and  C4_10 
REMARK    3  A    between atoms: N4_17  and  C10_19 
ROOT
HETATM    1  N1  UNL     1     124.741 106.738 -41.535  1.00  0.00    -0.063 NA
HETATM    2  C1  UNL     1     124.048 107.821 -42.190  1.00  0.00     0.196 C 
HETATM    3  N2  UNL     1     123.638 107.694 -43.401  1.00  0.00    -0.283 N 
ATOM      4  H2  UNL     1     123.148 108.459 -43.865  1.00  0.00     0.173 HD
HETATM    5  C2  UNL     1     123.876 106.473 -44.080  1.00  0.00     0.322 C 
HETATM    6  O1  UNL     1     124.526 106.408 -45.157  1.00  0.00    -0.247 OA
HETATM    7  N3  UNL     1     123.368 105.268 -43.536  1.00  0.00    -0.339 N 
ATOM      8  H3  UNL     1     122.838 105.296 -42.665  1.00  0.00     0.164 HD
HETATM    9  N4  UNL     1     123.811 109.044 -41.505  1.00  0.00    -0.330 N 
ATOM     10  H4  UNL     1     122.873 109.290 -41.188  1.00  0.00     0.168 HD
ENDROOT
BRANCH   9  11
HETATM   11  C10 UNL     1     124.897 109.907 -41.274  1.00  0.00     0.034 A 
HETATM   12  C11 UNL     1     125.426 110.044 -40.024  1.00  0.00     0.029 A 
HETATM   13  C12 UNL     1     126.495 110.914 -39.866  1.00  0.00     0.002 A 
HETATM   14  C13 UNL     1     127.019 111.623 -40.910  1.00  0.00     0.000 A 
HETATM   15  C14 UNL     1     126.469 111.467 -42.162  1.00  0.00     0.002 A 
HETATM   16  C15 UNL     1     125.412 110.612 -42.339  1.00  0.00     0.029 A 
ENDBRANCH   9  11
BRANCH   7  17
HETATM   17  C3  UNL     1     123.589 103.995 -44.194  1.00  0.00     0.162 C 
BRANCH  17  18
HETATM   18  C4  UNL     1     124.467 103.152 -43.347  1.00  0.00    -0.040 A 
HETATM   19  C5  UNL     1     125.104 102.035 -43.901  1.00  0.00     0.012 A 
HETATM   20  C6  UNL     1     125.932 101.217 -43.165  1.00  0.00     0.043 A 
HETATM   21  C7  UNL     1     126.166 101.482 -41.829  1.00  0.00     0.116 A 
HETATM   22  F1  UNL     1     126.988 100.659 -41.123  1.00  0.00    -0.206 F 
HETATM   23  C8  UNL     1     125.555 102.574 -41.250  1.00  0.00     0.043 A 
HETATM   24  C9  UNL     1     124.718 103.392 -42.012  1.00  0.00     0.012 A 
ENDBRANCH  17  18
ENDBRANCH   7  17
TORSDOF 3
ENDMDL
MODEL 4
REMARK VINA RESULT: -6.898828950      4.119      5.486
REMARK  3 active torsions:
REMARK  status: ('A' for Active; 'I' for Inactive)
REMARK       I    between atoms: C1_2  and  N4_17 
REMARK       I    between atoms: N2_3  and  C2_5 
REMARK       I    between atoms: C2_5  and  N3_7 
REMARK    1  A    between atoms: N3_7  and  C3_9 
REMARK    2  A    between atoms: C3_9  and  C4_10 
REMARK    3  A    between atoms: N4_17  and  C10_19 
ROOT
HETATM    1  N1  UNL     1     122.248 104.531 -45.659  1.00  0.00    -0.063 NA
HETATM    2  C1  UNL     1     123.141 105.263 -44.795  1.00  0.00     0.196 C 
HETATM    3  N2  UNL     1     123.932 104.640 -43.997  1.00  0.00    -0.283 N 
ATOM      4  H2  UNL     1     124.564 105.157 -43.385  1.00  0.00     0.173 HD
HETATM    5  C2  UNL     1     123.912 103.223 -43.982  1.00  0.00     0.322 C 
HETATM    6  O1  UNL     1     123.660 102.556 -42.944  1.00  0.00    -0.247 OA
HETATM    7  N3  UNL     1     124.184 102.514 -45.177  1.00  0.00    -0.339 N 
ATOM      8  H3  UNL     1     124.392 103.033 -46.031  1.00  0.00     0.164 HD
HETATM    9  N4  UNL     1     123.158 106.685 -44.813  1.00  0.00    -0.330 N 
ATOM     10  H4  UNL     1     123.939 107.191 -45.231  1.00  0.00     0.168 HD
ENDROOT
BRANCH   9  11
HETATM   11  C10 UNL     1     122.075 107.378 -44.245  1.00  0.00     0.034 A 
HETATM   12  C11 UNL     1     120.900 107.517 -44.925  1.00  0.00     0.029 A 
HETATM   13  C12 UNL     1     119.873 108.215 -44.306  1.00  0.00     0.002 A 
HETATM   14  C13 UNL     1     120.006 108.755 -43.058  1.00  0.00     0.000 A 
HETATM   15  C14 UNL     1     121.201 108.601 -42.392  1.00  0.00     0.002 A 
HETATM   16  C15 UNL     1     122.228 107.915 -42.986  1.00  0.00     0.029 A 
ENDBRANCH   9  11
BRANCH   7  17
HETATM   17  C3  UNL     1     124.173 101.065 -45.210  1.00  0.00     0.162 C 
BRANCH  17  18
HETATM   18  C4  UNL     1     123.736 100.610 -46.553  1.00  0.00    -0.040 A 
HETATM   19  C5  UNL     1     122.811 101.370 -47.279  1.00  0.00     0.012 A 
HETATM   20  C6  UNL     1     122.373 100.999 -48.531  1.00  0.00     0.043 A 
HETATM   21  C7  UNL     1     122.842  99.841 -49.120  1.00  0.00     0.116 A 
HETATM   22  F1  UNL     1     122.393  99.496 -50.357  1.00  0.00    -0.206 F 
HETATM   23  C8  UNL     1     123.754  99.068 -48.434  1.00  0.00     0.043 A 
HETATM   24  C9  UNL     1     124.188  99.459 -47.166  1.00  0.00     0.012 A 
ENDBRANCH  17  18
ENDBRANCH   7  17
TORSDOF 3
ENDMDL
MODEL 5
REMARK VINA RESULT: -6.887300819      3.917      7.989
REMARK  3 active torsions:
REMARK  status: ('A' for Active; 'I' for Inactive)
REMARK       I    between atoms: C1_2  and  N4_17 
REMARK       I    between atoms: N2_3  and  C2_5 
REMARK       I    between atoms: C2_5  and  N3_7 
REMARK    1  A    between atoms: N3_7  and  C3_9 
REMARK    2  A    between atoms: C3_9  and  C4_10 
REMARK    3  A    between atoms: N4_17  and  C10_19 
ROOT
HETATM    1  N1  UNL     1     124.338 104.247 -44.562  1.00  0.00    -0.063 NA
HETATM    2  C1  UNL     1     123.975 103.960 -43.195  1.00  0.00     0.196 C 
HETATM    3  N2  UNL     1     123.672 104.913 -42.389  1.00  0.00    -0.283 N 
ATOM      4  H2  UNL     1     123.416 104.711 -41.422  1.00  0.00     0.173 HD
HETATM    5  C2  UNL     1     123.699 106.248 -42.864  1.00  0.00     0.322 C 
HETATM    6  O1  UNL     1     124.424 107.140 -42.350  1.00  0.00    -0.247 OA
HETATM    7  N3  UNL     1     122.882 106.607 -43.964  1.00  0.00    -0.339 N 
ATOM      8  H3  UNL     1     122.286 105.902 -44.396  1.00  0.00     0.164 HD
HETATM    9  N4  UNL     1     123.949 102.620 -42.723  1.00  0.00    -0.330 N 
ATOM     10  H4  UNL     1     123.062 102.150 -42.539  1.00  0.00     0.168 HD
ENDROOT
BRANCH   9  11
HETATM   11  C10 UNL     1     125.170 101.956 -42.515  1.00  0.00     0.034 A 
HETATM   12  C11 UNL     1     125.664 101.092 -43.450  1.00  0.00     0.029 A 
HETATM   13  C12 UNL     1     126.874 100.470 -43.179  1.00  0.00     0.002 A 
HETATM   14  C13 UNL     1     127.569 100.694 -42.024  1.00  0.00     0.000 A 
HETATM   15  C14 UNL     1     127.050 101.569 -41.097  1.00  0.00     0.002 A 
HETATM   16  C15 UNL     1     125.856 102.195 -41.344  1.00  0.00     0.029 A 
ENDBRANCH   9  11
BRANCH   7  17
HETATM   17  C3  UNL     1     122.879 107.960 -44.486  1.00  0.00     0.162 C 
BRANCH  17  18
HETATM   18  C4  UNL     1     121.754 108.715 -43.881  1.00  0.00    -0.040 A 
HETATM   19  C5  UNL     1     120.517 108.087 -43.690  1.00  0.00     0.012 A 
HETATM   20  C6  UNL     1     119.439 108.737 -43.131  1.00  0.00     0.043 A 
HETATM   21  C7  UNL     1     119.548 110.055 -42.733  1.00  0.00     0.116 A 
HETATM   22  F1  UNL     1     118.469 110.674 -42.184  1.00  0.00    -0.206 F 
HETATM   23  C8  UNL     1     120.752 110.705 -42.906  1.00  0.00     0.043 A 
HETATM   24  C9  UNL     1     121.834 110.031 -43.474  1.00  0.00     0.012 A 
ENDBRANCH  17  18
ENDBRANCH   7  17
TORSDOF 3
ENDMDL
