MODEL 1
REMARK VINA RESULT: -5.138533030      0.000      0.000
REMARK  3 active torsions:
REMARK  status: ('A' for Active; 'I' for Inactive)
REMARK       I    between atoms: N1_2  and  C2_4 
REMARK       I    between atoms: C2_4  and  N2_6 
REMARK    1  A    between atoms: N2_6  and  C3_8 
REMARK    2  A    between atoms: C3_8  and  C4_9 
REMARK    3  A    between atoms: C4_9  and  C5_10 
ROOT
HETATM    1  C4  UNL     1     123.750 105.730 -43.086  1.00  0.00     0.041 C 
ENDROOT
BRANCH   1   2
HETATM    2  C3  UNL     1     123.778 104.415 -43.742  1.00  0.00     0.126 C 
BRANCH   2   3
HETATM    3  N2  UNL     1     123.841 103.247 -42.901  1.00  0.00    -0.343 N 
HETATM    4  C2  UNL     1     124.247 101.973 -43.468  1.00  0.00     0.319 C 
HETATM    5  N1  UNL     1     124.322 100.804 -42.673  1.00  0.00    -0.329 N 
HETATM    6  O1  UNL     1     124.536 101.902 -44.677  1.00  0.00    -0.247 OA
HETATM    7  C1  UNL     1     125.387 100.490 -42.029  1.00  0.00     0.123 C 
ATOM      8  H1  UNL     1     123.508 100.194 -42.610  1.00  0.00     0.169 HD
ATOM      9  H2  UNL     1     123.602 103.314 -41.911  1.00  0.00     0.164 HD
ENDBRANCH   2   3
ENDBRANCH   1   2
BRANCH   1  10
HETATM   10  C5  UNL     1     123.160 106.892 -43.777  1.00  0.00     0.023 C 
HETATM   11 BR1  UNL     1     122.065 106.518 -45.303  1.00  0.00    -0.085 Br
HETATM   12  C6  UNL     1     122.328 107.769 -42.817  1.00  0.00     0.026 C 
HETATM   13  C7  UNL     1     123.007 109.114 -42.812  1.00  0.00    -0.013 C 
HETATM   14  C8  UNL     1     122.892 109.786 -44.153  1.00  0.00     0.005 C 
HETATM   15  C11 UNL     1     124.469 108.636 -42.888  1.00  0.00     0.011 C 
HETATM   16  C9  UNL     1     123.717 108.893 -45.060  1.00  0.00     0.006 C 
HETATM   17  C10 UNL     1     124.295 107.827 -44.156  1.00  0.00     0.005 C 
ENDBRANCH   1  10
TORSDOF 3
ENDMDL
MODEL 2
REMARK VINA RESULT: -5.116619255      1.194      1.588
REMARK  3 active torsions:
REMARK  status: ('A' for Active; 'I' for Inactive)
REMARK       I    between atoms: N1_2  and  C2_4 
REMARK       I    between atoms: C2_4  and  N2_6 
REMARK    1  A    between atoms: N2_6  and  C3_8 
REMARK    2  A    between atoms: C3_8  and  C4_9 
REMARK    3  A    between atoms: C4_9  and  C5_10 
ROOT
HETATM    1  C4  UNL     1     123.794 105.950 -42.864  1.00  0.00     0.041 C 
ENDROOT
BRANCH   1   2
HETATM    2  C3  UNL     1     123.778 104.675 -43.596  1.00  0.00     0.126 C 
BRANCH   2   3
HETATM    3  N2  UNL     1     123.848 103.459 -42.826  1.00  0.00    -0.343 N 
HETATM    4  C2  UNL     1     124.200 102.212 -43.481  1.00  0.00     0.319 C 
HETATM    5  N1  UNL     1     124.280 100.997 -42.757  1.00  0.00    -0.329 N 
HETATM    6  O1  UNL     1     124.439 102.205 -44.702  1.00  0.00    -0.247 OA
HETATM    7  C1  UNL     1     125.362 100.625 -42.177  1.00  0.00     0.123 C 
ATOM      8  H1  UNL     1     123.454 100.402 -42.696  1.00  0.00     0.169 HD
ATOM      9  H2  UNL     1     123.650 103.474 -41.825  1.00  0.00     0.164 HD
ENDBRANCH   2   3
ENDBRANCH   1   2
BRANCH   1  10
HETATM   10  C5  UNL     1     123.670 107.226 -43.594  1.00  0.00     0.023 C 
HETATM   11 BR1  UNL     1     125.229 107.840 -44.521  1.00  0.00    -0.085 Br
HETATM   12  C6  UNL     1     122.512 107.193 -44.615  1.00  0.00     0.026 C 
HETATM   13  C7  UNL     1     121.551 108.264 -44.167  1.00  0.00    -0.013 C 
HETATM   14  C8  UNL     1     122.159 109.633 -44.310  1.00  0.00     0.005 C 
HETATM   15  C11 UNL     1     121.691 108.079 -42.645  1.00  0.00     0.011 C 
HETATM   16  C9  UNL     1     123.288 109.618 -43.298  1.00  0.00     0.006 C 
HETATM   17  C10 UNL     1     123.192 108.276 -42.607  1.00  0.00     0.005 C 
ENDBRANCH   1  10
TORSDOF 3
ENDMDL
MODEL 3
REMARK VINA RESULT: -5.067852769      5.314      6.860
REMARK  3 active torsions:
REMARK  status: ('A' for Active; 'I' for Inactive)
REMARK       I    between atoms: N1_2  and  C2_4 
REMARK       I    between atoms: C2_4  and  N2_6 
REMARK    1  A    between atoms: N2_6  and  C3_8 
REMARK    2  A    between atoms: C3_8  and  C4_9 
REMARK    3  A    between atoms: C4_9  and  C5_10 
ROOT
HETATM    1  C4  UNL     1     124.836 100.506 -45.162  1.00  0.00     0.041 C 
ENDROOT
BRANCH   1   2
HETATM    2  C3  UNL     1     123.722 100.466 -46.120  1.00  0.00     0.126 C 
BRANCH   2   3
HETATM    3  N2  UNL     1     124.006 100.795 -47.494  1.00  0.00    -0.343 N 
HETATM    4  C2  UNL     1     123.170 100.254 -48.551  1.00  0.00     0.319 C 
HETATM    5  N1  UNL     1     123.418 100.556 -49.912  1.00  0.00    -0.329 N 
HETATM    6  O1  UNL     1     122.215  99.512 -48.261  1.00  0.00    -0.247 OA
HETATM    7  C1  UNL     1     122.910 101.589 -50.480  1.00  0.00     0.123 C 
ATOM      8  H1  UNL     1     124.015  99.935 -50.457  1.00  0.00     0.169 HD
ATOM      9  H2  UNL     1     124.792 101.405 -47.723  1.00  0.00     0.164 HD
ENDBRANCH   2   3
ENDBRANCH   1   2
BRANCH   1  10
HETATM   10  C5  UNL     1     124.701 101.253 -43.899  1.00  0.00     0.023 C 
HETATM   11 BR1  UNL     1     123.515 102.757 -43.912  1.00  0.00    -0.085 Br
HETATM   12  C6  UNL     1     124.270 100.338 -42.733  1.00  0.00     0.026 C 
HETATM   13  C7  UNL     1     125.395 100.401 -41.734  1.00  0.00    -0.013 C 
HETATM   14  C8  UNL     1     125.509 101.775 -41.129  1.00  0.00     0.005 C 
HETATM   15  C11 UNL     1     126.577 100.455 -42.719  1.00  0.00     0.011 C 
HETATM   16  C9  UNL     1     125.929 102.636 -42.305  1.00  0.00     0.006 C 
HETATM   17  C10 UNL     1     126.093 101.680 -43.466  1.00  0.00     0.005 C 
ENDBRANCH   1  10
TORSDOF 3
ENDMDL
MODEL 4
REMARK VINA RESULT: -5.043412212      1.442      1.488
REMARK  3 active torsions:
REMARK  status: ('A' for Active; 'I' for Inactive)
REMARK       I    between atoms: N1_2  and  C2_4 
REMARK       I    between atoms: C2_4  and  N2_6 
REMARK    1  A    between atoms: N2_6  and  C3_8 
REMARK    2  A    between atoms: C3_8  and  C4_9 
REMARK    3  A    between atoms: C4_9  and  C5_10 
ROOT
HETATM    1  C4  UNL     1     124.360 106.039 -41.752  1.00  0.00     0.041 C 
ENDROOT
BRANCH   1   2
HETATM    2  C3  UNL     1     123.781 104.759 -41.319  1.00  0.00     0.126 C 
BRANCH   2   3
HETATM    3  N2  UNL     1     124.687 103.673 -41.042  1.00  0.00    -0.343 N 
HETATM    4  C2  UNL     1     124.712 102.516 -41.919  1.00  0.00     0.319 C 
HETATM    5  N1  UNL     1     125.589 101.430 -41.680  1.00  0.00    -0.329 N 
HETATM    6  O1  UNL     1     123.951 102.473 -42.903  1.00  0.00    -0.247 OA
HETATM    7  C1  UNL     1     126.783 101.408 -42.149  1.00  0.00     0.123 C 
ATOM      8  H1  UNL     1     125.262 100.643 -41.120  1.00  0.00     0.169 HD
ATOM      9  H2  UNL     1     125.308 103.716 -40.234  1.00  0.00     0.164 HD
ENDBRANCH   2   3
ENDBRANCH   1   2
BRANCH   1  10
HETATM   10  C5  UNL     1     123.859 106.706 -42.968  1.00  0.00     0.023 C 
HETATM   11 BR1  UNL     1     123.586 105.597 -44.505  1.00  0.00    -0.085 Br
HETATM   12  C6  UNL     1     122.538 107.461 -42.706  1.00  0.00     0.026 C 
HETATM   13  C7  UNL     1     122.841 108.909 -42.989  1.00  0.00    -0.013 C 
HETATM   14  C8  UNL     1     123.133 109.129 -44.450  1.00  0.00     0.005 C 
HETATM   15  C11 UNL     1     124.275 108.960 -42.430  1.00  0.00     0.011 C 
HETATM   16  C9  UNL     1     124.429 108.370 -44.661  1.00  0.00     0.006 C 
HETATM   17  C10 UNL     1     124.813 107.841 -43.296  1.00  0.00     0.005 C 
ENDBRANCH   1  10
TORSDOF 3
ENDMDL
MODEL 5
REMARK VINA RESULT: -5.022607172      1.259      1.896
REMARK  3 active torsions:
REMARK  status: ('A' for Active; 'I' for Inactive)
REMARK       I    between atoms: N1_2  and  C2_4 
REMARK       I    between atoms: C2_4  and  N2_6 
REMARK    1  A    between atoms: N2_6  and  C3_8 
REMARK    2  A    between atoms: C3_8  and  C4_9 
REMARK    3  A    between atoms: C4_9  and  C5_10 
ROOT
HETATM    1  C4  UNL     1     123.277 105.275 -44.698  1.00  0.00     0.041 C 
ENDROOT
BRANCH   1   2
HETATM    2  C3  UNL     1     124.246 104.171 -44.687  1.00  0.00     0.126 C 
BRANCH   2   3
HETATM    3  N2  UNL     1     124.190 103.239 -43.589  1.00  0.00    -0.343 N 
HETATM    4  C2  UNL     1     124.285 101.814 -43.849  1.00  0.00     0.319 C 
HETATM    5  N1  UNL     1     124.234 100.869 -42.796  1.00  0.00    -0.329 N 
HETATM    6  O1  UNL     1     124.414 101.409 -45.019  1.00  0.00    -0.247 OA
HETATM    7  C1  UNL     1     125.290 100.497 -42.168  1.00  0.00     0.123 C 
ATOM      8  H1  UNL     1     123.334 100.471 -42.529  1.00  0.00     0.169 HD
ATOM      9  H2  UNL     1     124.084 103.580 -42.633  1.00  0.00     0.164 HD
ENDBRANCH   2   3
ENDBRANCH   1   2
BRANCH   1  10
HETATM   10  C5  UNL     1     123.509 106.475 -43.873  1.00  0.00     0.023 C 
HETATM   11 BR1  UNL     1     123.939 106.181 -42.031  1.00  0.00    -0.085 Br
HETATM   12  C6  UNL     1     124.616 107.373 -44.466  1.00  0.00     0.026 C 
HETATM   13  C7  UNL     1     123.945 108.684 -44.781  1.00  0.00    -0.013 C 
HETATM   14  C8  UNL     1     123.505 109.386 -43.523  1.00  0.00     0.005 C 
HETATM   15  C11 UNL     1     122.587 108.140 -45.260  1.00  0.00     0.011 C 
HETATM   16  C9  UNL     1     122.426 108.471 -42.977  1.00  0.00     0.006 C 
HETATM   17  C10 UNL     1     122.283 107.362 -43.997  1.00  0.00     0.005 C 
ENDBRANCH   1  10
TORSDOF 3
ENDMDL
