MODEL 1
REMARK VINA RESULT: -6.841770771      0.000      0.000
REMARK  4 active torsions:
REMARK  status: ('A' for Active; 'I' for Inactive)
REMARK    1  A    between atoms: C2_2  and  C3_3 
REMARK    2  A    between atoms: C2_2  and  N1_11 
REMARK    3  A    between atoms: C3_3  and  C4_4 
REMARK       I    between atoms: C10_13  and  N3_15 
REMARK    4  A    between atoms: N3_15  and  C11_17 
ROOT
HETATM    1  N1  UNL     1     122.729 104.141 -45.448  1.00  0.00    -0.360 N 
ATOM      2  H1  UNL     1     121.772 103.953 -45.746  1.00  0.00     0.162 HD
HETATM    3  C10 UNL     1     123.107 105.376 -45.302  1.00  0.00     0.184 C 
HETATM    4  N2  UNL     1     124.462 105.580 -44.883  1.00  0.00    -0.064 NA
HETATM    5  N3  UNL     1     122.246 106.470 -45.539  1.00  0.00    -0.360 N 
ATOM      6  H3  UNL     1     121.446 106.360 -46.163  1.00  0.00     0.162 HD
ENDROOT
BRANCH   1   7
HETATM    7  C2  UNL     1     123.613 103.022 -45.205  1.00  0.00     0.084 C 
HETATM    8  C1  UNL     1     123.340 101.888 -46.197  1.00  0.00     0.032 C 
BRANCH   7   9
HETATM    9  C3  UNL     1     123.388 102.477 -43.827  1.00  0.00     0.063 C 
BRANCH   9  10
HETATM   10  C4  UNL     1     124.604 102.020 -43.151  1.00  0.00    -0.056 A 
HETATM   11  C5  UNL     1     124.990 102.612 -41.972  1.00  0.00     0.010 A 
HETATM   12  C6  UNL     1     126.148 102.189 -41.309  1.00  0.00     0.043 A 
HETATM   13  C7  UNL     1     126.934 101.177 -41.809  1.00  0.00     0.116 A 
HETATM   14  F1  UNL     1     128.057 100.748 -41.192  1.00  0.00    -0.206 F 
HETATM   15  C8  UNL     1     126.556 100.574 -42.995  1.00  0.00     0.043 A 
HETATM   16  C9  UNL     1     125.415 101.005 -43.628  1.00  0.00     0.010 A 
ENDBRANCH   9  10
ENDBRANCH   7   9
ENDBRANCH   1   7
BRANCH   5  17
HETATM   17  C11 UNL     1     122.486 107.723 -44.917  1.00  0.00     0.088 C 
HETATM   18  C12 UNL     1     121.649 108.849 -45.559  1.00  0.00     0.030 C 
HETATM   19  C13 UNL     1     121.015 109.402 -44.318  1.00  0.00    -0.012 C 
HETATM   20  C14 UNL     1     120.515 108.138 -43.640  1.00  0.00     0.011 C 
HETATM   21  C16 UNL     1     122.142 109.354 -43.277  1.00  0.00     0.011 C 
HETATM   22  C15 UNL     1     122.015 107.841 -43.513  1.00  0.00     0.009 C 
ENDBRANCH   5  17
TORSDOF 4
ENDMDL
MODEL 2
REMARK VINA RESULT: -6.692442435      1.868      2.525
REMARK  4 active torsions:
REMARK  status: ('A' for Active; 'I' for Inactive)
REMARK    1  A    between atoms: C2_2  and  C3_3 
REMARK    2  A    between atoms: C2_2  and  N1_11 
REMARK    3  A    between atoms: C3_3  and  C4_4 
REMARK       I    between atoms: C10_13  and  N3_15 
REMARK    4  A    between atoms: N3_15  and  C11_17 
ROOT
HETATM    1  N1  UNL     1     123.487 105.287 -43.481  1.00  0.00    -0.360 N 
ATOM      2  H1  UNL     1     122.926 105.109 -42.647  1.00  0.00     0.162 HD
HETATM    3  C10 UNL     1     123.901 106.497 -43.708  1.00  0.00     0.184 C 
HETATM    4  N2  UNL     1     124.684 106.688 -44.894  1.00  0.00    -0.064 NA
HETATM    5  N3  UNL     1     123.608 107.579 -42.848  1.00  0.00    -0.360 N 
ATOM      6  H3  UNL     1     122.789 107.537 -42.242  1.00  0.00     0.162 HD
ENDROOT
BRANCH   1   7
HETATM    7  C2  UNL     1     123.788 104.181 -44.363  1.00  0.00     0.084 C 
HETATM    8  C1  UNL     1     122.912 104.231 -45.617  1.00  0.00     0.032 C 
BRANCH   7   9
HETATM    9  C3  UNL     1     123.510 102.880 -43.673  1.00  0.00     0.063 C 
BRANCH   9  10
HETATM   10  C4  UNL     1     124.676 102.280 -43.021  1.00  0.00    -0.056 A 
HETATM   11  C5  UNL     1     125.361 101.267 -43.650  1.00  0.00     0.010 A 
HETATM   12  C6  UNL     1     126.479 100.680 -43.046  1.00  0.00     0.043 A 
HETATM   13  C7  UNL     1     126.928 101.092 -41.813  1.00  0.00     0.116 A 
HETATM   14  F1  UNL     1     128.003 100.545 -41.204  1.00  0.00    -0.206 F 
HETATM   15  C8  UNL     1     126.247 102.110 -41.170  1.00  0.00     0.043 A 
HETATM   16  C9  UNL     1     125.153 102.671 -41.783  1.00  0.00     0.010 A 
ENDBRANCH   9  10
ENDBRANCH   7   9
ENDBRANCH   1   7
BRANCH   5  17
HETATM   17  C11 UNL     1     124.444 108.726 -42.823  1.00  0.00     0.088 C 
HETATM   18  C12 UNL     1     123.876 109.867 -43.691  1.00  0.00     0.030 C 
HETATM   19  C13 UNL     1     123.905 110.968 -42.674  1.00  0.00    -0.012 C 
HETATM   20  C14 UNL     1     123.257 110.296 -41.475  1.00  0.00     0.011 C 
HETATM   21  C16 UNL     1     125.223 110.737 -41.922  1.00  0.00     0.011 C 
HETATM   22  C15 UNL     1     124.525 109.431 -41.518  1.00  0.00     0.009 C 
ENDBRANCH   5  17
TORSDOF 4
ENDMDL
MODEL 3
REMARK VINA RESULT: -6.418310360      3.263      7.449
REMARK  4 active torsions:
REMARK  status: ('A' for Active; 'I' for Inactive)
REMARK    1  A    between atoms: C2_2  and  C3_3 
REMARK    2  A    between atoms: C2_2  and  N1_11 
REMARK    3  A    between atoms: C3_3  and  C4_4 
REMARK       I    between atoms: C10_13  and  N3_15 
REMARK    4  A    between atoms: N3_15  and  C11_17 
ROOT
HETATM    1  N1  UNL     1     123.691 104.301 -44.222  1.00  0.00    -0.360 N 
ATOM      2  H1  UNL     1     123.682 103.766 -45.091  1.00  0.00     0.162 HD
HETATM    3  C10 UNL     1     124.026 103.697 -43.121  1.00  0.00     0.184 C 
HETATM    4  N2  UNL     1     124.021 104.498 -41.931  1.00  0.00    -0.064 NA
HETATM    5  N3  UNL     1     124.378 102.329 -43.076  1.00  0.00    -0.360 N 
ATOM      6  H3  UNL     1     124.042 101.696 -43.802  1.00  0.00     0.162 HD
ENDROOT
BRANCH   1   7
HETATM    7  C2  UNL     1     123.331 105.701 -44.265  1.00  0.00     0.084 C 
HETATM    8  C1  UNL     1     122.229 105.947 -45.298  1.00  0.00     0.032 C 
BRANCH   7   9
HETATM    9  C3  UNL     1     124.516 106.526 -44.667  1.00  0.00     0.063 C 
BRANCH   9  10
HETATM   10  C4  UNL     1     124.652 107.786 -43.934  1.00  0.00    -0.056 A 
HETATM   11  C5  UNL     1     125.373 108.820 -44.485  1.00  0.00     0.010 A 
HETATM   12  C6  UNL     1     125.515 110.033 -43.802  1.00  0.00     0.043 A 
HETATM   13  C7  UNL     1     124.943 110.233 -42.568  1.00  0.00     0.116 A 
HETATM   14  F1  UNL     1     125.063 111.393 -41.884  1.00  0.00    -0.206 F 
HETATM   15  C8  UNL     1     124.216 109.202 -42.003  1.00  0.00     0.043 A 
HETATM   16  C9  UNL     1     124.091 108.019 -42.692  1.00  0.00     0.010 A 
ENDBRANCH   9  10
ENDBRANCH   7   9
ENDBRANCH   1   7
BRANCH   5  17
HETATM   17  C11 UNL     1     125.195 101.830 -42.029  1.00  0.00     0.088 C 
HETATM   18  C12 UNL     1     125.114 100.293 -41.924  1.00  0.00     0.030 C 
HETATM   19  C13 UNL     1     126.579  99.980 -41.963  1.00  0.00    -0.012 C 
HETATM   20  C14 UNL     1     127.039 100.812 -43.148  1.00  0.00     0.011 C 
HETATM   21  C16 UNL     1     127.213 101.088 -41.111  1.00  0.00     0.011 C 
HETATM   22  C15 UNL     1     126.659 101.982 -42.230  1.00  0.00     0.009 C 
ENDBRANCH   5  17
TORSDOF 4
ENDMDL
MODEL 4
REMARK VINA RESULT: -6.380252012      3.528      7.002
REMARK  4 active torsions:
REMARK  status: ('A' for Active; 'I' for Inactive)
REMARK    1  A    between atoms: C2_2  and  C3_3 
REMARK    2  A    between atoms: C2_2  and  N1_11 
REMARK    3  A    between atoms: C3_3  and  C4_4 
REMARK       I    between atoms: C10_13  and  N3_15 
REMARK    4  A    between atoms: N3_15  and  C11_17 
ROOT
HETATM    1  N1  UNL     1     124.286 100.620 -44.672  1.00  0.00    -0.360 N 
ATOM      2  H1  UNL     1     124.196  99.707 -44.228  1.00  0.00     0.162 HD
HETATM    3  C10 UNL     1     123.859 100.767 -45.891  1.00  0.00     0.184 C 
HETATM    4  N2  UNL     1     124.011 102.072 -46.465  1.00  0.00    -0.064 NA
HETATM    5  N3  UNL     1     123.274  99.712 -46.627  1.00  0.00    -0.360 N 
ATOM      6  H3  UNL     1     123.489  98.745 -46.384  1.00  0.00     0.162 HD
ENDROOT
BRANCH   1   7
HETATM    7  C2  UNL     1     124.885 101.702 -43.922  1.00  0.00     0.084 C 
HETATM    8  C1  UNL     1     126.070 101.198 -43.094  1.00  0.00     0.032 C 
BRANCH   7   9
HETATM    9  C3  UNL     1     123.886 102.283 -42.968  1.00  0.00     0.063 C 
BRANCH   9  10
HETATM   10  C4  UNL     1     123.894 103.745 -42.899  1.00  0.00    -0.056 A 
HETATM   11  C5  UNL     1     124.035 104.369 -41.682  1.00  0.00     0.010 A 
HETATM   12  C6  UNL     1     124.046 105.766 -41.595  1.00  0.00     0.043 A 
HETATM   13  C7  UNL     1     123.918 106.557 -42.713  1.00  0.00     0.116 A 
HETATM   14  F1  UNL     1     123.925 107.907 -42.660  1.00  0.00    -0.206 F 
HETATM   15  C8  UNL     1     123.775 105.941 -43.943  1.00  0.00     0.043 A 
HETATM   16  C9  UNL     1     123.767 104.568 -44.004  1.00  0.00     0.010 A 
ENDBRANCH   9  10
ENDBRANCH   7   9
ENDBRANCH   1   7
BRANCH   5  17
HETATM   17  C11 UNL     1     122.389  99.988 -47.702  1.00  0.00     0.088 C 
HETATM   18  C12 UNL     1     123.148 100.181 -49.030  1.00  0.00     0.030 C 
HETATM   19  C13 UNL     1     122.387  99.205 -49.877  1.00  0.00    -0.012 C 
HETATM   20  C14 UNL     1     122.367  97.977 -48.983  1.00  0.00     0.011 C 
HETATM   21  C16 UNL     1     120.931  99.390 -49.428  1.00  0.00     0.011 C 
HETATM   22  C15 UNL     1     121.491  98.872 -48.096  1.00  0.00     0.009 C 
ENDBRANCH   5  17
TORSDOF 4
ENDMDL
MODEL 5
REMARK VINA RESULT: -6.324279617      3.286      7.458
REMARK  4 active torsions:
REMARK  status: ('A' for Active; 'I' for Inactive)
REMARK    1  A    between atoms: C2_2  and  C3_3 
REMARK    2  A    between atoms: C2_2  and  N1_11 
REMARK    3  A    between atoms: C3_3  and  C4_4 
REMARK       I    between atoms: C10_13  and  N3_15 
REMARK    4  A    between atoms: N3_15  and  C11_17 
ROOT
HETATM    1  N1  UNL     1     123.751 104.279 -44.209  1.00  0.00    -0.360 N 
ATOM      2  H1  UNL     1     123.743 103.756 -45.085  1.00  0.00     0.162 HD
HETATM    3  C10 UNL     1     124.084 103.662 -43.115  1.00  0.00     0.184 C 
HETATM    4  N2  UNL     1     124.077 104.448 -41.916  1.00  0.00    -0.064 NA
HETATM    5  N3  UNL     1     124.435 102.294 -43.087  1.00  0.00    -0.360 N 
ATOM      6  H3  UNL     1     124.101 101.670 -43.821  1.00  0.00     0.162 HD
ENDROOT
BRANCH   1   7
HETATM    7  C2  UNL     1     123.391 105.680 -44.235  1.00  0.00     0.084 C 
HETATM    8  C1  UNL     1     122.293 105.940 -45.269  1.00  0.00     0.032 C 
BRANCH   7   9
HETATM    9  C3  UNL     1     124.578 106.510 -44.621  1.00  0.00     0.063 C 
BRANCH   9  10
HETATM   10  C4  UNL     1     124.679 107.787 -43.911  1.00  0.00    -0.056 A 
HETATM   11  C5  UNL     1     124.157 107.905 -42.645  1.00  0.00     0.010 A 
HETATM   12  C6  UNL     1     124.244 109.116 -41.948  1.00  0.00     0.043 A 
HETATM   13  C7  UNL     1     124.850 110.220 -42.501  1.00  0.00     0.116 A 
HETATM   14  F1  UNL     1     124.949 111.402 -41.854  1.00  0.00    -0.206 F 
HETATM   15  C8  UNL     1     125.379 110.114 -43.774  1.00  0.00     0.043 A 
HETATM   16  C9  UNL     1     125.281 108.915 -44.439  1.00  0.00     0.010 A 
ENDBRANCH   9  10
ENDBRANCH   7   9
ENDBRANCH   1   7
BRANCH   5  17
HETATM   17  C11 UNL     1     125.251 101.782 -42.044  1.00  0.00     0.088 C 
HETATM   18  C12 UNL     1     125.100 100.253 -41.900  1.00  0.00     0.030 C 
HETATM   19  C13 UNL     1     126.549  99.871 -41.961  1.00  0.00    -0.012 C 
HETATM   20  C14 UNL     1     127.021 100.652 -43.175  1.00  0.00     0.011 C 
HETATM   21  C16 UNL     1     127.251 100.967 -41.149  1.00  0.00     0.011 C 
HETATM   22  C15 UNL     1     126.715 101.860 -42.279  1.00  0.00     0.009 C 
ENDBRANCH   5  17
TORSDOF 4
ENDMDL
