MODEL 1
REMARK VINA RESULT: -7.481318787      0.000      0.000
REMARK  3 active torsions:
REMARK  status: ('A' for Active; 'I' for Inactive)
REMARK       I    between atoms: C1_2  and  N3_19 
REMARK       I    between atoms: N2_3  and  C2_5 
REMARK    1  A    between atoms: C2_5  and  C3_7 
REMARK    2  A    between atoms: C7_11  and  C8_12 
REMARK    3  A    between atoms: N3_19  and  C14_21 
ROOT
HETATM    1  C3  UNL     1     124.175 103.854 -44.776  1.00  0.00     0.093 C 
HETATM    2  C4  UNL     1     123.143 103.821 -45.885  1.00  0.00     0.042 C 
HETATM    3  C5  UNL     1     122.962 102.346 -46.088  1.00  0.00    -0.029 C 
HETATM    4  C6  UNL     1     123.332 101.697 -44.990  1.00  0.00    -0.021 C 
HETATM    5  C7  UNL     1     123.792 102.661 -43.952  1.00  0.00     0.054 C 
ENDROOT
BRANCH   1   6
HETATM    6  C2  UNL     1     124.035 105.132 -44.062  1.00  0.00     0.229 C 
HETATM    7  N2  UNL     1     124.389 106.326 -44.737  1.00  0.00    -0.301 N 
HETATM    8  C1  UNL     1     123.717 107.402 -44.707  1.00  0.00     0.191 C 
ATOM      9  H2  UNL     1     125.247 106.320 -45.288  1.00  0.00     0.171 HD
HETATM   10  N1  UNL     1     122.529 107.478 -43.971  1.00  0.00    -0.063 NA
HETATM   11  N3  UNL     1     124.168 108.540 -45.425  1.00  0.00    -0.360 N 
ATOM     12  H3  UNL     1     123.708 108.810 -46.296  1.00  0.00     0.162 HD
HETATM   13  O1  UNL     1     123.611 105.178 -42.873  1.00  0.00    -0.273 OA
BRANCH  11  14
HETATM   14  C14 UNL     1     125.288 109.320 -44.918  1.00  0.00     0.084 A 
HETATM   15  C15 UNL     1     125.160 110.782 -44.770  1.00  0.00     0.027 A 
HETATM   16  C16 UNL     1     125.195 109.871 -43.548  1.00  0.00     0.027 A 
ENDBRANCH  11  14
ENDBRANCH   1   6
BRANCH   5  17
HETATM   17  C8  UNL     1     124.906 102.089 -43.182  1.00  0.00    -0.049 A 
HETATM   18  C9  UNL     1     125.700 101.098 -43.724  1.00  0.00     0.011 A 
HETATM   19  C10 UNL     1     126.759 100.546 -43.012  1.00  0.00     0.043 A 
HETATM   20  C11 UNL     1     127.035 100.986 -41.734  1.00  0.00     0.116 A 
HETATM   21  F1  UNL     1     128.051 100.486 -40.993  1.00  0.00    -0.206 F 
HETATM   22  C12 UNL     1     126.233 101.976 -41.209  1.00  0.00     0.043 A 
HETATM   23  C13 UNL     1     125.190 102.514 -41.922  1.00  0.00     0.011 A 
ENDBRANCH   5  17
TORSDOF 3
ENDMDL
MODEL 2
REMARK VINA RESULT: -7.466516558      0.027      1.028
REMARK  3 active torsions:
REMARK  status: ('A' for Active; 'I' for Inactive)
REMARK       I    between atoms: C1_2  and  N3_19 
REMARK       I    between atoms: N2_3  and  C2_5 
REMARK    1  A    between atoms: C2_5  and  C3_7 
REMARK    2  A    between atoms: C7_11  and  C8_12 
REMARK    3  A    between atoms: N3_19  and  C14_21 
ROOT
HETATM    1  C3  UNL     1     124.176 103.844 -44.791  1.00  0.00     0.093 C 
HETATM    2  C4  UNL     1     123.148 103.815 -45.904  1.00  0.00     0.042 C 
HETATM    3  C5  UNL     1     122.966 102.341 -46.112  1.00  0.00    -0.029 C 
HETATM    4  C6  UNL     1     123.332 101.689 -45.014  1.00  0.00    -0.021 C 
HETATM    5  C7  UNL     1     123.789 102.650 -43.972  1.00  0.00     0.054 C 
ENDROOT
BRANCH   1   6
HETATM    6  C2  UNL     1     124.034 105.121 -44.075  1.00  0.00     0.229 C 
HETATM    7  N2  UNL     1     124.395 106.316 -44.744  1.00  0.00    -0.301 N 
HETATM    8  C1  UNL     1     123.724 107.394 -44.715  1.00  0.00     0.191 C 
ATOM      9  H2  UNL     1     125.256 106.310 -45.290  1.00  0.00     0.171 HD
HETATM   10  N1  UNL     1     122.533 107.470 -43.986  1.00  0.00    -0.063 NA
HETATM   11  N3  UNL     1     124.182 108.532 -45.427  1.00  0.00    -0.360 N 
ATOM     12  H3  UNL     1     123.728 108.806 -46.299  1.00  0.00     0.162 HD
HETATM   13  O1  UNL     1     123.603 105.164 -42.889  1.00  0.00    -0.273 OA
BRANCH  11  14
HETATM   14  C14 UNL     1     125.301 109.309 -44.912  1.00  0.00     0.084 A 
HETATM   15  C15 UNL     1     125.182 110.773 -44.779  1.00  0.00     0.027 A 
HETATM   16  C16 UNL     1     125.192 109.874 -43.548  1.00  0.00     0.027 A 
ENDBRANCH  11  14
ENDBRANCH   1   6
BRANCH   5  17
HETATM   17  C8  UNL     1     124.900 102.075 -43.200  1.00  0.00    -0.049 A 
HETATM   18  C9  UNL     1     125.179 102.526 -41.925  1.00  0.00     0.011 A 
HETATM   19  C10 UNL     1     126.224 101.994 -41.179  1.00  0.00     0.043 A 
HETATM   20  C11 UNL     1     127.010 100.993 -41.711  1.00  0.00     0.116 A 
HETATM   21  F1  UNL     1     128.042 100.437 -41.033  1.00  0.00    -0.206 F 
HETATM   22  C12 UNL     1     126.719 100.555 -42.984  1.00  0.00     0.043 A 
HETATM   23  C13 UNL     1     125.683 101.088 -43.711  1.00  0.00     0.011 A 
ENDBRANCH   5  17
TORSDOF 3
ENDMDL
MODEL 3
REMARK VINA RESULT: -7.278037374      0.924      1.013
REMARK  3 active torsions:
REMARK  status: ('A' for Active; 'I' for Inactive)
REMARK       I    between atoms: C1_2  and  N3_19 
REMARK       I    between atoms: N2_3  and  C2_5 
REMARK    1  A    between atoms: C2_5  and  C3_7 
REMARK    2  A    between atoms: C7_11  and  C8_12 
REMARK    3  A    between atoms: N3_19  and  C14_21 
ROOT
HETATM    1  C3  UNL     1     124.049 104.534 -44.222  1.00  0.00     0.093 C 
HETATM    2  C4  UNL     1     123.003 104.724 -45.302  1.00  0.00     0.042 C 
HETATM    3  C5  UNL     1     122.776 103.313 -45.757  1.00  0.00    -0.029 C 
HETATM    4  C6  UNL     1     123.140 102.472 -44.796  1.00  0.00    -0.021 C 
HETATM    5  C7  UNL     1     123.641 103.227 -43.613  1.00  0.00     0.054 C 
ENDROOT
BRANCH   1   6
HETATM    6  C2  UNL     1     123.956 105.671 -43.294  1.00  0.00     0.229 C 
HETATM    7  N2  UNL     1     124.255 106.968 -43.780  1.00  0.00    -0.301 N 
HETATM    8  C1  UNL     1     123.582 108.013 -43.520  1.00  0.00     0.191 C 
ATOM      9  H2  UNL     1     125.071 107.069 -44.383  1.00  0.00     0.171 HD
HETATM   10  N1  UNL     1     122.451 107.944 -42.700  1.00  0.00    -0.063 NA
HETATM   11  N3  UNL     1     123.976 109.262 -44.065  1.00  0.00    -0.360 N 
ATOM     12  H3  UNL     1     123.454 109.669 -44.842  1.00  0.00     0.162 HD
HETATM   13  O1  UNL     1     123.618 105.508 -42.088  1.00  0.00    -0.273 OA
BRANCH  11  14
HETATM   14  C14 UNL     1     125.127 109.964 -43.513  1.00  0.00     0.084 A 
HETATM   15  C15 UNL     1     125.057 111.418 -43.273  1.00  0.00     0.027 A 
HETATM   16  C16 UNL     1     125.055 110.431 -42.111  1.00  0.00     0.027 A 
ENDBRANCH  11  14
ENDBRANCH   1   6
BRANCH   5  17
HETATM   17  C8  UNL     1     124.746 102.499 -42.975  1.00  0.00    -0.049 A 
HETATM   18  C9  UNL     1     125.383 101.465 -43.633  1.00  0.00     0.011 A 
HETATM   19  C10 UNL     1     126.431 100.766 -43.046  1.00  0.00     0.043 A 
HETATM   20  C11 UNL     1     126.856 101.100 -41.777  1.00  0.00     0.116 A 
HETATM   21  F1  UNL     1     127.870 100.454 -41.154  1.00  0.00    -0.206 F 
HETATM   22  C12 UNL     1     126.211 102.132 -41.134  1.00  0.00     0.043 A 
HETATM   23  C13 UNL     1     125.177 102.816 -41.724  1.00  0.00     0.011 A 
ENDBRANCH   5  17
TORSDOF 3
ENDMDL
MODEL 4
REMARK VINA RESULT: -7.144800891      1.614      2.152
REMARK  3 active torsions:
REMARK  status: ('A' for Active; 'I' for Inactive)
REMARK       I    between atoms: C1_2  and  N3_19 
REMARK       I    between atoms: N2_3  and  C2_5 
REMARK    1  A    between atoms: C2_5  and  C3_7 
REMARK    2  A    between atoms: C7_11  and  C8_12 
REMARK    3  A    between atoms: N3_19  and  C14_21 
ROOT
HETATM    1  C3  UNL     1     123.972 102.578 -45.569  1.00  0.00     0.093 C 
HETATM    2  C4  UNL     1     123.308 102.012 -46.808  1.00  0.00     0.042 C 
HETATM    3  C5  UNL     1     123.732 100.575 -46.750  1.00  0.00    -0.029 C 
HETATM    4  C6  UNL     1     124.051 100.255 -45.502  1.00  0.00    -0.021 C 
HETATM    5  C7  UNL     1     123.874 101.432 -44.607  1.00  0.00     0.054 C 
ENDROOT
BRANCH   1   6
HETATM    6  C2  UNL     1     123.214 103.766 -45.149  1.00  0.00     0.229 C 
HETATM    7  N2  UNL     1     123.913 104.830 -44.529  1.00  0.00    -0.301 N 
HETATM    8  C1  UNL     1     123.735 106.061 -44.783  1.00  0.00     0.191 C 
ATOM      9  H2  UNL     1     124.612 104.590 -43.826  1.00  0.00     0.171 HD
HETATM   10  N1  UNL     1     122.792 106.460 -45.736  1.00  0.00    -0.063 NA
HETATM   11  N3  UNL     1     124.495 107.044 -44.099  1.00  0.00    -0.360 N 
ATOM     12  H3  UNL     1     125.260 107.523 -44.576  1.00  0.00     0.162 HD
HETATM   13  O1  UNL     1     121.967 103.848 -45.331  1.00  0.00    -0.273 OA
BRANCH  11  14
HETATM   14  C14 UNL     1     124.184 107.368 -42.713  1.00  0.00     0.084 A 
HETATM   15  C15 UNL     1     124.196 108.773 -42.265  1.00  0.00     0.027 A 
HETATM   16  C16 UNL     1     122.884 108.012 -42.420  1.00  0.00     0.027 A 
ENDBRANCH  11  14
ENDBRANCH   1   6
BRANCH   5  17
HETATM   17  C8  UNL     1     124.911 101.442 -43.566  1.00  0.00    -0.049 A 
HETATM   18  C9  UNL     1     124.772 102.229 -42.440  1.00  0.00     0.011 A 
HETATM   19  C10 UNL     1     125.741 102.251 -41.444  1.00  0.00     0.043 A 
HETATM   20  C11 UNL     1     126.875 101.474 -41.568  1.00  0.00     0.116 A 
HETATM   21  F1  UNL     1     127.852 101.455 -40.632  1.00  0.00    -0.206 F 
HETATM   22  C12 UNL     1     126.998 100.695 -42.697  1.00  0.00     0.043 A 
HETATM   23  C13 UNL     1     126.034 100.681 -43.675  1.00  0.00     0.011 A 
ENDBRANCH   5  17
TORSDOF 3
ENDMDL
MODEL 5
REMARK VINA RESULT: -7.055496163      2.803      4.184
REMARK  3 active torsions:
REMARK  status: ('A' for Active; 'I' for Inactive)
REMARK       I    between atoms: C1_2  and  N3_19 
REMARK       I    between atoms: N2_3  and  C2_5 
REMARK    1  A    between atoms: C2_5  and  C3_7 
REMARK    2  A    between atoms: C7_11  and  C8_12 
REMARK    3  A    between atoms: N3_19  and  C14_21 
ROOT
HETATM    1  C3  UNL     1     123.878 103.861 -43.161  1.00  0.00     0.093 C 
HETATM    2  C4  UNL     1     124.537 103.996 -41.803  1.00  0.00     0.042 C 
HETATM    3  C5  UNL     1     125.046 102.604 -41.573  1.00  0.00    -0.029 C 
HETATM    4  C6  UNL     1     125.179 101.981 -42.738  1.00  0.00    -0.021 C 
HETATM    5  C7  UNL     1     124.778 102.882 -43.854  1.00  0.00     0.054 C 
ENDROOT
BRANCH   1   6
HETATM    6  C2  UNL     1     123.857 105.190 -43.790  1.00  0.00     0.229 C 
HETATM    7  N2  UNL     1     123.204 106.249 -43.113  1.00  0.00    -0.301 N 
HETATM    8  C1  UNL     1     123.659 107.430 -43.004  1.00  0.00     0.191 C 
ATOM      9  H2  UNL     1     122.303 106.048 -42.680  1.00  0.00     0.171 HD
HETATM   10  N1  UNL     1     124.890 107.772 -43.574  1.00  0.00    -0.063 NA
HETATM   11  N3  UNL     1     122.917 108.412 -42.300  1.00  0.00    -0.360 N 
ATOM     12  H3  UNL     1     123.209 108.701 -41.366  1.00  0.00     0.162 HD
HETATM   13  O1  UNL     1     124.405 105.395 -44.909  1.00  0.00    -0.273 OA
BRANCH  11  14
HETATM   14  C14 UNL     1     121.738 109.009 -42.913  1.00  0.00     0.084 A 
HETATM   15  C15 UNL     1     120.416 108.845 -42.279  1.00  0.00     0.027 A 
HETATM   16  C16 UNL     1     121.132 110.191 -42.261  1.00  0.00     0.027 A 
ENDBRANCH  11  14
ENDBRANCH   1   6
BRANCH   5  17
HETATM   17  C8  UNL     1     124.113 102.115 -44.916  1.00  0.00    -0.049 A 
HETATM   18  C9  UNL     1     124.391 100.774 -45.095  1.00  0.00     0.011 A 
HETATM   19  C10 UNL     1     123.771 100.031 -46.094  1.00  0.00     0.043 A 
HETATM   20  C11 UNL     1     122.858 100.633 -46.934  1.00  0.00     0.116 A 
HETATM   21  F1  UNL     1     122.224  99.961 -47.924  1.00  0.00    -0.206 F 
HETATM   22  C12 UNL     1     122.593 101.970 -46.742  1.00  0.00     0.043 A 
HETATM   23  C13 UNL     1     123.210 102.694 -45.752  1.00  0.00     0.011 A 
ENDBRANCH   5  17
TORSDOF 3
ENDMDL
