MODEL 1
REMARK VINA RESULT: -7.537553045      0.000      0.000
REMARK  4 active torsions:
REMARK  status: ('A' for Active; 'I' for Inactive)
REMARK    1  A    between atoms: C4_6  and  N2_7 
REMARK    2  A    between atoms: N2_7  and  C5_9 
REMARK    3  A    between atoms: C13_19  and  N4_20 
REMARK    4  A    between atoms: N4_20  and  C14_22 
ROOT
HETATM    1  C1  UNL     1      88.868  99.725 -44.626  1.00  0.00     0.054 C 
HETATM    2  C2  UNL     1      89.706  98.627 -44.077  1.00  0.00    -0.002 A 
HETATM    3  C3  UNL     1      89.895  97.481 -44.821  1.00  0.00     0.116 A 
HETATM    4  N1  UNL     1      90.643  96.493 -44.338  1.00  0.00    -0.201 N 
ATOM      5  H1  UNL     1      90.780  95.647 -44.891  1.00  0.00     0.183 HD
HETATM    6  C4  UNL     1      91.213  96.595 -43.145  1.00  0.00     0.679 A 
HETATM    7  N3  UNL     1      91.021  97.733 -42.415  1.00  0.00    -0.176 N 
ATOM      8  H3  UNL     1      91.465  97.801 -41.499  1.00  0.00     0.186 HD
HETATM    9  C13 UNL     1      90.284  98.762 -42.836  1.00  0.00     0.126 A 
ENDROOT
BRANCH   6  10
HETATM   10  N2  UNL     1      91.920  95.711 -42.642  1.00  0.00    -0.221 N 
ATOM     11  H2  UNL     1      92.713  96.136 -42.162  1.00  0.00     0.178 HD
BRANCH  10  12
HETATM   12  C5  UNL     1      91.982  94.335 -42.519  1.00  0.00     0.099 C 
HETATM   13  C6  UNL     1      92.933  93.931 -41.392  1.00  0.00     0.026 C 
HETATM   14  C7  UNL     1      92.503  92.491 -41.059  1.00  0.00     0.011 C 
HETATM   15  C8  UNL     1      92.951  91.660 -42.233  1.00  0.00    -0.048 C 
HETATM   16  C9  UNL     1      92.431  90.249 -42.002  1.00  0.00     0.015 C 
HETATM   17  C10 UNL     1      94.470  91.575 -42.162  1.00  0.00     0.015 C 
HETATM   18  C11 UNL     1      92.491  92.115 -43.562  1.00  0.00     0.011 C 
HETATM   19  C12 UNL     1      92.322  93.579 -43.772  1.00  0.00     0.026 C 
ENDBRANCH  10  12
ENDBRANCH   6  10
BRANCH   9  20
HETATM   20  N4  UNL     1      90.118  99.799 -42.156  1.00  0.00    -0.349 N 
ATOM     21  H4  UNL     1      89.182  99.922 -41.767  1.00  0.00     0.163 HD
BRANCH  20  22
HETATM   22  C14 UNL     1      91.047 100.830 -41.847  1.00  0.00     0.224 C 
HETATM   23  C15 UNL     1      90.494 101.929 -40.992  1.00  0.00     0.088 C 
HETATM   24  C16 UNL     1      91.749 102.434 -40.304  1.00  0.00     0.101 C 
HETATM   25 BR1  UNL     1      92.675 103.645 -41.455  1.00  0.00    -0.070 Br
HETATM   26 BR2  UNL     1      91.365 103.199 -38.579  1.00  0.00    -0.070 Br
HETATM   27  C17 UNL     1      92.508 101.110 -40.163  1.00  0.00     0.203 C 
HETATM   28  O1  UNL     1      92.226 100.382 -41.284  1.00  0.00    -0.364 OA
ENDBRANCH  20  22
ENDBRANCH   9  20
TORSDOF 4
ENDMDL
MODEL 2
REMARK VINA RESULT: -7.398245951      1.739      2.502
REMARK  4 active torsions:
REMARK  status: ('A' for Active; 'I' for Inactive)
REMARK    1  A    between atoms: C4_6  and  N2_7 
REMARK    2  A    between atoms: N2_7  and  C5_9 
REMARK    3  A    between atoms: C13_19  and  N4_20 
REMARK    4  A    between atoms: N4_20  and  C14_22 
ROOT
HETATM    1  C1  UNL     1      89.992  99.182 -46.156  1.00  0.00     0.054 C 
HETATM    2  C2  UNL     1      90.340  97.805 -45.719  1.00  0.00    -0.002 A 
HETATM    3  C3  UNL     1      89.598  96.739 -46.182  1.00  0.00     0.116 A 
HETATM    4  N1  UNL     1      89.901  95.502 -45.798  1.00  0.00    -0.201 N 
ATOM      5  H1  UNL     1      89.350  94.716 -46.143  1.00  0.00     0.183 HD
HETATM    6  C4  UNL     1      90.913  95.279 -44.970  1.00  0.00     0.679 A 
HETATM    7  N3  UNL     1      91.643  96.340 -44.516  1.00  0.00    -0.176 N 
ATOM      8  H3  UNL     1      92.419  96.156 -43.879  1.00  0.00     0.186 HD
HETATM    9  C13 UNL     1      91.395  97.604 -44.859  1.00  0.00     0.126 A 
ENDROOT
BRANCH   6  10
HETATM   10  N2  UNL     1      91.245  94.152 -44.576  1.00  0.00    -0.221 N 
ATOM     11  H2  UNL     1      90.597  93.455 -44.942  1.00  0.00     0.178 HD
BRANCH  10  12
HETATM   12  C5  UNL     1      92.208  93.533 -43.802  1.00  0.00     0.099 C 
HETATM   13  C6  UNL     1      92.410  92.082 -44.240  1.00  0.00     0.026 C 
HETATM   14  C7  UNL     1      93.796  91.726 -43.673  1.00  0.00     0.011 C 
HETATM   15  C8  UNL     1      93.605  91.636 -42.181  1.00  0.00    -0.048 C 
HETATM   16  C9  UNL     1      94.980  91.411 -41.570  1.00  0.00     0.015 C 
HETATM   17  C10 UNL     1      92.804  90.368 -41.914  1.00  0.00     0.015 C 
HETATM   18  C11 UNL     1      92.994  92.816 -41.534  1.00  0.00     0.011 C 
HETATM   19  C12 UNL     1      91.995  93.594 -42.316  1.00  0.00     0.026 C 
ENDBRANCH  10  12
ENDBRANCH   6  10
BRANCH   9  20
HETATM   20  N4  UNL     1      92.074  98.567 -44.435  1.00  0.00    -0.349 N 
ATOM     21  H4  UNL     1      92.796  98.907 -45.070  1.00  0.00     0.163 HD
BRANCH  20  22
HETATM   22  C14 UNL     1      91.981  99.254 -43.193  1.00  0.00     0.224 C 
HETATM   23  C15 UNL     1      92.401 100.690 -43.246  1.00  0.00     0.088 C 
HETATM   24  C16 UNL     1      91.595 101.280 -42.102  1.00  0.00     0.101 C 
HETATM   25 BR1  UNL     1      92.494 100.962 -40.446  1.00  0.00    -0.070 Br
HETATM   26 BR2  UNL     1      91.202 103.144 -42.385  1.00  0.00    -0.070 Br
HETATM   27  C17 UNL     1      90.329 100.426 -42.220  1.00  0.00     0.203 C 
HETATM   28  O1  UNL     1      90.739  99.176 -42.594  1.00  0.00    -0.364 OA
ENDBRANCH  20  22
ENDBRANCH   9  20
TORSDOF 4
ENDMDL
MODEL 3
REMARK VINA RESULT: -7.294704999      3.924      5.202
REMARK  4 active torsions:
REMARK  status: ('A' for Active; 'I' for Inactive)
REMARK    1  A    between atoms: C4_6  and  N2_7 
REMARK    2  A    between atoms: N2_7  and  C5_9 
REMARK    3  A    between atoms: C13_19  and  N4_20 
REMARK    4  A    between atoms: N4_20  and  C14_22 
ROOT
HETATM    1  C1  UNL     1      92.021 100.104 -43.758  1.00  0.00     0.054 C 
HETATM    2  C2  UNL     1      91.867  98.779 -43.104  1.00  0.00    -0.002 A 
HETATM    3  C3  UNL     1      92.323  98.602 -41.814  1.00  0.00     0.116 A 
HETATM    4  N1  UNL     1      92.189  97.420 -41.219  1.00  0.00    -0.201 N 
ATOM      5  H1  UNL     1      92.528  97.294 -40.264  1.00  0.00     0.183 HD
HETATM    6  C4  UNL     1      91.622  96.403 -41.852  1.00  0.00     0.679 A 
HETATM    7  N3  UNL     1      91.174  96.585 -43.130  1.00  0.00    -0.176 N 
ATOM      8  H3  UNL     1      90.739  95.796 -43.607  1.00  0.00     0.186 HD
HETATM    9  C13 UNL     1      91.275  97.742 -43.786  1.00  0.00     0.126 A 
ENDROOT
BRANCH   6  10
HETATM   10  N2  UNL     1      91.469  95.280 -41.353  1.00  0.00    -0.221 N 
ATOM     11  H2  UNL     1      90.761  95.322 -40.621  1.00  0.00     0.178 HD
BRANCH  10  12
HETATM   12  C5  UNL     1      91.947  93.987 -41.466  1.00  0.00     0.099 C 
HETATM   13  C6  UNL     1      93.473  93.959 -41.370  1.00  0.00     0.026 C 
HETATM   14  C7  UNL     1      93.782  92.498 -41.000  1.00  0.00     0.011 C 
HETATM   15  C8  UNL     1      93.477  91.699 -42.241  1.00  0.00    -0.048 C 
HETATM   16  C9  UNL     1      93.648  90.232 -41.877  1.00  0.00     0.015 C 
HETATM   17  C10 UNL     1      94.569  92.021 -43.253  1.00  0.00     0.015 C 
HETATM   18  C11 UNL     1      92.128  91.884 -42.814  1.00  0.00     0.011 C 
HETATM   19  C12 UNL     1      91.496  93.224 -42.680  1.00  0.00     0.026 C 
ENDBRANCH  10  12
ENDBRANCH   6  10
BRANCH   9  20
HETATM   20  N4  UNL     1      90.859  97.894 -44.957  1.00  0.00    -0.349 N 
ATOM     21  H4  UNL     1      91.458  98.453 -45.565  1.00  0.00     0.163 HD
BRANCH  20  22
HETATM   22  C14 UNL     1      89.670  97.398 -45.561  1.00  0.00     0.224 C 
HETATM   23  C15 UNL     1      89.282  98.094 -46.829  1.00  0.00     0.088 C 
HETATM   24  C16 UNL     1      88.498  97.005 -47.539  1.00  0.00     0.101 C 
HETATM   25 BR1  UNL     1      86.705  96.964 -46.881  1.00  0.00    -0.070 Br
HETATM   26 BR2  UNL     1      88.579  97.193 -49.454  1.00  0.00    -0.070 Br
HETATM   27  C17 UNL     1      89.289  95.779 -47.072  1.00  0.00     0.203 C 
HETATM   28  O1  UNL     1      89.674  96.036 -45.785  1.00  0.00    -0.364 OA
ENDBRANCH  20  22
ENDBRANCH   9  20
TORSDOF 4
ENDMDL
MODEL 4
REMARK VINA RESULT: -7.264147695      2.143      2.734
REMARK  4 active torsions:
REMARK  status: ('A' for Active; 'I' for Inactive)
REMARK    1  A    between atoms: C4_6  and  N2_7 
REMARK    2  A    between atoms: N2_7  and  C5_9 
REMARK    3  A    between atoms: C13_19  and  N4_20 
REMARK    4  A    between atoms: N4_20  and  C14_22 
ROOT
HETATM    1  C1  UNL     1      89.231  98.799 -46.284  1.00  0.00     0.054 C 
HETATM    2  C2  UNL     1      89.937  97.529 -45.975  1.00  0.00    -0.002 A 
HETATM    3  C3  UNL     1      89.250  96.335 -46.049  1.00  0.00     0.116 A 
HETATM    4  N1  UNL     1      89.873  95.192 -45.774  1.00  0.00    -0.201 N 
ATOM      5  H1  UNL     1      89.360  94.312 -45.830  1.00  0.00     0.183 HD
HETATM    6  C4  UNL     1      91.153  95.185 -45.429  1.00  0.00     0.679 A 
HETATM    7  N3  UNL     1      91.826  96.371 -45.357  1.00  0.00    -0.176 N 
ATOM      8  H3  UNL     1      92.811  96.352 -45.090  1.00  0.00     0.186 HD
HETATM    9  C13 UNL     1      91.266  97.552 -45.619  1.00  0.00     0.126 A 
ENDROOT
BRANCH   6  10
HETATM   10  N2  UNL     1      91.787  94.155 -45.161  1.00  0.00    -0.221 N 
ATOM     11  H2  UNL     1      91.702  93.490 -45.929  1.00  0.00     0.178 HD
BRANCH  10  12
HETATM   12  C5  UNL     1      92.574  93.616 -44.161  1.00  0.00     0.099 C 
HETATM   13  C6  UNL     1      92.689  92.099 -44.315  1.00  0.00     0.026 C 
HETATM   14  C7  UNL     1      93.946  91.749 -43.498  1.00  0.00     0.011 C 
HETATM   15  C8  UNL     1      93.551  91.943 -42.058  1.00  0.00    -0.048 C 
HETATM   16  C9  UNL     1      94.804  91.731 -41.222  1.00  0.00     0.015 C 
HETATM   17  C10 UNL     1      92.601  90.806 -41.703  1.00  0.00     0.015 C 
HETATM   18  C11 UNL     1      92.979  93.261 -41.714  1.00  0.00     0.011 C 
HETATM   19  C12 UNL     1      92.173  93.958 -42.754  1.00  0.00     0.026 C 
ENDBRANCH  10  12
ENDBRANCH   6  10
BRANCH   9  20
HETATM   20  N4  UNL     1      91.896  98.631 -45.550  1.00  0.00    -0.349 N 
ATOM     21  H4  UNL     1      92.190  99.025 -46.444  1.00  0.00     0.163 HD
BRANCH  20  22
HETATM   22  C14 UNL     1      92.262  99.387 -44.402  1.00  0.00     0.224 C 
HETATM   23  C15 UNL     1      91.406 100.590 -44.152  1.00  0.00     0.088 C 
HETATM   24  C16 UNL     1      91.549 100.753 -42.650  1.00  0.00     0.101 C 
HETATM   25 BR1  UNL     1      93.168 101.685 -42.251  1.00  0.00    -0.070 Br
HETATM   26 BR2  UNL     1      90.001 101.589 -41.866  1.00  0.00    -0.070 Br
HETATM   27  C17 UNL     1      91.642  99.278 -42.245  1.00  0.00     0.203 C 
HETATM   28  O1  UNL     1      92.340  98.648 -43.238  1.00  0.00    -0.364 OA
ENDBRANCH  20  22
ENDBRANCH   9  20
TORSDOF 4
ENDMDL
MODEL 5
REMARK VINA RESULT: -7.257560651      1.464      1.706
REMARK  4 active torsions:
REMARK  status: ('A' for Active; 'I' for Inactive)
REMARK    1  A    between atoms: C4_6  and  N2_7 
REMARK    2  A    between atoms: N2_7  and  C5_9 
REMARK    3  A    between atoms: C13_19  and  N4_20 
REMARK    4  A    between atoms: N4_20  and  C14_22 
ROOT
HETATM    1  C1  UNL     1      91.347 100.640 -44.693  1.00  0.00     0.054 C 
HETATM    2  C2  UNL     1      91.427  99.394 -43.888  1.00  0.00    -0.002 A 
HETATM    3  C3  UNL     1      90.744  98.271 -44.307  1.00  0.00     0.116 A 
HETATM    4  N1  UNL     1      90.809  97.150 -43.593  1.00  0.00    -0.201 N 
ATOM      5  H1  UNL     1      90.302  96.322 -43.907  1.00  0.00     0.183 HD
HETATM    6  C4  UNL     1      91.525  97.096 -42.478  1.00  0.00     0.679 A 
HETATM    7  N3  UNL     1      92.198  98.213 -42.070  1.00  0.00    -0.176 N 
ATOM      8  H3  UNL     1      92.746  98.160 -41.211  1.00  0.00     0.186 HD
HETATM    9  C13 UNL     1      92.178  99.369 -42.735  1.00  0.00     0.126 A 
ENDROOT
BRANCH   6  10
HETATM   10  N2  UNL     1      91.624  96.084 -41.772  1.00  0.00    -0.221 N 
ATOM     11  H2  UNL     1      91.632  96.351 -40.788  1.00  0.00     0.178 HD
BRANCH  10  12
HETATM   12  C5  UNL     1      91.729  94.710 -41.884  1.00  0.00     0.099 C 
HETATM   13  C6  UNL     1      93.008  94.204 -41.216  1.00  0.00     0.026 C 
HETATM   14  C7  UNL     1      92.720  92.710 -40.978  1.00  0.00     0.011 C 
HETATM   15  C8  UNL     1      92.744  92.077 -42.344  1.00  0.00    -0.048 C 
HETATM   16  C9  UNL     1      92.337  90.622 -42.166  1.00  0.00     0.015 C 
HETATM   17  C10 UNL     1      94.197  92.064 -42.801  1.00  0.00     0.015 C 
HETATM   18  C11 UNL     1      91.858  92.688 -43.357  1.00  0.00     0.011 C 
HETATM   19  C12 UNL     1      91.624  94.155 -43.277  1.00  0.00     0.026 C 
ENDBRANCH  10  12
ENDBRANCH   6  10
BRANCH   9  20
HETATM   20  N4  UNL     1      92.801 100.383 -42.348  1.00  0.00    -0.349 N 
ATOM     21  H4  UNL     1      93.748 100.480 -42.714  1.00  0.00     0.163 HD
BRANCH  20  22
HETATM   22  C14 UNL     1      92.375 101.420 -41.473  1.00  0.00     0.224 C 
HETATM   23  C15 UNL     1      92.708 101.190 -40.031  1.00  0.00     0.088 C 
HETATM   24  C16 UNL     1      92.783 102.614 -39.511  1.00  0.00     0.101 C 
HETATM   25 BR1  UNL     1      91.026 103.253 -39.118  1.00  0.00    -0.070 Br
HETATM   26 BR2  UNL     1      93.979 102.769 -38.010  1.00  0.00    -0.070 Br
HETATM   27  C17 UNL     1      93.362 103.304 -40.750  1.00  0.00     0.203 C 
HETATM   28  O1  UNL     1      92.809 102.680 -41.833  1.00  0.00    -0.364 OA
ENDBRANCH  20  22
ENDBRANCH   9  20
TORSDOF 4
ENDMDL
