MODEL 1
REMARK VINA RESULT: -8.360519937      0.000      0.000
REMARK  2 active torsions:
REMARK  status: ('A' for Active; 'I' for Inactive)
REMARK    1  A    between atoms: C10_10  and  C11_11 
REMARK       I    between atoms: C11_11  and  N1_13 
REMARK       I    between atoms: N1_13  and  C12_15 
REMARK       I    between atoms: C12_15  and  N2_17 
REMARK    2  A    between atoms: C15_20  and  N3_21 
REMARK       I    between atoms: N3_21  and  C16_23 
REMARK       I    between atoms: C16_23  and  N4_25 
ROOT
HETATM    1  N3  UNL     1      89.832  88.837 -48.991  1.00  0.00    -0.337 N 
ATOM      2  H3  UNL     1      89.323  89.437 -48.342  1.00  0.00     0.164 HD
HETATM    3  C16 UNL     1      89.258  87.626 -49.439  1.00  0.00     0.320 C 
HETATM    4  O3  UNL     1      89.867  86.866 -50.242  1.00  0.00    -0.247 OA
HETATM    5  N4  UNL     1      87.971  87.249 -48.983  1.00  0.00    -0.311 N 
HETATM    6  C17 UNL     1      87.173  88.032 -48.063  1.00  0.00     0.208 C 
HETATM    7  C18 UNL     1      85.776  87.428 -48.115  1.00  0.00     0.262 C 
HETATM    8  F1  UNL     1      85.058  88.211 -49.028  1.00  0.00    -0.204 F 
HETATM    9  F2  UNL     1      85.194  87.438 -46.881  1.00  0.00    -0.204 F 
HETATM   10  C19 UNL     1      85.955  86.048 -48.688  1.00  0.00     0.121 C 
HETATM   11  C20 UNL     1      87.281  86.044 -49.366  1.00  0.00     0.202 C 
HETATM   12  C21 UNL     1      87.101  86.080 -50.816  1.00  0.00     0.085 C 
HETATM   13  N5  UNL     1      86.974  86.124 -51.959  1.00  0.00    -0.195 NA
ENDROOT
BRANCH   1  14
HETATM   14  C15 UNL     1      91.165  89.227 -49.463  1.00  0.00     0.105 C 
HETATM   15  C14 UNL     1      92.244  88.606 -48.638  1.00  0.00     0.047 C 
HETATM   16  C13 UNL     1      92.767  89.677 -47.707  1.00  0.00     0.129 C 
HETATM   17  N2  UNL     1      91.771  90.721 -47.816  1.00  0.00    -0.332 N 
HETATM   18  C12 UNL     1      91.295  91.604 -46.815  1.00  0.00     0.325 C 
HETATM   19  C22 UNL     1      91.325  90.706 -49.195  1.00  0.00     0.152 C 
HETATM   20  N1  UNL     1      91.830  91.501 -45.503  1.00  0.00    -0.279 N 
HETATM   21  O2  UNL     1      90.405  92.468 -47.102  1.00  0.00    -0.247 OA
HETATM   22  C11 UNL     1      91.375  92.376 -44.479  1.00  0.00     0.230 C 
ATOM     23  H1  UNL     1      92.541  90.800 -45.297  1.00  0.00     0.173 HD
HETATM   24  O1  UNL     1      90.506  93.214 -44.764  1.00  0.00    -0.273 OA
BRANCH  22  25
HETATM   25  C10 UNL     1      91.950  92.251 -43.138  1.00  0.00     0.090 C 
HETATM   26  C2  UNL     1      92.567  93.434 -42.522  1.00  0.00    -0.035 C 
HETATM   27  C1  UNL     1      91.543  93.947 -41.476  1.00  0.00     0.015 C 
HETATM   28  C3  UNL     1      92.818  94.634 -43.384  1.00  0.00     0.015 C 
HETATM   29  C4  UNL     1      93.807  93.157 -41.709  1.00  0.00     0.014 C 
HETATM   30  C5  UNL     1      94.733  92.160 -42.290  1.00  0.00    -0.013 C 
HETATM   31  C6  UNL     1      94.605  90.882 -41.443  1.00  0.00     0.005 C 
HETATM   32  C9  UNL     1      94.240  91.573 -43.615  1.00  0.00     0.010 C 
HETATM   33  C7  UNL     1      93.148  90.523 -41.760  1.00  0.00     0.006 C 
HETATM   34  C8  UNL     1      92.903  91.044 -43.181  1.00  0.00    -0.000 C 
ENDBRANCH  22  25
ENDBRANCH   1  14
TORSDOF 2
ENDMDL
MODEL 2
REMARK VINA RESULT: -6.947222237      6.904      9.785
REMARK  2 active torsions:
REMARK  status: ('A' for Active; 'I' for Inactive)
REMARK    1  A    between atoms: C10_10  and  C11_11 
REMARK       I    between atoms: C11_11  and  N1_13 
REMARK       I    between atoms: N1_13  and  C12_15 
REMARK       I    between atoms: C12_15  and  N2_17 
REMARK    2  A    between atoms: C15_20  and  N3_21 
REMARK       I    between atoms: N3_21  and  C16_23 
REMARK       I    between atoms: C16_23  and  N4_25 
ROOT
HETATM    1  N3  UNL     1      89.098  99.430 -44.110  1.00  0.00    -0.337 N 
ATOM      2  H3  UNL     1      89.036  98.412 -44.145  1.00  0.00     0.164 HD
HETATM    3  C16 UNL     1      87.930 100.217 -44.234  1.00  0.00     0.320 C 
HETATM    4  O3  UNL     1      87.979 101.478 -44.194  1.00  0.00    -0.247 OA
HETATM    5  N4  UNL     1      86.674  99.586 -44.408  1.00  0.00    -0.311 N 
HETATM    6  C17 UNL     1      86.487  98.151 -44.471  1.00  0.00     0.208 C 
HETATM    7  C18 UNL     1      84.987  97.927 -44.333  1.00  0.00     0.262 C 
HETATM    8  F1  UNL     1      84.767  97.655 -42.976  1.00  0.00    -0.204 F 
HETATM    9  F2  UNL     1      84.573  96.896 -45.124  1.00  0.00    -0.204 F 
HETATM   10  C19 UNL     1      84.350  99.246 -44.677  1.00  0.00     0.121 C 
HETATM   11  C20 UNL     1      85.417 100.276 -44.546  1.00  0.00     0.202 C 
HETATM   12  C21 UNL     1      85.209 101.060 -43.329  1.00  0.00     0.085 C 
HETATM   13  N5  UNL     1      85.064 101.675 -42.367  1.00  0.00    -0.195 NA
ENDROOT
BRANCH   1  14
HETATM   14  C15 UNL     1      90.399 100.084 -43.931  1.00  0.00     0.105 C 
HETATM   15  C14 UNL     1      91.392  99.616 -44.942  1.00  0.00     0.047 C 
HETATM   16  C13 UNL     1      92.309  98.634 -44.248  1.00  0.00     0.129 C 
HETATM   17  N2  UNL     1      91.612  98.353 -43.011  1.00  0.00    -0.332 N 
HETATM   18  C12 UNL     1      91.538  97.136 -42.290  1.00  0.00     0.325 C 
HETATM   19  C22 UNL     1      90.973  99.595 -42.621  1.00  0.00     0.152 C 
HETATM   20  N1  UNL     1      92.221  95.999 -42.797  1.00  0.00    -0.279 N 
HETATM   21  O2  UNL     1      90.868  97.079 -41.208  1.00  0.00    -0.247 OA
HETATM   22  C11 UNL     1      92.167  94.764 -42.092  1.00  0.00     0.230 C 
ATOM     23  H1  UNL     1      92.749  96.067 -43.666  1.00  0.00     0.173 HD
HETATM   24  O1  UNL     1      91.511  94.716 -41.041  1.00  0.00    -0.273 OA
BRANCH  22  25
HETATM   25  C10 UNL     1      92.887  93.611 -42.636  1.00  0.00     0.090 C 
HETATM   26  C2  UNL     1      92.195  92.735 -43.592  1.00  0.00    -0.035 C 
HETATM   27  C1  UNL     1      92.768  93.099 -44.986  1.00  0.00     0.015 C 
HETATM   28  C3  UNL     1      90.716  92.903 -43.766  1.00  0.00     0.015 C 
HETATM   29  C4  UNL     1      92.500  91.265 -43.448  1.00  0.00     0.014 C 
HETATM   30  C5  UNL     1      92.592  90.773 -42.056  1.00  0.00    -0.013 C 
HETATM   31  C6  UNL     1      94.082  90.508 -41.772  1.00  0.00     0.005 C 
HETATM   32  C9  UNL     1      92.381  91.870 -41.009  1.00  0.00     0.010 C 
HETATM   33  C7  UNL     1      94.611  91.944 -41.880  1.00  0.00     0.006 C 
HETATM   34  C8  UNL     1      93.449  92.838 -41.429  1.00  0.00    -0.000 C 
ENDBRANCH  22  25
ENDBRANCH   1  14
TORSDOF 2
ENDMDL
MODEL 3
REMARK VINA RESULT: -6.935442804      7.336     11.212
REMARK  2 active torsions:
REMARK  status: ('A' for Active; 'I' for Inactive)
REMARK    1  A    between atoms: C10_10  and  C11_11 
REMARK       I    between atoms: C11_11  and  N1_13 
REMARK       I    between atoms: N1_13  and  C12_15 
REMARK       I    between atoms: C12_15  and  N2_17 
REMARK    2  A    between atoms: C15_20  and  N3_21 
REMARK       I    between atoms: N3_21  and  C16_23 
REMARK       I    between atoms: C16_23  and  N4_25 
ROOT
HETATM    1  N3  UNL     1      91.480  97.302 -43.250  1.00  0.00    -0.337 N 
ATOM      2  H3  UNL     1      91.348  97.159 -44.251  1.00  0.00     0.164 HD
HETATM    3  C16 UNL     1      91.595  96.191 -42.383  1.00  0.00     0.320 C 
HETATM    4  O3  UNL     1      91.759  96.340 -41.140  1.00  0.00    -0.247 OA
HETATM    5  N4  UNL     1      91.526  94.879 -42.912  1.00  0.00    -0.311 N 
HETATM    6  C17 UNL     1      91.340  94.577 -44.316  1.00  0.00     0.208 C 
HETATM    7  C18 UNL     1      91.653  93.094 -44.461  1.00  0.00     0.262 C 
HETATM    8  F1  UNL     1      92.991  93.027 -44.871  1.00  0.00    -0.204 F 
HETATM    9  F2  UNL     1      90.822  92.507 -45.369  1.00  0.00    -0.204 F 
HETATM   10  C19 UNL     1      91.536  92.520 -43.075  1.00  0.00     0.121 C 
HETATM   11  C20 UNL     1      91.629  93.671 -42.134  1.00  0.00     0.202 C 
HETATM   12  C21 UNL     1      92.938  93.677 -41.481  1.00  0.00     0.085 C 
HETATM   13  N5  UNL     1      93.969  93.702 -40.971  1.00  0.00    -0.195 NA
ENDROOT
BRANCH   1  14
HETATM   14  C15 UNL     1      91.551  98.661 -42.702  1.00  0.00     0.105 C 
HETATM   15  C14 UNL     1      90.229  99.351 -42.773  1.00  0.00     0.047 C 
HETATM   16  C13 UNL     1      90.288 100.314 -43.937  1.00  0.00     0.129 C 
HETATM   17  N2  UNL     1      91.480  99.898 -44.645  1.00  0.00    -0.332 N 
HETATM   18  C12 UNL     1      91.727  99.886 -46.041  1.00  0.00     0.325 C 
HETATM   19  C22 UNL     1      92.423  99.476 -43.628  1.00  0.00     0.152 C 
HETATM   20  N1  UNL     1      90.703 100.333 -46.918  1.00  0.00    -0.279 N 
HETATM   21  O2  UNL     1      92.849  99.480 -46.484  1.00  0.00    -0.247 OA
HETATM   22  C11 UNL     1      90.923 100.336 -48.324  1.00  0.00     0.230 C 
ATOM     23  H1  UNL     1      89.811 100.652 -46.541  1.00  0.00     0.173 HD
HETATM   24  O1  UNL     1      92.018  99.937 -48.749  1.00  0.00    -0.273 OA
BRANCH  22  25
HETATM   25  C10 UNL     1      89.852 100.809 -49.204  1.00  0.00     0.090 C 
HETATM   26  C2  UNL     1      88.794  99.867 -49.595  1.00  0.00    -0.035 C 
HETATM   27  C1  UNL     1      87.557 100.244 -48.740  1.00  0.00     0.015 C 
HETATM   28  C3  UNL     1      88.995  98.412 -49.300  1.00  0.00     0.015 C 
HETATM   29  C4  UNL     1      88.309 100.007 -51.016  1.00  0.00     0.014 C 
HETATM   30  C5  UNL     1      89.363 100.266 -52.022  1.00  0.00    -0.013 C 
HETATM   31  C6  UNL     1      89.222 101.738 -52.451  1.00  0.00     0.005 C 
HETATM   32  C9  UNL     1      90.766 100.366 -51.418  1.00  0.00     0.010 C 
HETATM   33  C7  UNL     1      89.562 102.414 -51.117  1.00  0.00     0.006 C 
HETATM   34  C8  UNL     1      90.539 101.462 -50.416  1.00  0.00    -0.000 C 
ENDBRANCH  22  25
ENDBRANCH   1  14
TORSDOF 2
ENDMDL
MODEL 4
REMARK VINA RESULT: -6.733427367      2.194      2.304
REMARK  2 active torsions:
REMARK  status: ('A' for Active; 'I' for Inactive)
REMARK    1  A    between atoms: C10_10  and  C11_11 
REMARK       I    between atoms: C11_11  and  N1_13 
REMARK       I    between atoms: N1_13  and  C12_15 
REMARK       I    between atoms: C12_15  and  N2_17 
REMARK    2  A    between atoms: C15_20  and  N3_21 
REMARK       I    between atoms: N3_21  and  C16_23 
REMARK       I    between atoms: C16_23  and  N4_25 
ROOT
HETATM    1  N3  UNL     1      89.100  89.468 -49.817  1.00  0.00    -0.337 N 
ATOM      2  H3  UNL     1      88.836  89.340 -48.840  1.00  0.00     0.164 HD
HETATM    3  C16 UNL     1      88.105  89.572 -50.815  1.00  0.00     0.320 C 
HETATM    4  O3  UNL     1      88.406  89.730 -52.031  1.00  0.00    -0.247 OA
HETATM    5  N4  UNL     1      86.738  89.497 -50.452  1.00  0.00    -0.311 N 
HETATM    6  C17 UNL     1      86.265  89.316 -49.095  1.00  0.00     0.208 C 
HETATM    7  C18 UNL     1      84.774  89.620 -49.136  1.00  0.00     0.262 C 
HETATM    8  F1  UNL     1      84.649  90.960 -48.746  1.00  0.00    -0.204 F 
HETATM    9  F2  UNL     1      84.084  88.790 -48.303  1.00  0.00    -0.204 F 
HETATM   10  C19 UNL     1      84.377  89.493 -50.582  1.00  0.00     0.121 C 
HETATM   11  C20 UNL     1      85.634  89.589 -51.374  1.00  0.00     0.202 C 
HETATM   12  C21 UNL     1      85.714  90.894 -52.029  1.00  0.00     0.085 C 
HETATM   13  N5  UNL     1      85.796  91.923 -52.537  1.00  0.00    -0.195 NA
ENDROOT
BRANCH   1  14
HETATM   14  C15 UNL     1      90.516  89.545 -50.193  1.00  0.00     0.105 C 
HETATM   15  C14 UNL     1      91.372  88.730 -49.280  1.00  0.00     0.047 C 
HETATM   16  C13 UNL     1      92.050  89.689 -48.328  1.00  0.00     0.129 C 
HETATM   17  N2  UNL     1      91.316  90.921 -48.526  1.00  0.00    -0.332 N 
HETATM   18  C12 UNL     1      90.976  91.915 -47.576  1.00  0.00     0.325 C 
HETATM   19  C22 UNL     1      90.976  90.961 -49.935  1.00  0.00     0.152 C 
HETATM   20  N1  UNL     1      91.381  91.738 -46.227  1.00  0.00    -0.279 N 
HETATM   21  O2  UNL     1      90.318  92.943 -47.941  1.00  0.00    -0.247 OA
HETATM   22  C11 UNL     1      91.057  92.722 -45.251  1.00  0.00     0.230 C 
ATOM     23  H1  UNL     1      91.906  90.906 -45.957  1.00  0.00     0.173 HD
HETATM   24  O1  UNL     1      90.415  93.719 -45.613  1.00  0.00    -0.273 OA
BRANCH  22  25
HETATM   25  C10 UNL     1      91.495  92.515 -43.869  1.00  0.00     0.090 C 
HETATM   26  C2  UNL     1      92.254  93.582 -43.203  1.00  0.00    -0.035 C 
HETATM   27  C1  UNL     1      91.254  94.273 -42.240  1.00  0.00     0.015 C 
HETATM   28  C3  UNL     1      92.773  94.712 -44.039  1.00  0.00     0.015 C 
HETATM   29  C4  UNL     1      93.361  93.107 -42.295  1.00  0.00     0.014 C 
HETATM   30  C5  UNL     1      94.147  91.961 -42.803  1.00  0.00    -0.013 C 
HETATM   31  C6  UNL     1      93.736  90.732 -41.972  1.00  0.00     0.005 C 
HETATM   32  C9  UNL     1      93.666  91.452 -44.165  1.00  0.00     0.010 C 
HETATM   33  C7  UNL     1      92.269  90.623 -42.406  1.00  0.00     0.006 C 
HETATM   34  C8  UNL     1      92.229  91.162 -43.840  1.00  0.00    -0.000 C 
ENDBRANCH  22  25
ENDBRANCH   1  14
TORSDOF 2
ENDMDL
MODEL 5
REMARK VINA RESULT: -6.684181121      4.413      9.761
REMARK  2 active torsions:
REMARK  status: ('A' for Active; 'I' for Inactive)
REMARK    1  A    between atoms: C10_10  and  C11_11 
REMARK       I    between atoms: C11_11  and  N1_13 
REMARK       I    between atoms: N1_13  and  C12_15 
REMARK       I    between atoms: C12_15  and  N2_17 
REMARK    2  A    between atoms: C15_20  and  N3_21 
REMARK       I    between atoms: N3_21  and  C16_23 
REMARK       I    between atoms: C16_23  and  N4_25 
ROOT
HETATM    1  N3  UNL     1      89.159  95.460 -47.732  1.00  0.00    -0.337 N 
ATOM      2  H3  UNL     1      89.279  94.453 -47.623  1.00  0.00     0.164 HD
HETATM    3  C16 UNL     1      89.656  96.345 -46.748  1.00  0.00     0.320 C 
HETATM    4  O3  UNL     1      89.522  97.596 -46.859  1.00  0.00    -0.247 OA
HETATM    5  N4  UNL     1      90.320  95.826 -45.610  1.00  0.00    -0.311 N 
HETATM    6  C17 UNL     1      90.536  94.415 -45.367  1.00  0.00     0.208 C 
HETATM    7  C18 UNL     1      91.549  94.345 -44.232  1.00  0.00     0.262 C 
HETATM    8  F1  UNL     1      92.798  94.184 -44.847  1.00  0.00    -0.204 F 
HETATM    9  F2  UNL     1      91.268  93.308 -43.392  1.00  0.00    -0.204 F 
HETATM   10  C19 UNL     1      91.501  95.693 -43.565  1.00  0.00     0.121 C 
HETATM   11  C20 UNL     1      90.869  96.623 -44.542  1.00  0.00     0.202 C 
HETATM   12  C21 UNL     1      91.883  97.502 -45.124  1.00  0.00     0.085 C 
HETATM   13  N5  UNL     1      92.673  98.189 -45.600  1.00  0.00    -0.195 NA
ENDROOT
BRANCH   1  14
HETATM   14  C15 UNL     1      88.471  95.997 -48.911  1.00  0.00     0.105 C 
HETATM   15  C14 UNL     1      87.050  95.543 -48.971  1.00  0.00     0.047 C 
HETATM   16  C13 UNL     1      86.976  94.441 -50.003  1.00  0.00     0.129 C 
HETATM   17  N2  UNL     1      88.367  94.110 -50.229  1.00  0.00    -0.332 N 
HETATM   18  C12 UNL     1      88.947  92.845 -50.497  1.00  0.00     0.325 C 
HETATM   19  C22 UNL     1      89.096  95.359 -50.129  1.00  0.00     0.152 C 
HETATM   20  N1  UNL     1      88.101  91.707 -50.568  1.00  0.00    -0.279 N 
HETATM   21  O2  UNL     1      90.205  92.748 -50.670  1.00  0.00    -0.247 OA
HETATM   22  C11 UNL     1      88.655  90.425 -50.839  1.00  0.00     0.230 C 
ATOM     23  H1  UNL     1      87.097  91.808 -50.424  1.00  0.00     0.173 HD
HETATM   24  O1  UNL     1      89.882  90.337 -51.004  1.00  0.00    -0.273 OA
BRANCH  22  25
HETATM   25  C10 UNL     1      87.758  89.270 -50.912  1.00  0.00     0.090 C 
HETATM   26  C2  UNL     1      87.461  88.528 -49.680  1.00  0.00    -0.035 C 
HETATM   27  C1  UNL     1      86.033  88.962 -49.259  1.00  0.00     0.015 C 
HETATM   28  C3  UNL     1      88.287  88.816 -48.462  1.00  0.00     0.015 C 
HETATM   29  C4  UNL     1      87.352  87.033 -49.845  1.00  0.00     0.014 C 
HETATM   30  C5  UNL     1      88.346  86.423 -50.755  1.00  0.00    -0.013 C 
HETATM   31  C6  UNL     1      87.596  86.029 -52.040  1.00  0.00     0.005 C 
HETATM   32  C9  UNL     1      89.298  87.444 -51.384  1.00  0.00     0.010 C 
HETATM   33  C7  UNL     1      87.194  87.427 -52.527  1.00  0.00     0.006 C 
HETATM   34  C8  UNL     1      88.302  88.363 -52.030  1.00  0.00    -0.000 C 
ENDBRANCH  22  25
ENDBRANCH   1  14
TORSDOF 2
ENDMDL
