MODEL 1
REMARK VINA RESULT: -8.080554077      0.000      0.000
REMARK  6 active torsions:
REMARK  status: ('A' for Active; 'I' for Inactive)
REMARK    1  A    between atoms: C4_4  and  O1_5 
REMARK    2  A    between atoms: N1_9  and  C7_10 
REMARK    3  A    between atoms: C7_10  and  O2_11 
REMARK    4  A    between atoms: C7_10  and  N2_13 
REMARK    5  A    between atoms: N2_13  and  C9_15 
REMARK       I    between atoms: N3_18  and  C12_19 
REMARK       I    between atoms: C12_19  and  N4_21 
REMARK    6  A    between atoms: N4_21  and  C13_23 
ROOT
HETATM    1  C9  UNL     1      91.918  99.590 -44.144  1.00  0.00     0.090 C 
HETATM    2  C10 UNL     1      91.647  98.874 -45.396  1.00  0.00     0.045 C 
HETATM    3  C11 UNL     1      90.968  97.544 -45.305  1.00  0.00     0.129 C 
HETATM    4  N3  UNL     1      91.005  96.985 -43.968  1.00  0.00    -0.334 N 
HETATM    5  C12 UNL     1      91.502  95.690 -43.772  1.00  0.00     0.318 C 
HETATM    6  O3  UNL     1      91.906  95.052 -44.800  1.00  0.00    -0.247 OA
HETATM    7  N4  UNL     1      91.596  95.021 -42.523  1.00  0.00    -0.338 N 
ATOM      8  H4  UNL     1      91.280  95.506 -41.683  1.00  0.00     0.164 HD
HETATM    9  C21 UNL     1      90.503  97.868 -42.934  1.00  0.00     0.129 C 
HETATM   10  C22 UNL     1      91.192  99.187 -42.914  1.00  0.00     0.045 C 
ENDROOT
BRANCH   1  11
HETATM   11  N2  UNL     1      91.634 101.044 -44.398  1.00  0.00    -0.347 N 
HETATM   12  C8  UNL     1      91.345 101.346 -45.766  1.00  0.00     0.153 C 
BRANCH  11  13
HETATM   13  C7  UNL     1      91.669 101.946 -43.347  1.00  0.00     0.217 C 
BRANCH  13  14
HETATM   14  N1  UNL     1      92.645 102.167 -42.397  1.00  0.00    -0.343 N 
HETATM   15  C2  UNL     1      92.353 102.375 -40.965  1.00  0.00     0.086 C 
HETATM   16  C1  UNL     1      91.048 101.810 -40.512  1.00  0.00     0.032 C 
HETATM   17  C3  UNL     1      93.417 101.581 -40.167  1.00  0.00     0.056 C 
HETATM   18  C4  UNL     1      94.738 102.324 -40.292  1.00  0.00     0.121 C 
HETATM   19  C5  UNL     1      94.743 103.110 -41.599  1.00  0.00     0.051 C 
HETATM   20  C6  UNL     1      94.062 102.267 -42.695  1.00  0.00     0.129 C 
BRANCH  18  21
HETATM   21  O1  UNL     1      95.831 101.473 -40.314  1.00  0.00    -0.395 OA
ATOM     22  H1  UNL     1      96.483 101.730 -40.956  1.00  0.00     0.210 HD
ENDBRANCH  18  21
ENDBRANCH  13  14
BRANCH  13  23
HETATM   23  O2  UNL     1      90.612 102.698 -43.245  1.00  0.00    -0.332 OA
ATOM     24  H2  UNL     1      90.216 102.956 -44.069  1.00  0.00     0.220 HD
ENDBRANCH  13  23
ENDBRANCH  11  13
ENDBRANCH   1  11
BRANCH   7  25
HETATM   25  C13 UNL     1      92.124  93.677 -42.394  1.00  0.00     0.089 C 
HETATM   26  C14 UNL     1      92.336  93.328 -40.965  1.00  0.00     0.027 C 
HETATM   27  C15 UNL     1      93.245  92.165 -40.840  1.00  0.00     0.030 C 
HETATM   28  C16 UNL     1      93.408  91.321 -42.046  1.00  0.00     0.069 C 
HETATM   29  C17 UNL     1      94.499  90.289 -41.749  1.00  0.00     0.036 C 
HETATM   30 CL1  UNL     1      91.913  90.406 -42.335  1.00  0.00    -0.116 Cl
HETATM   31  C18 UNL     1      93.838  92.077 -43.272  1.00  0.00     0.122 C 
HETATM   32  C19 UNL     1      95.338  92.049 -43.458  1.00  0.00     0.054 C 
HETATM   33  F1  UNL     1      93.288  91.429 -44.360  1.00  0.00    -0.241 F 
HETATM   34  C20 UNL     1      93.317  93.490 -43.289  1.00  0.00     0.070 C 
ENDBRANCH   7  25
TORSDOF 6
ENDMDL
MODEL 2
REMARK VINA RESULT: -7.669759477      3.509      5.673
REMARK  6 active torsions:
REMARK  status: ('A' for Active; 'I' for Inactive)
REMARK    1  A    between atoms: C4_4  and  O1_5 
REMARK    2  A    between atoms: N1_9  and  C7_10 
REMARK    3  A    between atoms: C7_10  and  O2_11 
REMARK    4  A    between atoms: C7_10  and  N2_13 
REMARK    5  A    between atoms: N2_13  and  C9_15 
REMARK       I    between atoms: N3_18  and  C12_19 
REMARK       I    between atoms: C12_19  and  N4_21 
REMARK    6  A    between atoms: N4_21  and  C13_23 
ROOT
HETATM    1  C9  UNL     1      88.921  98.969 -42.937  1.00  0.00     0.090 C 
HETATM    2  C10 UNL     1      90.164  99.290 -42.224  1.00  0.00     0.045 C 
HETATM    3  C11 UNL     1      91.399  98.533 -42.600  1.00  0.00     0.129 C 
HETATM    4  N3  UNL     1      91.111  97.332 -43.359  1.00  0.00    -0.334 N 
HETATM    5  C12 UNL     1      91.623  96.101 -42.928  1.00  0.00     0.318 C 
HETATM    6  O3  UNL     1      92.332  96.096 -41.868  1.00  0.00    -0.247 OA
HETATM    7  N4  UNL     1      91.422  94.852 -43.572  1.00  0.00    -0.338 N 
ATOM      8  H4  UNL     1      90.860  94.824 -44.423  1.00  0.00     0.164 HD
HETATM    9  C21 UNL     1      90.287  97.546 -44.532  1.00  0.00     0.129 C 
HETATM   10  C22 UNL     1      89.001  98.227 -44.219  1.00  0.00     0.045 C 
ENDROOT
BRANCH   1  11
HETATM   11  N2  UNL     1      88.213 100.269 -43.194  1.00  0.00    -0.347 N 
HETATM   12  C8  UNL     1      89.093 101.384 -43.363  1.00  0.00     0.153 C 
BRANCH  11  13
HETATM   13  C7  UNL     1      86.828 100.299 -43.247  1.00  0.00     0.217 C 
BRANCH  13  14
HETATM   14  N1  UNL     1      85.948  99.492 -43.936  1.00  0.00    -0.343 N 
HETATM   15  C2  UNL     1      85.425  99.819 -45.278  1.00  0.00     0.086 C 
HETATM   16  C1  UNL     1      86.284 100.753 -46.064  1.00  0.00     0.032 C 
HETATM   17  C3  UNL     1      85.431  98.505 -46.098  1.00  0.00     0.056 C 
HETATM   18  C4  UNL     1      84.308  97.626 -45.570  1.00  0.00     0.121 C 
HETATM   19  C5  UNL     1      84.049  97.978 -44.109  1.00  0.00     0.051 C 
HETATM   20  C6  UNL     1      85.394  98.256 -43.412  1.00  0.00     0.129 C 
BRANCH  18  21
HETATM   21  O1  UNL     1      84.614  96.276 -45.624  1.00  0.00    -0.395 OA
ATOM     22  H1  UNL     1      84.560  95.853 -44.775  1.00  0.00     0.210 HD
ENDBRANCH  18  21
ENDBRANCH  13  14
BRANCH  13  23
HETATM   23  O2  UNL     1      86.281 101.239 -42.533  1.00  0.00    -0.332 OA
ATOM     24  H2  UNL     1      86.884 101.872 -42.163  1.00  0.00     0.220 HD
ENDBRANCH  13  23
ENDBRANCH  11  13
ENDBRANCH   1  11
BRANCH   7  25
HETATM   25  C13 UNL     1      91.983  93.613 -43.068  1.00  0.00     0.089 C 
HETATM   26  C14 UNL     1      92.042  93.627 -41.583  1.00  0.00     0.027 C 
HETATM   27  C15 UNL     1      92.975  92.588 -41.087  1.00  0.00     0.030 C 
HETATM   28  C16 UNL     1      93.309  91.496 -42.030  1.00  0.00     0.069 C 
HETATM   29  C17 UNL     1      94.398  90.637 -41.382  1.00  0.00     0.036 C 
HETATM   30 CL1  UNL     1      91.895  90.442 -42.241  1.00  0.00    -0.116 Cl
HETATM   31  C18 UNL     1      93.849  91.968 -43.352  1.00  0.00     0.122 C 
HETATM   32  C19 UNL     1      95.360  91.995 -43.370  1.00  0.00     0.054 C 
HETATM   33  F1  UNL     1      93.454  91.047 -44.301  1.00  0.00    -0.241 F 
HETATM   34  C20 UNL     1      93.278  93.299 -43.763  1.00  0.00     0.070 C 
ENDBRANCH   7  25
TORSDOF 6
ENDMDL
MODEL 3
REMARK VINA RESULT: -7.509947980      4.158      5.723
REMARK  6 active torsions:
REMARK  status: ('A' for Active; 'I' for Inactive)
REMARK    1  A    between atoms: C4_4  and  O1_5 
REMARK    2  A    between atoms: N1_9  and  C7_10 
REMARK    3  A    between atoms: C7_10  and  O2_11 
REMARK    4  A    between atoms: C7_10  and  N2_13 
REMARK    5  A    between atoms: N2_13  and  C9_15 
REMARK       I    between atoms: N3_18  and  C12_19 
REMARK       I    between atoms: C12_19  and  N4_21 
REMARK    6  A    between atoms: N4_21  and  C13_23 
ROOT
HETATM    1  C9  UNL     1      87.741  97.559 -44.862  1.00  0.00     0.090 C 
HETATM    2  C10 UNL     1      88.654  98.432 -44.112  1.00  0.00     0.045 C 
HETATM    3  C11 UNL     1      90.116  98.120 -44.165  1.00  0.00     0.129 C 
HETATM    4  N3  UNL     1      90.387  96.782 -44.651  1.00  0.00    -0.334 N 
HETATM    5  C12 UNL     1      91.190  95.919 -43.894  1.00  0.00     0.318 C 
HETATM    6  O3  UNL     1      91.652  96.361 -42.790  1.00  0.00    -0.247 OA
HETATM    7  N4  UNL     1      91.536  94.588 -44.247  1.00  0.00    -0.338 N 
ATOM      8  H4  UNL     1      91.181  94.206 -45.125  1.00  0.00     0.164 HD
HETATM    9  C21 UNL     1      89.769  96.468 -45.924  1.00  0.00     0.129 C 
HETATM   10  C22 UNL     1      88.296  96.680 -45.920  1.00  0.00     0.045 C 
ENDROOT
BRANCH   1  11
HETATM   11  N2  UNL     1      86.701  98.445 -45.488  1.00  0.00    -0.347 N 
HETATM   12  C8  UNL     1      86.841  98.587 -46.905  1.00  0.00     0.153 C 
BRANCH  11  13
HETATM   13  C7  UNL     1      85.729  99.032 -44.695  1.00  0.00     0.217 C 
BRANCH  13  14
HETATM   14  N1  UNL     1      85.591 100.340 -44.282  1.00  0.00    -0.343 N 
HETATM   15  C2  UNL     1      84.979 101.396 -45.113  1.00  0.00     0.086 C 
HETATM   16  C1  UNL     1      84.049 100.890 -46.166  1.00  0.00     0.032 C 
HETATM   17  C3  UNL     1      84.081 102.245 -44.179  1.00  0.00     0.056 C 
HETATM   18  C4  UNL     1      84.994 103.081 -43.297  1.00  0.00     0.121 C 
HETATM   19  C5  UNL     1      86.328 102.360 -43.138  1.00  0.00     0.051 C 
HETATM   20  C6  UNL     1      86.069 100.847 -43.007  1.00  0.00     0.129 C 
BRANCH  18  21
HETATM   21  O1  UNL     1      84.476 103.281 -42.027  1.00  0.00    -0.395 OA
ATOM     22  H1  UNL     1      84.710 102.587 -41.422  1.00  0.00     0.210 HD
ENDBRANCH  18  21
ENDBRANCH  13  14
BRANCH  13  23
HETATM   23  O2  UNL     1      84.807  98.215 -44.277  1.00  0.00    -0.332 OA
ATOM     24  H2  UNL     1      84.390  97.692 -44.951  1.00  0.00     0.220 HD
ENDBRANCH  13  23
ENDBRANCH  11  13
ENDBRANCH   1  11
BRANCH   7  25
HETATM   25  C13 UNL     1      92.373  93.750 -43.412  1.00  0.00     0.089 C 
HETATM   26  C14 UNL     1      93.619  93.369 -44.127  1.00  0.00     0.027 C 
HETATM   27  C15 UNL     1      94.261  92.204 -43.475  1.00  0.00     0.030 C 
HETATM   28  C16 UNL     1      93.858  91.923 -42.078  1.00  0.00     0.069 C 
HETATM   29  C17 UNL     1      94.509  90.602 -41.661  1.00  0.00     0.036 C 
HETATM   30 CL1  UNL     1      94.525  93.174 -41.006  1.00  0.00    -0.116 Cl
HETATM   31  C18 UNL     1      92.375  91.765 -41.886  1.00  0.00     0.122 C 
HETATM   32  C19 UNL     1      91.948  90.316 -41.947  1.00  0.00     0.054 C 
HETATM   33  F1  UNL     1      92.082  92.214 -40.613  1.00  0.00    -0.241 F 
HETATM   34  C20 UNL     1      91.577  92.606 -42.846  1.00  0.00     0.070 C 
ENDBRANCH   7  25
TORSDOF 6
ENDMDL
MODEL 4
REMARK VINA RESULT: -7.441579059      7.457     10.051
REMARK  6 active torsions:
REMARK  status: ('A' for Active; 'I' for Inactive)
REMARK    1  A    between atoms: C4_4  and  O1_5 
REMARK    2  A    between atoms: N1_9  and  C7_10 
REMARK    3  A    between atoms: C7_10  and  O2_11 
REMARK    4  A    between atoms: C7_10  and  N2_13 
REMARK    5  A    between atoms: N2_13  and  C9_15 
REMARK       I    between atoms: N3_18  and  C12_19 
REMARK       I    between atoms: C12_19  and  N4_21 
REMARK    6  A    between atoms: N4_21  and  C13_23 
ROOT
HETATM    1  C9  UNL     1      91.046  91.816 -46.159  1.00  0.00     0.090 C 
HETATM    2  C10 UNL     1      92.276  91.054 -46.411  1.00  0.00     0.045 C 
HETATM    3  C11 UNL     1      92.496  90.521 -47.791  1.00  0.00     0.129 C 
HETATM    4  N3  UNL     1      91.288  90.520 -48.591  1.00  0.00    -0.334 N 
HETATM    5  C12 UNL     1      90.872  89.336 -49.216  1.00  0.00     0.318 C 
HETATM    6  O3  UNL     1      91.593  88.297 -49.048  1.00  0.00    -0.247 OA
HETATM    7  N4  UNL     1      89.715  89.191 -50.025  1.00  0.00    -0.338 N 
ATOM      8  H4  UNL     1      89.119  90.005 -50.178  1.00  0.00     0.164 HD
HETATM    9  C21 UNL     1      90.609  91.798 -48.658  1.00  0.00     0.129 C 
HETATM   10  C22 UNL     1      90.286  92.353 -47.315  1.00  0.00     0.045 C 
ENDROOT
BRANCH   1  11
HETATM   11  N2  UNL     1      91.416  92.968 -45.268  1.00  0.00    -0.347 N 
HETATM   12  C8  UNL     1      91.484  94.226 -45.947  1.00  0.00     0.153 C 
BRANCH  11  13
HETATM   13  C7  UNL     1      91.653  92.747 -43.921  1.00  0.00     0.217 C 
BRANCH  13  14
HETATM   14  N1  UNL     1      92.832  92.479 -43.258  1.00  0.00    -0.343 N 
HETATM   15  C2  UNL     1      93.405  93.365 -42.226  1.00  0.00     0.086 C 
HETATM   16  C1  UNL     1      92.412  94.256 -41.558  1.00  0.00     0.032 C 
HETATM   17  C3  UNL     1      93.935  92.454 -41.091  1.00  0.00     0.056 C 
HETATM   18  C4  UNL     1      95.193  91.769 -41.597  1.00  0.00     0.121 C 
HETATM   19  C5  UNL     1      95.120  91.657 -43.117  1.00  0.00     0.051 C 
HETATM   20  C6  UNL     1      93.673  91.325 -43.527  1.00  0.00     0.129 C 
BRANCH  18  21
HETATM   21  O1  UNL     1      95.346  90.488 -41.093  1.00  0.00    -0.395 OA
ATOM     22  H1  UNL     1      95.686  90.481 -40.206  1.00  0.00     0.210 HD
ENDBRANCH  18  21
ENDBRANCH  13  14
BRANCH  13  23
HETATM   23  O2  UNL     1      90.592  92.801 -43.170  1.00  0.00    -0.332 OA
ATOM     24  H2  UNL     1      89.773  92.597 -43.606  1.00  0.00     0.220 HD
ENDBRANCH  13  23
ENDBRANCH  11  13
ENDBRANCH   1  11
BRANCH   7  25
HETATM   25  C13 UNL     1      89.345  87.932 -50.642  1.00  0.00     0.089 C 
HETATM   26  C14 UNL     1      88.737  88.158 -51.979  1.00  0.00     0.027 C 
HETATM   27  C15 UNL     1      87.988  86.960 -52.423  1.00  0.00     0.030 C 
HETATM   28  C16 UNL     1      88.320  85.685 -51.747  1.00  0.00     0.069 C 
HETATM   29  C17 UNL     1      87.329  84.626 -52.234  1.00  0.00     0.036 C 
HETATM   30 CL1  UNL     1      89.932  85.143 -52.263  1.00  0.00    -0.116 Cl
HETATM   31  C18 UNL     1      88.209  85.736 -50.248  1.00  0.00     0.122 C 
HETATM   32  C19 UNL     1      86.860  85.255 -49.764  1.00  0.00     0.054 C 
HETATM   33  F1  UNL     1      89.150  84.862 -49.742  1.00  0.00    -0.241 F 
HETATM   34  C20 UNL     1      88.528  87.099 -49.694  1.00  0.00     0.070 C 
ENDBRANCH   7  25
TORSDOF 6
ENDMDL
MODEL 5
REMARK VINA RESULT: -7.413113494      1.336      1.724
REMARK  6 active torsions:
REMARK  status: ('A' for Active; 'I' for Inactive)
REMARK    1  A    between atoms: C4_4  and  O1_5 
REMARK    2  A    between atoms: N1_9  and  C7_10 
REMARK    3  A    between atoms: C7_10  and  O2_11 
REMARK    4  A    between atoms: C7_10  and  N2_13 
REMARK    5  A    between atoms: N2_13  and  C9_15 
REMARK       I    between atoms: N3_18  and  C12_19 
REMARK       I    between atoms: C12_19  and  N4_21 
REMARK    6  A    between atoms: N4_21  and  C13_23 
ROOT
HETATM    1  C9  UNL     1      91.572 100.468 -43.915  1.00  0.00     0.090 C 
HETATM    2  C10 UNL     1      91.742  99.950 -45.280  1.00  0.00     0.045 C 
HETATM    3  C11 UNL     1      91.224  98.578 -45.574  1.00  0.00     0.129 C 
HETATM    4  N3  UNL     1      90.957  97.810 -44.374  1.00  0.00    -0.334 N 
HETATM    5  C12 UNL     1      91.530  96.540 -44.223  1.00  0.00     0.318 C 
HETATM    6  O3  UNL     1      92.273  96.112 -45.167  1.00  0.00    -0.247 OA
HETATM    7  N4  UNL     1      91.355  95.682 -43.105  1.00  0.00    -0.338 N 
ATOM      8  H4  UNL     1      90.765  95.996 -42.334  1.00  0.00     0.164 HD
HETATM    9  C21 UNL     1      90.090  98.469 -43.418  1.00  0.00     0.129 C 
HETATM   10  C22 UNL     1      90.588  99.814 -43.017  1.00  0.00     0.045 C 
ENDROOT
BRANCH   1  11
HETATM   11  N2  UNL     1      91.200 101.918 -44.038  1.00  0.00    -0.347 N 
HETATM   12  C8  UNL     1      90.527 102.242 -45.259  1.00  0.00     0.153 C 
BRANCH  11  13
HETATM   13  C7  UNL     1      91.517 102.799 -43.016  1.00  0.00     0.217 C 
BRANCH  13  14
HETATM   14  N1  UNL     1      92.545 102.761 -42.098  1.00  0.00    -0.343 N 
HETATM   15  C2  UNL     1      92.332 102.658 -40.640  1.00  0.00     0.086 C 
HETATM   16  C1  UNL     1      91.021 102.062 -40.250  1.00  0.00     0.032 C 
HETATM   17  C3  UNL     1      93.388 101.663 -40.098  1.00  0.00     0.056 C 
HETATM   18  C4  UNL     1      94.739 102.359 -40.132  1.00  0.00     0.121 C 
HETATM   19  C5  UNL     1      94.726 103.415 -41.232  1.00  0.00     0.051 C 
HETATM   20  C6  UNL     1      93.951 102.866 -42.446  1.00  0.00     0.129 C 
BRANCH  18  21
HETATM   21  O1  UNL     1      95.783 101.490 -40.403  1.00  0.00    -0.395 OA
ATOM     22  H1  UNL     1      95.745 100.697 -39.881  1.00  0.00     0.210 HD
ENDBRANCH  18  21
ENDBRANCH  13  14
BRANCH  13  23
HETATM   23  O2  UNL     1      90.712 103.815 -42.911  1.00  0.00    -0.332 OA
ATOM     24  H2  UNL     1      90.903 104.414 -42.199  1.00  0.00     0.220 HD
ENDBRANCH  13  23
ENDBRANCH  11  13
ENDBRANCH   1  11
BRANCH   7  25
HETATM   25  C13 UNL     1      91.980  94.377 -43.015  1.00  0.00     0.089 C 
HETATM   26  C14 UNL     1      91.297  93.402 -43.905  1.00  0.00     0.027 C 
HETATM   27  C15 UNL     1      91.636  92.013 -43.517  1.00  0.00     0.030 C 
HETATM   28  C16 UNL     1      92.850  91.836 -42.689  1.00  0.00     0.069 C 
HETATM   29  C17 UNL     1      92.921  90.365 -42.272  1.00  0.00     0.036 C 
HETATM   30 CL1  UNL     1      94.293  92.150 -43.678  1.00  0.00    -0.116 Cl
HETATM   31  C18 UNL     1      92.859  92.653 -41.427  1.00  0.00     0.122 C 
HETATM   32  C19 UNL     1      92.343  91.869 -40.242  1.00  0.00     0.054 C 
HETATM   33  F1  UNL     1      94.176  92.965 -41.155  1.00  0.00    -0.241 F 
HETATM   34  C20 UNL     1      92.118  93.955 -41.579  1.00  0.00     0.070 C 
ENDBRANCH   7  25
TORSDOF 6
ENDMDL
