MODEL 1
REMARK VINA RESULT: -5.445105708      0.000      0.000
REMARK  2 active torsions:
REMARK  status: ('A' for Active; 'I' for Inactive)
REMARK    1  A    between atoms: C9_12  and  C10_13 
REMARK    2  A    between atoms: C11_15  and  C12_16 
ROOT
HETATM    1  C1  UNL     1      88.208  96.389 -46.930  1.00  0.00     0.017 C 
HETATM    2  C2  UNL     1      88.162  97.144 -45.857  1.00  0.00    -0.060 C 
HETATM    3  C3  UNL     1      87.000  96.948 -44.915  1.00  0.00     0.047 C 
HETATM    4  C4  UNL     1      86.096  98.167 -44.956  1.00  0.00    -0.013 C 
HETATM    5  C5  UNL     1      85.203  98.088 -43.737  1.00  0.00     0.018 C 
HETATM    6  C6  UNL     1      85.239  98.225 -46.174  1.00  0.00     0.018 C 
HETATM    7  C7  UNL     1      86.976  99.413 -44.892  1.00  0.00     0.168 C 
HETATM    8 BR1  UNL     1      86.860 100.417 -46.525  1.00  0.00    -0.068 Br
HETATM    9  N1  UNL     1      88.341  99.054 -44.553  1.00  0.00    -0.323 N 
HETATM   10  C8  UNL     1      89.158  99.366 -43.433  1.00  0.00     0.227 C 
HETATM   11  O1  UNL     1      89.159 100.385 -42.712  1.00  0.00    -0.273 OA
HETATM   12  C9  UNL     1      90.045  98.201 -43.279  1.00  0.00     0.098 C 
HETATM   13  C11 UNL     1      90.307  97.814 -44.713  1.00  0.00     0.090 C 
HETATM   14  C16 UNL     1      89.126  98.192 -45.465  1.00  0.00     0.064 C 
HETATM   15  C17 UNL     1      89.547  99.041 -46.657  1.00  0.00     0.044 C 
ENDROOT
BRANCH  13  16
HETATM   16  C12 UNL     1      90.833  96.437 -44.733  1.00  0.00     0.390 C 
HETATM   17  N2  UNL     1      91.917  96.152 -45.610  1.00  0.00    -0.044 N 
HETATM   18  C13 UNL     1      92.116  94.716 -45.353  1.00  0.00     0.267 C 
ATOM     19  H22 UNL     1      91.770  96.406 -46.587  1.00  0.00     0.279 HD
ATOM     20  H21 UNL     1      92.744  96.737 -45.490  1.00  0.00     0.279 HD
HETATM   21  C14 UNL     1      91.903  94.622 -43.868  1.00  0.00     0.210 C 
HETATM   22  C15 UNL     1      91.139  93.377 -43.473  1.00  0.00     0.042 C 
HETATM   23  N3  UNL     1      91.186  95.828 -43.506  1.00  0.00    -0.040 N 
ATOM     24  H32 UNL     1      91.705  96.441 -42.876  1.00  0.00     0.280 HD
ATOM     25  H31 UNL     1      90.393  95.664 -42.885  1.00  0.00     0.280 HD
ENDBRANCH  13  16
BRANCH  12  26
HETATM   26  C10 UNL     1      91.309  98.601 -42.555  1.00  0.00     0.100 C 
HETATM   27 BR2  UNL     1      92.468  99.603 -43.707  1.00  0.00    -0.096 Br
ENDBRANCH  12  26
TORSDOF 2
ENDMDL
MODEL 2
REMARK VINA RESULT: -5.336891833      2.852      4.763
REMARK  2 active torsions:
REMARK  status: ('A' for Active; 'I' for Inactive)
REMARK    1  A    between atoms: C9_12  and  C10_13 
REMARK    2  A    between atoms: C11_15  and  C12_16 
ROOT
HETATM    1  C1  UNL     1      92.001  99.721 -42.201  1.00  0.00     0.017 C 
HETATM    2  C2  UNL     1      91.795  99.233 -43.402  1.00  0.00    -0.060 C 
HETATM    3  C3  UNL     1      92.848  99.493 -44.451  1.00  0.00     0.047 C 
HETATM    4  C4  UNL     1      92.298 100.437 -45.506  1.00  0.00    -0.013 C 
HETATM    5  C5  UNL     1      93.223 100.342 -46.699  1.00  0.00     0.018 C 
HETATM    6  C6  UNL     1      92.242 101.856 -45.054  1.00  0.00     0.018 C 
HETATM    7  C7  UNL     1      90.895  99.965 -45.880  1.00  0.00     0.168 C 
HETATM    8 BR1  UNL     1      89.575 101.258 -45.358  1.00  0.00    -0.068 Br
HETATM    9  N1  UNL     1      90.636  98.649 -45.325  1.00  0.00    -0.323 N 
HETATM   10  C8  UNL     1      90.382  97.391 -45.934  1.00  0.00     0.227 C 
HETATM   11  O1  UNL     1      89.819  97.135 -47.019  1.00  0.00    -0.273 OA
HETATM   12  C9  UNL     1      90.936  96.400 -44.998  1.00  0.00     0.098 C 
HETATM   13  C11 UNL     1      90.615  97.019 -43.660  1.00  0.00     0.090 C 
HETATM   14  C16 UNL     1      90.625  98.456 -43.858  1.00  0.00     0.064 C 
HETATM   15  C17 UNL     1      89.322  99.038 -43.324  1.00  0.00     0.044 C 
ENDROOT
BRANCH  13  16
HETATM   16  C12 UNL     1      91.454  96.370 -42.636  1.00  0.00     0.390 C 
HETATM   17  N2  UNL     1      91.376  96.861 -41.303  1.00  0.00    -0.044 N 
HETATM   18  C13 UNL     1      92.351  95.992 -40.625  1.00  0.00     0.267 C 
ATOM     19  H22 UNL     1      91.533  97.864 -41.195  1.00  0.00     0.279 HD
ATOM     20  H21 UNL     1      90.441  96.874 -40.895  1.00  0.00     0.279 HD
HETATM   21  C14 UNL     1      92.105  94.660 -41.279  1.00  0.00     0.210 C 
HETATM   22  C15 UNL     1      93.387  93.899 -41.537  1.00  0.00     0.042 C 
HETATM   23  N3  UNL     1      91.403  94.961 -42.510  1.00  0.00    -0.040 N 
ATOM     24  H32 UNL     1      90.457  94.579 -42.548  1.00  0.00     0.280 HD
ATOM     25  H31 UNL     1      91.766  94.462 -43.323  1.00  0.00     0.280 HD
ENDBRANCH  13  16
BRANCH  12  26
HETATM   26  C10 UNL     1      90.254  95.065 -45.188  1.00  0.00     0.100 C 
HETATM   27 BR2  UNL     1      91.525  93.714 -45.671  1.00  0.00    -0.096 Br
ENDBRANCH  12  26
TORSDOF 2
ENDMDL
MODEL 3
REMARK VINA RESULT: -5.208213598      2.322      5.605
REMARK  2 active torsions:
REMARK  status: ('A' for Active; 'I' for Inactive)
REMARK    1  A    between atoms: C9_12  and  C10_13 
REMARK    2  A    between atoms: C11_15  and  C12_16 
ROOT
HETATM    1  C1  UNL     1      88.920 100.711 -43.469  1.00  0.00     0.017 C 
HETATM    2  C2  UNL     1      89.325  99.522 -43.850  1.00  0.00    -0.060 C 
HETATM    3  C3  UNL     1      89.690  98.530 -42.774  1.00  0.00     0.047 C 
HETATM    4  C4  UNL     1      91.187  98.274 -42.799  1.00  0.00    -0.013 C 
HETATM    5  C5  UNL     1      91.426  97.014 -41.997  1.00  0.00     0.018 C 
HETATM    6  C6  UNL     1      91.984  99.382 -42.199  1.00  0.00     0.018 C 
HETATM    7  C7  UNL     1      91.609  98.070 -44.251  1.00  0.00     0.168 C 
HETATM    8 BR1  UNL     1      92.773  99.483 -44.831  1.00  0.00    -0.068 Br
HETATM    9  N1  UNL     1      90.444  97.922 -45.104  1.00  0.00    -0.323 N 
HETATM   10  C8  UNL     1      89.976  96.843 -45.900  1.00  0.00     0.227 C 
HETATM   11  O1  UNL     1      90.624  95.956 -46.492  1.00  0.00    -0.273 OA
HETATM   12  C9  UNL     1      88.510  96.976 -45.891  1.00  0.00     0.098 C 
HETATM   13  C11 UNL     1      88.330  98.473 -45.917  1.00  0.00     0.090 C 
HETATM   14  C16 UNL     1      89.480  99.038 -45.237  1.00  0.00     0.064 C 
HETATM   15  C17 UNL     1      90.116 100.094 -46.132  1.00  0.00     0.044 C 
ENDROOT
BRANCH  13  16
HETATM   16  C12 UNL     1      86.951  98.782 -45.498  1.00  0.00     0.390 C 
HETATM   17  N2  UNL     1      86.041  99.238 -46.493  1.00  0.00    -0.044 N 
HETATM   18  C13 UNL     1      84.828  99.450 -45.686  1.00  0.00     0.267 C 
ATOM     19  H22 UNL     1      86.352 100.044 -47.036  1.00  0.00     0.279 HD
ATOM     20  H21 UNL     1      85.930  98.624 -47.300  1.00  0.00     0.279 HD
HETATM   21  C14 UNL     1      84.862  98.284 -44.739  1.00  0.00     0.210 C 
HETATM   22  C15 UNL     1      84.426  98.665 -43.340  1.00  0.00     0.042 C 
HETATM   23  N3  UNL     1      86.232  97.811 -44.762  1.00  0.00    -0.040 N 
ATOM     24  H32 UNL     1      86.332  96.863 -45.124  1.00  0.00     0.280 HD
ATOM     25  H31 UNL     1      86.619  97.627 -43.837  1.00  0.00     0.280 HD
ENDBRANCH  13  16
BRANCH  12  26
HETATM   26  C10 UNL     1      87.918  96.307 -47.109  1.00  0.00     0.100 C 
HETATM   27 BR2  UNL     1      88.355  97.281 -48.701  1.00  0.00    -0.096 Br
ENDBRANCH  12  26
TORSDOF 2
ENDMDL
MODEL 4
REMARK VINA RESULT: -4.966201199      1.723      2.131
REMARK  2 active torsions:
REMARK  status: ('A' for Active; 'I' for Inactive)
REMARK    1  A    between atoms: C9_12  and  C10_13 
REMARK    2  A    between atoms: C11_15  and  C12_16 
ROOT
HETATM    1  C1  UNL     1      87.720  97.003 -45.857  1.00  0.00     0.017 C 
HETATM    2  C2  UNL     1      87.371  97.944 -45.011  1.00  0.00    -0.060 C 
HETATM    3  C3  UNL     1      86.190  97.671 -44.112  1.00  0.00     0.047 C 
HETATM    4  C4  UNL     1      85.030  98.569 -44.504  1.00  0.00    -0.013 C 
HETATM    5  C5  UNL     1      84.049  98.539 -43.352  1.00  0.00     0.018 C 
HETATM    6  C6  UNL     1      84.330  98.121 -45.741  1.00  0.00     0.018 C 
HETATM    7  C7  UNL     1      85.570  99.981 -44.707  1.00  0.00     0.168 C 
HETATM    8 BR1  UNL     1      85.405 100.521 -46.542  1.00  0.00    -0.068 Br
HETATM    9  N1  UNL     1      86.934 100.080 -44.218  1.00  0.00    -0.323 N 
HETATM   10  C8  UNL     1      87.518 100.840 -43.170  1.00  0.00     0.227 C 
HETATM   11  O1  UNL     1      87.191 101.961 -42.727  1.00  0.00    -0.273 OA
HETATM   12  C9  UNL     1      88.636 100.016 -42.683  1.00  0.00     0.098 C 
HETATM   13  C11 UNL     1      89.146  99.394 -43.959  1.00  0.00     0.090 C 
HETATM   14  C16 UNL     1      88.002  99.268 -44.843  1.00  0.00     0.064 C 
HETATM   15  C17 UNL     1      88.341  99.903 -46.185  1.00  0.00     0.044 C 
ENDROOT
BRANCH  13  16
HETATM   16  C12 UNL     1      89.987  98.235 -43.607  1.00  0.00     0.390 C 
HETATM   17  N2  UNL     1      90.870  97.728 -44.601  1.00  0.00    -0.044 N 
HETATM   18  C13 UNL     1      91.484  96.600 -43.881  1.00  0.00     0.267 C 
ATOM     19  H22 UNL     1      90.438  97.495 -45.494  1.00  0.00     0.279 HD
ATOM     20  H21 UNL     1      91.524  98.406 -44.993  1.00  0.00     0.279 HD
HETATM   21  C14 UNL     1      91.657  97.157 -42.495  1.00  0.00     0.210 C 
HETATM   22  C15 UNL     1      91.352  96.136 -41.421  1.00  0.00     0.042 C 
HETATM   23  N3  UNL     1      90.762  98.294 -42.424  1.00  0.00    -0.040 N 
ATOM     24  H32 UNL     1      91.239  99.186 -42.289  1.00  0.00     0.280 HD
ATOM     25  H31 UNL     1      90.205  98.326 -41.570  1.00  0.00     0.280 HD
ENDBRANCH  13  16
BRANCH  12  26
HETATM   26  C10 UNL     1      89.675 100.886 -42.016  1.00  0.00     0.100 C 
HETATM   27 BR2  UNL     1      90.651 101.901 -43.316  1.00  0.00    -0.096 Br
ENDBRANCH  12  26
TORSDOF 2
ENDMDL
MODEL 5
REMARK VINA RESULT: -4.873004869      2.177      4.502
REMARK  2 active torsions:
REMARK  status: ('A' for Active; 'I' for Inactive)
REMARK    1  A    between atoms: C9_12  and  C10_13 
REMARK    2  A    between atoms: C11_15  and  C12_16 
ROOT
HETATM    1  C1  UNL     1      92.089  98.241 -42.256  1.00  0.00     0.017 C 
HETATM    2  C2  UNL     1      91.596  98.887 -43.287  1.00  0.00    -0.060 C 
HETATM    3  C3  UNL     1      92.525  99.798 -44.050  1.00  0.00     0.047 C 
HETATM    4  C4  UNL     1      92.113 101.244 -43.838  1.00  0.00    -0.013 C 
HETATM    5  C5  UNL     1      92.805 102.055 -44.912  1.00  0.00     0.018 C 
HETATM    6  C6  UNL     1      92.508 101.780 -42.505  1.00  0.00     0.018 C 
HETATM    7  C7  UNL     1      90.598 101.334 -43.996  1.00  0.00     0.168 C 
HETATM    8 BR1  UNL     1      89.764 101.818 -42.335  1.00  0.00    -0.068 Br
HETATM    9  N1  UNL     1      90.069 100.099 -44.546  1.00  0.00    -0.323 N 
HETATM   10  C8  UNL     1      89.401  99.807 -45.765  1.00  0.00     0.227 C 
HETATM   11  O1  UNL     1      88.647 100.530 -46.448  1.00  0.00    -0.273 OA
HETATM   12  C9  UNL     1      89.788  98.423 -46.085  1.00  0.00     0.098 C 
HETATM   13  C11 UNL     1      89.835  97.786 -44.718  1.00  0.00     0.090 C 
HETATM   14  C16 UNL     1      90.208  98.835 -43.788  1.00  0.00     0.064 C 
HETATM   15  C17 UNL     1      89.198  98.867 -42.647  1.00  0.00     0.044 C 
ENDROOT
BRANCH  13  16
HETATM   16  C12 UNL     1      90.598  96.529 -44.818  1.00  0.00     0.390 C 
HETATM   17  N2  UNL     1      91.843  96.560 -45.506  1.00  0.00    -0.044 N 
HETATM   18  C13 UNL     1      92.255  95.150 -45.405  1.00  0.00     0.267 C 
ATOM     19  H22 UNL     1      91.813  96.941 -46.452  1.00  0.00     0.279 HD
ATOM     20  H21 UNL     1      92.520  97.241 -45.159  1.00  0.00     0.279 HD
HETATM   21  C14 UNL     1      91.825  94.788 -44.011  1.00  0.00     0.210 C 
HETATM   22  C15 UNL     1      91.246  93.392 -43.931  1.00  0.00     0.042 C 
HETATM   23  N3  UNL     1      90.852  95.794 -43.636  1.00  0.00    -0.040 N 
ATOM     24  H32 UNL     1      91.142  96.372 -42.847  1.00  0.00     0.280 HD
ATOM     25  H31 UNL     1      90.012  95.411 -43.202  1.00  0.00     0.280 HD
ENDBRANCH  13  16
BRANCH  12  26
HETATM   26  C10 UNL     1      88.750  97.785 -46.978  1.00  0.00     0.100 C 
HETATM   27 BR2  UNL     1      87.202  97.276 -45.969  1.00  0.00    -0.096 Br
ENDBRANCH  12  26
TORSDOF 2
ENDMDL
