MODEL 1
REMARK VINA RESULT: -5.385558185      0.000      0.000
REMARK  2 active torsions:
REMARK  status: ('A' for Active; 'I' for Inactive)
REMARK    1  A    between atoms: C1_4  and  C2_5 
REMARK    2  A    between atoms: C2_5  and  O1_6 
ROOT
HETATM    1  C2  UNL     1      90.494  92.300 -43.447  1.00  0.00     0.131 C 
HETATM    2  C3  UNL     1      91.944  92.677 -43.651  1.00  0.00     0.098 C 
HETATM    3  C4  UNL     1      92.709  91.903 -42.597  1.00  0.00     0.155 C 
HETATM    4 CL1  UNL     1      92.907  92.881 -41.112  1.00  0.00    -0.095 Cl
HETATM    5 CL2  UNL     1      94.277  91.384 -43.239  1.00  0.00    -0.095 Cl
HETATM    6  C5  UNL     1      91.820  90.757 -42.327  1.00  0.00     0.071 C 
HETATM    7 CL3  UNL     1      92.263  89.269 -41.497  1.00  0.00    -0.084 Cl
HETATM    8  C6  UNL     1      90.605  90.971 -42.791  1.00  0.00     0.072 C 
HETATM    9 CL4  UNL     1      89.213  89.860 -42.687  1.00  0.00    -0.084 Cl
ENDROOT
BRANCH   1  10
HETATM   10  C1  UNL     1      89.838  93.310 -42.563  1.00  0.00     0.097 C 
HETATM   11  N1  UNL     1      90.115  94.531 -42.690  1.00  0.00    -0.408 N 
ATOM     12  H12 UNL     1      90.790  94.815 -43.401  1.00  0.00     0.155 HD
ATOM     13  H11 UNL     1      89.666  95.221 -42.087  1.00  0.00     0.155 HD
ENDBRANCH   1  10
BRANCH   1  14
HETATM   14  O1  UNL     1      89.815  92.143 -44.644  1.00  0.00    -0.378 OA
ATOM     15  H1  UNL     1      89.399  91.291 -44.705  1.00  0.00     0.211 HD
ENDBRANCH   1  14
TORSDOF 2
ENDMDL
MODEL 2
REMARK VINA RESULT: -5.382675514      3.458      4.600
REMARK  2 active torsions:
REMARK  status: ('A' for Active; 'I' for Inactive)
REMARK    1  A    between atoms: C1_4  and  C2_5 
REMARK    2  A    between atoms: C2_5  and  O1_6 
ROOT
HETATM    1  C2  UNL     1      89.759  95.777 -41.764  1.00  0.00     0.131 C 
HETATM    2  C3  UNL     1      90.261  94.464 -41.206  1.00  0.00     0.098 C 
HETATM    3  C4  UNL     1      90.320  93.524 -42.393  1.00  0.00     0.155 C 
HETATM    4 CL1  UNL     1      88.793  92.605 -42.550  1.00  0.00    -0.095 Cl
HETATM    5 CL2  UNL     1      91.711  92.438 -42.241  1.00  0.00    -0.095 Cl
HETATM    6  C5  UNL     1      90.467  94.449 -43.532  1.00  0.00     0.071 C 
HETATM    7 CL3  UNL     1      90.981  94.020 -45.161  1.00  0.00    -0.084 Cl
HETATM    8  C6  UNL     1      90.160  95.684 -43.192  1.00  0.00     0.072 C 
HETATM    9 CL4  UNL     1      90.195  97.121 -44.249  1.00  0.00    -0.084 Cl
ENDROOT
BRANCH   1  10
HETATM   10  C1  UNL     1      88.276  95.852 -41.600  1.00  0.00     0.097 C 
HETATM   11  N1  UNL     1      87.685  96.957 -41.719  1.00  0.00    -0.408 N 
ATOM     12  H12 UNL     1      88.234  97.792 -41.927  1.00  0.00     0.155 HD
ATOM     13  H11 UNL     1      86.672  97.009 -41.607  1.00  0.00     0.155 HD
ENDBRANCH   1  10
BRANCH   1  14
HETATM   14  O1  UNL     1      90.396  96.869 -41.200  1.00  0.00    -0.378 OA
ATOM     15  H1  UNL     1      90.123  97.012 -40.301  1.00  0.00     0.211 HD
ENDBRANCH   1  14
TORSDOF 2
ENDMDL
MODEL 3
REMARK VINA RESULT: -5.061469210      2.535      3.886
REMARK  2 active torsions:
REMARK  status: ('A' for Active; 'I' for Inactive)
REMARK    1  A    between atoms: C1_4  and  C2_5 
REMARK    2  A    between atoms: C2_5  and  O1_6 
ROOT
HETATM    1  C2  UNL     1      91.686  91.825 -43.145  1.00  0.00     0.131 C 
HETATM    2  C3  UNL     1      90.796  92.705 -43.994  1.00  0.00     0.098 C 
HETATM    3  C4  UNL     1      90.240  93.744 -43.043  1.00  0.00     0.155 C 
HETATM    4 CL1  UNL     1      88.671  93.211 -42.367  1.00  0.00    -0.095 Cl
HETATM    5 CL2  UNL     1      90.087  95.305 -43.867  1.00  0.00    -0.095 Cl
HETATM    6  C5  UNL     1      91.257  93.784 -41.975  1.00  0.00     0.071 C 
HETATM    7 CL3  UNL     1      91.438  95.044 -40.757  1.00  0.00    -0.084 Cl
HETATM    8  C6  UNL     1      92.051  92.734 -42.027  1.00  0.00     0.072 C 
HETATM    9 CL4  UNL     1      93.414  92.372 -40.934  1.00  0.00    -0.084 Cl
ENDROOT
BRANCH   1  10
HETATM   10  C1  UNL     1      90.908  90.639 -42.674  1.00  0.00     0.097 C 
HETATM   11  N1  UNL     1      90.009  90.146 -43.404  1.00  0.00    -0.408 N 
ATOM     12  H12 UNL     1      89.823  90.569 -44.314  1.00  0.00     0.155 HD
ATOM     13  H11 UNL     1      89.478  89.336 -43.082  1.00  0.00     0.155 HD
ENDBRANCH   1  10
BRANCH   1  14
HETATM   14  O1  UNL     1      92.845  91.452 -43.804  1.00  0.00    -0.378 OA
ATOM     15  H1  UNL     1      93.580  92.006 -43.568  1.00  0.00     0.211 HD
ENDBRANCH   1  14
TORSDOF 2
ENDMDL
MODEL 4
REMARK VINA RESULT: -4.862028383      3.002      3.751
REMARK  2 active torsions:
REMARK  status: ('A' for Active; 'I' for Inactive)
REMARK    1  A    between atoms: C1_4  and  C2_5 
REMARK    2  A    between atoms: C2_5  and  O1_6 
ROOT
HETATM    1  C2  UNL     1      90.467  92.201 -43.246  1.00  0.00     0.131 C 
HETATM    2  C3  UNL     1      91.363  93.272 -42.666  1.00  0.00     0.098 C 
HETATM    3  C4  UNL     1      90.443  94.433 -42.351  1.00  0.00     0.155 C 
HETATM    4 CL1  UNL     1      90.366  95.573 -43.728  1.00  0.00    -0.095 Cl
HETATM    5 CL2  UNL     1      90.975  95.248 -40.871  1.00  0.00    -0.095 Cl
HETATM    6  C5  UNL     1      89.136  93.772 -42.174  1.00  0.00     0.071 C 
HETATM    7 CL3  UNL     1      87.709  94.474 -41.417  1.00  0.00    -0.084 Cl
HETATM    8  C6  UNL     1      89.145  92.549 -42.664  1.00  0.00     0.072 C 
HETATM    9 CL4  UNL     1      87.787  91.393 -42.669  1.00  0.00    -0.084 Cl
ENDROOT
BRANCH   1  10
HETATM   10  C1  UNL     1      90.470  92.304 -44.737  1.00  0.00     0.097 C 
HETATM   11  N1  UNL     1      90.689  91.282 -45.438  1.00  0.00    -0.408 N 
ATOM     12  H12 UNL     1      90.862  90.390 -44.973  1.00  0.00     0.155 HD
ATOM     13  H11 UNL     1      90.691  91.353 -46.456  1.00  0.00     0.155 HD
ENDBRANCH   1  10
BRANCH   1  14
HETATM   14  O1  UNL     1      90.815  90.931 -42.817  1.00  0.00    -0.378 OA
ATOM     15  H1  UNL     1      91.601  90.615 -43.247  1.00  0.00     0.211 HD
ENDBRANCH   1  14
TORSDOF 2
ENDMDL
MODEL 5
REMARK VINA RESULT: -4.829086377      1.783      2.944
REMARK  2 active torsions:
REMARK  status: ('A' for Active; 'I' for Inactive)
REMARK    1  A    between atoms: C1_4  and  C2_5 
REMARK    2  A    between atoms: C2_5  and  O1_6 
ROOT
HETATM    1  C2  UNL     1      89.974  92.727 -42.867  1.00  0.00     0.131 C 
HETATM    2  C3  UNL     1      90.345  91.262 -42.890  1.00  0.00     0.098 C 
HETATM    3  C4  UNL     1      91.831  91.223 -42.597  1.00  0.00     0.155 C 
HETATM    4 CL1  UNL     1      92.776  91.245 -44.116  1.00  0.00    -0.095 Cl
HETATM    5 CL2  UNL     1      92.222  89.800 -41.617  1.00  0.00    -0.095 Cl
HETATM    6  C5  UNL     1      92.048  92.479 -41.855  1.00  0.00     0.071 C 
HETATM    7 CL3  UNL     1      93.460  92.881 -40.882  1.00  0.00    -0.084 Cl
HETATM    8  C6  UNL     1      91.033  93.306 -42.001  1.00  0.00     0.072 C 
HETATM    9 CL4  UNL     1      90.871  94.932 -41.284  1.00  0.00    -0.084 Cl
ENDROOT
BRANCH   1  10
HETATM   10  C1  UNL     1      90.024  93.274 -44.258  1.00  0.00     0.097 C 
HETATM   11  N1  UNL     1      89.809  92.516 -45.239  1.00  0.00    -0.408 N 
ATOM     12  H12 UNL     1      89.602  91.531 -45.069  1.00  0.00     0.155 HD
ATOM     13  H11 UNL     1      89.843  92.889 -46.188  1.00  0.00     0.155 HD
ENDBRANCH   1  10
BRANCH   1  14
HETATM   14  O1  UNL     1      88.745  92.953 -42.269  1.00  0.00    -0.378 OA
ATOM     15  H1  UNL     1      88.465  92.211 -41.747  1.00  0.00     0.211 HD
ENDBRANCH   1  14
TORSDOF 2
ENDMDL
