MODEL 1
REMARK VINA RESULT: -5.161852950      0.000      0.000
REMARK  2 active torsions:
REMARK  status: ('A' for Active; 'I' for Inactive)
REMARK    1  A    between atoms: C2_2  and  O1_3 
REMARK    2  A    between atoms: C7_13  and  O2_14 
ROOT
HETATM    1  C1  UNL     1      94.232  90.923 -41.078  1.00  0.00     0.049 C 
HETATM    2  C2  UNL     1      93.398  91.417 -42.250  1.00  0.00     0.084 C 
HETATM    3  C3  UNL     1      92.884  92.777 -41.889  1.00  0.00     0.063 C 
HETATM    4  C4  UNL     1      91.390  92.737 -41.651  1.00  0.00     0.127 C 
HETATM    5 CL1  UNL     1      90.881  94.345 -41.131  1.00  0.00    -0.122 Cl
HETATM    6  C5  UNL     1      90.775  92.384 -43.008  1.00  0.00     0.163 C 
HETATM    7 CL2  UNL     1      89.023  92.323 -42.796  1.00  0.00    -0.097 Cl
HETATM    8 CL3  UNL     1      91.171  93.791 -44.061  1.00  0.00    -0.097 Cl
HETATM    9  C6  UNL     1      91.357  91.136 -43.565  1.00  0.00     0.241 C 
HETATM   10  F1  UNL     1      90.341  90.279 -43.971  1.00  0.00    -0.243 F 
HETATM   11  C7  UNL     1      92.344  90.450 -42.668  1.00  0.00     0.189 C 
ENDROOT
BRANCH   2  12
HETATM   12  O1  UNL     1      94.301  91.538 -43.330  1.00  0.00    -0.387 OA
ATOM     13  H1  UNL     1      93.935  91.005 -44.026  1.00  0.00     0.210 HD
ENDBRANCH   2  12
BRANCH  11  14
HETATM   14  O2  UNL     1      91.756  89.759 -41.620  1.00  0.00    -0.390 OA
ATOM     15  H2  UNL     1      91.624  88.832 -41.789  1.00  0.00     0.210 HD
ENDBRANCH  11  14
TORSDOF 2
ENDMDL
MODEL 2
REMARK VINA RESULT: -5.103602605      2.911      3.985
REMARK  2 active torsions:
REMARK  status: ('A' for Active; 'I' for Inactive)
REMARK    1  A    between atoms: C2_2  and  O1_3 
REMARK    2  A    between atoms: C7_13  and  O2_14 
ROOT
HETATM    1  C1  UNL     1      90.838  95.618 -41.412  1.00  0.00     0.049 C 
HETATM    2  C2  UNL     1      90.319  94.284 -41.927  1.00  0.00     0.084 C 
HETATM    3  C3  UNL     1      91.327  93.240 -41.555  1.00  0.00     0.063 C 
HETATM    4  C4  UNL     1      92.043  92.726 -42.785  1.00  0.00     0.127 C 
HETATM    5 CL1  UNL     1      93.280  91.584 -42.256  1.00  0.00    -0.122 Cl
HETATM    6  C5  UNL     1      90.966  92.018 -43.612  1.00  0.00     0.163 C 
HETATM    7 CL2  UNL     1      91.742  91.392 -45.069  1.00  0.00    -0.097 Cl
HETATM    8 CL3  UNL     1      90.462  90.622 -42.593  1.00  0.00    -0.097 Cl
HETATM    9  C6  UNL     1      89.809  92.910 -43.883  1.00  0.00     0.241 C 
HETATM   10  F1  UNL     1      89.495  92.881 -45.237  1.00  0.00    -0.243 F 
HETATM   11  C7  UNL     1      89.966  94.312 -43.374  1.00  0.00     0.189 C 
ENDROOT
BRANCH   2  12
HETATM   12  O1  UNL     1      89.123  94.044 -41.213  1.00  0.00    -0.387 OA
ATOM     13  H1  UNL     1      88.524  93.664 -41.844  1.00  0.00     0.210 HD
ENDBRANCH   2  12
BRANCH  11  14
HETATM   14  O2  UNL     1      90.805  95.095 -44.151  1.00  0.00    -0.390 OA
ATOM     15  H2  UNL     1      90.724  94.945 -45.086  1.00  0.00     0.210 HD
ENDBRANCH  11  14
TORSDOF 2
ENDMDL
MODEL 3
REMARK VINA RESULT: -5.055262773      6.960      8.049
REMARK  2 active torsions:
REMARK  status: ('A' for Active; 'I' for Inactive)
REMARK    1  A    between atoms: C2_2  and  O1_3 
REMARK    2  A    between atoms: C7_13  and  O2_14 
ROOT
HETATM    1  C1  UNL     1      89.636  86.938 -41.053  1.00  0.00     0.049 C 
HETATM    2  C2  UNL     1      88.360  86.202 -40.673  1.00  0.00     0.084 C 
HETATM    3  C3  UNL     1      87.263  86.732 -41.545  1.00  0.00     0.063 C 
HETATM    4  C4  UNL     1      86.287  87.555 -40.733  1.00  0.00     0.127 C 
HETATM    5 CL1  UNL     1      85.091  88.228 -41.843  1.00  0.00    -0.122 Cl
HETATM    6  C5  UNL     1      85.634  86.565 -39.763  1.00  0.00     0.163 C 
HETATM    7 CL2  UNL     1      84.477  87.469 -38.783  1.00  0.00    -0.097 Cl
HETATM    8 CL3  UNL     1      84.718  85.434 -40.824  1.00  0.00    -0.097 Cl
HETATM    9  C6  UNL     1      86.649  85.828 -38.968  1.00  0.00     0.241 C 
HETATM   10  F1  UNL     1      86.320  85.874 -37.618  1.00  0.00    -0.243 F 
HETATM   11  C7  UNL     1      88.067  86.252 -39.213  1.00  0.00     0.189 C 
ENDROOT
BRANCH   2  12
HETATM   12  O1  UNL     1      88.595  84.847 -41.002  1.00  0.00    -0.387 OA
ATOM     13  H1  UNL     1      88.329  84.758 -41.910  1.00  0.00     0.210 HD
ENDBRANCH   2  12
BRANCH  11  14
HETATM   14  O2  UNL     1      88.401  87.451 -38.605  1.00  0.00    -0.390 OA
ATOM     15  H2  UNL     1      88.919  88.035 -39.149  1.00  0.00     0.210 HD
ENDBRANCH  11  14
TORSDOF 2
ENDMDL
MODEL 4
REMARK VINA RESULT: -5.029693239      2.623      3.807
REMARK  2 active torsions:
REMARK  status: ('A' for Active; 'I' for Inactive)
REMARK    1  A    between atoms: C2_2  and  O1_3 
REMARK    2  A    between atoms: C7_13  and  O2_14 
ROOT
HETATM    1  C1  UNL     1      89.884  94.793 -42.691  1.00  0.00     0.049 C 
HETATM    2  C2  UNL     1      90.287  93.328 -42.751  1.00  0.00     0.084 C 
HETATM    3  C3  UNL     1      91.240  93.082 -41.622  1.00  0.00     0.063 C 
HETATM    4  C4  UNL     1      92.639  92.841 -42.149  1.00  0.00     0.127 C 
HETATM    5 CL1  UNL     1      93.717  92.665 -40.762  1.00  0.00    -0.122 Cl
HETATM    6  C5  UNL     1      92.552  91.532 -42.940  1.00  0.00     0.163 C 
HETATM    7 CL2  UNL     1      94.162  91.194 -43.582  1.00  0.00    -0.097 Cl
HETATM    8 CL3  UNL     1      92.161  90.284 -41.703  1.00  0.00    -0.097 Cl
HETATM    9  C6  UNL     1      91.491  91.589 -43.977  1.00  0.00     0.241 C 
HETATM   10  F1  UNL     1      91.998  91.165 -45.200  1.00  0.00    -0.243 F 
HETATM   11  C7  UNL     1      90.794  92.913 -44.089  1.00  0.00     0.189 C 
ENDROOT
BRANCH   2  12
HETATM   12  O1  UNL     1      89.098  92.601 -42.515  1.00  0.00    -0.387 OA
ATOM     13  H1  UNL     1      88.861  92.223 -43.354  1.00  0.00     0.210 HD
ENDBRANCH   2  12
BRANCH  11  14
HETATM   14  O2  UNL     1      91.541  93.881 -44.741  1.00  0.00    -0.390 OA
ATOM     15  H2  UNL     1      91.186  94.149 -45.581  1.00  0.00     0.210 HD
ENDBRANCH  11  14
TORSDOF 2
ENDMDL
MODEL 5
REMARK VINA RESULT: -4.964286440      3.009      4.073
REMARK  2 active torsions:
REMARK  status: ('A' for Active; 'I' for Inactive)
REMARK    1  A    between atoms: C2_2  and  O1_3 
REMARK    2  A    between atoms: C7_13  and  O2_14 
ROOT
HETATM    1  C1  UNL     1      88.807  94.630 -41.984  1.00  0.00     0.049 C 
HETATM    2  C2  UNL     1      90.051  94.021 -42.612  1.00  0.00     0.084 C 
HETATM    3  C3  UNL     1      89.662  92.683 -43.164  1.00  0.00     0.063 C 
HETATM    4  C4  UNL     1      90.287  91.570 -42.353  1.00  0.00     0.127 C 
HETATM    5 CL1  UNL     1      89.699  90.034 -42.997  1.00  0.00    -0.122 Cl
HETATM    6  C5  UNL     1      91.796  91.709 -42.572  1.00  0.00     0.163 C 
HETATM    7 CL2  UNL     1      92.587  90.429 -41.647  1.00  0.00    -0.097 Cl
HETATM    8 CL3  UNL     1      92.029  91.370 -44.325  1.00  0.00    -0.097 Cl
HETATM    9  C6  UNL     1      92.274  93.075 -42.238  1.00  0.00     0.241 C 
HETATM   10  F1  UNL     1      93.382  92.999 -41.402  1.00  0.00    -0.243 F 
HETATM   11  C7  UNL     1      91.220  93.991 -41.689  1.00  0.00     0.189 C 
ENDROOT
BRANCH   2  12
HETATM   12  O1  UNL     1      90.391  94.879 -43.683  1.00  0.00    -0.387 OA
ATOM     13  H1  UNL     1      89.785  94.662 -44.382  1.00  0.00     0.210 HD
ENDBRANCH   2  12
BRANCH  11  14
HETATM   14  O2  UNL     1      90.895  93.735 -40.366  1.00  0.00    -0.390 OA
ATOM     15  H2  UNL     1      90.071  94.117 -40.085  1.00  0.00     0.210 HD
ENDBRANCH  11  14
TORSDOF 2
ENDMDL
