MODEL 1
REMARK VINA RESULT: -5.471579003      0.000      0.000
REMARK  0 active torsions:
REMARK  status: ('A' for Active; 'I' for Inactive)
ROOT
HETATM    1  N1  UNL     1      90.099  92.251 -45.910  1.00  0.00    -0.403 N 
ATOM      2  H11 UNL     1      89.585  93.049 -46.282  1.00  0.00     0.155 HD
ATOM      3  H12 UNL     1      90.168  91.568 -46.665  1.00  0.00     0.155 HD
HETATM    4  C1  UNL     1      90.556  92.138 -44.746  1.00  0.00     0.025 C 
HETATM    5  C2  UNL     1      91.298  90.987 -44.210  1.00  0.00     0.080 C 
HETATM    6  C3  UNL     1      92.374  91.676 -43.377  1.00  0.00     0.122 C 
HETATM    7 CL1  UNL     1      93.013  90.565 -42.171  1.00  0.00    -0.120 Cl
HETATM    8  C4  UNL     1      91.627  92.811 -42.792  1.00  0.00     0.016 C 
HETATM    9  C5  UNL     1      91.943  93.447 -41.687  1.00  0.00     0.110 C 
HETATM   10 CL2  UNL     1      93.347  92.981 -40.761  1.00  0.00    -0.070 Cl
HETATM   11 CL3  UNL     1      90.979  94.798 -41.071  1.00  0.00    -0.070 Cl
HETATM   12  C6  UNL     1      90.457  93.125 -43.653  1.00  0.00     0.178 C 
HETATM   13 CL4  UNL     1      88.981  92.794 -42.704  1.00  0.00    -0.090 Cl
HETATM   14 CL5  UNL     1      90.487  94.796 -44.235  1.00  0.00    -0.090 Cl
ENDROOT
TORSDOF 0
ENDMDL
MODEL 2
REMARK VINA RESULT: -5.328339177      1.963      3.372
REMARK  0 active torsions:
REMARK  status: ('A' for Active; 'I' for Inactive)
ROOT
HETATM    1  N1  UNL     1      91.262  93.710 -44.539  1.00  0.00    -0.403 N 
ATOM      2  H11 UNL     1      92.130  94.205 -44.742  1.00  0.00     0.155 HD
ATOM      3  H12 UNL     1      90.546  94.113 -45.143  1.00  0.00     0.155 HD
HETATM    4  C1  UNL     1      91.113  92.783 -43.705  1.00  0.00     0.025 C 
HETATM    5  C2  UNL     1      89.862  92.068 -43.413  1.00  0.00     0.080 C 
HETATM    6  C3  UNL     1      90.356  90.633 -43.261  1.00  0.00     0.122 C 
HETATM    7 CL1  UNL     1      89.195  89.685 -42.338  1.00  0.00    -0.120 Cl
HETATM    8  C4  UNL     1      91.645  90.826 -42.562  1.00  0.00     0.016 C 
HETATM    9  C5  UNL     1      92.253  89.931 -41.818  1.00  0.00     0.110 C 
HETATM   10 CL2  UNL     1      91.556  88.350 -41.576  1.00  0.00    -0.070 Cl
HETATM   11 CL3  UNL     1      93.799  90.264 -41.021  1.00  0.00    -0.070 Cl
HETATM   12  C6  UNL     1      92.150  92.198 -42.832  1.00  0.00     0.178 C 
HETATM   13 CL4  UNL     1      92.169  93.084 -41.281  1.00  0.00    -0.090 Cl
HETATM   14 CL5  UNL     1      93.751  92.183 -43.585  1.00  0.00    -0.090 Cl
ENDROOT
TORSDOF 0
ENDMDL
MODEL 3
REMARK VINA RESULT: -5.297015298      2.006      3.358
REMARK  0 active torsions:
REMARK  status: ('A' for Active; 'I' for Inactive)
ROOT
HETATM    1  N1  UNL     1      88.634  94.552 -41.532  1.00  0.00    -0.403 N 
ATOM      2  H11 UNL     1      87.770  94.405 -42.055  1.00  0.00     0.155 HD
ATOM      3  H12 UNL     1      88.385  95.084 -40.698  1.00  0.00     0.155 HD
HETATM    4  C1  UNL     1      89.778  94.154 -41.860  1.00  0.00     0.025 C 
HETATM    5  C2  UNL     1      91.023  94.366 -41.106  1.00  0.00     0.080 C 
HETATM    6  C3  UNL     1      91.715  93.017 -41.269  1.00  0.00     0.122 C 
HETATM    7 CL1  UNL     1      93.444  93.183 -40.988  1.00  0.00    -0.120 Cl
HETATM    8  C4  UNL     1      91.378  92.667 -42.666  1.00  0.00     0.016 C 
HETATM    9  C5  UNL     1      92.061  91.851 -43.436  1.00  0.00     0.110 C 
HETATM   10 CL2  UNL     1      93.504  91.067 -42.847  1.00  0.00    -0.070 Cl
HETATM   11 CL3  UNL     1      91.570  91.499 -45.101  1.00  0.00    -0.070 Cl
HETATM   12  C6  UNL     1      90.139  93.385 -43.067  1.00  0.00     0.178 C 
HETATM   13 CL4  UNL     1      90.572  94.524 -44.374  1.00  0.00    -0.090 Cl
HETATM   14 CL5  UNL     1      88.861  92.273 -43.579  1.00  0.00    -0.090 Cl
ENDROOT
TORSDOF 0
ENDMDL
MODEL 4
REMARK VINA RESULT: -5.249338103      1.840      3.238
REMARK  0 active torsions:
REMARK  status: ('A' for Active; 'I' for Inactive)
ROOT
HETATM    1  N1  UNL     1      88.188  91.850 -43.200  1.00  0.00    -0.403 N 
ATOM      2  H11 UNL     1      88.044  90.927 -43.612  1.00  0.00     0.155 HD
ATOM      3  H12 UNL     1      87.262  92.245 -43.035  1.00  0.00     0.155 HD
HETATM    4  C1  UNL     1      89.295  92.387 -42.948  1.00  0.00     0.025 C 
HETATM    5  C2  UNL     1      89.501  93.716 -42.354  1.00  0.00     0.080 C 
HETATM    6  C3  UNL     1      90.664  93.449 -41.403  1.00  0.00     0.122 C 
HETATM    7 CL1  UNL     1      91.492  94.954 -41.020  1.00  0.00    -0.120 Cl
HETATM    8  C4  UNL     1      91.492  92.508 -42.189  1.00  0.00     0.016 C 
HETATM    9  C5  UNL     1      92.781  92.310 -42.035  1.00  0.00     0.110 C 
HETATM   10 CL2  UNL     1      93.679  93.190 -40.824  1.00  0.00    -0.070 Cl
HETATM   11 CL3  UNL     1      93.681  91.156 -43.031  1.00  0.00    -0.070 Cl
HETATM   12  C6  UNL     1      90.634  91.815 -43.186  1.00  0.00     0.178 C 
HETATM   13 CL4  UNL     1      91.192  92.301 -44.812  1.00  0.00    -0.090 Cl
HETATM   14 CL5  UNL     1      90.673  90.056 -42.990  1.00  0.00    -0.090 Cl
ENDROOT
TORSDOF 0
ENDMDL
MODEL 5
REMARK VINA RESULT: -4.767174231      1.326      3.136
REMARK  0 active torsions:
REMARK  status: ('A' for Active; 'I' for Inactive)
ROOT
HETATM    1  N1  UNL     1      90.602  91.063 -45.650  1.00  0.00    -0.403 N 
ATOM      2  H11 UNL     1      90.786  90.077 -45.466  1.00  0.00     0.155 HD
ATOM      3  H12 UNL     1      90.133  91.110 -46.555  1.00  0.00     0.155 HD
HETATM    4  C1  UNL     1      90.899  92.027 -44.902  1.00  0.00     0.025 C 
HETATM    5  C2  UNL     1      90.633  93.449 -45.167  1.00  0.00     0.080 C 
HETATM    6  C3  UNL     1      90.209  93.945 -43.789  1.00  0.00     0.122 C 
HETATM    7 CL1  UNL     1      90.410  95.690 -43.682  1.00  0.00    -0.120 Cl
HETATM    8  C4  UNL     1      91.121  93.193 -42.900  1.00  0.00     0.016 C 
HETATM    9  C5  UNL     1      91.478  93.553 -41.688  1.00  0.00     0.110 C 
HETATM   10 CL2  UNL     1      90.873  95.030 -40.983  1.00  0.00    -0.070 Cl
HETATM   11 CL3  UNL     1      92.581  92.579 -40.703  1.00  0.00    -0.070 Cl
HETATM   12  C6  UNL     1      91.577  91.959 -43.593  1.00  0.00     0.178 C 
HETATM   13 CL4  UNL     1      93.340  92.099 -43.845  1.00  0.00    -0.090 Cl
HETATM   14 CL5  UNL     1      91.169  90.496 -42.685  1.00  0.00    -0.090 Cl
ENDROOT
TORSDOF 0
ENDMDL
