MODEL 1
REMARK VINA RESULT: -5.066347444      0.000      0.000
REMARK  2 active torsions:
REMARK  status: ('A' for Active; 'I' for Inactive)
REMARK    1  A    between atoms: O1_1  and  N1_3 
REMARK    2  A    between atoms: C5_13  and  O2_14 
ROOT
HETATM    1  N1  UNL     1      91.037  91.475 -46.026  1.00  0.00    -0.273 N 
ATOM      2  H1  UNL     1      91.844  90.893 -46.246  1.00  0.00     0.193 HD
HETATM    3  C1  UNL     1      91.009  92.177 -44.960  1.00  0.00     0.061 C 
HETATM    4  C2  UNL     1      89.936  93.071 -44.482  1.00  0.00     0.154 C 
HETATM    5 CL1  UNL     1      90.480  94.745 -44.801  1.00  0.00    -0.117 Cl
HETATM    6  C3  UNL     1      89.925  92.828 -42.985  1.00  0.00     0.148 C 
HETATM    7 CL2  UNL     1      89.711  94.390 -42.170  1.00  0.00    -0.120 Cl
HETATM    8  C4  UNL     1      91.259  92.193 -42.661  1.00  0.00     0.162 C 
HETATM    9 CL3  UNL     1      92.062  92.988 -41.303  1.00  0.00    -0.097 Cl
HETATM   10 CL4  UNL     1      90.990  90.454 -42.305  1.00  0.00    -0.097 Cl
HETATM   11  C5  UNL     1      92.069  92.262 -43.932  1.00  0.00     0.207 C 
ENDROOT
BRANCH   1  12
HETATM   12  O1  UNL     1      89.954  91.523 -46.867  1.00  0.00    -0.290 OA
ATOM     13  H1  UNL     1      89.190  91.000 -46.652  1.00  0.00     0.244 HD
ENDBRANCH   1  12
BRANCH  11  14
HETATM   14  O2  UNL     1      92.927  91.169 -43.962  1.00  0.00    -0.386 OA
ATOM     15  H2  UNL     1      93.809  91.392 -43.688  1.00  0.00     0.210 HD
ENDBRANCH  11  14
TORSDOF 2
ENDMDL
MODEL 2
REMARK VINA RESULT: -4.728139815      8.491      9.231
REMARK  2 active torsions:
REMARK  status: ('A' for Active; 'I' for Inactive)
REMARK    1  A    between atoms: O1_1  and  N1_3 
REMARK    2  A    between atoms: C5_13  and  O2_14 
ROOT
HETATM    1  N1  UNL     1      87.702  84.987 -37.614  1.00  0.00    -0.273 N 
ATOM      2  H1  UNL     1      87.118  85.132 -36.791  1.00  0.00     0.193 HD
HETATM    3  C1  UNL     1      87.602  85.755 -38.629  1.00  0.00     0.061 C 
HETATM    4  C2  UNL     1      88.357  85.698 -39.895  1.00  0.00     0.154 C 
HETATM    5 CL1  UNL     1      89.571  87.011 -39.830  1.00  0.00    -0.117 Cl
HETATM    6  C3  UNL     1      87.310  86.039 -40.938  1.00  0.00     0.148 C 
HETATM    7 CL2  UNL     1      88.050  87.120 -42.136  1.00  0.00    -0.120 Cl
HETATM    8  C4  UNL     1      86.182  86.708 -40.185  1.00  0.00     0.162 C 
HETATM    9 CL3  UNL     1      85.683  88.224 -40.944  1.00  0.00    -0.097 Cl
HETATM   10 CL4  UNL     1      84.802  85.564 -40.092  1.00  0.00    -0.097 Cl
HETATM   11  C5  UNL     1      86.685  86.906 -38.776  1.00  0.00     0.207 C 
ENDROOT
BRANCH   1  12
HETATM   12  O1  UNL     1      88.614  83.963 -37.656  1.00  0.00    -0.290 OA
ATOM     13  H1  UNL     1      89.396  84.031 -37.119  1.00  0.00     0.244 HD
ENDBRANCH   1  12
BRANCH  11  14
HETATM   14  O2  UNL     1      85.600  86.836 -37.912  1.00  0.00    -0.386 OA
ATOM     15  H2  UNL     1      84.803  86.566 -38.351  1.00  0.00     0.210 HD
ENDBRANCH  11  14
TORSDOF 2
ENDMDL
MODEL 3
REMARK VINA RESULT: -4.522358229      2.874      3.380
REMARK  2 active torsions:
REMARK  status: ('A' for Active; 'I' for Inactive)
REMARK    1  A    between atoms: O1_1  and  N1_3 
REMARK    2  A    between atoms: C5_13  and  O2_14 
ROOT
HETATM    1  N1  UNL     1      90.915  94.869 -42.710  1.00  0.00    -0.273 N 
ATOM      2  H1  UNL     1      91.471  95.432 -42.068  1.00  0.00     0.193 HD
HETATM    3  C1  UNL     1      90.870  93.598 -42.594  1.00  0.00     0.061 C 
HETATM    4  C2  UNL     1      90.127  92.630 -43.423  1.00  0.00     0.154 C 
HETATM    5 CL1  UNL     1      88.702  92.122 -42.468  1.00  0.00    -0.117 Cl
HETATM    6  C3  UNL     1      91.090  91.464 -43.539  1.00  0.00     0.148 C 
HETATM    7 CL2  UNL     1      90.161  89.959 -43.380  1.00  0.00    -0.120 Cl
HETATM    8  C4  UNL     1      92.088  91.640 -42.417  1.00  0.00     0.162 C 
HETATM    9 CL3  UNL     1      92.306  90.157 -41.481  1.00  0.00    -0.097 Cl
HETATM   10 CL4  UNL     1      93.649  92.178 -43.122  1.00  0.00    -0.097 Cl
HETATM   11  C5  UNL     1      91.569  92.781 -41.577  1.00  0.00     0.207 C 
ENDROOT
BRANCH   1  12
HETATM   12  O1  UNL     1      90.197  95.457 -43.721  1.00  0.00    -0.290 OA
ATOM     13  H1  UNL     1      89.834  94.901 -44.400  1.00  0.00     0.244 HD
ENDBRANCH   1  12
BRANCH  11  14
HETATM   14  O2  UNL     1      92.656  93.442 -41.019  1.00  0.00    -0.386 OA
ATOM     15  H2  UNL     1      92.798  94.299 -41.404  1.00  0.00     0.210 HD
ENDBRANCH  11  14
TORSDOF 2
ENDMDL
MODEL 4
REMARK VINA RESULT: -4.481876204      1.582      3.094
REMARK  2 active torsions:
REMARK  status: ('A' for Active; 'I' for Inactive)
REMARK    1  A    between atoms: O1_1  and  N1_3 
REMARK    2  A    between atoms: C5_13  and  O2_14 
ROOT
HETATM    1  N1  UNL     1      90.629  91.314 -45.257  1.00  0.00    -0.273 N 
ATOM      2  H1  UNL     1      89.661  91.388 -45.568  1.00  0.00     0.193 HD
HETATM    3  C1  UNL     1      90.977  91.728 -44.101  1.00  0.00     0.061 C 
HETATM    4  C2  UNL     1      92.318  91.703 -43.486  1.00  0.00     0.154 C 
HETATM    5 CL1  UNL     1      92.315  90.367 -42.297  1.00  0.00    -0.117 Cl
HETATM    6  C3  UNL     1      92.385  93.026 -42.748  1.00  0.00     0.148 C 
HETATM    7 CL2  UNL     1      93.163  92.747 -41.177  1.00  0.00    -0.120 Cl
HETATM    8  C4  UNL     1      90.954  93.490 -42.603  1.00  0.00     0.162 C 
HETATM    9 CL3  UNL     1      90.575  93.967 -40.944  1.00  0.00    -0.097 Cl
HETATM   10 CL4  UNL     1      90.680  94.858 -43.732  1.00  0.00    -0.097 Cl
HETATM   11  C5  UNL     1      90.097  92.344 -43.083  1.00  0.00     0.207 C 
ENDROOT
BRANCH   1  12
HETATM   12  O1  UNL     1      91.589  90.767 -46.071  1.00  0.00    -0.290 OA
ATOM     13  H1  UNL     1      91.565  89.831 -46.232  1.00  0.00     0.244 HD
ENDBRANCH   1  12
BRANCH  11  14
HETATM   14  O2  UNL     1      88.935  92.870 -43.633  1.00  0.00    -0.386 OA
ATOM     15  H2  UNL     1      88.569  93.572 -43.109  1.00  0.00     0.210 HD
ENDBRANCH  11  14
TORSDOF 2
ENDMDL
MODEL 5
REMARK VINA RESULT: -4.475768249      7.208      8.459
REMARK  2 active torsions:
REMARK  status: ('A' for Active; 'I' for Inactive)
REMARK    1  A    between atoms: O1_1  and  N1_3 
REMARK    2  A    between atoms: C5_13  and  O2_14 
ROOT
HETATM    1  N1  UNL     1      87.460  88.426 -41.884  1.00  0.00    -0.273 N 
ATOM      2  H1  UNL     1      86.734  88.658 -42.561  1.00  0.00     0.193 HD
HETATM    3  C1  UNL     1      87.300  87.467 -41.057  1.00  0.00     0.061 C 
HETATM    4  C2  UNL     1      88.233  86.992 -40.017  1.00  0.00     0.154 C 
HETATM    5 CL1  UNL     1      88.967  85.482 -40.635  1.00  0.00    -0.117 Cl
HETATM    6  C3  UNL     1      87.316  86.661 -38.855  1.00  0.00     0.148 C 
HETATM    7 CL2  UNL     1      87.881  85.150 -38.115  1.00  0.00    -0.120 Cl
HETATM    8  C4  UNL     1      85.932  86.524 -39.449  1.00  0.00     0.162 C 
HETATM    9 CL3  UNL     1      85.130  85.038 -38.929  1.00  0.00    -0.097 Cl
HETATM   10 CL4  UNL     1      84.965  87.962 -38.978  1.00  0.00    -0.097 Cl
HETATM   11  C5  UNL     1      86.116  86.588 -40.945  1.00  0.00     0.207 C 
ENDROOT
BRANCH   1  12
HETATM   12  O1  UNL     1      88.633  89.138 -41.841  1.00  0.00    -0.290 OA
ATOM     13  H1  UNL     1      89.418  88.697 -41.537  1.00  0.00     0.244 HD
ENDBRANCH   1  12
BRANCH  11  14
HETATM   14  O2  UNL     1      84.976  87.157 -41.500  1.00  0.00    -0.386 OA
ATOM     15  H2  UNL     1      84.191  86.952 -41.009  1.00  0.00     0.210 HD
ENDBRANCH  11  14
TORSDOF 2
ENDMDL
