MODEL 1
REMARK VINA RESULT: -5.131698036      0.000      0.000
REMARK  1 active torsions:
REMARK  status: ('A' for Active; 'I' for Inactive)
REMARK    1  A    between atoms: N1_5  and  O1_7 
ROOT
HETATM    1  C1  UNL     1      92.594  93.010 -41.075  1.00  0.00     0.014 C 
HETATM    2  C2  UNL     1      91.298  92.965 -41.851  1.00  0.00     0.029 C 
HETATM    3  C3  UNL     1      90.997  94.307 -42.509  1.00  0.00     0.065 C 
HETATM    4  C4  UNL     1      90.762  93.983 -43.934  1.00  0.00     0.052 C 
HETATM    5  N1  UNL     1      90.771  94.751 -44.961  1.00  0.00    -0.274 N 
ATOM      6  H1  UNL     1      90.581  94.339 -45.876  1.00  0.00     0.193 HD
HETATM    7  C5  UNL     1      90.492  92.527 -43.993  1.00  0.00     0.188 C 
HETATM    8 CL1  UNL     1      88.867  92.181 -43.374  1.00  0.00    -0.091 Cl
HETATM    9 CL2  UNL     1      90.746  91.848 -45.605  1.00  0.00    -0.091 Cl
HETATM   10  C6  UNL     1      91.508  92.014 -43.010  1.00  0.00     0.157 C 
HETATM   11 CL3  UNL     1      93.140  92.319 -43.647  1.00  0.00    -0.097 Cl
HETATM   12 CL4  UNL     1      91.264  90.336 -42.560  1.00  0.00    -0.097 Cl
ENDROOT
BRANCH   5  13
HETATM   13  O1  UNL     1      91.023  96.099 -44.892  1.00  0.00    -0.290 OA
ATOM     14  H1  UNL     1      91.844  96.490 -45.166  1.00  0.00     0.244 HD
ENDBRANCH   5  13
TORSDOF 1
ENDMDL
MODEL 2
REMARK VINA RESULT: -4.777169597      2.694      3.304
REMARK  1 active torsions:
REMARK  status: ('A' for Active; 'I' for Inactive)
REMARK    1  A    between atoms: N1_5  and  O1_7 
ROOT
HETATM    1  C1  UNL     1      92.451  90.044 -41.367  1.00  0.00     0.014 C 
HETATM    2  C2  UNL     1      91.917  90.397 -42.736  1.00  0.00     0.029 C 
HETATM    3  C3  UNL     1      90.404  90.232 -42.803  1.00  0.00     0.065 C 
HETATM    4  C4  UNL     1      89.905  91.528 -43.315  1.00  0.00     0.052 C 
HETATM    5  N1  UNL     1      88.723  92.025 -43.275  1.00  0.00    -0.274 N 
ATOM      6  H1  UNL     1      88.571  92.945 -43.690  1.00  0.00     0.193 HD
HETATM    7  C5  UNL     1      91.068  92.210 -43.930  1.00  0.00     0.188 C 
HETATM    8 CL1  UNL     1      91.472  91.453 -45.481  1.00  0.00    -0.091 Cl
HETATM    9 CL2  UNL     1      90.836  93.955 -44.085  1.00  0.00    -0.091 Cl
HETATM   10  C6  UNL     1      92.144  91.881 -42.932  1.00  0.00     0.157 C 
HETATM   11 CL3  UNL     1      91.767  92.676 -41.386  1.00  0.00    -0.097 Cl
HETATM   12 CL4  UNL     1      93.764  92.248 -43.499  1.00  0.00    -0.097 Cl
ENDROOT
BRANCH   5  13
HETATM   13  O1  UNL     1      87.654  91.382 -42.702  1.00  0.00    -0.290 OA
ATOM     14  H1  UNL     1      86.815  91.277 -43.137  1.00  0.00     0.244 HD
ENDBRANCH   5  13
TORSDOF 1
ENDMDL
MODEL 3
REMARK VINA RESULT: -4.682524756      2.268      3.206
REMARK  1 active torsions:
REMARK  status: ('A' for Active; 'I' for Inactive)
REMARK    1  A    between atoms: N1_5  and  O1_7 
ROOT
HETATM    1  C1  UNL     1      88.261  91.444 -43.055  1.00  0.00     0.014 C 
HETATM    2  C2  UNL     1      89.235  92.515 -43.488  1.00  0.00     0.029 C 
HETATM    3  C3  UNL     1      89.470  93.535 -42.380  1.00  0.00     0.065 C 
HETATM    4  C4  UNL     1      90.942  93.590 -42.225  1.00  0.00     0.052 C 
HETATM    5  N1  UNL     1      91.648  94.043 -41.255  1.00  0.00    -0.274 N 
ATOM      6  H1  UNL     1      92.664  93.997 -41.333  1.00  0.00     0.193 HD
HETATM    7  C5  UNL     1      91.515  93.000 -43.459  1.00  0.00     0.188 C 
HETATM    8 CL1  UNL     1      91.350  94.133 -44.812  1.00  0.00    -0.091 Cl
HETATM    9 CL2  UNL     1      93.182  92.457 -43.248  1.00  0.00    -0.091 Cl
HETATM   10  C6  UNL     1      90.579  91.843 -43.675  1.00  0.00     0.157 C 
HETATM   11 CL3  UNL     1      90.772  90.681 -42.343  1.00  0.00    -0.097 Cl
HETATM   12 CL4  UNL     1      90.745  91.091 -45.253  1.00  0.00    -0.097 Cl
ENDROOT
BRANCH   5  13
HETATM   13  O1  UNL     1      91.104  94.587 -40.118  1.00  0.00    -0.290 OA
ATOM     14  H1  UNL     1      90.217  94.927 -40.076  1.00  0.00     0.244 HD
ENDBRANCH   5  13
TORSDOF 1
ENDMDL
MODEL 4
REMARK VINA RESULT: -4.651115784      2.707      3.255
REMARK  1 active torsions:
REMARK  status: ('A' for Active; 'I' for Inactive)
REMARK    1  A    between atoms: N1_5  and  O1_7 
ROOT
HETATM    1  C1  UNL     1      92.111  92.537 -42.097  1.00  0.00     0.014 C 
HETATM    2  C2  UNL     1      90.926  93.384 -41.696  1.00  0.00     0.029 C 
HETATM    3  C3  UNL     1      91.350  94.553 -40.815  1.00  0.00     0.065 C 
HETATM    4  C4  UNL     1      90.778  95.749 -41.474  1.00  0.00     0.052 C 
HETATM    5  N1  UNL     1      91.078  96.987 -41.329  1.00  0.00    -0.274 N 
ATOM      6  H1  UNL     1      90.564  97.678 -41.877  1.00  0.00     0.193 HD
HETATM    7  C5  UNL     1      89.726  95.256 -42.394  1.00  0.00     0.188 C 
HETATM    8 CL1  UNL     1      88.295  94.754 -41.475  1.00  0.00    -0.091 Cl
HETATM    9 CL2  UNL     1      89.325  96.419 -43.662  1.00  0.00    -0.091 Cl
HETATM   10  C6  UNL     1      90.397  94.033 -42.957  1.00  0.00     0.157 C 
HETATM   11 CL3  UNL     1      91.808  94.534 -43.918  1.00  0.00    -0.097 Cl
HETATM   12 CL4  UNL     1      89.310  92.985 -43.853  1.00  0.00    -0.097 Cl
ENDROOT
BRANCH   5  13
HETATM   13  O1  UNL     1      92.056  97.430 -40.472  1.00  0.00    -0.290 OA
ATOM     14  H1  UNL     1      91.910  97.572 -39.544  1.00  0.00     0.244 HD
ENDBRANCH   5  13
TORSDOF 1
ENDMDL
MODEL 5
REMARK VINA RESULT: -4.486296940      2.724      3.511
REMARK  1 active torsions:
REMARK  status: ('A' for Active; 'I' for Inactive)
REMARK    1  A    between atoms: N1_5  and  O1_7 
ROOT
HETATM    1  C1  UNL     1      91.037  94.037 -45.222  1.00  0.00     0.014 C 
HETATM    2  C2  UNL     1      90.930  93.563 -43.792  1.00  0.00     0.029 C 
HETATM    3  C3  UNL     1      89.490  93.225 -43.423  1.00  0.00     0.065 C 
HETATM    4  C4  UNL     1      89.553  91.850 -42.878  1.00  0.00     0.052 C 
HETATM    5  N1  UNL     1      88.615  90.992 -42.708  1.00  0.00    -0.274 N 
ATOM      6  H1  UNL     1      88.855  90.083 -42.311  1.00  0.00     0.193 HD
HETATM    7  C5  UNL     1      90.972  91.601 -42.533  1.00  0.00     0.188 C 
HETATM    8 CL1  UNL     1      91.407  92.487 -41.060  1.00  0.00    -0.091 Cl
HETATM    9 CL2  UNL     1      91.356  89.881 -42.410  1.00  0.00    -0.091 Cl
HETATM   10  C6  UNL     1      91.662  92.240 -43.707  1.00  0.00     0.157 C 
HETATM   11 CL3  UNL     1      91.265  91.328 -45.182  1.00  0.00    -0.097 Cl
HETATM   12 CL4  UNL     1      93.391  92.438 -43.483  1.00  0.00    -0.097 Cl
ENDROOT
BRANCH   5  13
HETATM   13  O1  UNL     1      87.303  91.236 -43.033  1.00  0.00    -0.290 OA
ATOM     14  H1  UNL     1      86.807  91.967 -42.684  1.00  0.00     0.244 HD
ENDBRANCH   5  13
TORSDOF 1
ENDMDL
