MODEL 1
REMARK VINA RESULT: -11.209006862      0.000      0.000
REMARK  5 active torsions:
REMARK  status: ('A' for Active; 'I' for Inactive)
REMARK    1  A    between atoms: C2_2  and  C3_3 
REMARK    2  A    between atoms: C2_2  and  C4_6 
REMARK    3  A    between atoms: C2_2  and  N1_21 
REMARK    4  A    between atoms: C8_10  and  C9_11 
REMARK    5  A    between atoms: C18_24  and  C19_26 
ROOT
HETATM    1  C1  UNL     1     -10.687 -33.800 -27.525  1.00  0.00     0.051 C 
HETATM    2  C2  UNL     1      -9.881 -32.807 -28.429  1.00  0.00     0.124 C 
ENDROOT
BRANCH   2   3
HETATM    3  C3  UNL     1      -9.726 -33.510 -29.686  1.00  0.00     0.203 C 
HETATM    4  O1  UNL     1     -10.230 -34.685 -29.810  1.00  0.00    -0.646 OA
HETATM    5  O2  UNL     1      -9.085 -33.073 -30.820  1.00  0.00    -0.646 OA
ENDBRANCH   2   3
BRANCH   2   6
HETATM    6  C4  UNL     1      -8.591 -32.640 -27.647  1.00  0.00     0.051 A 
HETATM    7  C5  UNL     1      -7.578 -31.986 -28.469  1.00  0.00    -0.019 A 
HETATM    8  C6  UNL     1      -6.364 -32.421 -28.683  1.00  0.00    -0.003 A 
HETATM    9  C7  UNL     1      -5.937 -33.650 -28.071  1.00  0.00     0.003 A 
HETATM   10  C8  UNL     1      -6.766 -34.326 -27.298  1.00  0.00    -0.075 A 
HETATM   11  C15 UNL     1      -8.150 -33.900 -26.976  1.00  0.00     0.046 A 
BRANCH  10  12
HETATM   12  C9  UNL     1      -6.267 -35.606 -26.686  1.00  0.00     0.017 C 
HETATM   13  C10 UNL     1      -6.326 -35.609 -25.195  1.00  0.00     0.015 C 
HETATM   14  C11 UNL     1      -6.363 -37.058 -24.734  1.00  0.00     0.083 C 
HETATM   15  C12 UNL     1      -5.476 -37.921 -25.580  1.00  0.00     0.273 C 
HETATM   16  F1  UNL     1      -5.473 -39.185 -24.982  1.00  0.00    -0.203 F 
HETATM   17  F2  UNL     1      -4.187 -37.453 -25.488  1.00  0.00    -0.203 F 
HETATM   18  C13 UNL     1      -5.983 -38.000 -26.998  1.00  0.00     0.242 C 
HETATM   19  F3  UNL     1      -4.895 -37.889 -27.850  1.00  0.00    -0.243 F 
HETATM   20  C14 UNL     1      -6.921 -36.825 -27.307  1.00  0.00     0.052 C 
ENDBRANCH  10  12
ENDBRANCH   2   6
BRANCH   2  21
HETATM   21  N1  UNL     1     -10.556 -31.594 -28.530  1.00  0.00    -0.374 N 
HETATM   22  C16 UNL     1     -11.548 -31.438 -29.557  1.00  0.00     0.127 C 
HETATM   23  C17 UNL     1     -11.577 -29.953 -29.946  1.00  0.00     0.072 C 
HETATM   24  C18 UNL     1     -12.255 -29.226 -28.825  1.00  0.00     0.174 C 
HETATM   25  F4  UNL     1     -13.635 -29.291 -29.101  1.00  0.00    -0.234 F 
HETATM   26  C22 UNL     1     -12.059 -29.961 -27.551  1.00  0.00     0.097 C 
HETATM   27  C23 UNL     1     -10.752 -30.731 -27.440  1.00  0.00     0.063 C 
BRANCH  24  28
HETATM   28  C19 UNL     1     -11.904 -27.794 -28.729  1.00  0.00     0.165 A 
HETATM   29  N2  UNL     1     -12.509 -26.802 -29.386  1.00  0.00    -0.344 N 
HETATM   30  C20 UNL     1     -11.901 -25.642 -29.032  1.00  0.00     0.135 A 
ATOM     31  H2  UNL     1     -13.289 -26.898 -30.036  1.00  0.00     0.167 HD
HETATM   32  C21 UNL     1     -10.911 -26.010 -28.134  1.00  0.00     0.139 A 
HETATM   33 BR1  UNL     1      -9.732 -24.764 -27.303  1.00  0.00    -0.021 Br
HETATM   34  O3  UNL     1     -10.943 -27.328 -27.974  1.00  0.00    -0.285 OA
ENDBRANCH  24  28
ENDBRANCH   2  21
TORSDOF 5
ENDMDL
MODEL 2
REMARK VINA RESULT: -11.159907932      3.963     10.286
REMARK  5 active torsions:
REMARK  status: ('A' for Active; 'I' for Inactive)
REMARK    1  A    between atoms: C2_2  and  C3_3 
REMARK    2  A    between atoms: C2_2  and  C4_6 
REMARK    3  A    between atoms: C2_2  and  N1_21 
REMARK    4  A    between atoms: C8_10  and  C9_11 
REMARK    5  A    between atoms: C18_24  and  C19_26 
ROOT
HETATM    1  C1  UNL     1     -11.868 -28.898 -28.114  1.00  0.00     0.051 C 
HETATM    2  C2  UNL     1     -10.715 -29.403 -29.044  1.00  0.00     0.124 C 
ENDROOT
BRANCH   2   3
HETATM    3  C3  UNL     1      -9.724 -28.347 -28.994  1.00  0.00     0.203 C 
HETATM    4  O1  UNL     1     -10.082 -27.175 -28.611  1.00  0.00    -0.646 OA
HETATM    5  O2  UNL     1      -8.390 -28.431 -29.311  1.00  0.00    -0.646 OA
ENDBRANCH   2   3
BRANCH   2   6
HETATM    6  C4  UNL     1     -11.417 -29.531 -30.383  1.00  0.00     0.051 A 
HETATM    7  C5  UNL     1     -10.641 -28.877 -31.431  1.00  0.00    -0.019 A 
HETATM    8  C6  UNL     1     -11.088 -27.982 -32.273  1.00  0.00    -0.003 A 
HETATM    9  C7  UNL     1     -12.466 -27.575 -32.205  1.00  0.00     0.003 A 
HETATM   10  C8  UNL     1     -13.267 -28.107 -31.301  1.00  0.00    -0.075 A 
HETATM   11  C15 UNL     1     -12.859 -29.145 -30.324  1.00  0.00     0.046 A 
BRANCH  10  12
HETATM   12  C9  UNL     1     -14.698 -27.642 -31.273  1.00  0.00     0.017 C 
HETATM   13  C10 UNL     1     -15.675 -28.752 -31.074  1.00  0.00     0.015 C 
HETATM   14  C11 UNL     1     -16.950 -28.153 -30.501  1.00  0.00     0.083 C 
HETATM   15  C12 UNL     1     -17.249 -26.820 -31.119  1.00  0.00     0.273 C 
HETATM   16  F1  UNL     1     -18.503 -26.436 -30.635  1.00  0.00    -0.203 F 
HETATM   17  F2  UNL     1     -17.399 -26.986 -32.475  1.00  0.00    -0.203 F 
HETATM   18  C13 UNL     1     -16.198 -25.802 -30.755  1.00  0.00     0.242 C 
HETATM   19  F3  UNL     1     -15.898 -25.069 -31.893  1.00  0.00    -0.243 F 
HETATM   20  C14 UNL     1     -14.903 -26.493 -30.307  1.00  0.00     0.052 C 
ENDBRANCH  10  12
ENDBRANCH   2   6
BRANCH   2  21
HETATM   21  N1  UNL     1     -10.255 -30.642 -28.609  1.00  0.00    -0.374 N 
HETATM   22  C16 UNL     1     -10.766 -31.176 -27.377  1.00  0.00     0.127 C 
HETATM   23  C17 UNL     1      -9.665 -32.053 -26.764  1.00  0.00     0.072 C 
HETATM   24  C18 UNL     1      -9.609 -33.308 -27.580  1.00  0.00     0.174 C 
HETATM   25  F4  UNL     1     -10.566 -34.177 -27.021  1.00  0.00    -0.234 F 
HETATM   26  C22 UNL     1     -10.067 -33.034 -28.965  1.00  0.00     0.097 C 
HETATM   27  C23 UNL     1      -9.776 -31.633 -29.480  1.00  0.00     0.063 C 
BRANCH  24  28
HETATM   28  C19 UNL     1      -8.310 -34.010 -27.527  1.00  0.00     0.165 A 
HETATM   29  N2  UNL     1      -7.116 -33.452 -27.743  1.00  0.00    -0.344 N 
HETATM   30  C20 UNL     1      -6.177 -34.420 -27.603  1.00  0.00     0.135 A 
ATOM     31  H2  UNL     1      -6.942 -32.473 -27.972  1.00  0.00     0.167 HD
HETATM   32  C21 UNL     1      -6.884 -35.571 -27.292  1.00  0.00     0.139 A 
HETATM   33 BR1  UNL     1      -6.056 -37.260 -26.982  1.00  0.00    -0.021 Br
HETATM   34  O3  UNL     1      -8.180 -35.283 -27.254  1.00  0.00    -0.285 OA
ENDBRANCH  24  28
ENDBRANCH   2  21
TORSDOF 5
ENDMDL
MODEL 3
REMARK VINA RESULT: -10.981591656      3.772     10.115
REMARK  5 active torsions:
REMARK  status: ('A' for Active; 'I' for Inactive)
REMARK    1  A    between atoms: C2_2  and  C3_3 
REMARK    2  A    between atoms: C2_2  and  C4_6 
REMARK    3  A    between atoms: C2_2  and  N1_21 
REMARK    4  A    between atoms: C8_10  and  C9_11 
REMARK    5  A    between atoms: C18_24  and  C19_26 
ROOT
HETATM    1  C1  UNL     1     -12.124 -29.873 -27.547  1.00  0.00     0.051 C 
HETATM    2  C2  UNL     1     -10.826 -30.022 -28.409  1.00  0.00     0.124 C 
ENDROOT
BRANCH   2   3
HETATM    3  C3  UNL     1     -10.066 -28.821 -28.127  1.00  0.00     0.203 C 
HETATM    4  O1  UNL     1     -10.696 -27.734 -27.859  1.00  0.00    -0.646 OA
HETATM    5  O2  UNL     1      -8.701 -28.676 -28.102  1.00  0.00    -0.646 OA
ENDBRANCH   2   3
BRANCH   2   6
HETATM    6  C4  UNL     1     -11.385 -30.085 -29.819  1.00  0.00     0.051 A 
HETATM    7  C5  UNL     1     -10.461 -29.466 -30.762  1.00  0.00    -0.019 A 
HETATM    8  C6  UNL     1     -10.757 -28.533 -31.628  1.00  0.00    -0.003 A 
HETATM    9  C7  UNL     1     -12.107 -28.040 -31.700  1.00  0.00     0.003 A 
HETATM   10  C8  UNL     1     -13.033 -28.533 -30.900  1.00  0.00    -0.075 A 
HETATM   11  C15 UNL     1     -12.798 -29.609 -29.907  1.00  0.00     0.046 A 
BRANCH  10  12
HETATM   12  C9  UNL     1     -14.427 -27.979 -31.017  1.00  0.00     0.017 C 
HETATM   13  C10 UNL     1     -15.488 -29.019 -30.879  1.00  0.00     0.015 C 
HETATM   14  C11 UNL     1     -16.767 -28.323 -30.443  1.00  0.00     0.083 C 
HETATM   15  C12 UNL     1     -16.922 -26.994 -31.121  1.00  0.00     0.273 C 
HETATM   16  F1  UNL     1     -18.186 -26.516 -30.765  1.00  0.00    -0.203 F 
HETATM   17  F2  UNL     1     -16.959 -27.195 -32.480  1.00  0.00    -0.203 F 
HETATM   18  C13 UNL     1     -15.844 -26.032 -30.688  1.00  0.00     0.242 C 
HETATM   19  F3  UNL     1     -15.394 -25.357 -31.813  1.00  0.00    -0.243 F 
HETATM   20  C14 UNL     1     -14.642 -26.788 -30.105  1.00  0.00     0.052 C 
ENDBRANCH  10  12
ENDBRANCH   2   6
BRANCH   2  21
HETATM   21  N1  UNL     1     -10.169 -31.205 -28.087  1.00  0.00    -0.374 N 
HETATM   22  C16 UNL     1     -10.545 -32.413 -28.768  1.00  0.00     0.127 C 
HETATM   23  C17 UNL     1     -10.292 -33.582 -27.805  1.00  0.00     0.072 C 
HETATM   24  C18 UNL     1      -8.808 -33.776 -27.743  1.00  0.00     0.174 C 
HETATM   25  F4  UNL     1      -8.485 -34.633 -28.814  1.00  0.00    -0.234 F 
HETATM   26  C22 UNL     1      -8.115 -32.495 -28.023  1.00  0.00     0.097 C 
HETATM   27  C23 UNL     1      -8.860 -31.244 -27.581  1.00  0.00     0.063 C 
BRANCH  24  28
HETATM   28  C19 UNL     1      -8.333 -34.436 -26.509  1.00  0.00     0.165 A 
HETATM   29  N2  UNL     1      -8.952 -34.408 -25.326  1.00  0.00    -0.344 N 
HETATM   30  C20 UNL     1      -8.204 -35.127 -24.453  1.00  0.00     0.135 A 
ATOM     31  H2  UNL     1      -9.829 -33.931 -25.117  1.00  0.00     0.167 HD
HETATM   32  C21 UNL     1      -7.118 -35.577 -25.187  1.00  0.00     0.139 A 
HETATM   33 BR1  UNL     1      -5.726 -36.653 -24.453  1.00  0.00    -0.021 Br
HETATM   34  O3  UNL     1      -7.230 -35.136 -26.436  1.00  0.00    -0.285 OA
ENDBRANCH  24  28
ENDBRANCH   2  21
TORSDOF 5
ENDMDL
MODEL 4
REMARK VINA RESULT: -10.945431433      3.942     10.219
REMARK  5 active torsions:
REMARK  status: ('A' for Active; 'I' for Inactive)
REMARK    1  A    between atoms: C2_2  and  C3_3 
REMARK    2  A    between atoms: C2_2  and  C4_6 
REMARK    3  A    between atoms: C2_2  and  N1_21 
REMARK    4  A    between atoms: C8_10  and  C9_11 
REMARK    5  A    between atoms: C18_24  and  C19_26 
ROOT
HETATM    1  C1  UNL     1     -12.036 -29.283 -27.865  1.00  0.00     0.051 C 
HETATM    2  C2  UNL     1     -10.757 -29.617 -28.704  1.00  0.00     0.124 C 
ENDROOT
BRANCH   2   3
HETATM    3  C3  UNL     1      -9.862 -28.505 -28.455  1.00  0.00     0.203 C 
HETATM    4  O1  UNL     1      -8.623 -28.743 -28.217  1.00  0.00    -0.646 OA
HETATM    5  O2  UNL     1     -10.169 -27.166 -28.438  1.00  0.00    -0.646 OA
ENDBRANCH   2   3
BRANCH   2   6
HETATM    6  C4  UNL     1     -11.307 -29.666 -30.118  1.00  0.00     0.051 A 
HETATM    7  C5  UNL     1     -10.375 -29.039 -31.049  1.00  0.00    -0.019 A 
HETATM    8  C6  UNL     1     -10.664 -28.097 -31.908  1.00  0.00    -0.003 A 
HETATM    9  C7  UNL     1     -12.012 -27.601 -31.984  1.00  0.00     0.003 A 
HETATM   10  C8  UNL     1     -12.944 -28.100 -31.195  1.00  0.00    -0.075 A 
HETATM   11  C15 UNL     1     -12.718 -29.186 -30.211  1.00  0.00     0.046 A 
BRANCH  10  12
HETATM   12  C9  UNL     1     -14.336 -27.543 -31.316  1.00  0.00     0.017 C 
HETATM   13  C10 UNL     1     -14.448 -26.448 -32.323  1.00  0.00     0.015 C 
HETATM   14  C11 UNL     1     -15.900 -26.371 -32.768  1.00  0.00     0.083 C 
HETATM   15  C12 UNL     1     -16.834 -26.606 -31.619  1.00  0.00     0.273 C 
HETATM   16  F1  UNL     1     -18.123 -26.368 -32.105  1.00  0.00    -0.203 F 
HETATM   17  F2  UNL     1     -16.605 -25.646 -30.662  1.00  0.00    -0.203 F 
HETATM   18  C13 UNL     1     -16.710 -28.014 -31.094  1.00  0.00     0.242 C 
HETATM   19  F3  UNL     1     -16.722 -27.959 -29.709  1.00  0.00    -0.243 F 
HETATM   20  C14 UNL     1     -15.370 -28.634 -31.511  1.00  0.00     0.052 C 
ENDBRANCH  10  12
ENDBRANCH   2   6
BRANCH   2  21
HETATM   21  N1  UNL     1     -10.249 -30.857 -28.331  1.00  0.00    -0.374 N 
HETATM   22  C16 UNL     1     -10.676 -31.433 -27.085  1.00  0.00     0.127 C 
HETATM   23  C17 UNL     1      -9.524 -32.303 -26.562  1.00  0.00     0.072 C 
HETATM   24  C18 UNL     1      -9.491 -33.534 -27.414  1.00  0.00     0.174 C 
HETATM   25  F4  UNL     1     -10.397 -34.438 -26.823  1.00  0.00    -0.234 F 
HETATM   26  C22 UNL     1     -10.036 -33.235 -28.762  1.00  0.00     0.097 C 
HETATM   27  C23 UNL     1      -9.803 -31.815 -29.255  1.00  0.00     0.063 C 
BRANCH  24  28
HETATM   28  C19 UNL     1      -8.178 -34.210 -27.456  1.00  0.00     0.165 A 
HETATM   29  N2  UNL     1      -7.025 -33.645 -27.822  1.00  0.00    -0.344 N 
HETATM   30  C20 UNL     1      -6.055 -34.588 -27.727  1.00  0.00     0.135 A 
ATOM     31  H2  UNL     1      -6.897 -32.678 -28.119  1.00  0.00     0.167 HD
HETATM   32  C21 UNL     1      -6.701 -35.732 -27.285  1.00  0.00     0.139 A 
HETATM   33 BR1  UNL     1      -5.809 -37.387 -26.973  1.00  0.00    -0.021 Br
HETATM   34  O3  UNL     1      -7.994 -35.464 -27.132  1.00  0.00    -0.285 OA
ENDBRANCH  24  28
ENDBRANCH   2  21
TORSDOF 5
ENDMDL
MODEL 5
REMARK VINA RESULT: -10.931573719      1.898      2.162
REMARK  5 active torsions:
REMARK  status: ('A' for Active; 'I' for Inactive)
REMARK    1  A    between atoms: C2_2  and  C3_3 
REMARK    2  A    between atoms: C2_2  and  C4_6 
REMARK    3  A    between atoms: C2_2  and  N1_21 
REMARK    4  A    between atoms: C8_10  and  C9_11 
REMARK    5  A    between atoms: C18_24  and  C19_26 
ROOT
HETATM    1  C1  UNL     1     -10.639 -33.693 -27.493  1.00  0.00     0.051 C 
HETATM    2  C2  UNL     1      -9.823 -32.736 -28.424  1.00  0.00     0.124 C 
ENDROOT
BRANCH   2   3
HETATM    3  C3  UNL     1      -9.708 -33.461 -29.673  1.00  0.00     0.203 C 
HETATM    4  O1  UNL     1     -10.318 -34.583 -29.801  1.00  0.00    -0.646 OA
HETATM    5  O2  UNL     1      -9.004 -33.095 -30.795  1.00  0.00    -0.646 OA
ENDBRANCH   2   3
BRANCH   2   6
HETATM    6  C4  UNL     1      -8.516 -32.592 -27.666  1.00  0.00     0.051 A 
HETATM    7  C5  UNL     1      -7.500 -31.978 -28.515  1.00  0.00    -0.019 A 
HETATM    8  C6  UNL     1      -6.302 -32.449 -28.741  1.00  0.00    -0.003 A 
HETATM    9  C7  UNL     1      -5.897 -33.680 -28.117  1.00  0.00     0.003 A 
HETATM   10  C8  UNL     1      -6.732 -34.321 -27.320  1.00  0.00    -0.075 A 
HETATM   11  C15 UNL     1      -8.098 -33.852 -26.983  1.00  0.00     0.046 A 
BRANCH  10  12
HETATM   12  C9  UNL     1      -6.257 -35.604 -26.696  1.00  0.00     0.017 C 
HETATM   13  C10 UNL     1      -6.300 -35.586 -25.204  1.00  0.00     0.015 C 
HETATM   14  C11 UNL     1      -6.367 -37.027 -24.723  1.00  0.00     0.083 C 
HETATM   15  C12 UNL     1      -5.511 -37.923 -25.566  1.00  0.00     0.273 C 
HETATM   16  F1  UNL     1      -5.531 -39.178 -24.952  1.00  0.00    -0.203 F 
HETATM   17  F2  UNL     1      -4.210 -37.484 -25.494  1.00  0.00    -0.203 F 
HETATM   18  C13 UNL     1      -6.035 -38.008 -26.978  1.00  0.00     0.242 C 
HETATM   19  F3  UNL     1      -4.953 -37.935 -27.843  1.00  0.00    -0.243 F 
HETATM   20  C14 UNL     1      -6.947 -36.815 -27.293  1.00  0.00     0.052 C 
ENDBRANCH  10  12
ENDBRANCH   2   6
BRANCH   2  21
HETATM   21  N1  UNL     1     -10.467 -31.507 -28.532  1.00  0.00    -0.374 N 
HETATM   22  C16 UNL     1     -10.580 -30.680 -27.362  1.00  0.00     0.127 C 
HETATM   23  C17 UNL     1     -11.865 -29.853 -27.506  1.00  0.00     0.072 C 
HETATM   24  C18 UNL     1     -11.589 -28.801 -28.535  1.00  0.00     0.174 C 
HETATM   25  F4  UNL     1     -11.012 -27.720 -27.838  1.00  0.00    -0.234 F 
HETATM   26  C22 UNL     1     -10.550 -29.277 -29.482  1.00  0.00     0.097 C 
HETATM   27  C23 UNL     1     -10.536 -30.777 -29.729  1.00  0.00     0.063 C 
BRANCH  24  28
HETATM   28  C19 UNL     1     -12.795 -28.279 -29.210  1.00  0.00     0.165 A 
HETATM   29  N2  UNL     1     -12.924 -27.057 -29.732  1.00  0.00    -0.344 N 
HETATM   30  C20 UNL     1     -14.170 -26.963 -30.259  1.00  0.00     0.135 A 
ATOM     31  H2  UNL     1     -12.213 -26.325 -29.735  1.00  0.00     0.167 HD
HETATM   32  C21 UNL     1     -14.760 -28.194 -30.018  1.00  0.00     0.139 A 
HETATM   33 BR1  UNL     1     -16.538 -28.629 -30.552  1.00  0.00    -0.021 Br
HETATM   34  O3  UNL     1     -13.893 -28.970 -29.378  1.00  0.00    -0.285 OA
ENDBRANCH  24  28
ENDBRANCH   2  21
TORSDOF 5
ENDMDL
