MODEL 1
REMARK VINA RESULT: -8.366073323      0.000      0.000
REMARK  5 active torsions:
REMARK  status: ('A' for Active; 'I' for Inactive)
REMARK       I    between atoms: C1_2  and  N1_3 
REMARK       I    between atoms: C1_2  and  N3_15 
REMARK    1  A    between atoms: N1_3  and  N2_5 
REMARK    2  A    between atoms: C2_7  and  C3_8 
REMARK    3  A    between atoms: C12_21  and  C13_22 
REMARK    4  A    between atoms: C13_22  and  C14_23 
REMARK    5  A    between atoms: C14_23  and  C15_25 
ROOT
HETATM    1  O1  UNL     1     -11.639 -31.246 -29.838  1.00  0.00    -0.245 OA
HETATM    2  C1  UNL     1     -10.521 -30.687 -29.601  1.00  0.00     0.339 C 
HETATM    3  N1  UNL     1      -9.363 -31.500 -29.810  1.00  0.00    -0.252 N 
ATOM      4  H1  UNL     1      -8.437 -31.106 -29.643  1.00  0.00     0.191 HD
HETATM    5  N3  UNL     1     -10.440 -29.314 -29.150  1.00  0.00    -0.301 N 
HETATM    6  C9  UNL     1      -9.164 -28.757 -28.883  1.00  0.00     0.188 C 
HETATM    7 CL1  UNL     1      -8.277 -28.305 -30.380  1.00  0.00    -0.102 Cl
HETATM    8  C10 UNL     1      -9.101 -27.634 -27.903  1.00  0.00     0.051 C 
HETATM    9  C11 UNL     1      -9.989 -26.467 -28.235  1.00  0.00     0.079 C 
HETATM   10  S1  UNL     1     -11.698 -27.121 -28.101  1.00  0.00    -0.143 SA
HETATM   11  C12 UNL     1     -11.731 -28.661 -29.039  1.00  0.00     0.159 C 
ENDROOT
BRANCH  11  12
HETATM   12  C13 UNL     1     -12.317 -28.350 -30.392  1.00  0.00     0.119 C 
BRANCH  12  13
HETATM   13  C14 UNL     1     -13.797 -28.537 -30.311  1.00  0.00     0.183 C 
HETATM   14  O2  UNL     1     -14.244 -29.533 -29.770  1.00  0.00    -0.293 OA
BRANCH  13  15
HETATM   15  C15 UNL     1     -14.734 -27.519 -30.883  1.00  0.00     0.248 C 
HETATM   16 CL2  UNL     1     -16.381 -28.157 -30.750  1.00  0.00    -0.075 Cl
HETATM   17 CL3  UNL     1     -14.660 -26.006 -29.924  1.00  0.00    -0.075 Cl
HETATM   18 CL4  UNL     1     -14.313 -27.115 -32.557  1.00  0.00    -0.075 Cl
ENDBRANCH  13  15
ENDBRANCH  12  13
ENDBRANCH  11  12
BRANCH   3  19
HETATM   19  N2  UNL     1      -9.474 -32.784 -30.226  1.00  0.00    -0.307 N 
HETATM   20  C2  UNL     1      -9.190 -33.917 -29.850  1.00  0.00     0.118 C 
ATOM     21  H2  UNL     1      -9.937 -32.821 -31.134  1.00  0.00     0.186 HD
BRANCH  20  22
HETATM   22  C3  UNL     1      -8.531 -34.335 -28.628  1.00  0.00    -0.019 A 
HETATM   23  C4  UNL     1      -7.331 -34.971 -28.638  1.00  0.00     0.014 A 
HETATM   24  C5  UNL     1      -6.712 -35.364 -27.439  1.00  0.00     0.020 A 
HETATM   25  C6  UNL     1      -7.298 -35.120 -26.219  1.00  0.00     0.011 A 
HETATM   26 BR1  UNL     1      -6.392 -35.687 -24.643  1.00  0.00    -0.051 Br
HETATM   27  C7  UNL     1      -8.510 -34.478 -26.210  1.00  0.00     0.020 A 
HETATM   28  C8  UNL     1      -9.101 -34.100 -27.382  1.00  0.00     0.014 A 
ENDBRANCH  20  22
ENDBRANCH   3  19
TORSDOF 5
ENDMDL
MODEL 2
REMARK VINA RESULT: -8.266222597      2.777      3.593
REMARK  5 active torsions:
REMARK  status: ('A' for Active; 'I' for Inactive)
REMARK       I    between atoms: C1_2  and  N1_3 
REMARK       I    between atoms: C1_2  and  N3_15 
REMARK    1  A    between atoms: N1_3  and  N2_5 
REMARK    2  A    between atoms: C2_7  and  C3_8 
REMARK    3  A    between atoms: C12_21  and  C13_22 
REMARK    4  A    between atoms: C13_22  and  C14_23 
REMARK    5  A    between atoms: C14_23  and  C15_25 
ROOT
HETATM    1  O1  UNL     1     -11.138 -28.616 -31.834  1.00  0.00    -0.245 OA
HETATM    2  C1  UNL     1     -10.746 -28.092 -30.743  1.00  0.00     0.339 C 
HETATM    3  N1  UNL     1      -9.331 -28.054 -30.544  1.00  0.00    -0.252 N 
ATOM      4  H1  UNL     1      -8.956 -27.640 -29.691  1.00  0.00     0.191 HD
HETATM    5  N3  UNL     1     -11.686 -27.569 -29.773  1.00  0.00    -0.301 N 
HETATM    6  C9  UNL     1     -11.186 -27.017 -28.567  1.00  0.00     0.188 C 
HETATM    7 CL1  UNL     1     -10.513 -25.365 -28.787  1.00  0.00    -0.102 Cl
HETATM    8  C10 UNL     1     -12.091 -27.037 -27.381  1.00  0.00     0.051 C 
HETATM    9  C11 UNL     1     -13.424 -26.380 -27.603  1.00  0.00     0.079 C 
HETATM   10  S1  UNL     1     -14.262 -27.424 -28.859  1.00  0.00    -0.143 SA
HETATM   11  C12 UNL     1     -13.072 -27.676 -30.190  1.00  0.00     0.159 C 
ENDROOT
BRANCH  11  12
HETATM   12  C13 UNL     1     -13.403 -26.690 -31.280  1.00  0.00     0.119 C 
BRANCH  12  13
HETATM   13  C14 UNL     1     -14.741 -27.048 -31.840  1.00  0.00     0.183 C 
HETATM   14  O2  UNL     1     -14.990 -28.214 -32.091  1.00  0.00    -0.293 OA
BRANCH  13  15
HETATM   15  C15 UNL     1     -15.776 -25.996 -32.094  1.00  0.00     0.248 C 
HETATM   16 CL2  UNL     1     -15.215 -24.993 -33.441  1.00  0.00    -0.075 Cl
HETATM   17 CL3  UNL     1     -17.320 -26.759 -32.592  1.00  0.00    -0.075 Cl
HETATM   18 CL4  UNL     1     -16.097 -25.034 -30.640  1.00  0.00    -0.075 Cl
ENDBRANCH  13  15
ENDBRANCH  12  13
ENDBRANCH  11  12
BRANCH   3  19
HETATM   19  N2  UNL     1      -8.479 -28.558 -31.468  1.00  0.00    -0.307 N 
HETATM   20  C2  UNL     1      -7.710 -29.502 -31.614  1.00  0.00     0.118 C 
ATOM     21  H2  UNL     1      -8.477 -27.970 -32.302  1.00  0.00     0.186 HD
BRANCH  20  22
HETATM   22  C3  UNL     1      -7.400 -30.579 -30.694  1.00  0.00    -0.019 A 
HETATM   23  C4  UNL     1      -7.613 -30.469 -29.358  1.00  0.00     0.014 A 
HETATM   24  C5  UNL     1      -7.307 -31.529 -28.487  1.00  0.00     0.020 A 
HETATM   25  C6  UNL     1      -6.782 -32.710 -28.958  1.00  0.00     0.011 A 
HETATM   26 BR1  UNL     1      -6.395 -34.095 -27.710  1.00  0.00    -0.051 Br
HETATM   27  C7  UNL     1      -6.567 -32.821 -30.307  1.00  0.00     0.020 A 
HETATM   28  C8  UNL     1      -6.869 -31.783 -31.143  1.00  0.00     0.014 A 
ENDBRANCH  20  22
ENDBRANCH   3  19
TORSDOF 5
ENDMDL
MODEL 3
REMARK VINA RESULT: -8.222667627      2.562      3.286
REMARK  5 active torsions:
REMARK  status: ('A' for Active; 'I' for Inactive)
REMARK       I    between atoms: C1_2  and  N1_3 
REMARK       I    between atoms: C1_2  and  N3_15 
REMARK    1  A    between atoms: N1_3  and  N2_5 
REMARK    2  A    between atoms: C2_7  and  C3_8 
REMARK    3  A    between atoms: C12_21  and  C13_22 
REMARK    4  A    between atoms: C13_22  and  C14_23 
REMARK    5  A    between atoms: C14_23  and  C15_25 
ROOT
HETATM    1  O1  UNL     1     -10.712 -28.380 -30.245  1.00  0.00    -0.245 OA
HETATM    2  C1  UNL     1     -10.171 -27.422 -29.605  1.00  0.00     0.339 C 
HETATM    3  N1  UNL     1      -8.764 -27.259 -29.801  1.00  0.00    -0.252 N 
ATOM      4  H1  UNL     1      -8.275 -26.505 -29.320  1.00  0.00     0.191 HD
HETATM    5  N3  UNL     1     -10.944 -26.558 -28.737  1.00  0.00    -0.301 N 
HETATM    6  C9  UNL     1     -10.277 -25.522 -28.035  1.00  0.00     0.188 C 
HETATM    7 CL1  UNL     1      -9.896 -24.111 -29.080  1.00  0.00    -0.102 Cl
HETATM    8  C10 UNL     1     -10.897 -25.053 -26.762  1.00  0.00     0.051 C 
HETATM    9  C11 UNL     1     -12.323 -24.597 -26.894  1.00  0.00     0.079 C 
HETATM   10  S1  UNL     1     -13.261 -26.107 -27.351  1.00  0.00    -0.143 SA
HETATM   11  C12 UNL     1     -12.360 -26.876 -28.710  1.00  0.00     0.159 C 
ENDROOT
BRANCH  11  12
HETATM   12  C13 UNL     1     -13.046 -26.472 -29.989  1.00  0.00     0.119 C 
BRANCH  12  13
HETATM   13  C14 UNL     1     -14.140 -27.452 -30.259  1.00  0.00     0.183 C 
HETATM   14  O2  UNL     1     -14.057 -28.579 -29.804  1.00  0.00    -0.293 OA
BRANCH  13  15
HETATM   15  C15 UNL     1     -15.333 -27.068 -31.078  1.00  0.00     0.248 C 
HETATM   16 CL2  UNL     1     -16.615 -28.248 -30.763  1.00  0.00    -0.075 Cl
HETATM   17 CL3  UNL     1     -15.939 -25.459 -30.567  1.00  0.00    -0.075 Cl
HETATM   18 CL4  UNL     1     -14.934 -26.967 -32.803  1.00  0.00    -0.075 Cl
ENDBRANCH  13  15
ENDBRANCH  12  13
ENDBRANCH  11  12
BRANCH   3  19
HETATM   19  N2  UNL     1      -8.069 -28.089 -30.615  1.00  0.00    -0.307 N 
HETATM   20  C2  UNL     1      -7.743 -29.269 -30.689  1.00  0.00     0.118 C 
ATOM     21  H2  UNL     1      -7.704 -27.572 -31.415  1.00  0.00     0.186 HD
BRANCH  20  22
HETATM   22  C3  UNL     1      -8.040 -30.358 -29.779  1.00  0.00    -0.019 A 
HETATM   23  C4  UNL     1      -7.612 -30.357 -28.490  1.00  0.00     0.014 A 
HETATM   24  C5  UNL     1      -7.916 -31.424 -27.627  1.00  0.00     0.020 A 
HETATM   25  C6  UNL     1      -8.654 -32.503 -28.058  1.00  0.00     0.011 A 
HETATM   26 BR1  UNL     1      -9.020 -33.906 -26.824  1.00  0.00    -0.051 Br
HETATM   27  C7  UNL     1      -9.086 -32.502 -29.359  1.00  0.00     0.020 A 
HETATM   28  C8  UNL     1      -8.784 -31.459 -30.187  1.00  0.00     0.014 A 
ENDBRANCH  20  22
ENDBRANCH   3  19
TORSDOF 5
ENDMDL
MODEL 4
REMARK VINA RESULT: -8.220329969      1.110      1.456
REMARK  5 active torsions:
REMARK  status: ('A' for Active; 'I' for Inactive)
REMARK       I    between atoms: C1_2  and  N1_3 
REMARK       I    between atoms: C1_2  and  N3_15 
REMARK    1  A    between atoms: N1_3  and  N2_5 
REMARK    2  A    between atoms: C2_7  and  C3_8 
REMARK    3  A    between atoms: C12_21  and  C13_22 
REMARK    4  A    between atoms: C13_22  and  C14_23 
REMARK    5  A    between atoms: C14_23  and  C15_25 
ROOT
HETATM    1  O1  UNL     1     -12.496 -30.220 -29.208  1.00  0.00    -0.245 OA
HETATM    2  C1  UNL     1     -11.261 -29.922 -29.124  1.00  0.00     0.339 C 
HETATM    3  N1  UNL     1     -10.346 -31.005 -29.306  1.00  0.00    -0.252 N 
ATOM      4  H1  UNL     1      -9.343 -30.827 -29.257  1.00  0.00     0.191 HD
HETATM    5  N3  UNL     1     -10.825 -28.566 -28.860  1.00  0.00    -0.301 N 
HETATM    6  C9  UNL     1      -9.436 -28.304 -28.757  1.00  0.00     0.188 C 
HETATM    7 CL1  UNL     1      -8.621 -28.242 -30.357  1.00  0.00    -0.102 Cl
HETATM    8  C10 UNL     1      -9.023 -27.128 -27.937  1.00  0.00     0.051 C 
HETATM    9  C11 UNL     1      -9.649 -25.827 -28.353  1.00  0.00     0.079 C 
HETATM   10  S1  UNL     1     -11.441 -26.036 -28.018  1.00  0.00    -0.143 SA
HETATM   11  C12 UNL     1     -11.917 -27.617 -28.744  1.00  0.00     0.159 C 
ENDROOT
BRANCH  11  12
HETATM   12  C13 UNL     1     -12.546 -27.325 -30.082  1.00  0.00     0.119 C 
BRANCH  12  13
HETATM   13  C14 UNL     1     -14.029 -27.350 -29.912  1.00  0.00     0.183 C 
HETATM   14  O2  UNL     1     -14.503 -27.285 -28.792  1.00  0.00    -0.293 OA
BRANCH  13  15
HETATM   15  C15 UNL     1     -14.938 -27.452 -31.098  1.00  0.00     0.248 C 
HETATM   16 CL2  UNL     1     -15.659 -29.071 -31.095  1.00  0.00    -0.075 Cl
HETATM   17 CL3  UNL     1     -16.274 -26.264 -30.955  1.00  0.00    -0.075 Cl
HETATM   18 CL4  UNL     1     -14.077 -27.113 -32.610  1.00  0.00    -0.075 Cl
ENDBRANCH  13  15
ENDBRANCH  12  13
ENDBRANCH  11  12
BRANCH   3  19
HETATM   19  N2  UNL     1     -10.787 -32.263 -29.545  1.00  0.00    -0.307 N 
HETATM   20  C2  UNL     1     -10.569 -33.414 -29.182  1.00  0.00     0.118 C 
ATOM     21  H2  UNL     1     -11.531 -32.249 -30.242  1.00  0.00     0.186 HD
BRANCH  20  22
HETATM   22  C3  UNL     1      -9.607 -33.901 -28.212  1.00  0.00    -0.019 A 
HETATM   23  C4  UNL     1      -9.889 -33.961 -26.886  1.00  0.00     0.014 A 
HETATM   24  C5  UNL     1      -8.940 -34.439 -25.966  1.00  0.00     0.020 A 
HETATM   25  C6  UNL     1      -7.696 -34.860 -26.378  1.00  0.00     0.011 A 
HETATM   26 BR1  UNL     1      -6.469 -35.492 -25.066  1.00  0.00    -0.051 Br
HETATM   27  C7  UNL     1      -7.412 -34.798 -27.717  1.00  0.00     0.020 A 
HETATM   28  C8  UNL     1      -8.344 -34.332 -28.601  1.00  0.00     0.014 A 
ENDBRANCH  20  22
ENDBRANCH   3  19
TORSDOF 5
ENDMDL
MODEL 5
REMARK VINA RESULT: -8.083896774      2.195      2.877
REMARK  5 active torsions:
REMARK  status: ('A' for Active; 'I' for Inactive)
REMARK       I    between atoms: C1_2  and  N1_3 
REMARK       I    between atoms: C1_2  and  N3_15 
REMARK    1  A    between atoms: N1_3  and  N2_5 
REMARK    2  A    between atoms: C2_7  and  C3_8 
REMARK    3  A    between atoms: C12_21  and  C13_22 
REMARK    4  A    between atoms: C13_22  and  C14_23 
REMARK    5  A    between atoms: C14_23  and  C15_25 
ROOT
HETATM    1  O1  UNL     1     -10.966 -30.830 -26.851  1.00  0.00    -0.245 OA
HETATM    2  C1  UNL     1      -9.945 -31.159 -27.535  1.00  0.00     0.339 C 
HETATM    3  N1  UNL     1      -9.261 -32.338 -27.102  1.00  0.00    -0.252 N 
ATOM      4  H1  UNL     1      -8.438 -32.656 -27.614  1.00  0.00     0.191 HD
HETATM    5  N3  UNL     1      -9.514 -30.380 -28.676  1.00  0.00    -0.301 N 
HETATM    6  C9  UNL     1      -8.355 -30.788 -29.383  1.00  0.00     0.188 C 
HETATM    7 CL1  UNL     1      -8.661 -32.187 -30.468  1.00  0.00    -0.102 Cl
HETATM    8  C10 UNL     1      -7.600 -29.734 -30.122  1.00  0.00     0.051 C 
HETATM    9  C11 UNL     1      -8.422 -28.956 -31.111  1.00  0.00     0.079 C 
HETATM   10  S1  UNL     1      -9.645 -28.042 -30.093  1.00  0.00    -0.143 SA
HETATM   11  C12 UNL     1     -10.371 -29.244 -28.962  1.00  0.00     0.159 C 
ENDROOT
BRANCH  11  12
HETATM   12  C13 UNL     1     -11.689 -29.675 -29.551  1.00  0.00     0.119 C 
BRANCH  12  13
HETATM   13  C14 UNL     1     -12.723 -28.671 -29.160  1.00  0.00     0.183 C 
HETATM   14  O2  UNL     1     -12.748 -28.256 -28.014  1.00  0.00    -0.293 OA
BRANCH  13  15
HETATM   15  C15 UNL     1     -13.724 -28.168 -30.153  1.00  0.00     0.248 C 
HETATM   16 CL2  UNL     1     -14.413 -26.664 -29.521  1.00  0.00    -0.075 Cl
HETATM   17 CL3  UNL     1     -12.912 -27.783 -31.705  1.00  0.00    -0.075 Cl
HETATM   18 CL4  UNL     1     -14.974 -29.381 -30.488  1.00  0.00    -0.075 Cl
ENDBRANCH  13  15
ENDBRANCH  12  13
ENDBRANCH  11  12
BRANCH   3  19
HETATM   19  N2  UNL     1      -9.686 -33.040 -26.025  1.00  0.00    -0.307 N 
HETATM   20  C2  UNL     1      -9.366 -34.023 -25.365  1.00  0.00     0.118 C 
ATOM     21  H2  UNL     1     -10.535 -32.622 -25.646  1.00  0.00     0.186 HD
BRANCH  20  22
HETATM   22  C3  UNL     1      -8.236 -34.914 -25.540  1.00  0.00    -0.019 A 
HETATM   23  C4  UNL     1      -7.793 -35.281 -26.770  1.00  0.00     0.014 A 
HETATM   24  C5  UNL     1      -6.692 -36.144 -26.914  1.00  0.00     0.020 A 
HETATM   25  C6  UNL     1      -6.030 -36.646 -25.817  1.00  0.00     0.011 A 
HETATM   26 BR1  UNL     1      -4.550 -37.810 -26.100  1.00  0.00    -0.051 Br
HETATM   27  C7  UNL     1      -6.479 -36.275 -24.576  1.00  0.00     0.020 A 
HETATM   28  C8  UNL     1      -7.549 -35.434 -24.450  1.00  0.00     0.014 A 
ENDBRANCH  20  22
ENDBRANCH   3  19
TORSDOF 5
ENDMDL
