MODEL 1
REMARK VINA RESULT: -10.961727191      0.000      0.000
REMARK  6 active torsions:
REMARK  status: ('A' for Active; 'I' for Inactive)
REMARK    1  A    between atoms: C2_3  and  O1_4 
REMARK    2  A    between atoms: O1_4  and  C3_5 
REMARK    3  A    between atoms: C6_8  and  C7_9 
REMARK    4  A    between atoms: C7_9  and  C8_10 
REMARK    5  A    between atoms: C9_11  and  C10_12 
REMARK    6  A    between atoms: C12_14  and  C13_15 
ROOT
HETATM    1  N1  UNL     1     -10.826 -22.474 -23.715  1.00  0.00    -0.195 NA
HETATM    2  C1  UNL     1     -10.494 -21.965 -24.700  1.00  0.00     0.085 C 
HETATM    3  C2  UNL     1     -10.052 -21.316 -25.927  1.00  0.00     0.299 C 
ENDROOT
BRANCH   3   4
HETATM    4  O1  UNL     1     -10.889 -21.513 -27.014  1.00  0.00    -0.338 OA
BRANCH   4   5
HETATM    5  C3  UNL     1     -11.315 -22.692 -27.565  1.00  0.00     0.070 A 
HETATM    6  C4  UNL     1     -12.566 -23.230 -27.262  1.00  0.00     0.037 A 
HETATM    7  C5  UNL     1     -12.971 -24.411 -27.829  1.00  0.00     0.012 A 
HETATM    8  C6  UNL     1     -12.183 -25.141 -28.727  1.00  0.00    -0.031 A 
HETATM    9  C27 UNL     1     -10.952 -24.560 -28.991  1.00  0.00     0.012 A 
HETATM   10  C28 UNL     1     -10.521 -23.375 -28.434  1.00  0.00     0.037 A 
BRANCH   8  11
HETATM   11  C7  UNL     1     -12.640 -26.382 -29.322  1.00  0.00     0.126 C 
HETATM   12  C20 UNL     1     -14.102 -26.662 -28.996  1.00  0.00     0.059 C 
HETATM   13  C21 UNL     1     -14.473 -28.005 -29.525  1.00  0.00     0.087 C 
HETATM   14  C22 UNL     1     -15.990 -27.979 -29.742  1.00  0.00     0.027 C 
HETATM   15  N3  UNL     1     -13.887 -28.455 -30.702  1.00  0.00    -0.343 N 
HETATM   16  C23 UNL     1     -16.225 -28.887 -30.900  1.00  0.00     0.022 C 
HETATM   17  C24 UNL     1     -14.863 -29.171 -31.489  1.00  0.00     0.123 C 
HETATM   18  C25 UNL     1     -12.941 -27.714 -31.412  1.00  0.00     0.387 C 
HETATM   19  F3  UNL     1     -13.406 -27.485 -32.700  1.00  0.00    -0.176 F 
HETATM   20  F4  UNL     1     -11.764 -28.418 -31.540  1.00  0.00    -0.176 F 
HETATM   21  C26 UNL     1     -12.605 -26.353 -30.837  1.00  0.00     0.350 C 
HETATM   22  F5  UNL     1     -13.572 -25.504 -31.289  1.00  0.00    -0.195 F 
HETATM   23  F6  UNL     1     -11.369 -25.912 -31.263  1.00  0.00    -0.195 F 
BRANCH  11  24
HETATM   24  C8  UNL     1     -11.865 -27.554 -28.834  1.00  0.00    -0.083 C 
HETATM   25  C9  UNL     1     -11.208 -28.500 -28.472  1.00  0.00    -0.072 C 
BRANCH  25  26
HETATM   26  C10 UNL     1     -10.399 -29.608 -28.079  1.00  0.00     0.264 C 
HETATM   27  C11 UNL     1      -9.914 -30.458 -29.229  1.00  0.00     0.052 C 
HETATM   28  C12 UNL     1      -9.046 -31.419 -28.399  1.00  0.00     0.018 C 
HETATM   29  C19 UNL     1      -8.310 -30.449 -27.535  1.00  0.00     0.239 C 
HETATM   30  N2  UNL     1      -9.128 -29.225 -27.483  1.00  0.00    -0.060 N 
ATOM     31  H22 UNL     1      -8.691 -28.414 -27.922  1.00  0.00     0.278 HD
ATOM     32  H21 UNL     1      -9.211 -28.820 -26.551  1.00  0.00     0.278 HD
BRANCH  28  33
HETATM   33  C13 UNL     1      -8.212 -32.335 -29.207  1.00  0.00    -0.009 C 
HETATM   34  C14 UNL     1      -8.522 -32.150 -30.672  1.00  0.00     0.011 C 
HETATM   35  C15 UNL     1      -7.283 -31.955 -31.516  1.00  0.00     0.079 C 
HETATM   36  C16 UNL     1      -6.302 -33.074 -31.285  1.00  0.00     0.243 C 
HETATM   37  F1  UNL     1      -5.074 -32.767 -31.873  1.00  0.00    -0.206 F 
HETATM   38  F2  UNL     1      -6.845 -34.212 -31.873  1.00  0.00    -0.206 F 
HETATM   39  C17 UNL     1      -6.052 -33.256 -29.825  1.00  0.00     0.079 C 
HETATM   40  C18 UNL     1      -6.732 -32.142 -29.022  1.00  0.00     0.011 C 
ENDBRANCH  28  33
ENDBRANCH  25  26
ENDBRANCH  11  24
ENDBRANCH   8  11
ENDBRANCH   4   5
ENDBRANCH   3   4
TORSDOF 6
ENDMDL
MODEL 2
REMARK VINA RESULT: -10.841702631      0.851      1.121
REMARK  6 active torsions:
REMARK  status: ('A' for Active; 'I' for Inactive)
REMARK    1  A    between atoms: C2_3  and  O1_4 
REMARK    2  A    between atoms: O1_4  and  C3_5 
REMARK    3  A    between atoms: C6_8  and  C7_9 
REMARK    4  A    between atoms: C7_9  and  C8_10 
REMARK    5  A    between atoms: C9_11  and  C10_12 
REMARK    6  A    between atoms: C12_14  and  C13_15 
ROOT
HETATM    1  N1  UNL     1     -11.139 -22.795 -22.242  1.00  0.00    -0.195 NA
HETATM    2  C1  UNL     1     -11.190 -22.352 -23.310  1.00  0.00     0.085 C 
HETATM    3  C2  UNL     1     -11.265 -21.770 -24.644  1.00  0.00     0.299 C 
ENDROOT
BRANCH   3   4
HETATM    4  O1  UNL     1     -10.595 -22.489 -25.621  1.00  0.00    -0.338 OA
BRANCH   4   5
HETATM    5  C3  UNL     1     -11.062 -23.508 -26.407  1.00  0.00     0.070 A 
HETATM    6  C4  UNL     1     -10.221 -24.528 -26.855  1.00  0.00     0.037 A 
HETATM    7  C5  UNL     1     -10.713 -25.540 -27.639  1.00  0.00     0.012 A 
HETATM    8  C6  UNL     1     -12.053 -25.622 -28.036  1.00  0.00    -0.031 A 
HETATM    9  C27 UNL     1     -12.841 -24.583 -27.562  1.00  0.00     0.012 A 
HETATM   10  C28 UNL     1     -12.371 -23.554 -26.774  1.00  0.00     0.037 A 
BRANCH   8  11
HETATM   11  C7  UNL     1     -12.551 -26.709 -28.856  1.00  0.00     0.126 C 
HETATM   12  C20 UNL     1     -14.054 -26.898 -28.695  1.00  0.00     0.059 C 
HETATM   13  C21 UNL     1     -14.481 -28.104 -29.460  1.00  0.00     0.087 C 
HETATM   14  C22 UNL     1     -15.964 -27.903 -29.788  1.00  0.00     0.027 C 
HETATM   15  N3  UNL     1     -13.827 -28.421 -30.644  1.00  0.00    -0.343 N 
HETATM   16  C23 UNL     1     -16.163 -28.598 -31.091  1.00  0.00     0.022 C 
HETATM   17  C24 UNL     1     -14.780 -28.914 -31.609  1.00  0.00     0.123 C 
HETATM   18  C25 UNL     1     -12.764 -27.671 -31.150  1.00  0.00     0.387 C 
HETATM   19  F3  UNL     1     -13.088 -27.206 -32.417  1.00  0.00    -0.176 F 
HETATM   20  F4  UNL     1     -11.640 -28.454 -31.297  1.00  0.00    -0.176 F 
HETATM   21  C26 UNL     1     -12.374 -26.451 -30.339  1.00  0.00     0.350 C 
HETATM   22  F5  UNL     1     -13.225 -25.457 -30.723  1.00  0.00    -0.195 F 
HETATM   23  F6  UNL     1     -11.074 -26.067 -30.591  1.00  0.00    -0.195 F 
BRANCH  11  24
HETATM   24  C8  UNL     1     -11.920 -28.008 -28.504  1.00  0.00    -0.083 C 
HETATM   25  C9  UNL     1     -11.376 -29.056 -28.247  1.00  0.00    -0.072 C 
BRANCH  25  26
HETATM   26  C10 UNL     1     -10.698 -30.282 -27.976  1.00  0.00     0.264 C 
HETATM   27  C11 UNL     1      -9.946 -30.848 -29.156  1.00  0.00     0.052 C 
HETATM   28  C12 UNL     1      -9.318 -32.045 -28.423  1.00  0.00     0.018 C 
HETATM   29  C19 UNL     1      -8.816 -31.378 -27.185  1.00  0.00     0.239 C 
HETATM   30  N2  UNL     1      -9.613 -30.151 -27.013  1.00  0.00    -0.060 N 
ATOM     31  H22 UNL     1      -9.076 -29.289 -27.107  1.00  0.00     0.278 HD
ATOM     32  H21 UNL     1      -9.925 -29.989 -26.056  1.00  0.00     0.278 HD
BRANCH  28  33
HETATM   33  C13 UNL     1      -8.315 -32.785 -29.217  1.00  0.00    -0.009 C 
HETATM   34  C14 UNL     1      -8.718 -32.792 -30.672  1.00  0.00     0.011 C 
HETATM   35  C15 UNL     1      -7.600 -32.361 -31.594  1.00  0.00     0.079 C 
HETATM   36  C16 UNL     1      -6.363 -33.184 -31.349  1.00  0.00     0.243 C 
HETATM   37  F1  UNL     1      -5.274 -32.630 -32.023  1.00  0.00    -0.206 F 
HETATM   38  F2  UNL     1      -6.628 -34.462 -31.834  1.00  0.00    -0.206 F 
HETATM   39  C17 UNL     1      -6.019 -33.191 -29.896  1.00  0.00     0.079 C 
HETATM   40  C18 UNL     1      -6.923 -32.221 -29.128  1.00  0.00     0.011 C 
ENDBRANCH  28  33
ENDBRANCH  25  26
ENDBRANCH  11  24
ENDBRANCH   8  11
ENDBRANCH   4   5
ENDBRANCH   3   4
TORSDOF 6
ENDMDL
MODEL 3
REMARK VINA RESULT: -10.480652105      2.380      2.845
REMARK  6 active torsions:
REMARK  status: ('A' for Active; 'I' for Inactive)
REMARK    1  A    between atoms: C2_3  and  O1_4 
REMARK    2  A    between atoms: O1_4  and  C3_5 
REMARK    3  A    between atoms: C6_8  and  C7_9 
REMARK    4  A    between atoms: C7_9  and  C8_10 
REMARK    5  A    between atoms: C9_11  and  C10_12 
REMARK    6  A    between atoms: C12_14  and  C13_15 
ROOT
HETATM    1  N1  UNL     1      -8.268 -21.316 -23.729  1.00  0.00    -0.195 NA
HETATM    2  C1  UNL     1      -8.877 -21.740 -24.616  1.00  0.00     0.085 C 
HETATM    3  C2  UNL     1      -9.658 -22.250 -25.736  1.00  0.00     0.299 C 
ENDROOT
BRANCH   3   4
HETATM    4  O1  UNL     1      -9.258 -23.496 -26.194  1.00  0.00    -0.338 OA
BRANCH   4   5
HETATM    5  C3  UNL     1      -9.961 -24.398 -26.947  1.00  0.00     0.070 A 
HETATM    6  C4  UNL     1      -9.324 -25.444 -27.614  1.00  0.00     0.037 A 
HETATM    7  C5  UNL     1     -10.051 -26.337 -28.360  1.00  0.00     0.012 A 
HETATM    8  C6  UNL     1     -11.441 -26.267 -28.502  1.00  0.00    -0.031 A 
HETATM    9  C27 UNL     1     -12.021 -25.208 -27.817  1.00  0.00     0.012 A 
HETATM   10  C28 UNL     1     -11.313 -24.298 -27.062  1.00  0.00     0.037 A 
BRANCH   8  11
HETATM   11  C7  UNL     1     -12.187 -27.231 -29.287  1.00  0.00     0.126 C 
HETATM   12  C20 UNL     1     -13.648 -27.302 -28.859  1.00  0.00     0.059 C 
HETATM   13  C21 UNL     1     -14.327 -28.394 -29.611  1.00  0.00     0.087 C 
HETATM   14  C22 UNL     1     -15.817 -28.038 -29.638  1.00  0.00     0.027 C 
HETATM   15  N3  UNL     1     -13.934 -28.663 -30.917  1.00  0.00    -0.343 N 
HETATM   16  C23 UNL     1     -16.318 -28.596 -30.926  1.00  0.00     0.022 C 
HETATM   17  C24 UNL     1     -15.092 -28.984 -31.717  1.00  0.00     0.123 C 
HETATM   18  C25 UNL     1     -12.910 -27.966 -31.561  1.00  0.00     0.387 C 
HETATM   19  F3  UNL     1     -13.410 -27.366 -32.708  1.00  0.00    -0.176 F 
HETATM   20  F4  UNL     1     -11.917 -28.828 -31.972  1.00  0.00    -0.176 F 
HETATM   21  C26 UNL     1     -12.258 -26.861 -30.755  1.00  0.00     0.350 C 
HETATM   22  F5  UNL     1     -13.059 -25.767 -30.901  1.00  0.00    -0.195 F 
HETATM   23  F6  UNL     1     -10.992 -26.571 -31.221  1.00  0.00    -0.195 F 
BRANCH  11  24
HETATM   24  C8  UNL     1     -11.638 -28.606 -29.152  1.00  0.00    -0.083 C 
HETATM   25  C9  UNL     1     -11.232 -29.738 -29.037  1.00  0.00    -0.072 C 
BRANCH  25  26
HETATM   26  C10 UNL     1     -10.799 -31.090 -28.898  1.00  0.00     0.264 C 
HETATM   27  C11 UNL     1      -9.408 -31.240 -28.333  1.00  0.00     0.052 C 
HETATM   28  C12 UNL     1      -9.397 -32.776 -28.264  1.00  0.00     0.018 C 
HETATM   29  C19 UNL     1     -10.728 -33.033 -27.638  1.00  0.00     0.239 C 
HETATM   30  N2  UNL     1     -11.562 -31.852 -27.920  1.00  0.00    -0.060 N 
ATOM     31  H22 UNL     1     -11.822 -31.319 -27.090  1.00  0.00     0.278 HD
ATOM     32  H21 UNL     1     -12.512 -32.075 -28.216  1.00  0.00     0.278 HD
BRANCH  28  33
HETATM   33  C13 UNL     1      -8.226 -33.344 -27.561  1.00  0.00    -0.009 C 
HETATM   34  C14 UNL     1      -8.662 -33.958 -26.253  1.00  0.00     0.011 C 
HETATM   35  C15 UNL     1      -8.147 -35.366 -26.064  1.00  0.00     0.079 C 
HETATM   36  C16 UNL     1      -6.652 -35.412 -26.236  1.00  0.00     0.243 C 
HETATM   37  F1  UNL     1      -6.215 -36.736 -26.300  1.00  0.00    -0.206 F 
HETATM   38  F2  UNL     1      -6.100 -34.777 -25.126  1.00  0.00    -0.206 F 
HETATM   39  C17 UNL     1      -6.253 -34.759 -27.517  1.00  0.00     0.079 C 
HETATM   40  C18 UNL     1      -7.493 -34.399 -28.343  1.00  0.00     0.011 C 
ENDBRANCH  28  33
ENDBRANCH  25  26
ENDBRANCH  11  24
ENDBRANCH   8  11
ENDBRANCH   4   5
ENDBRANCH   3   4
TORSDOF 6
ENDMDL
MODEL 4
REMARK VINA RESULT: -10.437573846      2.522      2.936
REMARK  6 active torsions:
REMARK  status: ('A' for Active; 'I' for Inactive)
REMARK    1  A    between atoms: C2_3  and  O1_4 
REMARK    2  A    between atoms: O1_4  and  C3_5 
REMARK    3  A    between atoms: C6_8  and  C7_9 
REMARK    4  A    between atoms: C7_9  and  C8_10 
REMARK    5  A    between atoms: C9_11  and  C10_12 
REMARK    6  A    between atoms: C12_14  and  C13_15 
ROOT
HETATM    1  N1  UNL     1      -8.157 -21.348 -23.755  1.00  0.00    -0.195 NA
HETATM    2  C1  UNL     1      -8.745 -21.800 -24.643  1.00  0.00     0.085 C 
HETATM    3  C2  UNL     1      -9.497 -22.344 -25.767  1.00  0.00     0.299 C 
ENDROOT
BRANCH   3   4
HETATM    4  O1  UNL     1      -9.180 -23.654 -26.089  1.00  0.00    -0.338 OA
BRANCH   4   5
HETATM    5  C3  UNL     1      -9.883 -24.542 -26.859  1.00  0.00     0.070 A 
HETATM    6  C4  UNL     1     -11.276 -24.513 -26.917  1.00  0.00     0.037 A 
HETATM    7  C5  UNL     1     -11.958 -25.411 -27.698  1.00  0.00     0.012 A 
HETATM    8  C6  UNL     1     -11.326 -26.392 -28.470  1.00  0.00    -0.031 A 
HETATM    9  C27 UNL     1      -9.941 -26.374 -28.374  1.00  0.00     0.012 A 
HETATM   10  C28 UNL     1      -9.234 -25.484 -27.596  1.00  0.00     0.037 A 
BRANCH   8  11
HETATM   11  C7  UNL     1     -12.070 -27.323 -29.297  1.00  0.00     0.126 C 
HETATM   12  C20 UNL     1     -13.482 -27.544 -28.770  1.00  0.00     0.059 C 
HETATM   13  C21 UNL     1     -14.148 -28.601 -29.583  1.00  0.00     0.087 C 
HETATM   14  C22 UNL     1     -15.656 -28.354 -29.459  1.00  0.00     0.027 C 
HETATM   15  N3  UNL     1     -13.849 -28.704 -30.936  1.00  0.00    -0.343 N 
HETATM   16  C23 UNL     1     -16.224 -28.812 -30.758  1.00  0.00     0.022 C 
HETATM   17  C24 UNL     1     -15.045 -29.026 -31.676  1.00  0.00     0.123 C 
HETATM   18  C25 UNL     1     -12.928 -27.871 -31.576  1.00  0.00     0.387 C 
HETATM   19  F3  UNL     1     -13.560 -27.195 -32.610  1.00  0.00    -0.176 F 
HETATM   20  F4  UNL     1     -11.919 -28.611 -32.152  1.00  0.00    -0.176 F 
HETATM   21  C26 UNL     1     -12.285 -26.810 -30.707  1.00  0.00     0.350 C 
HETATM   22  F5  UNL     1     -13.165 -25.768 -30.673  1.00  0.00    -0.195 F 
HETATM   23  F6  UNL     1     -11.084 -26.381 -31.233  1.00  0.00    -0.195 F 
BRANCH  11  24
HETATM   24  C8  UNL     1     -11.423 -28.660 -29.353  1.00  0.00    -0.083 C 
HETATM   25  C9  UNL     1     -10.920 -29.755 -29.435  1.00  0.00    -0.072 C 
BRANCH  25  26
HETATM   26  C10 UNL     1     -10.352 -31.057 -29.572  1.00  0.00     0.264 C 
HETATM   27  C11 UNL     1      -9.858 -31.657 -28.278  1.00  0.00     0.052 C 
HETATM   28  C12 UNL     1      -9.446 -33.024 -28.850  1.00  0.00     0.018 C 
HETATM   29  C19 UNL     1     -10.648 -33.353 -29.671  1.00  0.00     0.239 C 
HETATM   30  N2  UNL     1     -11.310 -32.074 -29.982  1.00  0.00    -0.060 N 
ATOM     31  H22 UNL     1     -12.233 -31.970 -29.560  1.00  0.00     0.278 HD
ATOM     32  H21 UNL     1     -11.617 -31.990 -30.951  1.00  0.00     0.278 HD
BRANCH  28  33
HETATM   33  C13 UNL     1      -9.064 -34.019 -27.825  1.00  0.00    -0.009 C 
HETATM   34  C14 UNL     1      -7.697 -34.577 -28.139  1.00  0.00     0.011 C 
HETATM   35  C15 UNL     1      -6.760 -34.540 -26.953  1.00  0.00     0.079 C 
HETATM   36  C16 UNL     1      -7.385 -35.218 -25.762  1.00  0.00     0.243 C 
HETATM   37  F1  UNL     1      -6.628 -34.972 -24.615  1.00  0.00    -0.206 F 
HETATM   38  F2  UNL     1      -7.405 -36.582 -26.040  1.00  0.00    -0.206 F 
HETATM   39  C17 UNL     1      -8.751 -34.673 -25.508  1.00  0.00     0.079 C 
HETATM   40  C18 UNL     1      -9.028 -33.476 -26.424  1.00  0.00     0.011 C 
ENDBRANCH  28  33
ENDBRANCH  25  26
ENDBRANCH  11  24
ENDBRANCH   8  11
ENDBRANCH   4   5
ENDBRANCH   3   4
TORSDOF 6
ENDMDL
MODEL 5
REMARK VINA RESULT: -10.200607823      1.651      2.010
REMARK  6 active torsions:
REMARK  status: ('A' for Active; 'I' for Inactive)
REMARK    1  A    between atoms: C2_3  and  O1_4 
REMARK    2  A    between atoms: O1_4  and  C3_5 
REMARK    3  A    between atoms: C6_8  and  C7_9 
REMARK    4  A    between atoms: C7_9  and  C8_10 
REMARK    5  A    between atoms: C9_11  and  C10_12 
REMARK    6  A    between atoms: C12_14  and  C13_15 
ROOT
HETATM    1  N1  UNL     1     -11.148 -22.674 -23.468  1.00  0.00    -0.195 NA
HETATM    2  C1  UNL     1     -10.683 -22.140 -24.384  1.00  0.00     0.085 C 
HETATM    3  C2  UNL     1     -10.075 -21.463 -25.522  1.00  0.00     0.299 C 
ENDROOT
BRANCH   3   4
HETATM    4  O1  UNL     1     -10.780 -21.590 -26.708  1.00  0.00    -0.338 OA
BRANCH   4   5
HETATM    5  C3  UNL     1     -11.121 -22.731 -27.385  1.00  0.00     0.070 A 
HETATM    6  C4  UNL     1     -12.368 -23.332 -27.218  1.00  0.00     0.037 A 
HETATM    7  C5  UNL     1     -12.688 -24.473 -27.909  1.00  0.00     0.012 A 
HETATM    8  C6  UNL     1     -11.813 -25.098 -28.805  1.00  0.00    -0.031 A 
HETATM    9  C27 UNL     1     -10.589 -24.457 -28.931  1.00  0.00     0.012 A 
HETATM   10  C28 UNL     1     -10.244 -23.312 -28.247  1.00  0.00     0.037 A 
BRANCH   8  11
HETATM   11  C7  UNL     1     -12.180 -26.298 -29.532  1.00  0.00     0.126 C 
HETATM   12  C20 UNL     1     -13.347 -27.024 -28.876  1.00  0.00     0.059 C 
HETATM   13  C21 UNL     1     -13.592 -28.307 -29.592  1.00  0.00     0.087 C 
HETATM   14  C22 UNL     1     -15.061 -28.667 -29.343  1.00  0.00     0.027 C 
HETATM   15  N3  UNL     1     -13.369 -28.371 -30.963  1.00  0.00    -0.343 N 
HETATM   16  C23 UNL     1     -15.488 -29.395 -30.572  1.00  0.00     0.022 C 
HETATM   17  C24 UNL     1     -14.386 -29.186 -31.583  1.00  0.00     0.123 C 
HETATM   18  C25 UNL     1     -12.902 -27.287 -31.707  1.00  0.00     0.387 C 
HETATM   19  F3  UNL     1     -13.820 -26.982 -32.703  1.00  0.00    -0.176 F 
HETATM   20  F4  UNL     1     -11.724 -27.604 -32.346  1.00  0.00    -0.176 F 
HETATM   21  C26 UNL     1     -12.677 -26.004 -30.934  1.00  0.00     0.350 C 
HETATM   22  F5  UNL     1     -13.894 -25.393 -30.855  1.00  0.00    -0.195 F 
HETATM   23  F6  UNL     1     -11.785 -25.172 -31.577  1.00  0.00    -0.195 F 
BRANCH  11  24
HETATM   24  C8  UNL     1     -11.059 -27.273 -29.602  1.00  0.00    -0.083 C 
HETATM   25  C9  UNL     1     -10.123 -28.033 -29.672  1.00  0.00    -0.072 C 
BRANCH  25  26
HETATM   26  C10 UNL     1      -8.988 -28.892 -29.767  1.00  0.00     0.264 C 
HETATM   27  C11 UNL     1      -8.819 -29.826 -28.593  1.00  0.00     0.052 C 
HETATM   28  C12 UNL     1      -7.602 -30.594 -29.137  1.00  0.00     0.018 C 
HETATM   29  C19 UNL     1      -8.052 -30.868 -30.534  1.00  0.00     0.239 C 
HETATM   30  N2  UNL     1      -9.072 -29.855 -30.856  1.00  0.00    -0.060 N 
ATOM     31  H22 UNL     1     -10.006 -30.238 -31.002  1.00  0.00     0.278 HD
ATOM     32  H21 UNL     1      -8.970 -29.444 -31.784  1.00  0.00     0.278 HD
BRANCH  28  33
HETATM   33  C13 UNL     1      -7.220 -31.773 -28.332  1.00  0.00    -0.009 C 
HETATM   34  C14 UNL     1      -8.459 -32.496 -27.862  1.00  0.00     0.011 C 
HETATM   35  C15 UNL     1      -8.419 -33.979 -28.147  1.00  0.00     0.079 C 
HETATM   36  C16 UNL     1      -7.163 -34.594 -27.588  1.00  0.00     0.243 C 
HETATM   37  F1  UNL     1      -7.014 -35.900 -28.058  1.00  0.00    -0.206 F 
HETATM   38  F2  UNL     1      -7.299 -34.595 -26.203  1.00  0.00    -0.206 F 
HETATM   39  C17 UNL     1      -5.962 -33.830 -28.037  1.00  0.00     0.079 C 
HETATM   40  C18 UNL     1      -6.360 -32.765 -29.066  1.00  0.00     0.011 C 
ENDBRANCH  28  33
ENDBRANCH  25  26
ENDBRANCH  11  24
ENDBRANCH   8  11
ENDBRANCH   4   5
ENDBRANCH   3   4
TORSDOF 6
ENDMDL
