MODEL 1
REMARK VINA RESULT: -7.673945769      0.000      0.000
REMARK  8 active torsions:
REMARK  status: ('A' for Active; 'I' for Inactive)
REMARK    1  A    between atoms: O1_2  and  C2_3 
REMARK    2  A    between atoms: C3_5  and  O3_6 
REMARK    3  A    between atoms: C3_5  and  C4_8 
REMARK    4  A    between atoms: C4_8  and  O4_9 
REMARK    5  A    between atoms: C4_8  and  O5_11 
REMARK    6  A    between atoms: N1_17  and  O7_19 
REMARK    7  A    between atoms: O7_19  and  C8_20 
REMARK    8  A    between atoms: C12_24  and  O8_25 
ROOT
HETATM    1  C2  UNL     1      12.610  -9.076 -10.651  1.00  0.00     0.292 C 
HETATM    2  O2  UNL     1      12.100 -10.360 -10.838  1.00  0.00    -0.316 OA
HETATM    3  C3  UNL     1      10.874 -10.551 -10.212  1.00  0.00     0.242 C 
HETATM    4  C5  UNL     1      10.819  -9.667  -9.025  1.00  0.00     0.201 C 
HETATM    5  O6  UNL     1      10.009 -10.074  -8.002  1.00  0.00    -0.374 OA
HETATM    6  C6  UNL     1      10.434  -9.204  -6.962  1.00  0.00     0.223 C 
HETATM    7  C7  UNL     1      11.902  -9.231  -7.041  1.00  0.00     0.043 C 
HETATM    8  N1  UNL     1      12.745  -8.875  -6.178  1.00  0.00    -0.272 N 
ATOM      9  H1  UNL     1      13.745  -8.948  -6.365  1.00  0.00     0.193 HD
HETATM   10  C11 UNL     1      12.212  -9.773  -8.370  1.00  0.00     0.103 C 
HETATM   11  C12 UNL     1      13.096  -8.893  -9.205  1.00  0.00     0.185 C 
ENDROOT
BRANCH   3  12
HETATM   12  O3  UNL     1      10.795 -11.882  -9.780  1.00  0.00    -0.359 OA
ATOM     13  H3  UNL     1      11.171 -12.441 -10.449  1.00  0.00     0.213 HD
ENDBRANCH   3  12
BRANCH   3  14
HETATM   14  C4  UNL     1       9.708 -10.319 -11.133  1.00  0.00     0.320 C 
BRANCH  14  15
HETATM   15  O4  UNL     1       8.841 -11.390 -11.210  1.00  0.00    -0.366 OA
ATOM     16  H4  UNL     1       8.359 -11.550 -10.408  1.00  0.00     0.212 HD
ENDBRANCH  14  15
BRANCH  14  17
HETATM   17  O5  UNL     1       9.040  -9.128 -10.798  1.00  0.00    -0.366 OA
ATOM     18  H5  UNL     1       8.350  -8.943 -11.424  1.00  0.00     0.212 HD
ENDBRANCH  14  17
ENDBRANCH   3  14
BRANCH   1  19
HETATM   19  O1  UNL     1      13.717  -8.955 -11.475  1.00  0.00    -0.363 OA
HETATM   20  C1  UNL     1      14.690  -9.843 -11.040  1.00  0.00     0.204 C 
ENDBRANCH   1  19
BRANCH  11  21
HETATM   21  O8  UNL     1      13.062  -7.575  -8.827  1.00  0.00    -0.390 OA
ATOM     22  H8  UNL     1      13.864  -7.124  -9.066  1.00  0.00     0.210 HD
ENDBRANCH  11  21
BRANCH   8  23
HETATM   23  O7  UNL     1      12.290  -8.387  -4.976  1.00  0.00    -0.276 OA
BRANCH  23  24
HETATM   24  C8  UNL     1      12.220  -9.172  -3.803  1.00  0.00     0.144 C 
HETATM   25  C9  UNL     1      12.979 -10.454  -3.892  1.00  0.00     0.042 C 
HETATM   26  C10 UNL     1      12.825  -8.333  -2.673  1.00  0.00     0.042 C 
ENDBRANCH  23  24
ENDBRANCH   8  23
TORSDOF 8
ENDMDL
MODEL 2
REMARK VINA RESULT: -7.578847178      3.535      7.151
REMARK  8 active torsions:
REMARK  status: ('A' for Active; 'I' for Inactive)
REMARK    1  A    between atoms: O1_2  and  C2_3 
REMARK    2  A    between atoms: C3_5  and  O3_6 
REMARK    3  A    between atoms: C3_5  and  C4_8 
REMARK    4  A    between atoms: C4_8  and  O4_9 
REMARK    5  A    between atoms: C4_8  and  O5_11 
REMARK    6  A    between atoms: N1_17  and  O7_19 
REMARK    7  A    between atoms: O7_19  and  C8_20 
REMARK    8  A    between atoms: C12_24  and  O8_25 
ROOT
HETATM    1  C2  UNL     1      12.210  -5.665  -2.349  1.00  0.00     0.292 C 
HETATM    2  O2  UNL     1      11.539  -4.555  -2.859  1.00  0.00    -0.316 OA
HETATM    3  C3  UNL     1      10.365  -4.891  -3.523  1.00  0.00     0.242 C 
HETATM    4  C5  UNL     1      10.529  -6.250  -4.090  1.00  0.00     0.201 C 
HETATM    5  O6  UNL     1       9.780  -6.540  -5.196  1.00  0.00    -0.374 OA
HETATM    6  C6  UNL     1      10.402  -7.742  -5.632  1.00  0.00     0.223 C 
HETATM    7  C7  UNL     1      11.842  -7.460  -5.543  1.00  0.00     0.043 C 
HETATM    8  N1  UNL     1      12.800  -8.071  -6.081  1.00  0.00    -0.272 N 
ATOM      9  H1  UNL     1      13.762  -7.765  -5.934  1.00  0.00     0.193 HD
HETATM   10  C11 UNL     1      11.957  -6.282  -4.673  1.00  0.00     0.103 C 
HETATM   11  C12 UNL     1      12.852  -6.477  -3.485  1.00  0.00     0.185 C 
ENDROOT
BRANCH   3  12
HETATM   12  O3  UNL     1      10.175  -3.989  -4.579  1.00  0.00    -0.359 OA
ATOM     13  H3  UNL     1       9.493  -4.327  -5.148  1.00  0.00     0.213 HD
ENDBRANCH   3  12
BRANCH   3  14
HETATM   14  C4  UNL     1       9.151  -4.798  -2.642  1.00  0.00     0.320 C 
BRANCH  14  15
HETATM   15  O4  UNL     1       8.218  -3.880  -3.078  1.00  0.00    -0.366 OA
ATOM     16  H4  UNL     1       8.543  -3.297  -3.754  1.00  0.00     0.212 HD
ENDBRANCH  14  15
BRANCH  14  17
HETATM   17  O5  UNL     1       8.582  -6.069  -2.445  1.00  0.00    -0.366 OA
ATOM     18  H5  UNL     1       8.878  -6.446  -1.625  1.00  0.00     0.212 HD
ENDBRANCH  14  17
ENDBRANCH   3  14
BRANCH   1  19
HETATM   19  O1  UNL     1      13.239  -5.187  -1.553  1.00  0.00    -0.363 OA
HETATM   20  C1  UNL     1      14.151  -4.524  -2.362  1.00  0.00     0.204 C 
ENDBRANCH   1  19
BRANCH  11  21
HETATM   21  O8  UNL     1      13.008  -7.794  -3.133  1.00  0.00    -0.390 OA
ATOM     22  H8  UNL     1      13.744  -8.190  -3.587  1.00  0.00     0.210 HD
ENDBRANCH  11  21
BRANCH   8  23
HETATM   23  O7  UNL     1      12.524  -9.160  -6.873  1.00  0.00    -0.276 OA
BRANCH  23  24
HETATM   24  C8  UNL     1      12.790 -10.489  -6.475  1.00  0.00     0.144 C 
HETATM   25  C9  UNL     1      12.948 -10.654  -5.000  1.00  0.00     0.042 C 
HETATM   26  C10 UNL     1      11.596 -11.335  -6.928  1.00  0.00     0.042 C 
ENDBRANCH  23  24
ENDBRANCH   8  23
TORSDOF 8
ENDMDL
MODEL 3
REMARK VINA RESULT: -7.499527160      3.519      7.319
REMARK  8 active torsions:
REMARK  status: ('A' for Active; 'I' for Inactive)
REMARK    1  A    between atoms: O1_2  and  C2_3 
REMARK    2  A    between atoms: C3_5  and  O3_6 
REMARK    3  A    between atoms: C3_5  and  C4_8 
REMARK    4  A    between atoms: C4_8  and  O4_9 
REMARK    5  A    between atoms: C4_8  and  O5_11 
REMARK    6  A    between atoms: N1_17  and  O7_19 
REMARK    7  A    between atoms: O7_19  and  C8_20 
REMARK    8  A    between atoms: C12_24  and  O8_25 
ROOT
HETATM    1  C2  UNL     1      12.232  -5.643  -2.353  1.00  0.00     0.292 C 
HETATM    2  O2  UNL     1      11.537  -4.536  -2.836  1.00  0.00    -0.316 OA
HETATM    3  C3  UNL     1      10.373  -4.882  -3.513  1.00  0.00     0.242 C 
HETATM    4  C5  UNL     1      10.569  -6.221  -4.114  1.00  0.00     0.201 C 
HETATM    5  O6  UNL     1       9.831  -6.501  -5.230  1.00  0.00    -0.374 OA
HETATM    6  C6  UNL     1      10.481  -7.676  -5.694  1.00  0.00     0.223 C 
HETATM    7  C7  UNL     1      11.914  -7.363  -5.593  1.00  0.00     0.043 C 
HETATM    8  N1  UNL     1      12.888  -7.939  -6.143  1.00  0.00    -0.272 N 
ATOM      9  H1  UNL     1      13.842  -7.615  -5.985  1.00  0.00     0.193 HD
HETATM   10  C11 UNL     1      12.000  -6.206  -4.693  1.00  0.00     0.103 C 
HETATM   11  C12 UNL     1      12.896  -6.411  -3.507  1.00  0.00     0.185 C 
ENDROOT
BRANCH   3  12
HETATM   12  O3  UNL     1      10.165  -3.957  -4.546  1.00  0.00    -0.359 OA
ATOM     13  H3  UNL     1      10.874  -4.038  -5.173  1.00  0.00     0.213 HD
ENDBRANCH   3  12
BRANCH   3  14
HETATM   14  C4  UNL     1       9.154  -4.839  -2.634  1.00  0.00     0.320 C 
BRANCH  14  15
HETATM   15  O4  UNL     1       8.196  -3.942  -3.058  1.00  0.00    -0.366 OA
ATOM     16  H4  UNL     1       7.352  -4.059  -2.640  1.00  0.00     0.212 HD
ENDBRANCH  14  15
BRANCH  14  17
HETATM   17  O5  UNL     1       8.623  -6.130  -2.459  1.00  0.00    -0.366 OA
ATOM     18  H5  UNL     1       9.260  -6.702  -2.049  1.00  0.00     0.212 HD
ENDBRANCH  14  17
ENDBRANCH   3  14
BRANCH   1  19
HETATM   19  O1  UNL     1      13.248  -5.163  -1.541  1.00  0.00    -0.363 OA
HETATM   20  C1  UNL     1      14.167  -4.492  -2.336  1.00  0.00     0.204 C 
ENDBRANCH   1  19
BRANCH  11  21
HETATM   21  O8  UNL     1      13.081  -7.733  -3.189  1.00  0.00    -0.390 OA
ATOM     22  H8  UNL     1      12.483  -8.293  -3.671  1.00  0.00     0.210 HD
ENDBRANCH  11  21
BRANCH   8  23
HETATM   23  O7  UNL     1      12.638  -9.013  -6.964  1.00  0.00    -0.276 OA
BRANCH  23  24
HETATM   24  C8  UNL     1      13.039  -9.057  -8.318  1.00  0.00     0.144 C 
HETATM   25  C9  UNL     1      13.790 -10.295  -8.683  1.00  0.00     0.042 C 
HETATM   26  C10 UNL     1      11.760  -9.007  -9.160  1.00  0.00     0.042 C 
ENDBRANCH  23  24
ENDBRANCH   8  23
TORSDOF 8
ENDMDL
MODEL 4
REMARK VINA RESULT: -7.395566072      4.450      8.114
REMARK  8 active torsions:
REMARK  status: ('A' for Active; 'I' for Inactive)
REMARK    1  A    between atoms: O1_2  and  C2_3 
REMARK    2  A    between atoms: C3_5  and  O3_6 
REMARK    3  A    between atoms: C3_5  and  C4_8 
REMARK    4  A    between atoms: C4_8  and  O4_9 
REMARK    5  A    between atoms: C4_8  and  O5_11 
REMARK    6  A    between atoms: N1_17  and  O7_19 
REMARK    7  A    between atoms: O7_19  and  C8_20 
REMARK    8  A    between atoms: C12_24  and  O8_25 
ROOT
HETATM    1  C2  UNL     1      10.506  -4.516  -4.102  1.00  0.00     0.292 C 
HETATM    2  O2  UNL     1      10.139  -4.353  -2.767  1.00  0.00    -0.316 OA
HETATM    3  C3  UNL     1      11.170  -4.653  -1.884  1.00  0.00     0.242 C 
HETATM    4  C5  UNL     1      12.038  -5.672  -2.516  1.00  0.00     0.201 C 
HETATM    5  O6  UNL     1      12.735  -6.488  -1.668  1.00  0.00    -0.374 OA
HETATM    6  C6  UNL     1      13.179  -7.493  -2.569  1.00  0.00     0.223 C 
HETATM    7  C7  UNL     1      11.993  -7.806  -3.379  1.00  0.00     0.043 C 
HETATM    8  N1  UNL     1      11.774  -8.813  -4.101  1.00  0.00    -0.272 N 
ATOM      9  H1  UNL     1      10.898  -8.904  -4.615  1.00  0.00     0.193 HD
HETATM   10  C11 UNL     1      11.074  -6.678  -3.180  1.00  0.00     0.103 C 
HETATM   11  C12 UNL     1      10.634  -6.008  -4.448  1.00  0.00     0.185 C 
ENDROOT
BRANCH   3  12
HETATM   12  O3  UNL     1      10.615  -5.202  -0.719  1.00  0.00    -0.359 OA
ATOM     13  H3  UNL     1      10.202  -6.028  -0.941  1.00  0.00     0.213 HD
ENDBRANCH   3  12
BRANCH   3  14
HETATM   14  C4  UNL     1      11.951  -3.438  -1.467  1.00  0.00     0.320 C 
BRANCH  14  15
HETATM   15  O4  UNL     1      11.398  -2.762  -0.399  1.00  0.00    -0.366 OA
ATOM     16  H4  UNL     1      10.894  -1.998  -0.650  1.00  0.00     0.212 HD
ENDBRANCH  14  15
BRANCH  14  17
HETATM   17  O5  UNL     1      13.299  -3.769  -1.236  1.00  0.00    -0.366 OA
ATOM     18  H5  UNL     1      13.645  -3.273  -0.504  1.00  0.00     0.212 HD
ENDBRANCH  14  17
ENDBRANCH   3  14
BRANCH   1  19
HETATM   19  O1  UNL     1       9.473  -4.003  -4.872  1.00  0.00    -0.363 OA
HETATM   20  C1  UNL     1       8.280  -4.185  -4.187  1.00  0.00     0.204 C 
ENDBRANCH   1  19
BRANCH  11  21
HETATM   21  O8  UNL     1      11.499  -6.206  -5.495  1.00  0.00    -0.390 OA
ATOM     22  H8  UNL     1      12.125  -5.495  -5.568  1.00  0.00     0.210 HD
ENDBRANCH  11  21
BRANCH   8  23
HETATM   23  O7  UNL     1      12.740  -9.788  -4.181  1.00  0.00    -0.276 OA
BRANCH  23  24
HETATM   24  C8  UNL     1      12.831 -10.694  -5.261  1.00  0.00     0.144 C 
HETATM   25  C9  UNL     1      12.442 -12.091  -4.907  1.00  0.00     0.042 C 
HETATM   26  C10 UNL     1      11.874 -10.189  -6.345  1.00  0.00     0.042 C 
ENDBRANCH  23  24
ENDBRANCH   8  23
TORSDOF 8
ENDMDL
MODEL 5
REMARK VINA RESULT: -7.373983391      1.020      1.242
REMARK  8 active torsions:
REMARK  status: ('A' for Active; 'I' for Inactive)
REMARK    1  A    between atoms: O1_2  and  C2_3 
REMARK    2  A    between atoms: C3_5  and  O3_6 
REMARK    3  A    between atoms: C3_5  and  C4_8 
REMARK    4  A    between atoms: C4_8  and  O4_9 
REMARK    5  A    between atoms: C4_8  and  O5_11 
REMARK    6  A    between atoms: N1_17  and  O7_19 
REMARK    7  A    between atoms: O7_19  and  C8_20 
REMARK    8  A    between atoms: C12_24  and  O8_25 
ROOT
HETATM    1  C2  UNL     1      12.616  -9.097 -10.663  1.00  0.00     0.292 C 
HETATM    2  O2  UNL     1      12.162 -10.407 -10.807  1.00  0.00    -0.316 OA
HETATM    3  C3  UNL     1      10.943 -10.629 -10.177  1.00  0.00     0.242 C 
HETATM    4  C5  UNL     1      10.847  -9.709  -9.021  1.00  0.00     0.201 C 
HETATM    5  O6  UNL     1      10.052 -10.115  -7.985  1.00  0.00    -0.374 OA
HETATM    6  C6  UNL     1      10.437  -9.193  -6.975  1.00  0.00     0.223 C 
HETATM    7  C7  UNL     1      11.905  -9.160  -7.051  1.00  0.00     0.043 C 
HETATM    8  N1  UNL     1      12.729  -8.740  -6.199  1.00  0.00    -0.272 N 
ATOM      9  H1  UNL     1      13.732  -8.776  -6.383  1.00  0.00     0.193 HD
HETATM   10  C11 UNL     1      12.241  -9.733  -8.361  1.00  0.00     0.103 C 
HETATM   11  C12 UNL     1      13.090  -8.845  -9.224  1.00  0.00     0.185 C 
ENDROOT
BRANCH   3  12
HETATM   12  O3  UNL     1      10.920 -11.947  -9.700  1.00  0.00    -0.359 OA
ATOM     13  H3  UNL     1      10.215 -12.414 -10.133  1.00  0.00     0.213 HD
ENDBRANCH   3  12
BRANCH   3  14
HETATM   14  C4  UNL     1       9.771 -10.479 -11.107  1.00  0.00     0.320 C 
BRANCH  14  15
HETATM   15  O4  UNL     1       8.927 -11.570 -11.117  1.00  0.00    -0.366 OA
ATOM     16  H4  UNL     1       8.466 -11.689 -11.938  1.00  0.00     0.212 HD
ENDBRANCH  14  15
BRANCH  14  17
HETATM   17  O5  UNL     1       9.077  -9.284 -10.842  1.00  0.00    -0.366 OA
ATOM     18  H5  UNL     1       9.101  -9.080  -9.915  1.00  0.00     0.212 HD
ENDBRANCH  14  17
ENDBRANCH   3  14
BRANCH   1  19
HETATM   19  O1  UNL     1      13.720  -8.957 -11.490  1.00  0.00    -0.363 OA
HETATM   20  C1  UNL     1      14.717  -9.811 -11.041  1.00  0.00     0.204 C 
ENDBRANCH   1  19
BRANCH  11  21
HETATM   21  O8  UNL     1      12.998  -7.517  -8.891  1.00  0.00    -0.390 OA
ATOM     22  H8  UNL     1      13.016  -6.964  -9.663  1.00  0.00     0.210 HD
ENDBRANCH  11  21
BRANCH   8  23
HETATM   23  O7  UNL     1      12.251  -8.231  -5.015  1.00  0.00    -0.276 OA
BRANCH  23  24
HETATM   24  C8  UNL     1      12.322  -6.860  -4.681  1.00  0.00     0.144 C 
HETATM   25  C9  UNL     1      11.024  -6.138  -4.828  1.00  0.00     0.042 C 
HETATM   26  C10 UNL     1      12.750  -6.784  -3.213  1.00  0.00     0.042 C 
ENDBRANCH  23  24
ENDBRANCH   8  23
TORSDOF 8
ENDMDL
