MODEL 1
REMARK VINA RESULT: -8.105901308      0.000      0.000
REMARK  8 active torsions:
REMARK  status: ('A' for Active; 'I' for Inactive)
REMARK    1  A    between atoms: O1_2  and  C2_3 
REMARK    2  A    between atoms: C4_5  and  O2_6 
REMARK    3  A    between atoms: C7_11  and  C8_12 
REMARK    4  A    between atoms: C9_15  and  C10_16 
REMARK    5  A    between atoms: C12_21  and  O7_22 
REMARK    6  A    between atoms: C14_24  and  O8_25 
REMARK    7  A    between atoms: C16_27  and  O9_28 
REMARK    8  A    between atoms: C18_32  and  O11_33 
ROOT
HETATM    1  C2  UNL     1       9.368  15.969  -4.161  1.00  0.00     0.106 A 
HETATM    2  C3  UNL     1       8.408  16.604  -3.400  1.00  0.00     0.077 A 
HETATM    3  C4  UNL     1       7.304  15.935  -2.944  1.00  0.00     0.085 A 
HETATM    4  C5  UNL     1       7.164  14.589  -3.265  1.00  0.00     0.085 A 
HETATM    5  C6  UNL     1       6.059  13.922  -2.802  1.00  0.00     0.207 A 
HETATM    6  O3  UNL     1       5.187  14.500  -2.110  1.00  0.00    -0.286 OA
HETATM    7  C7  UNL     1       5.922  12.559  -3.126  1.00  0.00     0.128 A 
HETATM    8  C9  UNL     1       6.916  12.016  -3.888  1.00  0.00     0.127 A 
HETATM    9  O10 UNL     1       7.978  12.726  -4.307  1.00  0.00    -0.303 OA
HETATM   10  C17 UNL     1       8.132  13.968  -4.026  1.00  0.00     0.129 A 
HETATM   11  C18 UNL     1       9.265  14.641  -4.498  1.00  0.00     0.134 A 
ENDROOT
BRANCH   8  12
HETATM   12  C10 UNL     1       6.862  10.631  -4.304  1.00  0.00     0.107 A 
HETATM   13  N1  UNL     1       6.646   9.651  -3.416  1.00  0.00    -0.316 N 
HETATM   14  C11 UNL     1       6.678   8.340  -3.719  1.00  0.00     0.282 A 
ATOM     15  H1  UNL     1       6.443   9.914  -2.452  1.00  0.00     0.169 HD
HETATM   16  O6  UNL     1       6.468   7.452  -2.846  1.00  0.00    -0.265 OA
HETATM   17  C12 UNL     1       6.952   7.965  -5.029  1.00  0.00     0.173 A 
HETATM   18  C14 UNL     1       7.185   8.915  -5.997  1.00  0.00     0.143 A 
HETATM   19  C16 UNL     1       7.137  10.249  -5.614  1.00  0.00     0.132 A 
BRANCH  17  20
HETATM   20  O7  UNL     1       6.998   6.626  -5.403  1.00  0.00    -0.349 OA
HETATM   21  C13 UNL     1       8.204   5.910  -5.371  1.00  0.00     0.210 C 
ENDBRANCH  17  20
BRANCH  18  22
HETATM   22  O8  UNL     1       7.461   8.579  -7.321  1.00  0.00    -0.350 OA
HETATM   23  C15 UNL     1       6.495   8.399  -8.309  1.00  0.00     0.210 C 
ENDBRANCH  18  22
BRANCH  19  24
HETATM   24  O9  UNL     1       7.390  11.190  -6.628  1.00  0.00    -0.356 OA
ATOM     25  H9  UNL     1       7.136  11.038  -7.531  1.00  0.00     0.218 HD
ENDBRANCH  19  24
ENDBRANCH   8  12
BRANCH   7  26
HETATM   26  C8  UNL     1       4.798  11.837  -2.564  1.00  0.00     0.216 C 
HETATM   27  O4  UNL     1       4.989  11.288  -1.408  1.00  0.00    -0.644 OA
HETATM   28  O5  UNL     1       3.560  11.654  -3.102  1.00  0.00    -0.644 OA
ENDBRANCH   7  26
BRANCH  11  29
HETATM   29  O11 UNL     1      10.209  13.962  -5.262  1.00  0.00    -0.356 OA
ATOM     30  H11 UNL     1      10.094  13.072  -5.575  1.00  0.00     0.218 HD
ENDBRANCH  11  29
BRANCH   3  31
HETATM   31  O2  UNL     1       6.313  16.515  -2.181  1.00  0.00    -0.360 OA
ATOM     32  H2  UNL     1       6.391  16.683  -1.249  1.00  0.00     0.217 HD
ENDBRANCH   3  31
BRANCH   1  33
HETATM   33  O1  UNL     1      10.489  16.650  -4.622  1.00  0.00    -0.353 OA
HETATM   34  C1  UNL     1      10.872  17.899  -4.073  1.00  0.00     0.210 C 
ENDBRANCH   1  33
TORSDOF 8
ENDMDL
MODEL 2
REMARK VINA RESULT: -7.908903211      4.271      7.846
REMARK  8 active torsions:
REMARK  status: ('A' for Active; 'I' for Inactive)
REMARK    1  A    between atoms: O1_2  and  C2_3 
REMARK    2  A    between atoms: C4_5  and  O2_6 
REMARK    3  A    between atoms: C7_11  and  C8_12 
REMARK    4  A    between atoms: C9_15  and  C10_16 
REMARK    5  A    between atoms: C12_21  and  O7_22 
REMARK    6  A    between atoms: C14_24  and  O8_25 
REMARK    7  A    between atoms: C16_27  and  O9_28 
REMARK    8  A    between atoms: C18_32  and  O11_33 
ROOT
HETATM    1  C2  UNL     1       3.559   9.209  -9.437  1.00  0.00     0.106 A 
HETATM    2  C3  UNL     1       4.671   8.397  -9.510  1.00  0.00     0.077 A 
HETATM    3  C4  UNL     1       5.433   8.131  -8.404  1.00  0.00     0.085 A 
HETATM    4  C5  UNL     1       5.062   8.702  -7.191  1.00  0.00     0.085 A 
HETATM    5  C6  UNL     1       5.826   8.430  -6.085  1.00  0.00     0.207 A 
HETATM    6  O3  UNL     1       6.837   7.690  -6.152  1.00  0.00    -0.286 OA
HETATM    7  C7  UNL     1       5.446   9.006  -4.858  1.00  0.00     0.128 A 
HETATM    8  C9  UNL     1       4.337   9.801  -4.882  1.00  0.00     0.127 A 
HETATM    9  O10 UNL     1       3.629  10.025  -6.002  1.00  0.00    -0.303 OA
HETATM   10  C17 UNL     1       3.948   9.512  -7.134  1.00  0.00     0.129 A 
HETATM   11  C18 UNL     1       3.161   9.790  -8.257  1.00  0.00     0.134 A 
ENDROOT
BRANCH   8  12
HETATM   12  C10 UNL     1       3.874  10.468  -3.683  1.00  0.00     0.107 A 
HETATM   13  N1  UNL     1       4.736  10.867  -2.737  1.00  0.00    -0.316 N 
HETATM   14  C11 UNL     1       4.366  11.404  -1.560  1.00  0.00     0.282 A 
ATOM     15  H1  UNL     1       5.733  10.757  -2.921  1.00  0.00     0.169 HD
HETATM   16  O6  UNL     1       5.217  11.764  -0.699  1.00  0.00    -0.265 OA
HETATM   17  C12 UNL     1       3.011  11.561  -1.295  1.00  0.00     0.173 A 
HETATM   18  C14 UNL     1       2.066  11.174  -2.218  1.00  0.00     0.143 A 
HETATM   19  C16 UNL     1       2.518  10.626  -3.411  1.00  0.00     0.132 A 
BRANCH  17  20
HETATM   20  O7  UNL     1       2.568  12.111  -0.097  1.00  0.00    -0.349 OA
HETATM   21  C13 UNL     1       2.292  13.483   0.007  1.00  0.00     0.210 C 
ENDBRANCH  17  20
BRANCH  18  22
HETATM   22  O8  UNL     1       0.699  11.316  -1.989  1.00  0.00    -0.350 OA
HETATM   23  C15 UNL     1      -0.101  10.364  -1.360  1.00  0.00     0.210 C 
ENDBRANCH  18  22
BRANCH  19  24
HETATM   24  O9  UNL     1       1.523  10.234  -4.324  1.00  0.00    -0.356 OA
ATOM     25  H9  UNL     1       0.597  10.334  -4.134  1.00  0.00     0.218 HD
ENDBRANCH  19  24
ENDBRANCH   8  12
BRANCH   7  26
HETATM   26  C8  UNL     1       6.205   8.649  -3.676  1.00  0.00     0.216 C 
HETATM   27  O4  UNL     1       7.111   9.492  -3.300  1.00  0.00    -0.644 OA
HETATM   28  O5  UNL     1       6.091   7.530  -2.908  1.00  0.00    -0.644 OA
ENDBRANCH   7  26
BRANCH  11  29
HETATM   29  O11 UNL     1       2.047  10.615  -8.139  1.00  0.00    -0.356 OA
ATOM     30  H11 UNL     1       1.872  11.161  -7.381  1.00  0.00     0.218 HD
ENDBRANCH  11  29
BRANCH   3  31
HETATM   31  O2  UNL     1       6.554   7.328  -8.415  1.00  0.00    -0.360 OA
ATOM     32  H2  UNL     1       6.981   7.002  -7.632  1.00  0.00     0.217 HD
ENDBRANCH   3  31
BRANCH   1  33
HETATM   33  O1  UNL     1       2.786   9.476 -10.561  1.00  0.00    -0.353 OA
HETATM   34  C1  UNL     1       3.300   9.300 -11.871  1.00  0.00     0.210 C 
ENDBRANCH   1  33
TORSDOF 8
ENDMDL
MODEL 3
REMARK VINA RESULT: -7.810693981      0.863      1.084
REMARK  8 active torsions:
REMARK  status: ('A' for Active; 'I' for Inactive)
REMARK    1  A    between atoms: O1_2  and  C2_3 
REMARK    2  A    between atoms: C4_5  and  O2_6 
REMARK    3  A    between atoms: C7_11  and  C8_12 
REMARK    4  A    between atoms: C9_15  and  C10_16 
REMARK    5  A    between atoms: C12_21  and  O7_22 
REMARK    6  A    between atoms: C14_24  and  O8_25 
REMARK    7  A    between atoms: C16_27  and  O9_28 
REMARK    8  A    between atoms: C18_32  and  O11_33 
ROOT
HETATM    1  C2  UNL     1       8.361  15.841  -3.712  1.00  0.00     0.106 A 
HETATM    2  C3  UNL     1       7.224  16.316  -3.093  1.00  0.00     0.077 A 
HETATM    3  C4  UNL     1       6.170  15.491  -2.808  1.00  0.00     0.085 A 
HETATM    4  C5  UNL     1       6.266  14.148  -3.157  1.00  0.00     0.085 A 
HETATM    5  C6  UNL     1       5.209  13.323  -2.865  1.00  0.00     0.207 A 
HETATM    6  O3  UNL     1       4.176  13.757  -2.302  1.00  0.00    -0.286 OA
HETATM    7  C7  UNL     1       5.311  11.964  -3.217  1.00  0.00     0.128 A 
HETATM    8  C9  UNL     1       6.469  11.584  -3.831  1.00  0.00     0.127 A 
HETATM    9  O10 UNL     1       7.470  12.444  -4.086  1.00  0.00    -0.303 OA
HETATM   10  C17 UNL     1       7.409  13.687  -3.775  1.00  0.00     0.129 A 
HETATM   11  C18 UNL     1       8.493  14.521  -4.072  1.00  0.00     0.134 A 
ENDROOT
BRANCH   8  12
HETATM   12  C10 UNL     1       6.668  10.217  -4.262  1.00  0.00     0.107 A 
HETATM   13  N1  UNL     1       6.464   9.191  -3.424  1.00  0.00    -0.316 N 
HETATM   14  C11 UNL     1       6.721   7.906  -3.730  1.00  0.00     0.282 A 
ATOM     15  H1  UNL     1       6.090   9.397  -2.498  1.00  0.00     0.169 HD
HETATM   16  O6  UNL     1       6.512   6.973  -2.905  1.00  0.00    -0.265 OA
HETATM   17  C12 UNL     1       7.230   7.610  -4.989  1.00  0.00     0.173 A 
HETATM   18  C14 UNL     1       7.467   8.610  -5.903  1.00  0.00     0.143 A 
HETATM   19  C16 UNL     1       7.180   9.913  -5.521  1.00  0.00     0.132 A 
BRANCH  17  20
HETATM   20  O7  UNL     1       7.515   6.301  -5.363  1.00  0.00    -0.349 OA
HETATM   21  C13 UNL     1       8.649   5.640  -4.866  1.00  0.00     0.210 C 
ENDBRANCH  17  20
BRANCH  18  22
HETATM   22  O8  UNL     1       7.975   8.352  -7.175  1.00  0.00    -0.350 OA
HETATM   23  C15 UNL     1       7.204   7.983  -8.275  1.00  0.00     0.210 C 
ENDBRANCH  18  22
BRANCH  19  24
HETATM   24  O9  UNL     1       7.444  10.908  -6.478  1.00  0.00    -0.356 OA
ATOM     25  H9  UNL     1       7.784  10.700  -7.341  1.00  0.00     0.218 HD
ENDBRANCH  19  24
ENDBRANCH   8  12
BRANCH   7  26
HETATM   26  C8  UNL     1       4.230  11.080  -2.831  1.00  0.00     0.216 C 
HETATM   27  O4  UNL     1       3.248  10.976  -3.667  1.00  0.00    -0.644 OA
HETATM   28  O5  UNL     1       4.108  10.345  -1.691  1.00  0.00    -0.644 OA
ENDBRANCH   7  26
BRANCH  11  29
HETATM   29  O11 UNL     1       9.621  13.999  -4.696  1.00  0.00    -0.356 OA
ATOM     30  H11 UNL     1       9.975  13.136  -4.514  1.00  0.00     0.218 HD
ENDBRANCH  11  29
BRANCH   3  31
HETATM   31  O2  UNL     1       5.009  15.908  -2.192  1.00  0.00    -0.360 OA
ATOM     32  H2  UNL     1       4.732  16.816  -2.142  1.00  0.00     0.217 HD
ENDBRANCH   3  31
BRANCH   1  33
HETATM   33  O1  UNL     1       9.430  16.681  -4.000  1.00  0.00    -0.353 OA
HETATM   34  C1  UNL     1       9.448  17.482  -5.169  1.00  0.00     0.210 C 
ENDBRANCH   1  33
TORSDOF 8
ENDMDL
MODEL 4
REMARK VINA RESULT: -7.695383428      2.995      7.223
REMARK  8 active torsions:
REMARK  status: ('A' for Active; 'I' for Inactive)
REMARK    1  A    between atoms: O1_2  and  C2_3 
REMARK    2  A    between atoms: C4_5  and  O2_6 
REMARK    3  A    between atoms: C7_11  and  C8_12 
REMARK    4  A    between atoms: C9_15  and  C10_16 
REMARK    5  A    between atoms: C12_21  and  O7_22 
REMARK    6  A    between atoms: C14_24  and  O8_25 
REMARK    7  A    between atoms: C16_27  and  O9_28 
REMARK    8  A    between atoms: C18_32  and  O11_33 
ROOT
HETATM    1  C2  UNL     1       7.103   7.406  -8.243  1.00  0.00     0.106 A 
HETATM    2  C3  UNL     1       6.121   7.537  -9.203  1.00  0.00     0.077 A 
HETATM    3  C4  UNL     1       4.972   8.239  -8.954  1.00  0.00     0.085 A 
HETATM    4  C5  UNL     1       4.809   8.824  -7.703  1.00  0.00     0.085 A 
HETATM    5  C6  UNL     1       3.659   9.529  -7.460  1.00  0.00     0.207 A 
HETATM    6  O3  UNL     1       2.767   9.649  -8.334  1.00  0.00    -0.286 OA
HETATM    7  C7  UNL     1       3.499  10.123  -6.194  1.00  0.00     0.128 A 
HETATM    8  C9  UNL     1       4.518   9.936  -5.306  1.00  0.00     0.127 A 
HETATM    9  O10 UNL     1       5.623   9.234  -5.609  1.00  0.00    -0.303 OA
HETATM   10  C17 UNL     1       5.800   8.684  -6.754  1.00  0.00     0.129 A 
HETATM   11  C18 UNL     1       6.979   7.969  -6.996  1.00  0.00     0.134 A 
ENDROOT
BRANCH   8  12
HETATM   12  C10 UNL     1       4.445  10.477  -3.965  1.00  0.00     0.107 A 
HETATM   13  N1  UNL     1       3.661   9.916  -3.035  1.00  0.00    -0.316 N 
HETATM   14  C11 UNL     1       3.474  10.424  -1.803  1.00  0.00     0.282 A 
ATOM     15  H1  UNL     1       3.176   9.052  -3.275  1.00  0.00     0.169 HD
HETATM   16  O6  UNL     1       2.723   9.858  -0.959  1.00  0.00    -0.265 OA
HETATM   17  C12 UNL     1       4.128  11.601  -1.460  1.00  0.00     0.173 A 
HETATM   18  C14 UNL     1       4.950  12.235  -2.363  1.00  0.00     0.143 A 
HETATM   19  C16 UNL     1       5.097  11.657  -3.616  1.00  0.00     0.132 A 
BRANCH  17  20
HETATM   20  O7  UNL     1       3.976  12.172  -0.201  1.00  0.00    -0.349 OA
HETATM   21  C13 UNL     1       2.959  13.108   0.047  1.00  0.00     0.210 C 
ENDBRANCH  17  20
BRANCH  18  22
HETATM   22  O8  UNL     1       5.624  13.416  -2.056  1.00  0.00    -0.350 OA
HETATM   23  C15 UNL     1       6.977  13.493  -1.732  1.00  0.00     0.210 C 
ENDBRANCH  18  22
BRANCH  19  24
HETATM   24  O9  UNL     1       5.936  12.339  -4.515  1.00  0.00    -0.356 OA
ATOM     25  H9  UNL     1       5.847  13.271  -4.678  1.00  0.00     0.218 HD
ENDBRANCH  19  24
ENDBRANCH   8  12
BRANCH   7  26
HETATM   26  C8  UNL     1       2.322  10.939  -5.971  1.00  0.00     0.216 C 
HETATM   27  O4  UNL     1       1.527  10.551  -5.026  1.00  0.00    -0.644 OA
HETATM   28  O5  UNL     1       1.937  12.064  -6.634  1.00  0.00    -0.644 OA
ENDBRANCH   7  26
BRANCH  11  29
HETATM   29  O11 UNL     1       7.944   7.862  -6.000  1.00  0.00    -0.356 OA
ATOM     30  H11 UNL     1       8.870   7.737  -6.172  1.00  0.00     0.218 HD
ENDBRANCH  11  29
BRANCH   3  31
HETATM   31  O2  UNL     1       3.957   8.404  -9.873  1.00  0.00    -0.360 OA
ATOM     32  H2  UNL     1       4.046   8.899 -10.679  1.00  0.00     0.217 HD
ENDBRANCH   3  31
BRANCH   1  33
HETATM   33  O1  UNL     1       8.269   6.694  -8.498  1.00  0.00    -0.353 OA
HETATM   34  C1  UNL     1       9.480   7.352  -8.831  1.00  0.00     0.210 C 
ENDBRANCH   1  33
TORSDOF 8
ENDMDL
MODEL 5
REMARK VINA RESULT: -7.640524191      3.576      7.577
REMARK  8 active torsions:
REMARK  status: ('A' for Active; 'I' for Inactive)
REMARK    1  A    between atoms: O1_2  and  C2_3 
REMARK    2  A    between atoms: C4_5  and  O2_6 
REMARK    3  A    between atoms: C7_11  and  C8_12 
REMARK    4  A    between atoms: C9_15  and  C10_16 
REMARK    5  A    between atoms: C12_21  and  O7_22 
REMARK    6  A    between atoms: C14_24  and  O8_25 
REMARK    7  A    between atoms: C16_27  and  O9_28 
REMARK    8  A    between atoms: C18_32  and  O11_33 
ROOT
HETATM    1  C2  UNL     1       5.865   7.641  -8.742  1.00  0.00     0.106 A 
HETATM    2  C3  UNL     1       4.971   8.028  -9.719  1.00  0.00     0.077 A 
HETATM    3  C4  UNL     1       3.930   8.872  -9.438  1.00  0.00     0.085 A 
HETATM    4  C5  UNL     1       3.788   9.338  -8.135  1.00  0.00     0.085 A 
HETATM    5  C6  UNL     1       2.747  10.188  -7.860  1.00  0.00     0.207 A 
HETATM    6  O3  UNL     1       1.936  10.540  -8.749  1.00  0.00    -0.286 OA
HETATM    7  C7  UNL     1       2.608  10.661  -6.541  1.00  0.00     0.128 A 
HETATM    8  C9  UNL     1       3.534  10.220  -5.640  1.00  0.00     0.127 A 
HETATM    9  O10 UNL     1       4.534   9.388  -5.977  1.00  0.00    -0.303 OA
HETATM   10  C17 UNL     1       4.690   8.943  -7.170  1.00  0.00     0.129 A 
HETATM   11  C18 UNL     1       5.757   8.080  -7.445  1.00  0.00     0.134 A 
ENDROOT
BRANCH   8  12
HETATM   12  C10 UNL     1       3.468  10.620  -4.251  1.00  0.00     0.107 A 
HETATM   13  N1  UNL     1       2.517  10.141  -3.438  1.00  0.00    -0.316 N 
HETATM   14  C11 UNL     1       2.341  10.543  -2.165  1.00  0.00     0.282 A 
ATOM     15  H1  UNL     1       1.887   9.427  -3.805  1.00  0.00     0.169 HD
HETATM   16  O6  UNL     1       1.428  10.061  -1.438  1.00  0.00    -0.265 OA
HETATM   17  C12 UNL     1       3.191  11.513  -1.649  1.00  0.00     0.173 A 
HETATM   18  C14 UNL     1       4.192  12.053  -2.424  1.00  0.00     0.143 A 
HETATM   19  C16 UNL     1       4.315  11.593  -3.728  1.00  0.00     0.132 A 
BRANCH  17  20
HETATM   20  O7  UNL     1       3.060  11.968  -0.342  1.00  0.00    -0.349 OA
HETATM   21  C13 UNL     1       2.220  13.050  -0.036  1.00  0.00     0.210 C 
ENDBRANCH  17  20
BRANCH  18  22
HETATM   22  O8  UNL     1       5.065  13.027  -1.943  1.00  0.00    -0.350 OA
HETATM   23  C15 UNL     1       6.311  12.763  -1.378  1.00  0.00     0.210 C 
ENDBRANCH  18  22
BRANCH  19  24
HETATM   24  O9  UNL     1       5.343  12.175  -4.492  1.00  0.00    -0.356 OA
ATOM     25  H9  UNL     1       5.942  11.652  -5.012  1.00  0.00     0.218 HD
ENDBRANCH  19  24
ENDBRANCH   8  12
BRANCH   7  26
HETATM   26  C8  UNL     1       1.559  11.624  -6.273  1.00  0.00     0.216 C 
HETATM   27  O4  UNL     1       1.784  12.838  -6.660  1.00  0.00    -0.644 OA
HETATM   28  O5  UNL     1       0.363  11.418  -5.656  1.00  0.00    -0.644 OA
ENDBRANCH   7  26
BRANCH  11  29
HETATM   29  O11 UNL     1       6.635   7.716  -6.430  1.00  0.00    -0.356 OA
ATOM     30  H11 UNL     1       6.620   8.092  -5.557  1.00  0.00     0.218 HD
ENDBRANCH  11  29
BRANCH   3  31
HETATM   31  O2  UNL     1       3.007   9.294 -10.371  1.00  0.00    -0.360 OA
ATOM     32  H2  UNL     1       2.217   8.813 -10.590  1.00  0.00     0.217 HD
ENDBRANCH   3  31
BRANCH   1  33
HETATM   33  O1  UNL     1       6.921   6.784  -9.030  1.00  0.00    -0.353 OA
HETATM   34  C1  UNL     1       8.267   7.169  -8.809  1.00  0.00     0.210 C 
ENDBRANCH   1  33
TORSDOF 8
ENDMDL
