MODEL 1
REMARK VINA RESULT: -9.390522960      0.000      0.000
REMARK  7 active torsions:
REMARK  status: ('A' for Active; 'I' for Inactive)
REMARK    1  A    between atoms: O1_2  and  C2_3 
REMARK    2  A    between atoms: C3_5  and  C4_6 
REMARK    3  A    between atoms: C5_9  and  O3_10 
REMARK    4  A    between atoms: N4_21  and  O4_22 
REMARK    5  A    between atoms: O4_22  and  C12_23 
REMARK    6  A    between atoms: C14_30  and  N7_31 
REMARK    7  A    between atoms: C15_34  and  O8_35 
ROOT
HETATM    1  C4  UNL     1       7.339   5.708  -3.724  1.00  0.00     0.098 A 
HETATM    2  N1  UNL     1       6.721   6.483  -2.820  1.00  0.00    -0.332 N 
ATOM      3  H1  UNL     1       6.698   6.305  -1.816  1.00  0.00     0.168 HD
HETATM    4  C5  UNL     1       6.127   7.545  -3.442  1.00  0.00     0.151 A 
HETATM    5  C6  UNL     1       6.381   7.440  -4.799  1.00  0.00     0.047 A 
HETATM    6  C7  UNL     1       7.130   6.301  -4.965  1.00  0.00     0.072 A 
HETATM    7  N2  UNL     1       7.532   5.953  -6.285  1.00  0.00    -0.358 N 
ATOM      8  H2  UNL     1       7.844   5.014  -6.539  1.00  0.00     0.162 HD
HETATM    9  C8  UNL     1       7.460   7.057  -7.253  1.00  0.00     0.206 C 
HETATM   10  C9  UNL     1       7.847   6.679  -8.584  1.00  0.00     0.101 C 
HETATM   11  N3  UNL     1       8.161   6.355  -9.639  1.00  0.00    -0.194 NA
HETATM   12  C10 UNL     1       5.984   7.481  -7.200  1.00  0.00     0.090 C 
HETATM   13  C11 UNL     1       5.994   8.333  -5.955  1.00  0.00     0.162 C 
HETATM   14  N4  UNL     1       7.148   9.182  -6.215  1.00  0.00    -0.205 N 
HETATM   15  C13 UNL     1       8.133   8.279  -6.748  1.00  0.00     0.287 C 
HETATM   16  O5  UNL     1       9.390   8.478  -6.789  1.00  0.00    -0.267 OA
ENDROOT
BRANCH  14  17
HETATM   17  O4  UNL     1       7.347  10.510  -6.026  1.00  0.00    -0.199 OA
BRANCH  17  18
HETATM   18  C12 UNL     1       6.804  11.215  -4.954  1.00  0.00     0.249 C 
HETATM   19  N5  UNL     1       7.555  12.050  -4.364  1.00  0.00    -0.366 N 
ATOM     20  H52 UNL     1       8.514  12.180  -4.683  1.00  0.00     0.159 HD
ATOM     21  H51 UNL     1       7.157  12.566  -3.580  1.00  0.00     0.159 HD
HETATM   22  N6  UNL     1       5.471  11.035  -4.511  1.00  0.00    -0.055 NA
ENDBRANCH  17  18
ENDBRANCH  14  17
BRANCH   1  23
HETATM   23  C3  UNL     1       8.120   4.485  -3.566  1.00  0.00     0.143 A 
HETATM   24  O2  UNL     1       9.124   4.099  -4.353  1.00  0.00    -0.281 OA
HETATM   25  C2  UNL     1       9.618   2.968  -3.946  1.00  0.00     0.223 A 
HETATM   26  C15 UNL     1       8.935   2.543  -2.834  1.00  0.00     0.163 A 
HETATM   27  C14 UNL     1       7.963   3.543  -2.601  1.00  0.00     0.177 A 
BRANCH  25  28
HETATM   28  O1  UNL     1      10.687   2.264  -4.534  1.00  0.00    -0.333 OA
HETATM   29  C1  UNL     1      10.543   0.939  -5.018  1.00  0.00     0.212 C 
ENDBRANCH  25  28
BRANCH  26  30
HETATM   30  O8  UNL     1       9.102   1.414  -2.069  1.00  0.00    -0.349 OA
HETATM   31  C16 UNL     1       8.367   0.238  -2.293  1.00  0.00     0.210 C 
ENDBRANCH  26  30
BRANCH  27  32
HETATM   32  N7  UNL     1       7.045   3.477  -1.519  1.00  0.00    -0.110 N 
HETATM   33  O6  UNL     1       6.099   2.690  -1.566  1.00  0.00    -0.532 OA
HETATM   34  O7  UNL     1       7.246   4.267  -0.431  1.00  0.00    -0.532 OA
ENDBRANCH  27  32
ENDBRANCH   1  23
BRANCH   4  35
HETATM   35  O3  UNL     1       5.394   8.561  -2.843  1.00  0.00    -0.346 OA
ATOM     36  H3  UNL     1       4.593   8.955  -3.165  1.00  0.00     0.219 HD
ENDBRANCH   4  35
TORSDOF 7
ENDMDL
MODEL 2
REMARK VINA RESULT: -9.124672155      2.228      7.042
REMARK  7 active torsions:
REMARK  status: ('A' for Active; 'I' for Inactive)
REMARK    1  A    between atoms: O1_2  and  C2_3 
REMARK    2  A    between atoms: C3_5  and  C4_6 
REMARK    3  A    between atoms: C5_9  and  O3_10 
REMARK    4  A    between atoms: N4_21  and  O4_22 
REMARK    5  A    between atoms: O4_22  and  C12_23 
REMARK    6  A    between atoms: C14_30  and  N7_31 
REMARK    7  A    between atoms: C15_34  and  O8_35 
ROOT
HETATM    1  C4  UNL     1       7.585   5.474  -3.846  1.00  0.00     0.098 A 
HETATM    2  N1  UNL     1       6.819   5.638  -2.757  1.00  0.00    -0.332 N 
ATOM      3  H1  UNL     1       6.158   6.401  -2.617  1.00  0.00     0.168 HD
HETATM    4  C5  UNL     1       7.056   4.632  -1.861  1.00  0.00     0.151 A 
HETATM    5  C6  UNL     1       8.012   3.793  -2.409  1.00  0.00     0.047 A 
HETATM    6  C7  UNL     1       8.334   4.321  -3.635  1.00  0.00     0.072 A 
HETATM    7  N2  UNL     1       9.310   3.643  -4.418  1.00  0.00    -0.358 N 
ATOM      8  H2  UNL     1       9.803   4.087  -5.194  1.00  0.00     0.162 HD
HETATM    9  C8  UNL     1       9.549   2.248  -4.017  1.00  0.00     0.206 C 
HETATM   10  C9  UNL     1      10.553   1.590  -4.805  1.00  0.00     0.101 C 
HETATM   11  N3  UNL     1      11.358   1.083  -5.447  1.00  0.00    -0.194 NA
HETATM   12  C10 UNL     1       9.981   2.370  -2.548  1.00  0.00     0.090 C 
HETATM   13  C11 UNL     1       8.636   2.520  -1.883  1.00  0.00     0.162 C 
HETATM   14  N4  UNL     1       7.903   1.425  -2.500  1.00  0.00    -0.205 N 
HETATM   15  C13 UNL     1       8.282   1.486  -3.886  1.00  0.00     0.287 C 
HETATM   16  O5  UNL     1       7.644   0.975  -4.863  1.00  0.00    -0.267 OA
ENDROOT
BRANCH  14  17
HETATM   17  O4  UNL     1       7.041   0.516  -1.980  1.00  0.00    -0.199 OA
BRANCH  17  18
HETATM   18  C12 UNL     1       5.683   0.769  -1.807  1.00  0.00     0.249 C 
HETATM   19  N5  UNL     1       5.088   0.153  -0.872  1.00  0.00    -0.366 N 
ATOM     20  H52 UNL     1       5.609  -0.498  -0.285  1.00  0.00     0.159 HD
ATOM     21  H51 UNL     1       4.093   0.339  -0.745  1.00  0.00     0.159 HD
HETATM   22  N6  UNL     1       4.959   1.674  -2.621  1.00  0.00    -0.055 NA
ENDBRANCH  17  18
ENDBRANCH  14  17
BRANCH   1  23
HETATM   23  C3  UNL     1       7.688   6.258  -5.073  1.00  0.00     0.143 A 
HETATM   24  O2  UNL     1       8.353   5.896  -6.170  1.00  0.00    -0.281 OA
HETATM   25  C2  UNL     1       8.251   6.808  -7.090  1.00  0.00     0.223 A 
HETATM   26  C15 UNL     1       7.487   7.848  -6.622  1.00  0.00     0.163 A 
HETATM   27  C14 UNL     1       7.129   7.473  -5.307  1.00  0.00     0.177 A 
BRANCH  25  28
HETATM   28  O1  UNL     1       8.822   6.762  -8.377  1.00  0.00    -0.333 OA
HETATM   29  C1  UNL     1       9.842   7.662  -8.782  1.00  0.00     0.212 C 
ENDBRANCH  25  28
BRANCH  26  30
HETATM   30  O8  UNL     1       7.113   9.019  -7.236  1.00  0.00    -0.349 OA
HETATM   31  C16 UNL     1       6.110   9.066  -8.218  1.00  0.00     0.210 C 
ENDBRANCH  26  30
BRANCH  27  32
HETATM   32  N7  UNL     1       6.322   8.291  -4.473  1.00  0.00    -0.110 N 
HETATM   33  O6  UNL     1       5.196   8.622  -4.846  1.00  0.00    -0.532 OA
HETATM   34  O7  UNL     1       6.797   8.670  -3.258  1.00  0.00    -0.532 OA
ENDBRANCH  27  32
ENDBRANCH   1  23
BRANCH   4  35
HETATM   35  O3  UNL     1       6.458   4.460  -0.621  1.00  0.00    -0.346 OA
ATOM     36  H3  UNL     1       6.893   4.407   0.222  1.00  0.00     0.219 HD
ENDBRANCH   4  35
TORSDOF 7
ENDMDL
MODEL 3
REMARK VINA RESULT: -8.407253979      5.180      7.848
REMARK  7 active torsions:
REMARK  status: ('A' for Active; 'I' for Inactive)
REMARK    1  A    between atoms: O1_2  and  C2_3 
REMARK    2  A    between atoms: C3_5  and  C4_6 
REMARK    3  A    between atoms: C5_9  and  O3_10 
REMARK    4  A    between atoms: N4_21  and  O4_22 
REMARK    5  A    between atoms: O4_22  and  C12_23 
REMARK    6  A    between atoms: C14_30  and  N7_31 
REMARK    7  A    between atoms: C15_34  and  O8_35 
ROOT
HETATM    1  C4  UNL     1       5.995  11.414  -4.585  1.00  0.00     0.098 A 
HETATM    2  N1  UNL     1       4.656  11.390  -4.500  1.00  0.00    -0.332 N 
ATOM      3  H1  UNL     1       4.086  12.104  -4.047  1.00  0.00     0.168 HD
HETATM    4  C5  UNL     1       4.168  10.268  -5.109  1.00  0.00     0.151 A 
HETATM    5  C6  UNL     1       5.244   9.551  -5.604  1.00  0.00     0.047 A 
HETATM    6  C7  UNL     1       6.370  10.266  -5.275  1.00  0.00     0.072 A 
HETATM    7  N2  UNL     1       7.633   9.743  -5.671  1.00  0.00    -0.358 N 
ATOM      8  H2  UNL     1       8.513  10.044  -5.251  1.00  0.00     0.162 HD
HETATM    9  C8  UNL     1       7.564   8.730  -6.735  1.00  0.00     0.206 C 
HETATM   10  C9  UNL     1       8.847   8.198  -7.102  1.00  0.00     0.101 C 
HETATM   11  N3  UNL     1       9.881   7.786  -7.381  1.00  0.00    -0.194 NA
HETATM   12  C10 UNL     1       6.659   7.643  -6.133  1.00  0.00     0.090 C 
HETATM   13  C11 UNL     1       5.303   8.255  -6.380  1.00  0.00     0.162 C 
HETATM   14  N4  UNL     1       5.423   8.628  -7.782  1.00  0.00    -0.205 N 
HETATM   15  C13 UNL     1       6.744   9.189  -7.883  1.00  0.00     0.287 C 
HETATM   16  O5  UNL     1       7.164   9.962  -8.804  1.00  0.00    -0.267 OA
ENDROOT
BRANCH  14  17
HETATM   17  O4  UNL     1       4.554   8.520  -8.818  1.00  0.00    -0.199 OA
BRANCH  17  18
HETATM   18  C12 UNL     1       4.870   7.874 -10.010  1.00  0.00     0.249 C 
HETATM   19  N5  UNL     1       4.095   8.057 -10.997  1.00  0.00    -0.366 N 
ATOM     20  H52 UNL     1       3.279   8.659 -10.893  1.00  0.00     0.159 HD
ATOM     21  H51 UNL     1       4.327   7.584 -11.870  1.00  0.00     0.159 HD
HETATM   22  N6  UNL     1       6.004   7.038 -10.155  1.00  0.00    -0.055 NA
ENDBRANCH  17  18
ENDBRANCH  14  17
BRANCH   1  23
HETATM   23  C3  UNL     1       6.969  12.394  -4.115  1.00  0.00     0.143 A 
HETATM   24  O2  UNL     1       8.089  12.740  -4.748  1.00  0.00    -0.281 OA
HETATM   25  C2  UNL     1       8.739  13.640  -4.073  1.00  0.00     0.223 A 
HETATM   26  C15 UNL     1       8.051  13.937  -2.924  1.00  0.00     0.163 A 
HETATM   27  C14 UNL     1       6.901  13.117  -2.967  1.00  0.00     0.177 A 
BRANCH  25  28
HETATM   28  O1  UNL     1       9.961  14.237  -4.440  1.00  0.00    -0.333 OA
HETATM   29  C1  UNL     1      10.019  15.407  -5.240  1.00  0.00     0.212 C 
ENDBRANCH  25  28
BRANCH  26  30
HETATM   30  O8  UNL     1       8.350  14.820  -1.915  1.00  0.00    -0.349 OA
HETATM   31  C16 UNL     1       8.435  16.206  -2.129  1.00  0.00     0.210 C 
ENDBRANCH  26  30
BRANCH  27  32
HETATM   32  N7  UNL     1       5.914  13.132  -1.946  1.00  0.00    -0.110 N 
HETATM   33  O6  UNL     1       5.036  13.995  -1.955  1.00  0.00    -0.532 OA
HETATM   34  O7  UNL     1       5.937  12.168  -0.988  1.00  0.00    -0.532 OA
ENDBRANCH  27  32
ENDBRANCH   1  23
BRANCH   4  35
HETATM   35  O3  UNL     1       2.837   9.892  -5.224  1.00  0.00    -0.346 OA
ATOM     36  H3  UNL     1       2.352   9.740  -6.027  1.00  0.00     0.219 HD
ENDBRANCH   4  35
TORSDOF 7
ENDMDL
MODEL 4
REMARK VINA RESULT: -8.340102319      1.936      4.209
REMARK  7 active torsions:
REMARK  status: ('A' for Active; 'I' for Inactive)
REMARK    1  A    between atoms: O1_2  and  C2_3 
REMARK    2  A    between atoms: C3_5  and  C4_6 
REMARK    3  A    between atoms: C5_9  and  O3_10 
REMARK    4  A    between atoms: N4_21  and  O4_22 
REMARK    5  A    between atoms: O4_22  and  C12_23 
REMARK    6  A    between atoms: C14_30  and  N7_31 
REMARK    7  A    between atoms: C15_34  and  O8_35 
ROOT
HETATM    1  C4  UNL     1       7.984   5.392  -4.785  1.00  0.00     0.098 A 
HETATM    2  N1  UNL     1       8.773   5.413  -5.870  1.00  0.00    -0.332 N 
ATOM      3  H1  UNL     1       9.304   4.617  -6.222  1.00  0.00     0.168 HD
HETATM    4  C5  UNL     1       8.760   6.657  -6.435  1.00  0.00     0.151 A 
HETATM    5  C6  UNL     1       7.926   7.460  -5.676  1.00  0.00     0.047 A 
HETATM    6  C7  UNL     1       7.451   6.670  -4.658  1.00  0.00     0.072 A 
HETATM    7  N2  UNL     1       6.559   7.258  -3.717  1.00  0.00    -0.358 N 
ATOM      8  H2  UNL     1       6.374   6.850  -2.800  1.00  0.00     0.162 HD
HETATM    9  C8  UNL     1       5.927   8.504  -4.176  1.00  0.00     0.206 C 
HETATM   10  C9  UNL     1       5.050   9.093  -3.203  1.00  0.00     0.101 C 
HETATM   11  N3  UNL     1       4.353   9.547  -2.412  1.00  0.00    -0.194 NA
HETATM   12  C10 UNL     1       7.124   9.420  -4.477  1.00  0.00     0.090 C 
HETATM   13  C11 UNL     1       7.519   8.907  -5.839  1.00  0.00     0.162 C 
HETATM   14  N4  UNL     1       6.228   8.892  -6.510  1.00  0.00    -0.205 N 
HETATM   15  C13 UNL     1       5.327   8.355  -5.525  1.00  0.00     0.287 C 
HETATM   16  O5  UNL     1       4.190   7.829  -5.754  1.00  0.00    -0.267 OA
ENDROOT
BRANCH  14  17
HETATM   17  O4  UNL     1       5.861   9.265  -7.762  1.00  0.00    -0.199 OA
BRANCH  17  18
HETATM   18  C12 UNL     1       5.657   8.355  -8.796  1.00  0.00     0.249 C 
HETATM   19  N5  UNL     1       4.537   8.388  -9.391  1.00  0.00    -0.366 N 
ATOM     20  H52 UNL     1       3.832   9.066  -9.102  1.00  0.00     0.159 HD
ATOM     21  H51 UNL     1       4.388   7.722 -10.148  1.00  0.00     0.159 HD
HETATM   22  N6  UNL     1       6.636   7.414  -9.198  1.00  0.00    -0.055 NA
ENDBRANCH  17  18
ENDBRANCH  14  17
BRANCH   1  23
HETATM   23  C3  UNL     1       7.653   4.313  -3.860  1.00  0.00     0.143 A 
HETATM   24  O2  UNL     1       6.464   4.115  -3.293  1.00  0.00    -0.281 OA
HETATM   25  C2  UNL     1       6.490   3.069  -2.523  1.00  0.00     0.223 A 
HETATM   26  C15 UNL     1       7.744   2.511  -2.551  1.00  0.00     0.163 A 
HETATM   27  C14 UNL     1       8.489   3.334  -3.425  1.00  0.00     0.177 A 
BRANCH  25  28
HETATM   28  O1  UNL     1       5.415   2.561  -1.768  1.00  0.00    -0.333 OA
HETATM   29  C1  UNL     1       4.994   1.209  -1.869  1.00  0.00     0.212 C 
ENDBRANCH  25  28
BRANCH  26  30
HETATM   30  O8  UNL     1       8.236   1.404  -1.901  1.00  0.00    -0.349 OA
HETATM   31  C16 UNL     1       8.396   0.165  -2.543  1.00  0.00     0.210 C 
ENDBRANCH  26  30
BRANCH  27  32
HETATM   32  N7  UNL     1       9.853   3.085  -3.731  1.00  0.00    -0.110 N 
HETATM   33  O6  UNL     1      10.180   2.800  -4.882  1.00  0.00    -0.532 OA
HETATM   34  O7  UNL     1      10.783   3.199  -2.746  1.00  0.00    -0.532 OA
ENDBRANCH  27  32
ENDBRANCH   1  23
BRANCH   4  35
HETATM   35  O3  UNL     1       9.451   7.068  -7.567  1.00  0.00    -0.346 OA
ATOM     36  H3  UNL     1       9.587   7.961  -7.862  1.00  0.00     0.219 HD
ENDBRANCH   4  35
TORSDOF 7
ENDMDL
MODEL 5
REMARK VINA RESULT: -8.308659550      2.835      5.486
REMARK  7 active torsions:
REMARK  status: ('A' for Active; 'I' for Inactive)
REMARK    1  A    between atoms: O1_2  and  C2_3 
REMARK    2  A    between atoms: C3_5  and  C4_6 
REMARK    3  A    between atoms: C5_9  and  O3_10 
REMARK    4  A    between atoms: N4_21  and  O4_22 
REMARK    5  A    between atoms: O4_22  and  C12_23 
REMARK    6  A    between atoms: C14_30  and  N7_31 
REMARK    7  A    between atoms: C15_34  and  O8_35 
ROOT
HETATM    1  C4  UNL     1       6.786   8.573  -4.261  1.00  0.00     0.098 A 
HETATM    2  N1  UNL     1       7.484   9.295  -5.150  1.00  0.00    -0.332 N 
ATOM      3  H1  UNL     1       8.229   8.930  -5.743  1.00  0.00     0.168 HD
HETATM    4  C5  UNL     1       7.052  10.592  -5.145  1.00  0.00     0.151 A 
HETATM    5  C6  UNL     1       6.033  10.695  -4.212  1.00  0.00     0.047 A 
HETATM    6  C7  UNL     1       5.876   9.443  -3.670  1.00  0.00     0.072 A 
HETATM    7  N2  UNL     1       4.879   9.269  -2.669  1.00  0.00    -0.358 N 
ATOM      8  H2  UNL     1       4.870   8.474  -2.030  1.00  0.00     0.162 HD
HETATM    9  C8  UNL     1       3.863  10.332  -2.632  1.00  0.00     0.206 C 
HETATM   10  C9  UNL     1       2.881  10.150  -1.600  1.00  0.00     0.101 C 
HETATM   11  N3  UNL     1       2.106   9.984  -0.770  1.00  0.00    -0.194 NA
HETATM   12  C10 UNL     1       4.690  11.606  -2.398  1.00  0.00     0.090 C 
HETATM   13  C11 UNL     1       5.177  11.872  -3.801  1.00  0.00     0.162 C 
HETATM   14  N4  UNL     1       3.935  11.751  -4.549  1.00  0.00    -0.205 N 
HETATM   15  C13 UNL     1       3.292  10.598  -3.976  1.00  0.00     0.287 C 
HETATM   16  O5  UNL     1       2.376   9.900  -4.520  1.00  0.00    -0.267 OA
ENDROOT
BRANCH  14  17
HETATM   17  O4  UNL     1       3.421  12.490  -5.563  1.00  0.00    -0.199 OA
BRANCH  17  18
HETATM   18  C12 UNL     1       2.643  13.627  -5.356  1.00  0.00     0.249 C 
HETATM   19  N5  UNL     1       1.388  13.468  -5.271  1.00  0.00    -0.366 N 
ATOM     20  H52 UNL     1       0.990  12.533  -5.354  1.00  0.00     0.159 HD
ATOM     21  H51 UNL     1       0.819  14.300  -5.119  1.00  0.00     0.159 HD
HETATM   22  N6  UNL     1       3.195  14.926  -5.240  1.00  0.00    -0.055 NA
ENDBRANCH  17  18
ENDBRANCH  14  17
BRANCH   1  23
HETATM   23  C3  UNL     1       6.855   7.158  -3.908  1.00  0.00     0.143 A 
HETATM   24  O2  UNL     1       6.556   6.641  -2.717  1.00  0.00    -0.281 OA
HETATM   25  C2  UNL     1       6.714   5.352  -2.723  1.00  0.00     0.223 A 
HETATM   26  C15 UNL     1       7.140   4.948  -3.964  1.00  0.00     0.163 A 
HETATM   27  C14 UNL     1       7.227   6.137  -4.723  1.00  0.00     0.177 A 
BRANCH  25  28
HETATM   28  O1  UNL     1       6.489   4.478  -1.642  1.00  0.00    -0.333 OA
HETATM   29  C1  UNL     1       7.165   4.621  -0.402  1.00  0.00     0.212 C 
ENDBRANCH  25  28
BRANCH  26  30
HETATM   30  O8  UNL     1       7.435   3.691  -4.435  1.00  0.00    -0.349 OA
HETATM   31  C16 UNL     1       8.544   2.959  -3.980  1.00  0.00     0.210 C 
ENDBRANCH  26  30
BRANCH  27  32
HETATM   32  N7  UNL     1       7.632   6.147  -6.084  1.00  0.00    -0.110 N 
HETATM   33  O6  UNL     1       8.674   6.716  -6.408  1.00  0.00    -0.532 OA
HETATM   34  O7  UNL     1       6.873   5.497  -7.005  1.00  0.00    -0.532 OA
ENDBRANCH  27  32
ENDBRANCH   1  23
BRANCH   4  35
HETATM   35  O3  UNL     1       7.530  11.636  -5.924  1.00  0.00    -0.346 OA
ATOM     36  H3  UNL     1       7.196  11.923  -6.765  1.00  0.00     0.219 HD
ENDBRANCH   4  35
TORSDOF 7
ENDMDL
