MODEL 1
REMARK VINA RESULT: -8.806319229      0.000      0.000
REMARK  7 active torsions:
REMARK  status: ('A' for Active; 'I' for Inactive)
REMARK       I    between atoms: N1_2  and  C2_4 
REMARK    1  A    between atoms: C2_4  and  O2_6 
REMARK    2  A    between atoms: O2_6  and  N2_7 
REMARK    3  A    between atoms: C3_9  and  C4_10 
REMARK    4  A    between atoms: C7_16  and  S1_17 
REMARK    5  A    between atoms: S1_17  and  C8_18 
REMARK    6  A    between atoms: C9_21  and  N6_22 
REMARK    7  A    between atoms: C15_33  and  N9_34 
ROOT
HETATM    1  C8  UNL     1       7.075   8.320  -5.656  1.00  0.00     0.117 A 
HETATM    2  N5  UNL     1       7.218   7.443  -4.620  1.00  0.00    -0.184 N 
ATOM      3  H5  UNL     1       7.219   7.790  -3.660  1.00  0.00     0.185 HD
HETATM    4  C9  UNL     1       7.357   6.122  -4.851  1.00  0.00     0.682 A 
HETATM    5  N8  UNL     1       7.352   5.679  -6.125  1.00  0.00    -0.175 N 
ATOM      6  H8  UNL     1       7.454   4.680  -6.299  1.00  0.00     0.186 HD
HETATM    7  C15 UNL     1       7.216   6.508  -7.169  1.00  0.00     0.138 A 
HETATM    8  C16 UNL     1       7.071   7.887  -6.959  1.00  0.00     0.123 A 
HETATM    9  C17 UNL     1       6.967   8.780  -8.075  1.00  0.00     0.106 C 
HETATM   10  N10 UNL     1       6.889   9.498  -8.995  1.00  0.00    -0.191 NA
ENDROOT
BRANCH   1  11
HETATM   11  S1  UNL     1       6.923  10.096  -5.376  1.00  0.00    -0.050 SA
BRANCH  11  12
HETATM   12  C7  UNL     1       5.475  10.465  -4.414  1.00  0.00     0.107 A 
HETATM   13  C4  UNL     1       4.192  10.092  -4.790  1.00  0.00     0.085 A 
HETATM   14  N3  UNL     1       3.354  10.607  -3.833  1.00  0.00    -0.349 N 
HETATM   15  C5  UNL     1       4.075  11.256  -2.921  1.00  0.00     0.183 A 
ATOM     16  H3  UNL     1       2.338  10.509  -3.823  1.00  0.00     0.167 HD
HETATM   17  N4  UNL     1       5.394  11.165  -3.284  1.00  0.00    -0.340 N 
HETATM   18  C6  UNL     1       6.487  11.741  -2.516  1.00  0.00     0.158 C 
BRANCH  13  19
HETATM   19  C3  UNL     1       3.768   9.260  -5.895  1.00  0.00     0.147 C 
HETATM   20  N2  UNL     1       3.488   9.673  -7.051  1.00  0.00    -0.265 N 
ATOM     21  H2  UNL     1       3.564  10.676  -7.220  1.00  0.00     0.194 HD
BRANCH  20  22
HETATM   22  O2  UNL     1       3.091   8.894  -8.095  1.00  0.00    -0.181 OA
BRANCH  22  23
HETATM   23  C2  UNL     1       2.907   9.255  -9.404  1.00  0.00     0.382 C 
HETATM   24  N1  UNL     1       3.811   8.955 -10.458  1.00  0.00    -0.340 N 
HETATM   25  C1  UNL     1       3.572   9.361 -11.825  1.00  0.00     0.151 C 
ATOM     26  H1  UNL     1       4.661   8.434 -10.243  1.00  0.00     0.164 HD
HETATM   27  O1  UNL     1       1.868   9.895  -9.692  1.00  0.00    -0.236 OA
ENDBRANCH  22  23
ENDBRANCH  20  22
ENDBRANCH  13  19
ENDBRANCH  11  12
ENDBRANCH   1  11
BRANCH   7  28
HETATM   28  N9  UNL     1       7.209   6.091  -8.386  1.00  0.00    -0.384 N 
ATOM     29  H92 UNL     1       7.885   6.505  -9.028  1.00  0.00     0.157 HD
ATOM     30  H91 UNL     1       6.561   5.375  -8.716  1.00  0.00     0.157 HD
ENDBRANCH   7  28
BRANCH   4  31
HETATM   31  N6  UNL     1       7.515   5.236  -3.758  1.00  0.00    -0.216 N 
HETATM   32  C10 UNL     1       6.725   5.502  -2.577  1.00  0.00     0.143 C 
HETATM   33  C11 UNL     1       7.060   4.513  -1.480  1.00  0.00     0.048 C 
HETATM   34  C12 UNL     1       6.572   3.135  -1.885  1.00  0.00     0.234 C 
HETATM   35  N7  UNL     1       7.727   2.426  -2.455  1.00  0.00    -0.074 N 
HETATM   36  C13 UNL     1       7.765   2.804  -3.870  1.00  0.00     0.252 C 
ATOM     37  H72 UNL     1       8.602   2.604  -1.960  1.00  0.00     0.277 HD
ATOM     38  H71 UNL     1       7.703   1.418  -2.301  1.00  0.00     0.277 HD
HETATM   39  C14 UNL     1       8.446   4.157  -3.963  1.00  0.00     0.168 C 
ENDBRANCH   4  31
TORSDOF 7
ENDMDL
MODEL 2
REMARK VINA RESULT: -8.750998412      3.052      4.909
REMARK  7 active torsions:
REMARK  status: ('A' for Active; 'I' for Inactive)
REMARK       I    between atoms: N1_2  and  C2_4 
REMARK    1  A    between atoms: C2_4  and  O2_6 
REMARK    2  A    between atoms: O2_6  and  N2_7 
REMARK    3  A    between atoms: C3_9  and  C4_10 
REMARK    4  A    between atoms: C7_16  and  S1_17 
REMARK    5  A    between atoms: S1_17  and  C8_18 
REMARK    6  A    between atoms: C9_21  and  N6_22 
REMARK    7  A    between atoms: C15_33  and  N9_34 
ROOT
HETATM    1  C8  UNL     1       7.214   8.158  -5.633  1.00  0.00     0.117 A 
HETATM    2  N5  UNL     1       7.308   7.278  -4.593  1.00  0.00    -0.184 N 
ATOM      3  H5  UNL     1       7.313   7.628  -3.634  1.00  0.00     0.185 HD
HETATM    4  C9  UNL     1       7.394   5.952  -4.819  1.00  0.00     0.682 A 
HETATM    5  N8  UNL     1       7.385   5.506  -6.092  1.00  0.00    -0.175 N 
ATOM      6  H8  UNL     1       7.448   4.503  -6.262  1.00  0.00     0.186 HD
HETATM    7  C15 UNL     1       7.295   6.337  -7.140  1.00  0.00     0.138 A 
HETATM    8  C16 UNL     1       7.205   7.721  -6.935  1.00  0.00     0.123 A 
HETATM    9  C17 UNL     1       7.151   8.614  -8.053  1.00  0.00     0.106 C 
HETATM   10  N10 UNL     1       7.113   9.333  -8.976  1.00  0.00    -0.191 NA
ENDROOT
BRANCH   1  11
HETATM   11  S1  UNL     1       7.131   9.939  -5.359  1.00  0.00    -0.050 SA
BRANCH  11  12
HETATM   12  C7  UNL     1       5.577  10.399  -4.633  1.00  0.00     0.107 A 
HETATM   13  C4  UNL     1       5.468  11.086  -3.430  1.00  0.00     0.085 A 
HETATM   14  N3  UNL     1       4.123  11.196  -3.180  1.00  0.00    -0.349 N 
HETATM   15  C5  UNL     1       3.444  10.617  -4.167  1.00  0.00     0.183 A 
ATOM     16  H3  UNL     1       3.709  11.651  -2.366  1.00  0.00     0.167 HD
HETATM   17  N4  UNL     1       4.350  10.123  -5.070  1.00  0.00    -0.340 N 
HETATM   18  C6  UNL     1       3.979   9.434  -6.297  1.00  0.00     0.158 C 
BRANCH  13  19
HETATM   19  C3  UNL     1       6.509  11.669  -2.613  1.00  0.00     0.147 C 
HETATM   20  N2  UNL     1       6.802  12.892  -2.570  1.00  0.00    -0.265 N 
ATOM     21  H2  UNL     1       6.261  13.523  -3.162  1.00  0.00     0.194 HD
BRANCH  20  22
HETATM   22  O2  UNL     1       7.779  13.446  -1.800  1.00  0.00    -0.181 OA
BRANCH  22  23
HETATM   23  C2  UNL     1       8.727  14.366  -2.161  1.00  0.00     0.382 C 
HETATM   24  N1  UNL     1       9.991  14.043  -2.725  1.00  0.00    -0.340 N 
HETATM   25  C1  UNL     1      10.960  15.052  -3.089  1.00  0.00     0.151 C 
ATOM     26  H1  UNL     1      10.224  13.061  -2.879  1.00  0.00     0.164 HD
HETATM   27  O1  UNL     1       8.463  15.579  -1.982  1.00  0.00    -0.236 OA
ENDBRANCH  22  23
ENDBRANCH  20  22
ENDBRANCH  13  19
ENDBRANCH  11  12
ENDBRANCH   1  11
BRANCH   7  28
HETATM   28  N9  UNL     1       7.285   5.916  -8.356  1.00  0.00    -0.384 N 
ATOM     29  H92 UNL     1       6.874   5.000  -8.532  1.00  0.00     0.157 HD
ATOM     30  H91 UNL     1       7.670   6.462  -9.127  1.00  0.00     0.157 HD
ENDBRANCH   7  28
BRANCH   4  31
HETATM   31  N6  UNL     1       7.503   5.063  -3.722  1.00  0.00    -0.216 N 
HETATM   32  C10 UNL     1       6.702   5.358  -2.556  1.00  0.00     0.143 C 
HETATM   33  C11 UNL     1       6.984   4.361  -1.452  1.00  0.00     0.048 C 
HETATM   34  C12 UNL     1       6.458   2.999  -1.863  1.00  0.00     0.234 C 
HETATM   35  N7  UNL     1       7.598   2.250  -2.411  1.00  0.00    -0.074 N 
HETATM   36  C13 UNL     1       7.673   2.624  -3.826  1.00  0.00     0.252 C 
ATOM     37  H72 UNL     1       8.469   2.400  -1.902  1.00  0.00     0.277 HD
ATOM     38  H71 UNL     1       7.537   1.244  -2.257  1.00  0.00     0.277 HD
HETATM   39  C14 UNL     1       8.401   3.953  -3.909  1.00  0.00     0.168 C 
ENDBRANCH   4  31
TORSDOF 7
ENDMDL
MODEL 3
REMARK VINA RESULT: -8.502912079      3.364      5.695
REMARK  7 active torsions:
REMARK  status: ('A' for Active; 'I' for Inactive)
REMARK       I    between atoms: N1_2  and  C2_4 
REMARK    1  A    between atoms: C2_4  and  O2_6 
REMARK    2  A    between atoms: O2_6  and  N2_7 
REMARK    3  A    between atoms: C3_9  and  C4_10 
REMARK    4  A    between atoms: C7_16  and  S1_17 
REMARK    5  A    between atoms: S1_17  and  C8_18 
REMARK    6  A    between atoms: C9_21  and  N6_22 
REMARK    7  A    between atoms: C15_33  and  N9_34 
ROOT
HETATM    1  C8  UNL     1       6.613   8.773  -5.043  1.00  0.00     0.117 A 
HETATM    2  N5  UNL     1       7.060   7.546  -4.644  1.00  0.00    -0.184 N 
ATOM      3  H5  UNL     1       7.721   7.035  -5.230  1.00  0.00     0.185 HD
HETATM    4  C9  UNL     1       6.636   7.002  -3.486  1.00  0.00     0.682 A 
HETATM    5  N8  UNL     1       5.762   7.691  -2.723  1.00  0.00    -0.175 N 
ATOM      6  H8  UNL     1       5.444   7.280  -1.846  1.00  0.00     0.186 HD
HETATM    7  C15 UNL     1       5.300   8.897  -3.080  1.00  0.00     0.138 A 
HETATM    8  C16 UNL     1       5.722   9.487  -4.279  1.00  0.00     0.123 A 
HETATM    9  C17 UNL     1       5.197  10.758  -4.683  1.00  0.00     0.106 C 
HETATM   10  N10 UNL     1       4.756  11.793  -5.004  1.00  0.00    -0.191 NA
ENDROOT
BRANCH   1  11
HETATM   11  S1  UNL     1       7.138   9.508  -6.605  1.00  0.00    -0.050 SA
BRANCH  11  12
HETATM   12  C7  UNL     1       6.615   8.515  -7.981  1.00  0.00     0.107 A 
HETATM   13  C4  UNL     1       7.477   7.710  -8.715  1.00  0.00     0.085 A 
HETATM   14  N3  UNL     1       6.718   7.161  -9.718  1.00  0.00    -0.349 N 
HETATM   15  C5  UNL     1       5.465   7.598  -9.609  1.00  0.00     0.183 A 
ATOM     16  H3  UNL     1       7.060   6.520 -10.434  1.00  0.00     0.167 HD
HETATM   17  N4  UNL     1       5.403   8.439  -8.528  1.00  0.00    -0.340 N 
HETATM   18  C6  UNL     1       4.185   9.098  -8.083  1.00  0.00     0.158 C 
BRANCH  13  19
HETATM   19  C3  UNL     1       8.868   7.401  -8.471  1.00  0.00     0.147 C 
HETATM   20  N2  UNL     1       9.841   8.144  -8.766  1.00  0.00    -0.265 N 
ATOM     21  H2  UNL     1       9.629   9.035  -9.215  1.00  0.00     0.194 HD
BRANCH  20  22
HETATM   22  O2  UNL     1      11.153   7.859  -8.536  1.00  0.00    -0.181 OA
BRANCH  22  23
HETATM   23  C2  UNL     1      12.196   8.731  -8.372  1.00  0.00     0.382 C 
HETATM   24  N1  UNL     1      13.029   9.200  -9.424  1.00  0.00    -0.340 N 
HETATM   25  C1  UNL     1      14.121  10.120  -9.199  1.00  0.00     0.151 C 
ATOM     26  H1  UNL     1      12.850   8.875 -10.374  1.00  0.00     0.164 HD
HETATM   27  O1  UNL     1      12.434   9.145  -7.213  1.00  0.00    -0.236 OA
ENDBRANCH  22  23
ENDBRANCH  20  22
ENDBRANCH  13  19
ENDBRANCH  11  12
ENDBRANCH   1  11
BRANCH   7  28
HETATM   28  N9  UNL     1       4.467   9.559  -2.355  1.00  0.00    -0.384 N 
ATOM     29  H92 UNL     1       3.725   9.033  -1.894  1.00  0.00     0.157 HD
ATOM     30  H91 UNL     1       4.528  10.570  -2.236  1.00  0.00     0.157 HD
ENDBRANCH   7  28
BRANCH   4  31
HETATM   31  N6  UNL     1       7.106   5.722  -3.103  1.00  0.00    -0.216 N 
HETATM   32  C10 UNL     1       6.697   5.234  -1.805  1.00  0.00     0.143 C 
HETATM   33  C11 UNL     1       7.338   3.893  -1.517  1.00  0.00     0.048 C 
HETATM   34  C12 UNL     1       6.750   2.850  -2.448  1.00  0.00     0.234 C 
HETATM   35  N7  UNL     1       7.685   2.709  -3.573  1.00  0.00    -0.074 N 
HETATM   36  C13 UNL     1       7.306   3.748  -4.535  1.00  0.00     0.252 C 
ATOM     37  H72 UNL     1       8.667   2.745  -3.297  1.00  0.00     0.277 HD
ATOM     38  H71 UNL     1       7.705   1.770  -3.972  1.00  0.00     0.277 HD
HETATM   39  C14 UNL     1       7.933   5.049  -4.070  1.00  0.00     0.168 C 
ENDBRANCH   4  31
TORSDOF 7
ENDMDL
MODEL 4
REMARK VINA RESULT: -8.273490919      3.743      6.339
REMARK  7 active torsions:
REMARK  status: ('A' for Active; 'I' for Inactive)
REMARK       I    between atoms: N1_2  and  C2_4 
REMARK    1  A    between atoms: C2_4  and  O2_6 
REMARK    2  A    between atoms: O2_6  and  N2_7 
REMARK    3  A    between atoms: C3_9  and  C4_10 
REMARK    4  A    between atoms: C7_16  and  S1_17 
REMARK    5  A    between atoms: S1_17  and  C8_18 
REMARK    6  A    between atoms: C9_21  and  N6_22 
REMARK    7  A    between atoms: C15_33  and  N9_34 
ROOT
HETATM    1  C8  UNL     1       2.956  10.602  -6.603  1.00  0.00     0.117 A 
HETATM    2  N5  UNL     1       4.047   9.786  -6.514  1.00  0.00    -0.184 N 
ATOM      3  H5  UNL     1       4.599   9.773  -5.656  1.00  0.00     0.185 HD
HETATM    4  C9  UNL     1       4.403   8.999  -7.549  1.00  0.00     0.682 A 
HETATM    5  N8  UNL     1       3.662   9.028  -8.676  1.00  0.00    -0.175 N 
ATOM      6  H8  UNL     1       3.930   8.430  -9.457  1.00  0.00     0.186 HD
HETATM    7  C15 UNL     1       2.585   9.815  -8.803  1.00  0.00     0.138 A 
HETATM    8  C16 UNL     1       2.192  10.646  -7.744  1.00  0.00     0.123 A 
HETATM    9  C17 UNL     1       1.066  11.520  -7.891  1.00  0.00     0.106 C 
HETATM   10  N10 UNL     1       0.149  12.233  -8.028  1.00  0.00    -0.191 NA
ENDROOT
BRANCH   1  11
HETATM   11  S1  UNL     1       2.478  11.692  -5.247  1.00  0.00    -0.050 SA
BRANCH  11  12
HETATM   12  C7  UNL     1       3.165  11.130  -3.708  1.00  0.00     0.107 A 
HETATM   13  C4  UNL     1       4.511  11.243  -3.385  1.00  0.00     0.085 A 
HETATM   14  N3  UNL     1       4.655  10.646  -2.158  1.00  0.00    -0.349 N 
HETATM   15  C5  UNL     1       3.472  10.195  -1.747  1.00  0.00     0.183 A 
ATOM     16  H3  UNL     1       5.531  10.561  -1.642  1.00  0.00     0.167 HD
HETATM   17  N4  UNL     1       2.547  10.498  -2.712  1.00  0.00    -0.340 N 
HETATM   18  C6  UNL     1       1.132  10.176  -2.608  1.00  0.00     0.158 C 
BRANCH  13  19
HETATM   19  C3  UNL     1       5.570  11.916  -4.104  1.00  0.00     0.147 C 
HETATM   20  N2  UNL     1       6.682  12.251  -3.617  1.00  0.00    -0.265 N 
ATOM     21  H2  UNL     1       6.846  12.030  -2.634  1.00  0.00     0.194 HD
BRANCH  20  22
HETATM   22  O2  UNL     1       7.683  12.882  -4.290  1.00  0.00    -0.181 OA
BRANCH  22  23
HETATM   23  C2  UNL     1       8.350  14.028  -3.944  1.00  0.00     0.382 C 
HETATM   24  N1  UNL     1       9.623  14.062  -3.314  1.00  0.00    -0.340 N 
HETATM   25  C1  UNL     1      10.285  15.300  -2.967  1.00  0.00     0.151 C 
ATOM     26  H1  UNL     1      10.088  13.180  -3.099  1.00  0.00     0.164 HD
HETATM   27  O1  UNL     1       7.798  15.124  -4.201  1.00  0.00    -0.236 OA
ENDBRANCH  22  23
ENDBRANCH  20  22
ENDBRANCH  13  19
ENDBRANCH  11  12
ENDBRANCH   1  11
BRANCH   7  28
HETATM   28  N9  UNL     1       1.875   9.847  -9.875  1.00  0.00    -0.384 N 
ATOM     29  H92 UNL     1       0.957  10.287  -9.817  1.00  0.00     0.157 HD
ATOM     30  H91 UNL     1       2.199   9.450 -10.758  1.00  0.00     0.157 HD
ENDBRANCH   7  28
BRANCH   4  31
HETATM   31  N6  UNL     1       5.546   8.171  -7.434  1.00  0.00    -0.216 N 
HETATM   32  C10 UNL     1       6.069   7.601  -8.655  1.00  0.00     0.143 C 
HETATM   33  C11 UNL     1       7.241   6.689  -8.356  1.00  0.00     0.048 C 
HETATM   34  C12 UNL     1       8.409   7.523  -7.869  1.00  0.00     0.234 C 
HETATM   35  N7  UNL     1       8.388   7.468  -6.400  1.00  0.00    -0.074 N 
HETATM   36  C13 UNL     1       7.478   8.537  -5.978  1.00  0.00     0.252 C 
ATOM     37  H72 UNL     1       8.141   6.550  -6.028  1.00  0.00     0.277 HD
ATOM     38  H71 UNL     1       9.313   7.527  -5.975  1.00  0.00     0.277 HD
HETATM   39  C14 UNL     1       6.062   8.005  -6.100  1.00  0.00     0.168 C 
ENDBRANCH   4  31
TORSDOF 7
ENDMDL
MODEL 5
REMARK VINA RESULT: -8.213586184      2.910      7.262
REMARK  7 active torsions:
REMARK  status: ('A' for Active; 'I' for Inactive)
REMARK       I    between atoms: N1_2  and  C2_4 
REMARK    1  A    between atoms: C2_4  and  O2_6 
REMARK    2  A    between atoms: O2_6  and  N2_7 
REMARK    3  A    between atoms: C3_9  and  C4_10 
REMARK    4  A    between atoms: C7_16  and  S1_17 
REMARK    5  A    between atoms: S1_17  and  C8_18 
REMARK    6  A    between atoms: C9_21  and  N6_22 
REMARK    7  A    between atoms: C15_33  and  N9_34 
ROOT
HETATM    1  C8  UNL     1       5.472   9.014  -7.210  1.00  0.00     0.117 A 
HETATM    2  N5  UNL     1       4.528   9.763  -6.569  1.00  0.00    -0.184 N 
ATOM      3  H5  UNL     1       4.738  10.168  -5.656  1.00  0.00     0.185 HD
HETATM    4  C9  UNL     1       3.320   9.974  -7.129  1.00  0.00     0.682 A 
HETATM    5  N8  UNL     1       3.059   9.434  -8.337  1.00  0.00    -0.175 N 
ATOM      6  H8  UNL     1       2.146   9.596  -8.762  1.00  0.00     0.186 HD
HETATM    7  C15 UNL     1       3.959   8.692  -8.998  1.00  0.00     0.138 A 
HETATM    8  C16 UNL     1       5.222   8.455  -8.439  1.00  0.00     0.123 A 
HETATM    9  C17 UNL     1       6.171   7.628  -9.123  1.00  0.00     0.106 C 
HETATM   10  N10 UNL     1       6.934   6.946  -9.690  1.00  0.00    -0.191 NA
ENDROOT
BRANCH   1  11
HETATM   11  S1  UNL     1       7.084   8.688  -6.466  1.00  0.00    -0.050 SA
BRANCH  11  12
HETATM   12  C7  UNL     1       6.915   7.732  -4.979  1.00  0.00     0.107 A 
HETATM   13  C4  UNL     1       6.584   8.284  -3.748  1.00  0.00     0.085 A 
HETATM   14  N3  UNL     1       6.613   7.248  -2.850  1.00  0.00    -0.349 N 
HETATM   15  C5  UNL     1       6.938   6.124  -3.485  1.00  0.00     0.183 A 
ATOM     16  H3  UNL     1       6.417   7.325  -1.851  1.00  0.00     0.167 HD
HETATM   17  N4  UNL     1       7.124   6.428  -4.809  1.00  0.00    -0.340 N 
HETATM   18  C6  UNL     1       7.473   5.446  -5.825  1.00  0.00     0.158 C 
BRANCH  13  19
HETATM   19  C3  UNL     1       6.193   9.640  -3.430  1.00  0.00     0.147 C 
HETATM   20  N2  UNL     1       5.153   9.969  -2.801  1.00  0.00    -0.265 N 
ATOM     21  H2  UNL     1       4.536   9.217  -2.493  1.00  0.00     0.194 HD
BRANCH  20  22
HETATM   22  O2  UNL     1       4.782  11.243  -2.497  1.00  0.00    -0.181 OA
BRANCH  22  23
HETATM   23  C2  UNL     1       4.137  11.696  -1.376  1.00  0.00     0.382 C 
HETATM   24  N1  UNL     1       2.910  12.414  -1.385  1.00  0.00    -0.340 N 
HETATM   25  C1  UNL     1       2.270  12.873  -0.173  1.00  0.00     0.151 C 
ATOM     26  H1  UNL     1       2.464  12.612  -2.281  1.00  0.00     0.164 HD
HETATM   27  O1  UNL     1       4.666  11.463  -0.263  1.00  0.00    -0.236 OA
ENDBRANCH  22  23
ENDBRANCH  20  22
ENDBRANCH  13  19
ENDBRANCH  11  12
ENDBRANCH   1  11
BRANCH   7  28
HETATM   28  N9  UNL     1       3.715   8.175 -10.151  1.00  0.00    -0.384 N 
ATOM     29  H92 UNL     1       4.398   8.334 -10.891  1.00  0.00     0.157 HD
ATOM     30  H91 UNL     1       2.876   7.625 -10.337  1.00  0.00     0.157 HD
ENDBRANCH   7  28
BRANCH   4  31
HETATM   31  N6  UNL     1       2.355  10.745  -6.437  1.00  0.00    -0.216 N 
HETATM   32  C10 UNL     1       2.395  10.704  -4.993  1.00  0.00     0.143 C 
HETATM   33  C11 UNL     1       1.260  11.518  -4.407  1.00  0.00     0.048 C 
HETATM   34  C12 UNL     1       1.503  12.988  -4.691  1.00  0.00     0.234 C 
HETATM   35  N7  UNL     1       0.719  13.325  -5.887  1.00  0.00    -0.074 N 
HETATM   36  C13 UNL     1       1.574  12.987  -7.028  1.00  0.00     0.252 C 
ATOM     37  H72 UNL     1      -0.198  12.878  -5.915  1.00  0.00     0.277 HD
ATOM     38  H71 UNL     1       0.385  14.289  -5.898  1.00  0.00     0.277 HD
HETATM   39  C14 UNL     1       1.447  11.494  -7.266  1.00  0.00     0.168 C 
ENDBRANCH   4  31
TORSDOF 7
ENDMDL
