MODEL 1
REMARK VINA RESULT: -8.074341372      0.000      0.000
REMARK  9 active torsions:
REMARK  status: ('A' for Active; 'I' for Inactive)
REMARK    1  A    between atoms: S1_2  and  C2_3 
REMARK    2  A    between atoms: N3_9  and  C4_11 
REMARK    3  A    between atoms: C4_11  and  C6_17 
REMARK    4  A    between atoms: N4_12  and  O1_14 
REMARK    5  A    between atoms: C6_17  and  O2_18 
REMARK    6  A    between atoms: C6_17  and  C9_22 
REMARK    7  A    between atoms: O2_18  and  C7_19 
REMARK    8  A    between atoms: C9_22  and  C10_24 
REMARK    9  A    between atoms: C12_31  and  O5_32 
ROOT
HETATM    1  O1  UNL     1       7.496  12.150  -5.095  1.00  0.00    -0.158 OA
HETATM    2  C5  UNL     1       7.519  12.661  -3.828  1.00  0.00     0.253 C 
HETATM    3  N5  UNL     1       7.527  13.100  -2.751  1.00  0.00    -0.162 NA
ENDROOT
BRANCH   1   4
HETATM    4  N4  UNL     1       7.577  10.790  -5.244  1.00  0.00    -0.234 N 
HETATM    5  C4  UNL     1       6.535  10.067  -5.329  1.00  0.00     0.142 C 
ATOM      6  H4  UNL     1       8.494  10.348  -5.289  1.00  0.00     0.197 HD
BRANCH   5   7
HETATM    7  N3  UNL     1       5.259  10.673  -5.269  1.00  0.00    -0.321 N 
HETATM    8  C3  UNL     1       4.555  10.464  -4.179  1.00  0.00     0.167 A 
HETATM    9  N2  UNL     1       4.883   9.744  -3.100  1.00  0.00    -0.278 N 
HETATM   10  S3  UNL     1       2.997  11.027  -3.760  1.00  0.00    -0.026 SA
HETATM   11  N1  UNL     1       4.050   9.668  -2.145  1.00  0.00    -0.286 N 
ATOM     12  H2  UNL     1       5.783   9.267  -3.046  1.00  0.00     0.189 HD
HETATM   13  C2  UNL     1       2.884  10.290  -2.223  1.00  0.00     0.129 A 
ATOM     14  H1  UNL     1       4.280   9.125  -1.313  1.00  0.00     0.188 HD
ATOM     15  H3  UNL     1       4.902  11.245  -6.034  1.00  0.00     0.169 HD
BRANCH  13  16
HETATM   16  S1  UNL     1       1.562  10.316  -0.990  1.00  0.00    -0.108 SA
HETATM   17  C1  UNL     1       0.034   9.872  -1.861  1.00  0.00     0.097 C 
ENDBRANCH  13  16
ENDBRANCH   5   7
BRANCH   5  18
HETATM   18  C6  UNL     1       6.587   8.565  -5.494  1.00  0.00     0.277 C 
BRANCH  18  19
HETATM   19  O2  UNL     1       7.285   8.075  -4.405  1.00  0.00    -0.300 OA
BRANCH  19  20
HETATM   20  C7  UNL     1       6.886   6.974  -3.650  1.00  0.00     0.256 C 
HETATM   21  C8  UNL     1       7.074   5.586  -4.145  1.00  0.00     0.126 C 
HETATM   22  O3  UNL     1       6.357   7.179  -2.532  1.00  0.00    -0.266 OA
ENDBRANCH  19  20
ENDBRANCH  18  19
BRANCH  18  23
HETATM   23  C9  UNL     1       7.131   8.293  -6.828  1.00  0.00     0.217 C 
HETATM   24  O4  UNL     1       8.419   8.240  -6.867  1.00  0.00    -0.287 OA
BRANCH  23  25
HETATM   25  C10 UNL     1       6.403   8.088  -8.055  1.00  0.00     0.135 A 
HETATM   26  N6  UNL     1       5.363   8.811  -8.497  1.00  0.00    -0.326 N 
HETATM   27  C11 UNL     1       5.000   8.251  -9.687  1.00  0.00     0.178 A 
ATOM     28  H6  UNL     1       4.933   9.614  -8.039  1.00  0.00     0.168 HD
HETATM   29  S2  UNL     1       3.757   8.793 -10.626  1.00  0.00    -0.040 SA
HETATM   30  N7  UNL     1       5.800   7.214  -9.957  1.00  0.00    -0.312 N 
HETATM   31  C12 UNL     1       6.689   7.065  -8.981  1.00  0.00     0.173 A 
ATOM     32  H7  UNL     1       5.736   6.625 -10.788  1.00  0.00     0.170 HD
BRANCH  31  33
HETATM   33  O5  UNL     1       7.707   6.126  -8.840  1.00  0.00    -0.344 OA
ATOM     34  H5  UNL     1       8.540   6.157  -9.294  1.00  0.00     0.219 HD
ENDBRANCH  31  33
ENDBRANCH  23  25
ENDBRANCH  18  23
ENDBRANCH   5  18
ENDBRANCH   1   4
TORSDOF 9
ENDMDL
MODEL 2
REMARK VINA RESULT: -7.985720985      3.370      5.820
REMARK  9 active torsions:
REMARK  status: ('A' for Active; 'I' for Inactive)
REMARK    1  A    between atoms: S1_2  and  C2_3 
REMARK    2  A    between atoms: N3_9  and  C4_11 
REMARK    3  A    between atoms: C4_11  and  C6_17 
REMARK    4  A    between atoms: N4_12  and  O1_14 
REMARK    5  A    between atoms: C6_17  and  O2_18 
REMARK    6  A    between atoms: C6_17  and  C9_22 
REMARK    7  A    between atoms: O2_18  and  C7_19 
REMARK    8  A    between atoms: C9_22  and  C10_24 
REMARK    9  A    between atoms: C12_31  and  O5_32 
ROOT
HETATM    1  O1  UNL     1       6.500  10.535  -4.295  1.00  0.00    -0.158 OA
HETATM    2  C5  UNL     1       7.237  11.659  -4.543  1.00  0.00     0.253 C 
HETATM    3  N5  UNL     1       7.862  12.619  -4.743  1.00  0.00    -0.162 NA
ENDROOT
BRANCH   1   4
HETATM    4  N4  UNL     1       7.133   9.321  -4.354  1.00  0.00    -0.234 N 
HETATM    5  C4  UNL     1       6.499   8.251  -4.613  1.00  0.00     0.142 C 
ATOM      6  H4  UNL     1       8.138   9.276  -4.187  1.00  0.00     0.197 HD
BRANCH   5   7
HETATM    7  N3  UNL     1       5.105   8.306  -4.846  1.00  0.00    -0.321 N 
HETATM    8  C3  UNL     1       4.721   8.624  -6.063  1.00  0.00     0.167 A 
HETATM    9  N2  UNL     1       5.478   8.909  -7.128  1.00  0.00    -0.278 N 
HETATM   10  S3  UNL     1       3.145   8.786  -6.703  1.00  0.00    -0.026 SA
HETATM   11  N1  UNL     1       4.902   9.195  -8.223  1.00  0.00    -0.286 N 
ATOM     12  H2  UNL     1       6.496   8.896  -7.062  1.00  0.00     0.189 HD
HETATM   13  C2  UNL     1       3.581   9.209  -8.299  1.00  0.00     0.129 A 
ATOM     14  H1  UNL     1       5.460   9.415  -9.047  1.00  0.00     0.188 HD
ATOM     15  H3  UNL     1       4.431   8.108  -4.107  1.00  0.00     0.169 HD
BRANCH  13  16
HETATM   16  S1  UNL     1       2.563   9.586  -9.745  1.00  0.00    -0.108 SA
HETATM   17  C1  UNL     1       3.591   9.253 -11.202  1.00  0.00     0.097 C 
ENDBRANCH  13  16
ENDBRANCH   5   7
BRANCH   5  18
HETATM   18  C6  UNL     1       7.165   6.896  -4.687  1.00  0.00     0.277 C 
BRANCH  18  19
HETATM   19  O2  UNL     1       6.697   6.291  -5.840  1.00  0.00    -0.300 OA
BRANCH  19  20
HETATM   20  C7  UNL     1       7.423   6.202  -7.026  1.00  0.00     0.256 C 
HETATM   21  C8  UNL     1       8.626   7.041  -7.262  1.00  0.00     0.126 C 
HETATM   22  O3  UNL     1       7.037   5.391  -7.900  1.00  0.00    -0.266 OA
ENDBRANCH  19  20
ENDBRANCH  18  19
BRANCH  18  23
HETATM   23  C9  UNL     1       6.910   6.216  -3.413  1.00  0.00     0.217 C 
HETATM   24  O4  UNL     1       6.536   7.006  -2.464  1.00  0.00    -0.287 OA
BRANCH  23  25
HETATM   25  C10 UNL     1       7.029   4.810  -3.122  1.00  0.00     0.135 A 
HETATM   26  N6  UNL     1       7.257   3.827  -4.007  1.00  0.00    -0.326 N 
HETATM   27  C11 UNL     1       7.285   2.672  -3.282  1.00  0.00     0.178 A 
ATOM     28  H6  UNL     1       7.384   3.924  -5.014  1.00  0.00     0.168 HD
HETATM   29  S2  UNL     1       7.536   1.176  -3.929  1.00  0.00    -0.040 SA
HETATM   30  N7  UNL     1       7.077   2.949  -1.990  1.00  0.00    -0.312 N 
HETATM   31  C12 UNL     1       6.912   4.258  -1.830  1.00  0.00     0.173 A 
ATOM     32  H7  UNL     1       7.049   2.258  -1.240  1.00  0.00     0.170 HD
BRANCH  31  33
HETATM   33  O5  UNL     1       6.673   4.990  -0.671  1.00  0.00    -0.344 OA
ATOM     34  H5  UNL     1       5.814   5.164  -0.306  1.00  0.00     0.219 HD
ENDBRANCH  31  33
ENDBRANCH  23  25
ENDBRANCH  18  23
ENDBRANCH   5  18
ENDBRANCH   1   4
TORSDOF 9
ENDMDL
MODEL 3
REMARK VINA RESULT: -7.930574999      3.683      6.365
REMARK  9 active torsions:
REMARK  status: ('A' for Active; 'I' for Inactive)
REMARK    1  A    between atoms: S1_2  and  C2_3 
REMARK    2  A    between atoms: N3_9  and  C4_11 
REMARK    3  A    between atoms: C4_11  and  C6_17 
REMARK    4  A    between atoms: N4_12  and  O1_14 
REMARK    5  A    between atoms: C6_17  and  O2_18 
REMARK    6  A    between atoms: C6_17  and  C9_22 
REMARK    7  A    between atoms: O2_18  and  C7_19 
REMARK    8  A    between atoms: C9_22  and  C10_24 
REMARK    9  A    between atoms: C12_31  and  O5_32 
ROOT
HETATM    1  O1  UNL     1      10.132   7.559  -7.685  1.00  0.00    -0.158 OA
HETATM    2  C5  UNL     1      11.327   8.200  -7.507  1.00  0.00     0.253 C 
HETATM    3  N5  UNL     1      12.339   8.754  -7.361  1.00  0.00    -0.162 NA
ENDROOT
BRANCH   1   4
HETATM    4  N4  UNL     1       9.345   7.344  -6.584  1.00  0.00    -0.234 N 
HETATM    5  C4  UNL     1       8.122   7.014  -6.694  1.00  0.00     0.142 C 
ATOM      6  H4  UNL     1       9.749   7.452  -5.654  1.00  0.00     0.197 HD
BRANCH   5   7
HETATM    7  N3  UNL     1       7.555   6.863  -7.981  1.00  0.00    -0.321 N 
HETATM    8  C3  UNL     1       6.465   7.553  -8.232  1.00  0.00     0.167 A 
HETATM    9  N2  UNL     1       5.806   8.393  -7.426  1.00  0.00    -0.278 N 
HETATM   10  S3  UNL     1       5.518   7.621  -9.653  1.00  0.00    -0.026 SA
HETATM   11  N1  UNL     1       4.762   8.965  -7.868  1.00  0.00    -0.286 N 
ATOM     12  H2  UNL     1       6.136   8.571  -6.477  1.00  0.00     0.189 HD
HETATM   13  C2  UNL     1       4.342   8.729  -9.100  1.00  0.00     0.129 A 
ATOM     14  H1  UNL     1       4.245   9.610  -7.270  1.00  0.00     0.188 HD
ATOM     15  H3  UNL     1       7.971   6.247  -8.679  1.00  0.00     0.169 HD
BRANCH  13  16
HETATM   16  S1  UNL     1       2.893   9.429  -9.925  1.00  0.00    -0.108 SA
HETATM   17  C1  UNL     1       3.254   9.418 -11.702  1.00  0.00     0.097 C 
ENDBRANCH  13  16
ENDBRANCH   5   7
BRANCH   5  18
HETATM   18  C6  UNL     1       7.225   6.769  -5.503  1.00  0.00     0.277 C 
BRANCH  18  19
HETATM   19  O2  UNL     1       7.583   7.700  -4.544  1.00  0.00    -0.300 OA
BRANCH  19  20
HETATM   20  C7  UNL     1       6.679   8.521  -3.874  1.00  0.00     0.256 C 
HETATM   21  C8  UNL     1       6.672   9.993  -4.075  1.00  0.00     0.126 C 
HETATM   22  O3  UNL     1       5.862   7.988  -3.086  1.00  0.00    -0.266 OA
ENDBRANCH  19  20
ENDBRANCH  18  19
BRANCH  18  23
HETATM   23  C9  UNL     1       7.348   5.351  -5.151  1.00  0.00     0.217 C 
HETATM   24  O4  UNL     1       7.205   4.550  -6.151  1.00  0.00    -0.287 OA
BRANCH  23  25
HETATM   25  C10 UNL     1       7.601   4.782  -3.851  1.00  0.00     0.135 A 
HETATM   26  N6  UNL     1       6.955   5.072  -2.712  1.00  0.00    -0.326 N 
HETATM   27  C11 UNL     1       7.536   4.300  -1.748  1.00  0.00     0.178 A 
ATOM     28  H6  UNL     1       6.188   5.732  -2.591  1.00  0.00     0.168 HD
HETATM   29  S2  UNL     1       7.084   4.301  -0.162  1.00  0.00    -0.040 SA
HETATM   30  N7  UNL     1       8.510   3.562  -2.291  1.00  0.00    -0.312 N 
HETATM   31  C12 UNL     1       8.597   3.818  -3.593  1.00  0.00     0.173 A 
ATOM     32  H7  UNL     1       9.098   2.902  -1.783  1.00  0.00     0.170 HD
BRANCH  31  33
HETATM   33  O5  UNL     1       9.458   3.288  -4.548  1.00  0.00    -0.344 OA
ATOM     34  H5  UNL     1       9.407   2.405  -4.895  1.00  0.00     0.219 HD
ENDBRANCH  31  33
ENDBRANCH  23  25
ENDBRANCH  18  23
ENDBRANCH   5  18
ENDBRANCH   1   4
TORSDOF 9
ENDMDL
MODEL 4
REMARK VINA RESULT: -7.846179733      4.052      6.954
REMARK  9 active torsions:
REMARK  status: ('A' for Active; 'I' for Inactive)
REMARK    1  A    between atoms: S1_2  and  C2_3 
REMARK    2  A    between atoms: N3_9  and  C4_11 
REMARK    3  A    between atoms: C4_11  and  C6_17 
REMARK    4  A    between atoms: N4_12  and  O1_14 
REMARK    5  A    between atoms: C6_17  and  O2_18 
REMARK    6  A    between atoms: C6_17  and  C9_22 
REMARK    7  A    between atoms: O2_18  and  C7_19 
REMARK    8  A    between atoms: C9_22  and  C10_24 
REMARK    9  A    between atoms: C12_31  and  O5_32 
ROOT
HETATM    1  O1  UNL     1       7.760   5.002  -6.132  1.00  0.00    -0.158 OA
HETATM    2  C5  UNL     1       7.226   4.600  -4.940  1.00  0.00     0.253 C 
HETATM    3  N5  UNL     1       6.781   4.261  -3.920  1.00  0.00    -0.162 NA
ENDROOT
BRANCH   1   4
HETATM    4  N4  UNL     1       7.187   6.073  -6.768  1.00  0.00    -0.234 N 
HETATM    5  C4  UNL     1       7.832   7.148  -6.975  1.00  0.00     0.142 C 
ATOM      6  H4  UNL     1       6.219   6.004  -7.084  1.00  0.00     0.197 HD
BRANCH   5   7
HETATM    7  N3  UNL     1       9.174   7.249  -6.541  1.00  0.00    -0.321 N 
HETATM    8  C3  UNL     1      10.046   7.703  -7.414  1.00  0.00     0.167 A 
HETATM    9  N2  UNL     1       9.837   8.087  -8.678  1.00  0.00    -0.278 N 
HETATM   10  S3  UNL     1      11.728   7.956  -7.247  1.00  0.00    -0.026 SA
HETATM   11  N1  UNL     1      10.826   8.497  -9.359  1.00  0.00    -0.286 N 
ATOM     12  H2  UNL     1       8.902   8.051  -9.085  1.00  0.00     0.189 HD
HETATM   13  C2  UNL     1      12.035   8.539  -8.823  1.00  0.00     0.129 A 
ATOM     14  H1  UNL     1      10.689   8.795 -10.325  1.00  0.00     0.188 HD
ATOM     15  H3  UNL     1       9.452   6.984  -5.596  1.00  0.00     0.169 HD
BRANCH  13  16
HETATM   16  S1  UNL     1      13.572   9.084  -9.606  1.00  0.00    -0.108 SA
HETATM   17  C1  UNL     1      14.925   8.280  -8.706  1.00  0.00     0.097 C 
ENDBRANCH  13  16
ENDBRANCH   5   7
BRANCH   5  18
HETATM   18  C6  UNL     1       7.232   8.347  -7.673  1.00  0.00     0.277 C 
BRANCH  18  19
HETATM   19  O2  UNL     1       6.497   9.029  -6.719  1.00  0.00    -0.300 OA
BRANCH  19  20
HETATM   20  C7  UNL     1       7.038   9.572  -5.556  1.00  0.00     0.256 C 
HETATM   21  C8  UNL     1       6.810   8.945  -4.229  1.00  0.00     0.126 C 
HETATM   22  O3  UNL     1       7.729  10.614  -5.652  1.00  0.00    -0.266 OA
ENDBRANCH  19  20
ENDBRANCH  18  19
BRANCH  18  23
HETATM   23  C9  UNL     1       6.518   7.850  -8.853  1.00  0.00     0.217 C 
HETATM   24  O4  UNL     1       7.150   6.929  -9.498  1.00  0.00    -0.287 OA
BRANCH  23  25
HETATM   25  C10 UNL     1       5.231   8.269  -9.348  1.00  0.00     0.135 A 
HETATM   26  N6  UNL     1       4.347   9.054  -8.713  1.00  0.00    -0.326 N 
HETATM   27  C11 UNL     1       3.281   9.173  -9.557  1.00  0.00     0.178 A 
ATOM     28  H6  UNL     1       4.451   9.475  -7.790  1.00  0.00     0.168 HD
HETATM   29  S2  UNL     1       1.926  10.049  -9.220  1.00  0.00    -0.040 SA
HETATM   30  N7  UNL     1       3.514   8.476 -10.674  1.00  0.00    -0.312 N 
HETATM   31  C12 UNL     1       4.707   7.894 -10.602  1.00  0.00     0.173 A 
ATOM     32  H7  UNL     1       2.872   8.402 -11.463  1.00  0.00     0.170 HD
BRANCH  31  33
HETATM   33  O5  UNL     1       5.358   7.081 -11.525  1.00  0.00    -0.344 OA
ATOM     34  H5  UNL     1       5.511   7.307 -12.434  1.00  0.00     0.219 HD
ENDBRANCH  31  33
ENDBRANCH  23  25
ENDBRANCH  18  23
ENDBRANCH   5  18
ENDBRANCH   1   4
TORSDOF 9
ENDMDL
MODEL 5
REMARK VINA RESULT: -7.822003700      3.931      5.567
REMARK  9 active torsions:
REMARK  status: ('A' for Active; 'I' for Inactive)
REMARK    1  A    between atoms: S1_2  and  C2_3 
REMARK    2  A    between atoms: N3_9  and  C4_11 
REMARK    3  A    between atoms: C4_11  and  C6_17 
REMARK    4  A    between atoms: N4_12  and  O1_14 
REMARK    5  A    between atoms: C6_17  and  O2_18 
REMARK    6  A    between atoms: C6_17  and  C9_22 
REMARK    7  A    between atoms: O2_18  and  C7_19 
REMARK    8  A    between atoms: C9_22  and  C10_24 
REMARK    9  A    between atoms: C12_31  and  O5_32 
ROOT
HETATM    1  O1  UNL     1       6.813   8.689  -3.580  1.00  0.00    -0.158 OA
HETATM    2  C5  UNL     1       5.695   9.476  -3.575  1.00  0.00     0.253 C 
HETATM    3  N5  UNL     1       4.749  10.153  -3.564  1.00  0.00    -0.162 NA
ENDROOT
BRANCH   1   4
HETATM    4  N4  UNL     1       7.410   8.424  -4.786  1.00  0.00    -0.234 N 
HETATM    5  C4  UNL     1       7.389   7.260  -5.296  1.00  0.00     0.142 C 
ATOM      6  H4  UNL     1       7.881   9.178  -5.284  1.00  0.00     0.197 HD
BRANCH   5   7
HETATM    7  N3  UNL     1       6.737   6.209  -4.609  1.00  0.00    -0.321 N 
HETATM    8  C3  UNL     1       7.485   5.197  -4.229  1.00  0.00     0.167 A 
HETATM    9  N2  UNL     1       8.799   5.020  -4.404  1.00  0.00    -0.278 N 
HETATM   10  S3  UNL     1       7.051   3.773  -3.390  1.00  0.00    -0.026 SA
HETATM   11  N1  UNL     1       9.334   3.959  -3.955  1.00  0.00    -0.286 N 
ATOM     12  H2  UNL     1       9.360   5.721  -4.887  1.00  0.00     0.189 HD
HETATM   13  C2  UNL     1       8.598   3.054  -3.329  1.00  0.00     0.129 A 
ATOM     14  H1  UNL     1      10.334   3.804  -4.077  1.00  0.00     0.188 HD
ATOM     15  H3  UNL     1       5.736   6.235  -4.420  1.00  0.00     0.169 HD
BRANCH  13  16
HETATM   16  S1  UNL     1       9.150   1.486  -2.615  1.00  0.00    -0.108 SA
HETATM   17  C1  UNL     1       7.753   0.337  -2.752  1.00  0.00     0.097 C 
ENDBRANCH  13  16
ENDBRANCH   5   7
BRANCH   5  18
HETATM   18  C6  UNL     1       8.036   6.931  -6.622  1.00  0.00     0.277 C 
BRANCH  18  19
HETATM   19  O2  UNL     1       8.823   8.019  -6.954  1.00  0.00    -0.300 OA
BRANCH  19  20
HETATM   20  C7  UNL     1       9.762   8.021  -7.984  1.00  0.00     0.256 C 
HETATM   21  C8  UNL     1      11.220   7.981  -7.702  1.00  0.00     0.126 C 
HETATM   22  O3  UNL     1       9.348   8.058  -9.166  1.00  0.00    -0.266 OA
ENDBRANCH  19  20
ENDBRANCH  18  19
BRANCH  18  23
HETATM   23  C9  UNL     1       6.962   6.562  -7.549  1.00  0.00     0.217 C 
HETATM   24  O4  UNL     1       6.962   5.316  -7.881  1.00  0.00    -0.287 OA
BRANCH  23  25
HETATM   25  C10 UNL     1       5.944   7.417  -8.107  1.00  0.00     0.135 A 
HETATM   26  N6  UNL     1       5.053   8.151  -7.424  1.00  0.00    -0.326 N 
HETATM   27  C11 UNL     1       4.295   8.787  -8.363  1.00  0.00     0.178 A 
ATOM     28  H6  UNL     1       4.962   8.219  -6.410  1.00  0.00     0.168 HD
HETATM   29  S2  UNL     1       3.054   9.814  -8.012  1.00  0.00    -0.040 SA
HETATM   30  N7  UNL     1       4.717   8.445  -9.585  1.00  0.00    -0.312 N 
HETATM   31  C12 UNL     1       5.738   7.599  -9.490  1.00  0.00     0.173 A 
ATOM     32  H7  UNL     1       4.316   8.784 -10.459  1.00  0.00     0.170 HD
BRANCH  31  33
HETATM   33  O5  UNL     1       6.483   6.988 -10.493  1.00  0.00    -0.344 OA
ATOM     34  H5  UNL     1       6.932   7.447 -11.192  1.00  0.00     0.219 HD
ENDBRANCH  31  33
ENDBRANCH  23  25
ENDBRANCH  18  23
ENDBRANCH   5  18
ENDBRANCH   1   4
TORSDOF 9
ENDMDL
