MODEL 1
REMARK VINA RESULT: -8.356511839      0.000      0.000
REMARK  9 active torsions:
REMARK  status: ('A' for Active; 'I' for Inactive)
REMARK    1  A    between atoms: O1_2  and  C2_3 
REMARK    2  A    between atoms: N1_7  and  N2_8 
REMARK    3  A    between atoms: C7_13  and  O2_14 
REMARK    4  A    between atoms: C8_16  and  C9_17 
REMARK    5  A    between atoms: N4_19  and  C11_21 
REMARK    6  A    between atoms: C11_21  and  C13_23 
REMARK    7  A    between atoms: C14_29  and  N7_30 
REMARK    8  A    between atoms: C15_33  and  N8_34 
REMARK    9  A    between atoms: N8_34  and  O4_35 
ROOT
HETATM    1  N2  UNL     1       5.119  12.156  -2.977  1.00  0.00    -0.200 N 
HETATM    2  C6  UNL     1       5.951  13.152  -3.289  1.00  0.00     0.202 A 
HETATM    3  S1  UNL     1       5.910  14.553  -2.444  1.00  0.00    -0.038 SA
HETATM    4  N3  UNL     1       7.000  13.017  -4.170  1.00  0.00    -0.311 N 
ATOM      5  H3  UNL     1       7.613  13.802  -4.388  1.00  0.00     0.170 HD
HETATM    6  C7  UNL     1       7.179  11.828  -4.722  1.00  0.00     0.159 A 
HETATM    7  C8  UNL     1       6.405  10.710  -4.481  1.00  0.00     0.100 A 
HETATM    8  C15 UNL     1       5.329  10.919  -3.554  1.00  0.00     0.251 A 
ENDROOT
BRANCH   7   9
HETATM    9  C9  UNL     1       6.838   9.413  -4.909  1.00  0.00     0.025 C 
HETATM   10  C10 UNL     1       6.867   8.249  -4.020  1.00  0.00     0.069 C 
HETATM   11  N4  UNL     1       6.983   9.175  -6.200  1.00  0.00    -0.361 N 
ATOM     12  H4  UNL     1       6.743   9.955  -6.812  1.00  0.00     0.165 HD
BRANCH  11  13
HETATM   13  C11 UNL     1       7.406   8.040  -6.847  1.00  0.00     0.038 C 
HETATM   14  C12 UNL     1       8.327   6.992  -6.449  1.00  0.00     0.070 C 
BRANCH  13  15
HETATM   15  C13 UNL     1       6.624   7.684  -8.039  1.00  0.00     0.124 A 
HETATM   16  N5  UNL     1       7.120   6.968  -9.121  1.00  0.00    -0.236 N 
HETATM   17  O3  UNL     1       6.252   7.010 -10.109  1.00  0.00    -0.155 OA
ATOM     18  H5  UNL     1       8.018   6.485  -9.146  1.00  0.00     0.197 HD
HETATM   19  N6  UNL     1       5.216   7.693  -9.766  1.00  0.00    -0.224 N 
HETATM   20  C14 UNL     1       5.406   8.116  -8.523  1.00  0.00     0.152 A 
ATOM     21  H6  UNL     1       4.397   7.876 -10.345  1.00  0.00     0.198 HD
BRANCH  20  22
HETATM   22  N7  UNL     1       4.544   8.721  -7.800  1.00  0.00    -0.382 N 
ATOM     23  H72 UNL     1       4.095   8.343  -6.965  1.00  0.00     0.157 HD
ATOM     24  H71 UNL     1       4.299   9.703  -7.930  1.00  0.00     0.157 HD
ENDBRANCH  20  22
ENDBRANCH  13  15
ENDBRANCH  11  13
ENDBRANCH   7   9
BRANCH   6  25
HETATM   25  O2  UNL     1       8.234  11.681  -5.619  1.00  0.00    -0.345 OA
ATOM     26  H2  UNL     1       8.543  10.801  -5.800  1.00  0.00     0.219 HD
ENDBRANCH   6  25
BRANCH   8  27
HETATM   27  N8  UNL     1       4.764   9.964  -3.053  1.00  0.00    -0.262 NA
BRANCH  27  28
HETATM   28  O4  UNL     1       4.168   9.190  -2.231  1.00  0.00    -0.217 OA
ATOM     29  H4  UNL     1       3.928   8.442  -1.698  1.00  0.00     0.261 HD
ENDBRANCH  27  28
ENDBRANCH   8  27
BRANCH   1  30
HETATM   30  N1  UNL     1       3.976  12.405  -2.219  1.00  0.00    -0.314 N 
HETATM   31  C5  UNL     1       4.014  12.002  -0.788  1.00  0.00     0.143 C 
HETATM   32  C4  UNL     1       2.590  11.821  -0.226  1.00  0.00     0.024 C 
HETATM   33  C3  UNL     1       1.655  11.188  -1.154  1.00  0.00     0.035 C 
HETATM   34  C2  UNL     1       1.614  11.836  -2.526  1.00  0.00     0.140 C 
HETATM   35  C16 UNL     1       2.715  12.933  -2.494  1.00  0.00     0.175 C 
BRANCH  34  36
HETATM   36  O1  UNL     1       1.817  10.841  -3.412  1.00  0.00    -0.389 OA
HETATM   37  C1  UNL     1       1.742  11.114  -4.749  1.00  0.00     0.202 C 
ENDBRANCH  34  36
ENDBRANCH   1  30
TORSDOF 9
ENDMDL
MODEL 2
REMARK VINA RESULT: -8.322062715      1.542      1.847
REMARK  9 active torsions:
REMARK  status: ('A' for Active; 'I' for Inactive)
REMARK    1  A    between atoms: O1_2  and  C2_3 
REMARK    2  A    between atoms: N1_7  and  N2_8 
REMARK    3  A    between atoms: C7_13  and  O2_14 
REMARK    4  A    between atoms: C8_16  and  C9_17 
REMARK    5  A    between atoms: N4_19  and  C11_21 
REMARK    6  A    between atoms: C11_21  and  C13_23 
REMARK    7  A    between atoms: C14_29  and  N7_30 
REMARK    8  A    between atoms: C15_33  and  N8_34 
REMARK    9  A    between atoms: N8_34  and  O4_35 
ROOT
HETATM    1  N2  UNL     1       5.336  12.485  -2.989  1.00  0.00    -0.200 N 
HETATM    2  C6  UNL     1       6.441  13.156  -3.323  1.00  0.00     0.202 A 
HETATM    3  S1  UNL     1       6.899  14.469  -2.460  1.00  0.00    -0.038 SA
HETATM    4  N3  UNL     1       7.353  12.704  -4.248  1.00  0.00    -0.311 N 
ATOM      5  H3  UNL     1       8.185  13.246  -4.483  1.00  0.00     0.170 HD
HETATM    6  C7  UNL     1       7.107  11.537  -4.823  1.00  0.00     0.159 A 
HETATM    7  C8  UNL     1       6.014  10.733  -4.563  1.00  0.00     0.100 A 
HETATM    8  C15 UNL     1       5.102  11.264  -3.589  1.00  0.00     0.251 A 
ENDROOT
BRANCH   7   9
HETATM    9  C9  UNL     1       5.975   9.377  -5.025  1.00  0.00     0.025 C 
HETATM   10  C10 UNL     1       4.932   8.869  -5.918  1.00  0.00     0.069 C 
HETATM   11  N4  UNL     1       7.037   8.609  -4.856  1.00  0.00    -0.361 N 
ATOM     12  H4  UNL     1       7.835   9.067  -4.417  1.00  0.00     0.165 HD
BRANCH  11  13
HETATM   13  C11 UNL     1       7.233   7.289  -5.182  1.00  0.00     0.038 C 
HETATM   14  C12 UNL     1       6.982   6.067  -4.440  1.00  0.00     0.070 C 
BRANCH  13  15
HETATM   15  C13 UNL     1       7.512   7.042  -6.603  1.00  0.00     0.124 A 
HETATM   16  N5  UNL     1       6.936   6.024  -7.352  1.00  0.00    -0.236 N 
HETATM   17  O3  UNL     1       7.555   5.929  -8.510  1.00  0.00    -0.155 OA
ATOM     18  H5  UNL     1       6.156   5.439  -7.052  1.00  0.00     0.197 HD
HETATM   19  N6  UNL     1       8.491   6.809  -8.591  1.00  0.00    -0.224 N 
HETATM   20  C14 UNL     1       8.495   7.498  -7.457  1.00  0.00     0.152 A 
ATOM     21  H6  UNL     1       9.117   6.950  -9.383  1.00  0.00     0.198 HD
BRANCH  20  22
HETATM   22  N7  UNL     1       9.203   8.533  -7.215  1.00  0.00    -0.382 N 
ATOM     23  H72 UNL     1       8.891   9.502  -7.295  1.00  0.00     0.157 HD
ATOM     24  H71 UNL     1      10.135   8.486  -6.804  1.00  0.00     0.157 HD
ENDBRANCH  20  22
ENDBRANCH  13  15
ENDBRANCH  11  13
ENDBRANCH   7   9
BRANCH   6  25
HETATM   25  O2  UNL     1       8.020  11.071  -5.765  1.00  0.00    -0.345 OA
ATOM     26  H2  UNL     1       8.017  10.142  -5.964  1.00  0.00     0.219 HD
ENDBRANCH   6  25
BRANCH   8  27
HETATM   27  N8  UNL     1       4.271  10.538  -3.076  1.00  0.00    -0.262 NA
BRANCH  27  28
HETATM   28  O4  UNL     1       3.178   9.945  -2.787  1.00  0.00    -0.217 OA
ATOM     29  H4  UNL     1       2.511   9.282  -2.654  1.00  0.00     0.261 HD
ENDBRANCH  27  28
ENDBRANCH   8  27
BRANCH   1  30
HETATM   30  N1  UNL     1       4.369  13.079  -2.180  1.00  0.00    -0.314 N 
HETATM   31  C5  UNL     1       4.276  12.601  -0.775  1.00  0.00     0.143 C 
HETATM   32  C4  UNL     1       2.890  12.908  -0.176  1.00  0.00     0.024 C 
HETATM   33  C3  UNL     1       1.779  12.713  -1.105  1.00  0.00     0.035 C 
HETATM   34  C2  UNL     1       1.958  13.417  -2.437  1.00  0.00     0.140 C 
HETATM   35  C16 UNL     1       3.380  14.041  -2.384  1.00  0.00     0.175 C 
BRANCH  34  36
HETATM   36  O1  UNL     1       1.778  12.474  -3.383  1.00  0.00    -0.389 OA
HETATM   37  C1  UNL     1       1.783  12.840  -4.700  1.00  0.00     0.202 C 
ENDBRANCH  34  36
ENDBRANCH   1  30
TORSDOF 9
ENDMDL
MODEL 3
REMARK VINA RESULT: -8.309686525      2.914      7.542
REMARK  9 active torsions:
REMARK  status: ('A' for Active; 'I' for Inactive)
REMARK    1  A    between atoms: O1_2  and  C2_3 
REMARK    2  A    between atoms: N1_7  and  N2_8 
REMARK    3  A    between atoms: C7_13  and  O2_14 
REMARK    4  A    between atoms: C8_16  and  C9_17 
REMARK    5  A    between atoms: N4_19  and  C11_21 
REMARK    6  A    between atoms: C11_21  and  C13_23 
REMARK    7  A    between atoms: C14_29  and  N7_30 
REMARK    8  A    between atoms: C15_33  and  N8_34 
REMARK    9  A    between atoms: N8_34  and  O4_35 
ROOT
HETATM    1  N2  UNL     1       6.943   7.770  -5.317  1.00  0.00    -0.200 N 
HETATM    2  C6  UNL     1       6.483   6.987  -4.338  1.00  0.00     0.202 A 
HETATM    3  S1  UNL     1       7.039   5.457  -4.178  1.00  0.00    -0.038 SA
HETATM    4  N3  UNL     1       5.693   7.445  -3.309  1.00  0.00    -0.311 N 
ATOM      5  H3  UNL     1       5.356   6.817  -2.579  1.00  0.00     0.170 HD
HETATM    6  C7  UNL     1       5.389   8.733  -3.304  1.00  0.00     0.159 A 
HETATM    7  C8  UNL     1       5.805   9.656  -4.243  1.00  0.00     0.100 A 
HETATM    8  C15 UNL     1       6.625   9.113  -5.289  1.00  0.00     0.251 A 
ENDROOT
BRANCH   7   9
HETATM    9  C9  UNL     1       5.656  11.061  -4.006  1.00  0.00     0.025 C 
HETATM   10  C10 UNL     1       4.502  11.831  -4.477  1.00  0.00     0.069 C 
HETATM   11  N4  UNL     1       6.442  11.653  -3.124  1.00  0.00    -0.361 N 
ATOM     12  H4  UNL     1       7.100  11.035  -2.650  1.00  0.00     0.165 HD
BRANCH  11  13
HETATM   13  C11 UNL     1       6.511  12.972  -2.748  1.00  0.00     0.038 C 
HETATM   14  C12 UNL     1       5.537  13.847  -2.122  1.00  0.00     0.070 C 
BRANCH  13  15
HETATM   15  C13 UNL     1       7.866  13.541  -2.749  1.00  0.00     0.124 A 
HETATM   16  N5  UNL     1       8.510  14.037  -3.875  1.00  0.00    -0.236 N 
HETATM   17  O3  UNL     1       9.776  14.261  -3.592  1.00  0.00    -0.155 OA
ATOM     18  H5  UNL     1       8.072  14.201  -4.781  1.00  0.00     0.197 HD
HETATM   19  N6  UNL     1      10.020  13.959  -2.365  1.00  0.00    -0.224 N 
HETATM   20  C14 UNL     1       8.890  13.521  -1.825  1.00  0.00     0.152 A 
ATOM     21  H6  UNL     1      10.920  14.041  -1.892  1.00  0.00     0.198 HD
BRANCH  20  22
HETATM   22  N7  UNL     1       8.711  13.243  -0.591  1.00  0.00    -0.382 N 
ATOM     23  H72 UNL     1       7.821  12.991  -0.160  1.00  0.00     0.157 HD
ATOM     24  H71 UNL     1       9.478  13.137   0.073  1.00  0.00     0.157 HD
ENDBRANCH  20  22
ENDBRANCH  13  15
ENDBRANCH  11  13
ENDBRANCH   7   9
BRANCH   6  25
HETATM   25  O2  UNL     1       4.585   9.207  -2.270  1.00  0.00    -0.345 OA
ATOM     26  H2  UNL     1       5.005   9.694  -1.570  1.00  0.00     0.219 HD
ENDBRANCH   6  25
BRANCH   8  27
HETATM   27  N8  UNL     1       7.275   9.858  -6.000  1.00  0.00    -0.262 NA
BRANCH  27  28
HETATM   28  O4  UNL     1       7.620  10.705  -6.890  1.00  0.00    -0.217 OA
ATOM     29  H4  UNL     1       7.791  11.131  -7.721  1.00  0.00     0.261 HD
ENDBRANCH  27  28
ENDBRANCH   8  27
BRANCH   1  30
HETATM   30  N1  UNL     1       7.588   7.212  -6.421  1.00  0.00    -0.314 N 
HETATM   31  C5  UNL     1       9.065   7.364  -6.488  1.00  0.00     0.143 C 
HETATM   32  C4  UNL     1       9.571   7.212  -7.935  1.00  0.00     0.024 C 
HETATM   33  C3  UNL     1       8.711   7.834  -8.940  1.00  0.00     0.035 C 
HETATM   34  C2  UNL     1       7.251   7.433  -8.835  1.00  0.00     0.140 C 
HETATM   35  C16 UNL     1       7.161   6.541  -7.566  1.00  0.00     0.175 C 
BRANCH  34  36
HETATM   36  O1  UNL     1       6.553   8.584  -8.782  1.00  0.00    -0.389 OA
HETATM   37  C1  UNL     1       5.188   8.541  -8.853  1.00  0.00     0.202 C 
ENDBRANCH  34  36
ENDBRANCH   1  30
TORSDOF 9
ENDMDL
MODEL 4
REMARK VINA RESULT: -8.218982597      4.784      7.427
REMARK  9 active torsions:
REMARK  status: ('A' for Active; 'I' for Inactive)
REMARK    1  A    between atoms: O1_2  and  C2_3 
REMARK    2  A    between atoms: N1_7  and  N2_8 
REMARK    3  A    between atoms: C7_13  and  O2_14 
REMARK    4  A    between atoms: C8_16  and  C9_17 
REMARK    5  A    between atoms: N4_19  and  C11_21 
REMARK    6  A    between atoms: C11_21  and  C13_23 
REMARK    7  A    between atoms: C14_29  and  N7_30 
REMARK    8  A    between atoms: C15_33  and  N8_34 
REMARK    9  A    between atoms: N8_34  and  O4_35 
ROOT
HETATM    1  N2  UNL     1       6.841   4.325  -3.318  1.00  0.00    -0.200 N 
HETATM    2  C6  UNL     1       6.857   4.970  -2.150  1.00  0.00     0.202 A 
HETATM    3  S1  UNL     1       7.137   4.151  -0.761  1.00  0.00    -0.038 SA
HETATM    4  N3  UNL     1       6.841   6.342  -2.041  1.00  0.00    -0.311 N 
ATOM      5  H3  UNL     1       6.849   6.802  -1.130  1.00  0.00     0.170 HD
HETATM    6  C7  UNL     1       6.816   7.040  -3.165  1.00  0.00     0.159 A 
HETATM    7  C8  UNL     1       6.811   6.504  -4.438  1.00  0.00     0.100 A 
HETATM    8  C15 UNL     1       6.827   5.070  -4.481  1.00  0.00     0.251 A 
ENDROOT
BRANCH   7   9
HETATM    9  C9  UNL     1       7.058   7.332  -5.582  1.00  0.00     0.025 C 
HETATM   10  C10 UNL     1       8.333   7.334  -6.302  1.00  0.00     0.069 C 
HETATM   11  N4  UNL     1       6.042   7.933  -6.174  1.00  0.00    -0.361 N 
ATOM     12  H4  UNL     1       5.127   7.733  -5.769  1.00  0.00     0.165 HD
BRANCH  11  13
HETATM   13  C11 UNL     1       6.026   8.785  -7.251  1.00  0.00     0.038 C 
HETATM   14  C12 UNL     1       6.637  10.085  -7.459  1.00  0.00     0.070 C 
BRANCH  13  15
HETATM   15  C13 UNL     1       5.515   8.194  -8.495  1.00  0.00     0.124 A 
HETATM   16  N5  UNL     1       6.243   7.345  -9.319  1.00  0.00    -0.236 N 
HETATM   17  O3  UNL     1       5.594   7.173 -10.452  1.00  0.00    -0.155 OA
ATOM     18  H5  UNL     1       7.140   6.921  -9.084  1.00  0.00     0.197 HD
HETATM   19  N6  UNL     1       4.491   7.836 -10.441  1.00  0.00    -0.224 N 
HETATM   20  C14 UNL     1       4.410   8.464  -9.276  1.00  0.00     0.152 A 
ATOM     21  H6  UNL     1       3.803   7.872 -11.193  1.00  0.00     0.198 HD
BRANCH  20  22
HETATM   22  N7  UNL     1       3.401   9.122  -8.851  1.00  0.00    -0.382 N 
ATOM     23  H72 UNL     1       2.434   8.798  -8.850  1.00  0.00     0.157 HD
ATOM     24  H71 UNL     1       3.484  10.014  -8.361  1.00  0.00     0.157 HD
ENDBRANCH  20  22
ENDBRANCH  13  15
ENDBRANCH  11  13
ENDBRANCH   7   9
BRANCH   6  25
HETATM   25  O2  UNL     1       6.795   8.429  -3.067  1.00  0.00    -0.345 OA
ATOM     26  H2  UNL     1       7.572   8.861  -2.731  1.00  0.00     0.219 HD
ENDBRANCH   6  25
BRANCH   8  27
HETATM   27  N8  UNL     1       7.107   4.496  -5.517  1.00  0.00    -0.262 NA
BRANCH  27  28
HETATM   28  O4  UNL     1       7.076   4.044  -6.711  1.00  0.00    -0.217 OA
ATOM     29  H4  UNL     1       7.101   3.975  -7.657  1.00  0.00     0.261 HD
ENDBRANCH  27  28
ENDBRANCH   8  27
BRANCH   1  30
HETATM   30  N1  UNL     1       6.679   2.940  -3.356  1.00  0.00    -0.314 N 
HETATM   31  C5  UNL     1       5.571   2.368  -2.547  1.00  0.00     0.143 C 
HETATM   32  C4  UNL     1       5.823   0.879  -2.238  1.00  0.00     0.024 C 
HETATM   33  C3  UNL     1       7.215   0.558  -1.929  1.00  0.00     0.035 C 
HETATM   34  C2  UNL     1       8.208   1.071  -2.954  1.00  0.00     0.140 C 
HETATM   35  C16 UNL     1       7.364   1.892  -3.969  1.00  0.00     0.175 C 
BRANCH  34  36
HETATM   36  O1  UNL     1       9.124   1.777  -2.263  1.00  0.00    -0.389 OA
HETATM   37  C1  UNL     1      10.160   2.364  -2.935  1.00  0.00     0.202 C 
ENDBRANCH  34  36
ENDBRANCH   1  30
TORSDOF 9
ENDMDL
MODEL 5
REMARK VINA RESULT: -8.168552012      4.744      7.371
REMARK  9 active torsions:
REMARK  status: ('A' for Active; 'I' for Inactive)
REMARK    1  A    between atoms: O1_2  and  C2_3 
REMARK    2  A    between atoms: N1_7  and  N2_8 
REMARK    3  A    between atoms: C7_13  and  O2_14 
REMARK    4  A    between atoms: C8_16  and  C9_17 
REMARK    5  A    between atoms: N4_19  and  C11_21 
REMARK    6  A    between atoms: C11_21  and  C13_23 
REMARK    7  A    between atoms: C14_29  and  N7_30 
REMARK    8  A    between atoms: C15_33  and  N8_34 
REMARK    9  A    between atoms: N8_34  and  O4_35 
ROOT
HETATM    1  N2  UNL     1       6.300   7.830  -5.175  1.00  0.00    -0.200 N 
HETATM    2  C6  UNL     1       6.026   8.318  -3.963  1.00  0.00     0.202 A 
HETATM    3  S1  UNL     1       5.097   9.656  -3.805  1.00  0.00    -0.038 SA
HETATM    4  N3  UNL     1       6.318   7.654  -2.794  1.00  0.00    -0.311 N 
ATOM      5  H3  UNL     1       6.098   8.060  -1.884  1.00  0.00     0.170 HD
HETATM    6  C7  UNL     1       6.896   6.467  -2.898  1.00  0.00     0.159 A 
HETATM    7  C8  UNL     1       7.222   5.839  -4.083  1.00  0.00     0.100 A 
HETATM    8  C15 UNL     1       6.892   6.585  -5.264  1.00  0.00     0.251 A 
ENDROOT
BRANCH   7   9
HETATM    9  C9  UNL     1       7.588   4.453  -4.101  1.00  0.00     0.025 C 
HETATM   10  C10 UNL     1       6.769   3.421  -4.739  1.00  0.00     0.069 C 
HETATM   11  N4  UNL     1       8.816   4.107  -3.757  1.00  0.00    -0.361 N 
ATOM     12  H4  UNL     1       9.433   4.884  -3.522  1.00  0.00     0.165 HD
BRANCH  11  13
HETATM   13  C11 UNL     1       9.390   2.863  -3.669  1.00  0.00     0.038 C 
HETATM   14  C12 UNL     1      10.730   2.396  -3.972  1.00  0.00     0.070 C 
BRANCH  13  15
HETATM   15  C13 UNL     1       8.605   1.877  -2.912  1.00  0.00     0.124 A 
HETATM   16  N5  UNL     1       8.103   0.696  -3.444  1.00  0.00    -0.236 N 
HETATM   17  O3  UNL     1       7.265   0.152  -2.587  1.00  0.00    -0.155 OA
ATOM     18  H5  UNL     1       8.346   0.311  -4.357  1.00  0.00     0.197 HD
HETATM   19  N6  UNL     1       7.177   0.875  -1.527  1.00  0.00    -0.224 N 
HETATM   20  C14 UNL     1       7.971   1.925  -1.688  1.00  0.00     0.152 A 
ATOM     21  H6  UNL     1       6.600   0.677  -0.709  1.00  0.00     0.198 HD
BRANCH  20  22
HETATM   22  N7  UNL     1       8.240   2.802  -0.798  1.00  0.00    -0.382 N 
ATOM     23  H72 UNL     1       8.959   3.523  -0.869  1.00  0.00     0.157 HD
ATOM     24  H71 UNL     1       7.675   2.935   0.040  1.00  0.00     0.157 HD
ENDBRANCH  20  22
ENDBRANCH  13  15
ENDBRANCH  11  13
ENDBRANCH   7   9
BRANCH   6  25
HETATM   25  O2  UNL     1       7.200   5.788  -1.720  1.00  0.00    -0.345 OA
ATOM     26  H2  UNL     1       7.846   6.174  -1.141  1.00  0.00     0.219 HD
ENDBRANCH   6  25
BRANCH   8  27
HETATM   27  N8  UNL     1       6.868   6.030  -6.347  1.00  0.00    -0.262 NA
BRANCH  27  28
HETATM   28  O4  UNL     1       7.197   5.564  -7.489  1.00  0.00    -0.217 OA
ATOM     29  H4  UNL     1       7.189   5.103  -8.319  1.00  0.00     0.261 HD
ENDBRANCH  27  28
ENDBRANCH   8  27
BRANCH   1  30
HETATM   30  N1  UNL     1       6.141   8.627  -6.308  1.00  0.00    -0.314 N 
HETATM   31  C5  UNL     1       4.890   8.447  -7.090  1.00  0.00     0.143 C 
HETATM   32  C4  UNL     1       5.066   8.944  -8.538  1.00  0.00     0.024 C 
HETATM   33  C3  UNL     1       6.366   8.627  -9.127  1.00  0.00     0.035 C 
HETATM   34  C2  UNL     1       7.548   9.037  -8.269  1.00  0.00     0.140 C 
HETATM   35  C16 UNL     1       6.930   9.580  -6.950  1.00  0.00     0.175 C 
BRANCH  34  36
HETATM   36  O1  UNL     1       8.311   7.934  -8.135  1.00  0.00    -0.389 OA
HETATM   37  C1  UNL     1       9.527   7.884  -8.759  1.00  0.00     0.202 C 
ENDBRANCH  34  36
ENDBRANCH   1  30
TORSDOF 9
ENDMDL
