MODEL 1
REMARK VINA RESULT: -3.482558926      0.000      0.000
REMARK  2 active torsions:
REMARK  status: ('A' for Active; 'I' for Inactive)
REMARK       I    between atoms: N1_2  and  C2_4 
REMARK       I    between atoms: C2_4  and  N3_8 
REMARK    1  A    between atoms: N3_8  and  S1_10 
REMARK    2  A    between atoms: S1_10  and  C3_11 
ROOT
HETATM    1  C1  UNL     1      29.968 138.175 149.808  1.00  0.00     0.165 C 
HETATM    2  N1  UNL     1      30.440 138.121 148.465  1.00  0.00    -0.230 N 
ATOM      3  H1  UNL     1      31.445 138.144 148.286  1.00  0.00     0.177 HD
HETATM    4  C2  UNL     1      29.540 138.036 147.375  1.00  0.00     0.677 C 
HETATM    5  N2  UNL     1      28.715 139.016 147.171  1.00  0.00    -0.234 N 
ATOM      6  H21 UNL     1      28.067 138.956 146.386  1.00  0.00     0.174 HD
ATOM      7  H22 UNL     1      28.731 139.822 147.797  1.00  0.00     0.174 HD
HETATM    8  N3  UNL     1      29.518 136.918 146.506  1.00  0.00    -0.160 N 
ATOM      9  H3  UNL     1      30.389 136.613 146.071  1.00  0.00     0.193 HD
ENDROOT
BRANCH   8  10
HETATM   10  S1  UNL     1      28.033 136.039 146.152  1.00  0.00     0.006 SA
BRANCH  10  11
HETATM   11  C3  UNL     1      27.083 135.994 147.652  1.00  0.00     0.150 C 
HETATM   12  N4  UNL     1      26.108 136.778 147.838  1.00  0.00    -0.402 N 
ATOM     13  H42 UNL     1      25.875 137.443 147.101  1.00  0.00     0.156 HD
ATOM     14  H41 UNL     1      25.562 136.752 148.700  1.00  0.00     0.156 HD
ENDBRANCH  10  11
ENDBRANCH   8  10
TORSDOF 2
ENDMDL
MODEL 2
REMARK VINA RESULT: -3.440772741      2.470      4.382
REMARK  2 active torsions:
REMARK  status: ('A' for Active; 'I' for Inactive)
REMARK       I    between atoms: N1_2  and  C2_4 
REMARK       I    between atoms: C2_4  and  N3_8 
REMARK    1  A    between atoms: N3_8  and  S1_10 
REMARK    2  A    between atoms: S1_10  and  C3_11 
ROOT
HETATM    1  C1  UNL     1      27.086 136.789 146.690  1.00  0.00     0.165 C 
HETATM    2  N1  UNL     1      27.229 137.961 147.488  1.00  0.00    -0.230 N 
ATOM      3  H1  UNL     1      26.417 138.555 147.655  1.00  0.00     0.177 HD
HETATM    4  C2  UNL     1      28.479 138.315 148.053  1.00  0.00     0.677 C 
HETATM    5  N2  UNL     1      29.465 138.592 147.256  1.00  0.00    -0.234 N 
ATOM      6  H21 UNL     1      30.365 138.847 147.663  1.00  0.00     0.174 HD
ATOM      7  H22 UNL     1      29.321 138.548 146.248  1.00  0.00     0.174 HD
HETATM    8  N3  UNL     1      28.679 138.375 149.453  1.00  0.00    -0.160 N 
ATOM      9  H3  UNL     1      28.038 138.931 150.020  1.00  0.00     0.193 HD
ENDROOT
BRANCH   8  10
HETATM   10  S1  UNL     1      30.000 137.523 150.246  1.00  0.00     0.006 SA
BRANCH  10  11
HETATM   11  C3  UNL     1      31.288 138.711 150.537  1.00  0.00     0.150 C 
HETATM   12  N4  UNL     1      31.975 138.692 151.599  1.00  0.00    -0.402 N 
ATOM     13  H42 UNL     1      31.773 137.972 152.293  1.00  0.00     0.156 HD
ATOM     14  H41 UNL     1      32.715 139.375 151.766  1.00  0.00     0.156 HD
ENDBRANCH  10  11
ENDBRANCH   8  10
TORSDOF 2
ENDMDL
MODEL 3
REMARK VINA RESULT: -3.436906946      2.660      3.620
REMARK  2 active torsions:
REMARK  status: ('A' for Active; 'I' for Inactive)
REMARK       I    between atoms: N1_2  and  C2_4 
REMARK       I    between atoms: C2_4  and  N3_8 
REMARK    1  A    between atoms: N3_8  and  S1_10 
REMARK    2  A    between atoms: S1_10  and  C3_11 
ROOT
HETATM    1  C1  UNL     1      27.832 135.889 146.236  1.00  0.00     0.165 C 
HETATM    2  N1  UNL     1      27.735 137.265 146.592  1.00  0.00    -0.230 N 
ATOM      3  H1  UNL     1      26.917 137.802 146.301  1.00  0.00     0.177 HD
HETATM    4  C2  UNL     1      28.752 137.901 147.344  1.00  0.00     0.677 C 
HETATM    5  N2  UNL     1      29.940 137.995 146.830  1.00  0.00    -0.234 N 
ATOM      6  H21 UNL     1      30.673 138.454 147.371  1.00  0.00     0.174 HD
ATOM      7  H22 UNL     1      30.114 137.611 145.901  1.00  0.00     0.174 HD
HETATM    8  N3  UNL     1      28.511 138.434 148.634  1.00  0.00    -0.160 N 
ATOM      9  H3  UNL     1      27.732 139.080 148.763  1.00  0.00     0.193 HD
ENDROOT
BRANCH   8  10
HETATM   10  S1  UNL     1      29.511 138.016 150.021  1.00  0.00     0.006 SA
BRANCH  10  11
HETATM   11  C3  UNL     1      28.526 136.989 151.085  1.00  0.00     0.150 C 
HETATM   12  N4  UNL     1      28.137 137.394 152.218  1.00  0.00    -0.402 N 
ATOM     13  H42 UNL     1      28.404 138.334 152.512  1.00  0.00     0.156 HD
ATOM     14  H41 UNL     1      27.571 136.804 152.828  1.00  0.00     0.156 HD
ENDBRANCH  10  11
ENDBRANCH   8  10
TORSDOF 2
ENDMDL
MODEL 4
REMARK VINA RESULT: -3.430715922      2.216      3.471
REMARK  2 active torsions:
REMARK  status: ('A' for Active; 'I' for Inactive)
REMARK       I    between atoms: N1_2  and  C2_4 
REMARK       I    between atoms: C2_4  and  N3_8 
REMARK    1  A    between atoms: N3_8  and  S1_10 
REMARK    2  A    between atoms: S1_10  and  C3_11 
ROOT
HETATM    1  C1  UNL     1      27.541 134.515 145.505  1.00  0.00     0.165 C 
HETATM    2  N1  UNL     1      28.830 135.110 145.396  1.00  0.00    -0.230 N 
ATOM      3  H1  UNL     1      29.330 135.065 144.507  1.00  0.00     0.177 HD
HETATM    4  C2  UNL     1      29.432 135.764 146.499  1.00  0.00     0.677 C 
HETATM    5  N2  UNL     1      29.711 135.068 147.558  1.00  0.00    -0.234 N 
ATOM      6  H21 UNL     1      30.145 135.538 148.353  1.00  0.00     0.174 HD
ATOM      7  H22 UNL     1      29.493 134.072 147.574  1.00  0.00     0.174 HD
HETATM    8  N3  UNL     1      29.735 137.147 146.478  1.00  0.00    -0.160 N 
ATOM      9  H3  UNL     1      30.280 137.521 145.701  1.00  0.00     0.193 HD
ENDROOT
BRANCH   8  10
HETATM   10  S1  UNL     1      29.199 138.241 147.750  1.00  0.00     0.006 SA
BRANCH  10  11
HETATM   11  C3  UNL     1      27.486 137.886 148.057  1.00  0.00     0.150 C 
HETATM   12  N4  UNL     1      26.629 137.923 147.128  1.00  0.00    -0.402 N 
ATOM     13  H42 UNL     1      26.944 138.163 146.188  1.00  0.00     0.156 HD
ATOM     14  H41 UNL     1      25.644 137.718 147.305  1.00  0.00     0.156 HD
ENDBRANCH  10  11
ENDBRANCH   8  10
TORSDOF 2
ENDMDL
MODEL 5
REMARK VINA RESULT: -3.370730486      2.004      2.987
REMARK  2 active torsions:
REMARK  status: ('A' for Active; 'I' for Inactive)
REMARK       I    between atoms: N1_2  and  C2_4 
REMARK       I    between atoms: C2_4  and  N3_8 
REMARK    1  A    between atoms: N3_8  and  S1_10 
REMARK    2  A    between atoms: S1_10  and  C3_11 
ROOT
HETATM    1  C1  UNL     1      31.134 137.808 146.891  1.00  0.00     0.165 C 
HETATM    2  N1  UNL     1      29.865 137.248 146.568  1.00  0.00    -0.230 N 
ATOM      3  H1  UNL     1      29.787 136.606 145.779  1.00  0.00     0.177 HD
HETATM    4  C2  UNL     1      28.709 137.566 147.323  1.00  0.00     0.677 C 
HETATM    5  N2  UNL     1      28.296 138.796 147.339  1.00  0.00    -0.234 N 
ATOM      6  H21 UNL     1      27.463 139.025 147.882  1.00  0.00     0.174 HD
ATOM      7  H22 UNL     1      28.808 139.502 146.811  1.00  0.00     0.174 HD
HETATM    8  N3  UNL     1      27.998 136.585 148.055  1.00  0.00    -0.160 N 
ATOM      9  H3  UNL     1      27.698 135.734 147.579  1.00  0.00     0.193 HD
ENDROOT
BRANCH   8  10
HETATM   10  S1  UNL     1      27.614 136.788 149.762  1.00  0.00     0.006 SA
BRANCH  10  11
HETATM   11  C3  UNL     1      29.077 137.409 150.555  1.00  0.00     0.150 C 
HETATM   12  N4  UNL     1      29.122 138.580 151.031  1.00  0.00    -0.402 N 
ATOM     13  H42 UNL     1      28.292 139.168 150.948  1.00  0.00     0.156 HD
ATOM     14  H41 UNL     1      29.962 138.937 151.486  1.00  0.00     0.156 HD
ENDBRANCH  10  11
ENDBRANCH   8  10
TORSDOF 2
ENDMDL
