MODEL 1
REMARK VINA RESULT: -3.995691112      0.000      0.000
REMARK  2 active torsions:
REMARK  status: ('A' for Active; 'I' for Inactive)
REMARK    1  A    between atoms: N1_2  and  N2_4 
REMARK    2  A    between atoms: N2_4  and  C2_6 
ROOT
HETATM    1  C2  UNL     1      28.124 136.936 146.928  1.00  0.00     0.134 A 
HETATM    2  C3  UNL     1      27.118 136.025 147.177  1.00  0.00     0.143 A 
HETATM    3  N3  UNL     1      26.159 136.645 147.915  1.00  0.00    -0.307 N 
ATOM      4  H3  UNL     1      25.301 136.201 148.241  1.00  0.00     0.186 HD
HETATM    5  N4  UNL     1      26.490 137.898 148.151  1.00  0.00    -0.265 N 
ATOM      6  H4  UNL     1      25.949 138.583 148.678  1.00  0.00     0.190 HD
HETATM    7  C4  UNL     1      27.693 138.100 147.556  1.00  0.00     0.289 A 
HETATM    8  O1  UNL     1      28.378 139.151 147.530  1.00  0.00    -0.264 OA
ENDROOT
BRANCH   1   9
HETATM    9  N2  UNL     1      29.334 136.764 146.188  1.00  0.00    -0.299 N 
ATOM     10  H2  UNL     1      29.386 136.096 145.420  1.00  0.00     0.186 HD
BRANCH   9  11
HETATM   11  N1  UNL     1      30.406 137.508 146.530  1.00  0.00    -0.340 N 
HETATM   12  C1  UNL     1      31.383 137.017 147.396  1.00  0.00     0.167 C 
ATOM     13  H1  UNL     1      30.504 138.449 146.147  1.00  0.00     0.179 HD
ENDBRANCH   9  11
ENDBRANCH   1   9
TORSDOF 2
ENDMDL
MODEL 2
REMARK VINA RESULT: -3.807445001      2.113      2.349
REMARK  2 active torsions:
REMARK  status: ('A' for Active; 'I' for Inactive)
REMARK    1  A    between atoms: N1_2  and  N2_4 
REMARK    2  A    between atoms: N2_4  and  C2_6 
ROOT
HETATM    1  C2  UNL     1      28.003 137.759 149.029  1.00  0.00     0.134 A 
HETATM    2  C3  UNL     1      27.018 136.793 149.055  1.00  0.00     0.143 A 
HETATM    3  N3  UNL     1      26.330 136.858 147.884  1.00  0.00    -0.307 N 
ATOM      4  H3  UNL     1      25.545 136.254 147.639  1.00  0.00     0.186 HD
HETATM    5  N4  UNL     1      26.817 137.806 147.110  1.00  0.00    -0.265 N 
ATOM      6  H4  UNL     1      26.486 138.063 146.180  1.00  0.00     0.190 HD
HETATM    7  C4  UNL     1      27.843 138.374 147.791  1.00  0.00     0.289 A 
HETATM    8  O1  UNL     1      28.586 139.318 147.426  1.00  0.00    -0.264 OA
ENDROOT
BRANCH   1   9
HETATM    9  N2  UNL     1      28.985 138.075 150.017  1.00  0.00    -0.299 N 
ATOM     10  H2  UNL     1      28.716 138.233 150.988  1.00  0.00     0.186 HD
BRANCH   9  11
HETATM   11  N1  UNL     1      30.276 138.158 149.635  1.00  0.00    -0.340 N 
HETATM   12  C1  UNL     1      31.249 138.694 150.480  1.00  0.00     0.167 C 
ATOM     13  H1  UNL     1      30.546 137.822 148.711  1.00  0.00     0.179 HD
ENDBRANCH   9  11
ENDBRANCH   1   9
TORSDOF 2
ENDMDL
MODEL 3
REMARK VINA RESULT: -3.784492886      2.672      3.258
REMARK  2 active torsions:
REMARK  status: ('A' for Active; 'I' for Inactive)
REMARK    1  A    between atoms: N1_2  and  N2_4 
REMARK    2  A    between atoms: N2_4  and  C2_6 
ROOT
HETATM    1  C2  UNL     1      27.473 137.003 149.038  1.00  0.00     0.134 A 
HETATM    2  C3  UNL     1      26.521 136.952 148.042  1.00  0.00     0.143 A 
HETATM    3  N3  UNL     1      26.841 137.880 147.101  1.00  0.00    -0.307 N 
ATOM      4  H3  UNL     1      26.303 138.056 146.253  1.00  0.00     0.186 HD
HETATM    5  N4  UNL     1      27.943 138.521 147.435  1.00  0.00    -0.265 N 
ATOM      6  H4  UNL     1      28.400 139.263 146.906  1.00  0.00     0.190 HD
HETATM    7  C4  UNL     1      28.349 138.001 148.621  1.00  0.00     0.289 A 
HETATM    8  O1  UNL     1      29.354 138.319 149.302  1.00  0.00    -0.264 OA
ENDROOT
BRANCH   1   9
HETATM    9  N2  UNL     1      27.578 136.221 150.228  1.00  0.00    -0.299 N 
ATOM     10  H2  UNL     1      27.229 135.263 150.256  1.00  0.00     0.186 HD
BRANCH   9  11
HETATM   11  N1  UNL     1      28.151 136.778 151.315  1.00  0.00    -0.340 N 
HETATM   12  C1  UNL     1      29.060 136.068 152.101  1.00  0.00     0.167 C 
ATOM     13  H1  UNL     1      27.915 137.738 151.567  1.00  0.00     0.179 HD
ENDBRANCH   9  11
ENDBRANCH   1   9
TORSDOF 2
ENDMDL
MODEL 4
REMARK VINA RESULT: -3.693797973      1.383      1.774
REMARK  2 active torsions:
REMARK  status: ('A' for Active; 'I' for Inactive)
REMARK    1  A    between atoms: N1_2  and  N2_4 
REMARK    2  A    between atoms: N2_4  and  C2_6 
ROOT
HETATM    1  C2  UNL     1      28.229 137.696 147.382  1.00  0.00     0.134 A 
HETATM    2  C3  UNL     1      27.419 138.000 148.457  1.00  0.00     0.143 A 
HETATM    3  N3  UNL     1      26.328 137.190 148.407  1.00  0.00    -0.307 N 
ATOM      4  H3  UNL     1      25.565 137.204 149.084  1.00  0.00     0.186 HD
HETATM    5  N4  UNL     1      26.392 136.385 147.366  1.00  0.00    -0.265 N 
ATOM      6  H4  UNL     1      25.706 135.681 147.098  1.00  0.00     0.190 HD
HETATM    7  C4  UNL     1      27.549 136.678 146.721  1.00  0.00     0.289 A 
HETATM    8  O1  UNL     1      28.008 136.152 145.677  1.00  0.00    -0.264 OA
ENDROOT
BRANCH   1   9
HETATM    9  N2  UNL     1      29.486 138.263 147.010  1.00  0.00    -0.299 N 
ATOM     10  H2  UNL     1      29.677 139.253 147.160  1.00  0.00     0.186 HD
BRANCH   9  11
HETATM   11  N1  UNL     1      30.415 137.457 146.454  1.00  0.00    -0.340 N 
HETATM   12  C1  UNL     1      31.259 136.673 147.242  1.00  0.00     0.167 C 
ATOM     13  H1  UNL     1      30.501 137.421 145.439  1.00  0.00     0.179 HD
ENDBRANCH   9  11
ENDBRANCH   1   9
TORSDOF 2
ENDMDL
MODEL 5
REMARK VINA RESULT: -3.668593157      2.045      3.678
REMARK  2 active torsions:
REMARK  status: ('A' for Active; 'I' for Inactive)
REMARK    1  A    between atoms: N1_2  and  N2_4 
REMARK    2  A    between atoms: N2_4  and  C2_6 
ROOT
HETATM    1  C2  UNL     1      29.346 138.370 147.931  1.00  0.00     0.134 A 
HETATM    2  C3  UNL     1      30.523 137.970 147.333  1.00  0.00     0.143 A 
HETATM    3  N3  UNL     1      31.348 137.488 148.302  1.00  0.00    -0.307 N 
ATOM      4  H3  UNL     1      32.286 137.125 148.136  1.00  0.00     0.186 HD
HETATM    5  N4  UNL     1      30.768 137.554 149.482  1.00  0.00    -0.265 N 
ATOM      6  H4  UNL     1      31.165 137.259 150.374  1.00  0.00     0.190 HD
HETATM    7  C4  UNL     1      29.539 138.093 149.281  1.00  0.00     0.289 A 
HETATM    8  O1  UNL     1      28.651 138.336 150.134  1.00  0.00    -0.264 OA
ENDROOT
BRANCH   1   9
HETATM    9  N2  UNL     1      28.175 138.929 147.334  1.00  0.00    -0.299 N 
ATOM     10  H2  UNL     1      28.212 139.826 146.852  1.00  0.00     0.186 HD
BRANCH   9  11
HETATM   11  N1  UNL     1      27.018 138.240 147.424  1.00  0.00    -0.340 N 
HETATM   12  C1  UNL     1      26.950 136.889 147.084  1.00  0.00     0.167 C 
ATOM     13  H1  UNL     1      26.176 138.718 147.746  1.00  0.00     0.179 HD
ENDBRANCH   9  11
ENDBRANCH   1   9
TORSDOF 2
ENDMDL
