MODEL 1
REMARK VINA RESULT: -4.601359931      0.000      0.000
REMARK  2 active torsions:
REMARK  status: ('A' for Active; 'I' for Inactive)
REMARK    1  A    between atoms: N1_1  and  C1_4 
REMARK    2  A    between atoms: C3_9  and  C4_10 
ROOT
HETATM    1  C1  UNL     1      23.932 141.909 145.550  1.00  0.00     0.677 A 
HETATM    2  N2  UNL     1      23.697 142.910 144.688  1.00  0.00    -0.177 N 
ATOM      3  H2  UNL     1      22.782 143.145 144.304  1.00  0.00     0.185 HD
HETATM    4  C2  UNL     1      24.841 143.561 144.402  1.00  0.00     0.162 A 
HETATM    5  N3  UNL     1      24.955 144.674 143.524  1.00  0.00    -0.080 NA
HETATM    6  C3  UNL     1      25.833 142.926 145.126  1.00  0.00     0.128 A 
HETATM    7  N4  UNL     1      25.250 141.932 145.809  1.00  0.00    -0.186 N 
ATOM      8  H4  UNL     1      25.735 141.287 146.435  1.00  0.00     0.184 HD
ENDROOT
BRANCH   1   9
HETATM    9  N1  UNL     1      23.061 141.066 146.049  1.00  0.00    -0.234 N 
ATOM     10  H12 UNL     1      22.943 140.091 145.774  1.00  0.00     0.174 HD
ATOM     11  H11 UNL     1      22.374 141.244 146.780  1.00  0.00     0.174 HD
ENDBRANCH   1   9
BRANCH   6  12
HETATM   12  C4  UNL     1      27.256 143.300 145.125  1.00  0.00     0.292 C 
HETATM   13  O1  UNL     1      28.148 142.511 145.462  1.00  0.00    -0.300 OA
ENDBRANCH   6  12
TORSDOF 2
ENDMDL
MODEL 2
REMARK VINA RESULT: -4.296188460      2.176      2.811
REMARK  2 active torsions:
REMARK  status: ('A' for Active; 'I' for Inactive)
REMARK    1  A    between atoms: N1_1  and  C1_4 
REMARK    2  A    between atoms: C3_9  and  C4_10 
ROOT
HETATM    1  C1  UNL     1      25.830 141.139 146.606  1.00  0.00     0.677 A 
HETATM    2  N2  UNL     1      24.488 141.170 146.600  1.00  0.00    -0.177 N 
ATOM      3  H2  UNL     1      23.888 140.522 147.111  1.00  0.00     0.185 HD
HETATM    4  C2  UNL     1      24.046 142.177 145.823  1.00  0.00     0.162 A 
HETATM    5  N3  UNL     1      22.680 142.497 145.592  1.00  0.00    -0.080 NA
HETATM    6  C3  UNL     1      25.175 142.799 145.324  1.00  0.00     0.128 A 
HETATM    7  N4  UNL     1      26.237 142.147 145.817  1.00  0.00    -0.186 N 
ATOM      8  H4  UNL     1      27.211 142.381 145.623  1.00  0.00     0.184 HD
ENDROOT
BRANCH   1   9
HETATM    9  N1  UNL     1      26.605 140.299 147.249  1.00  0.00    -0.234 N 
ATOM     10  H12 UNL     1      27.198 140.520 148.049  1.00  0.00     0.174 HD
ATOM     11  H11 UNL     1      26.739 139.307 147.057  1.00  0.00     0.174 HD
ENDBRANCH   1   9
BRANCH   6  12
HETATM   12  C4  UNL     1      25.176 143.960 144.421  1.00  0.00     0.292 C 
HETATM   13  O1  UNL     1      24.733 143.902 143.268  1.00  0.00    -0.300 OA
ENDBRANCH   6  12
TORSDOF 2
ENDMDL
MODEL 3
REMARK VINA RESULT: -3.778818442      6.925      7.792
REMARK  2 active torsions:
REMARK  status: ('A' for Active; 'I' for Inactive)
REMARK    1  A    between atoms: N1_1  and  C1_4 
REMARK    2  A    between atoms: C3_9  and  C4_10 
ROOT
HETATM    1  C1  UNL     1      28.212 137.362 150.830  1.00  0.00     0.677 A 
HETATM    2  N2  UNL     1      28.725 138.302 150.022  1.00  0.00    -0.177 N 
ATOM      3  H2  UNL     1      29.370 139.035 150.317  1.00  0.00     0.185 HD
HETATM    4  C2  UNL     1      28.268 138.140 148.766  1.00  0.00     0.162 A 
HETATM    5  N3  UNL     1      28.609 138.961 147.656  1.00  0.00    -0.080 NA
HETATM    6  C3  UNL     1      27.429 137.043 148.803  1.00  0.00     0.128 A 
HETATM    7  N4  UNL     1      27.417 136.596 150.066  1.00  0.00    -0.186 N 
ATOM      8  H4  UNL     1      26.883 135.792 150.398  1.00  0.00     0.184 HD
ENDROOT
BRANCH   1   9
HETATM    9  N1  UNL     1      28.432 137.207 152.114  1.00  0.00    -0.234 N 
ATOM     10  H12 UNL     1      28.383 137.937 152.824  1.00  0.00     0.174 HD
ATOM     11  H11 UNL     1      28.683 136.347 152.601  1.00  0.00     0.174 HD
ENDBRANCH   1   9
BRANCH   6  12
HETATM   12  C4  UNL     1      26.698 136.493 147.650  1.00  0.00     0.292 C 
HETATM   13  O1  UNL     1      27.271 135.913 146.719  1.00  0.00    -0.300 OA
ENDBRANCH   6  12
TORSDOF 2
ENDMDL
MODEL 4
REMARK VINA RESULT: -3.702359974      7.806      8.094
REMARK  2 active torsions:
REMARK  status: ('A' for Active; 'I' for Inactive)
REMARK    1  A    between atoms: N1_1  and  C1_4 
REMARK    2  A    between atoms: C3_9  and  C4_10 
ROOT
HETATM    1  C1  UNL     1      29.763 142.652 138.501  1.00  0.00     0.677 A 
HETATM    2  N2  UNL     1      28.574 142.353 137.957  1.00  0.00    -0.177 N 
ATOM      3  H2  UNL     1      28.296 141.425 137.637  1.00  0.00     0.185 HD
HETATM    4  C2  UNL     1      27.798 143.452 137.893  1.00  0.00     0.162 A 
HETATM    5  N3  UNL     1      26.476 143.495 137.372  1.00  0.00    -0.080 NA
HETATM    6  C3  UNL     1      28.551 144.482 138.425  1.00  0.00     0.128 A 
HETATM    7  N4  UNL     1      29.734 143.964 138.783  1.00  0.00    -0.186 N 
ATOM      8  H4  UNL     1      30.499 144.489 139.208  1.00  0.00     0.184 HD
ENDROOT
BRANCH   1   9
HETATM    9  N1  UNL     1      30.767 141.837 138.720  1.00  0.00    -0.234 N 
ATOM     10  H12 UNL     1      30.998 141.008 138.173  1.00  0.00     0.174 HD
ATOM     11  H11 UNL     1      31.466 141.899 139.459  1.00  0.00     0.174 HD
ENDBRANCH   1   9
BRANCH   6  12
HETATM   12  C4  UNL     1      28.105 145.878 138.560  1.00  0.00     0.292 C 
HETATM   13  O1  UNL     1      27.317 146.239 139.442  1.00  0.00    -0.300 OA
ENDBRANCH   6  12
TORSDOF 2
ENDMDL
MODEL 5
REMARK VINA RESULT: -3.680443114      7.992      8.407
REMARK  2 active torsions:
REMARK  status: ('A' for Active; 'I' for Inactive)
REMARK    1  A    between atoms: N1_1  and  C1_4 
REMARK    2  A    between atoms: C3_9  and  C4_10 
ROOT
HETATM    1  C1  UNL     1      30.129 146.589 140.380  1.00  0.00     0.677 A 
HETATM    2  N2  UNL     1      29.104 146.161 139.629  1.00  0.00    -0.177 N 
ATOM      3  H2  UNL     1      29.010 145.217 139.253  1.00  0.00     0.185 HD
HETATM    4  C2  UNL     1      28.215 147.155 139.439  1.00  0.00     0.162 A 
HETATM    5  N3  UNL     1      27.010 147.048 138.691  1.00  0.00    -0.080 NA
HETATM    6  C3  UNL     1      28.720 148.253 140.110  1.00  0.00     0.128 A 
HETATM    7  N4  UNL     1      29.879 147.877 140.668  1.00  0.00    -0.186 N 
ATOM      8  H4  UNL     1      30.482 148.479 141.230  1.00  0.00     0.184 HD
ENDROOT
BRANCH   1   9
HETATM    9  N1  UNL     1      31.176 145.901 140.766  1.00  0.00    -0.234 N 
ATOM     10  H12 UNL     1      32.139 146.237 140.798  1.00  0.00     0.174 HD
ATOM     11  H11 UNL     1      31.198 144.935 141.092  1.00  0.00     0.174 HD
ENDBRANCH   1   9
BRANCH   6  12
HETATM   12  C4  UNL     1      28.079 149.575 140.179  1.00  0.00     0.292 C 
HETATM   13  O1  UNL     1      27.143 149.818 140.951  1.00  0.00    -0.300 OA
ENDBRANCH   6  12
TORSDOF 2
ENDMDL
