MODEL 1
REMARK VINA RESULT: -3.918478118      0.000      0.000
REMARK  1 active torsions:
REMARK  status: ('A' for Active; 'I' for Inactive)
REMARK    1  A    between atoms: C1_4  and  C2_6 
ROOT
HETATM    1  C2  UNL     1      30.254 148.314 140.695  1.00  0.00     0.148 A 
HETATM    2  N3  UNL     1      29.580 147.208 140.390  1.00  0.00    -0.327 N 
ATOM      3  H3  UNL     1      29.948 146.262 140.490  1.00  0.00     0.168 HD
HETATM    4  C3  UNL     1      28.346 147.502 139.931  1.00  0.00     0.133 A 
HETATM    5  N4  UNL     1      27.321 146.621 139.501  1.00  0.00    -0.081 NA
HETATM    6  C4  UNL     1      28.271 148.896 139.963  1.00  0.00     0.135 A 
HETATM    7  N5  UNL     1      29.451 149.362 140.434  1.00  0.00    -0.346 N 
ATOM      8  H5  UNL     1      29.692 150.345 140.569  1.00  0.00     0.167 HD
ENDROOT
BRANCH   1   9
HETATM    9  C1  UNL     1      31.618 148.398 141.221  1.00  0.00     0.154 C 
HETATM   10  N1  UNL     1      32.320 147.329 141.309  1.00  0.00    -0.385 N 
ATOM     11  H12 UNL     1      33.270 147.388 141.676  1.00  0.00     0.157 HD
ATOM     12  H11 UNL     1      31.915 146.441 141.012  1.00  0.00     0.157 HD
HETATM   13  N2  UNL     1      32.179 149.630 141.633  1.00  0.00    -0.079 NA
ENDBRANCH   1   9
TORSDOF 1
ENDMDL
MODEL 2
REMARK VINA RESULT: -3.812027470     12.919     13.678
REMARK  1 active torsions:
REMARK  status: ('A' for Active; 'I' for Inactive)
REMARK    1  A    between atoms: C1_4  and  C2_6 
ROOT
HETATM    1  C2  UNL     1      27.938 136.696 147.009  1.00  0.00     0.148 A 
HETATM    2  N3  UNL     1      28.896 136.325 146.162  1.00  0.00    -0.327 N 
ATOM      3  H3  UNL     1      29.653 136.931 145.847  1.00  0.00     0.168 HD
HETATM    4  C3  UNL     1      28.735 135.042 145.778  1.00  0.00     0.133 A 
HETATM    5  N4  UNL     1      29.530 134.269 144.894  1.00  0.00    -0.081 NA
HETATM    6  C4  UNL     1      27.588 134.606 146.446  1.00  0.00     0.135 A 
HETATM    7  N5  UNL     1      27.125 135.638 147.188  1.00  0.00    -0.346 N 
ATOM      8  H5  UNL     1      26.298 135.618 147.786  1.00  0.00     0.167 HD
ENDROOT
BRANCH   1   9
HETATM    9  C1  UNL     1      27.779 138.008 147.640  1.00  0.00     0.154 C 
HETATM   10  N1  UNL     1      26.767 138.731 147.331  1.00  0.00    -0.385 N 
ATOM     11  H12 UNL     1      26.657 139.645 147.771  1.00  0.00     0.157 HD
ATOM     12  H11 UNL     1      26.092 138.380 146.651  1.00  0.00     0.157 HD
HETATM   13  N2  UNL     1      28.716 138.495 148.582  1.00  0.00    -0.079 NA
ENDBRANCH   1   9
TORSDOF 1
ENDMDL
MODEL 3
REMARK VINA RESULT: -3.757679174     12.384     13.207
REMARK  1 active torsions:
REMARK  status: ('A' for Active; 'I' for Inactive)
REMARK    1  A    between atoms: C1_4  and  C2_6 
ROOT
HETATM    1  C2  UNL     1      28.944 137.606 147.409  1.00  0.00     0.148 A 
HETATM    2  N3  UNL     1      29.557 138.243 148.405  1.00  0.00    -0.327 N 
ATOM      3  H3  UNL     1      29.084 138.620 149.226  1.00  0.00     0.168 HD
HETATM    4  C3  UNL     1      30.885 138.324 148.184  1.00  0.00     0.133 A 
HETATM    5  N4  UNL     1      31.889 138.917 148.992  1.00  0.00    -0.081 NA
HETATM    6  C4  UNL     1      31.089 137.685 146.959  1.00  0.00     0.135 A 
HETATM    7  N5  UNL     1      29.885 137.258 146.512  1.00  0.00    -0.346 N 
ATOM      8  H5  UNL     1      29.718 136.756 145.639  1.00  0.00     0.167 HD
ENDROOT
BRANCH   1   9
HETATM    9  C1  UNL     1      27.512 137.324 147.293  1.00  0.00     0.154 C 
HETATM   10  N1  UNL     1      26.679 138.298 147.329  1.00  0.00    -0.385 N 
ATOM     11  H12 UNL     1      25.681 138.102 147.248  1.00  0.00     0.157 HD
ATOM     12  H11 UNL     1      27.029 139.251 147.438  1.00  0.00     0.157 HD
HETATM   13  N2  UNL     1      27.026 136.004 147.142  1.00  0.00    -0.079 NA
ENDBRANCH   1   9
TORSDOF 1
ENDMDL
MODEL 4
REMARK VINA RESULT: -3.653196807     12.425     13.442
REMARK  1 active torsions:
REMARK  status: ('A' for Active; 'I' for Inactive)
REMARK    1  A    between atoms: C1_4  and  C2_6 
ROOT
HETATM    1  C2  UNL     1      28.322 136.561 146.482  1.00  0.00     0.148 A 
HETATM    2  N3  UNL     1      29.585 136.840 146.796  1.00  0.00    -0.327 N 
ATOM      3  H3  UNL     1      30.386 136.265 146.532  1.00  0.00     0.168 HD
HETATM    4  C3  UNL     1      29.668 137.982 147.509  1.00  0.00     0.133 A 
HETATM    5  N4  UNL     1      30.818 138.624 148.034  1.00  0.00    -0.081 NA
HETATM    6  C4  UNL     1      28.349 138.427 147.634  1.00  0.00     0.135 A 
HETATM    7  N5  UNL     1      27.552 137.538 146.997  1.00  0.00    -0.346 N 
ATOM      8  H5  UNL     1      26.537 137.598 146.919  1.00  0.00     0.167 HD
ENDROOT
BRANCH   1   9
HETATM    9  C1  UNL     1      27.838 135.410 145.717  1.00  0.00     0.154 C 
HETATM   10  N1  UNL     1      27.465 134.356 146.344  1.00  0.00    -0.385 N 
ATOM     11  H12 UNL     1      27.128 133.554 145.811  1.00  0.00     0.157 HD
ATOM     12  H11 UNL     1      27.513 134.338 147.363  1.00  0.00     0.157 HD
HETATM   13  N2  UNL     1      27.772 135.434 144.304  1.00  0.00    -0.079 NA
ENDBRANCH   1   9
TORSDOF 1
ENDMDL
MODEL 5
REMARK VINA RESULT: -3.650538446     12.446     13.483
REMARK  1 active torsions:
REMARK  status: ('A' for Active; 'I' for Inactive)
REMARK    1  A    between atoms: C1_4  and  C2_6 
ROOT
HETATM    1  C2  UNL     1      28.318 136.505 146.397  1.00  0.00     0.148 A 
HETATM    2  N3  UNL     1      29.573 136.815 146.713  1.00  0.00    -0.327 N 
ATOM      3  H3  UNL     1      30.390 136.273 146.429  1.00  0.00     0.168 HD
HETATM    4  C3  UNL     1      29.624 137.938 147.458  1.00  0.00     0.133 A 
HETATM    5  N4  UNL     1      30.756 138.602 147.996  1.00  0.00    -0.081 NA
HETATM    6  C4  UNL     1      28.293 138.337 147.602  1.00  0.00     0.135 A 
HETATM    7  N5  UNL     1      27.520 137.442 146.943  1.00  0.00    -0.346 N 
ATOM      8  H5  UNL     1      26.503 137.473 146.872  1.00  0.00     0.167 HD
ENDROOT
BRANCH   1   9
HETATM    9  C1  UNL     1      27.866 135.361 145.602  1.00  0.00     0.154 C 
HETATM   10  N1  UNL     1      27.770 135.485 144.330  1.00  0.00    -0.385 N 
ATOM     11  H12 UNL     1      27.454 134.688 143.776  1.00  0.00     0.157 HD
ATOM     12  H11 UNL     1      28.009 136.376 143.895  1.00  0.00     0.157 HD
HETATM   13  N2  UNL     1      27.533 134.125 146.205  1.00  0.00    -0.079 NA
ENDBRANCH   1   9
TORSDOF 1
ENDMDL
