MODEL 1
REMARK VINA RESULT: -7.487928012      0.000      0.000
REMARK  7 active torsions:
REMARK  status: ('A' for Active; 'I' for Inactive)
REMARK    1  A    between atoms: C2_2  and  O1_3 
REMARK    2  A    between atoms: C2_2  and  C10_18 
REMARK    3  A    between atoms: O1_3  and  C3_4 
REMARK    4  A    between atoms: C3_4  and  C4_6 
REMARK    5  A    between atoms: C7_9  and  N1_10 
REMARK    6  A    between atoms: C9_14  and  N2_15 
REMARK    7  A    between atoms: C10_18  and  C12_20 
ROOT
HETATM    1  C1  UNL     1     -13.000 -55.907 -26.954  1.00  0.00     0.040 C 
HETATM    2  C2  UNL     1     -13.912 -56.173 -28.109  1.00  0.00     0.134 C 
ENDROOT
BRANCH   2   3
HETATM    3  O1  UNL     1     -13.158 -56.621 -29.203  1.00  0.00    -0.312 OA
BRANCH   3   4
HETATM    4  C3  UNL     1     -13.001 -55.807 -30.359  1.00  0.00     0.296 C 
HETATM    5  O2  UNL     1     -14.065 -55.438 -30.862  1.00  0.00    -0.259 OA
BRANCH   4   6
HETATM    6  C4  UNL     1     -11.661 -55.497 -30.824  1.00  0.00     0.072 A 
HETATM    7  C5  UNL     1     -10.769 -54.916 -29.891  1.00  0.00     0.022 A 
HETATM    8  C6  UNL     1      -9.508 -54.518 -30.225  1.00  0.00     0.037 A 
HETATM    9  C7  UNL     1      -9.040 -54.668 -31.517  1.00  0.00     0.105 A 
HETATM   10  C8  UNL     1      -9.875 -55.226 -32.433  1.00  0.00     0.073 A 
HETATM   11  C9  UNL     1     -11.190 -55.642 -32.081  1.00  0.00     0.121 A 
BRANCH   9  12
HETATM   12  N1  UNL     1      -7.719 -54.245 -31.852  1.00  0.00    -0.116 N 
HETATM   13  O3  UNL     1      -7.385 -54.123 -33.045  1.00  0.00    -0.532 OA
HETATM   14  O4  UNL     1      -6.816 -53.973 -30.880  1.00  0.00    -0.532 OA
ENDBRANCH   9  12
BRANCH  11  15
HETATM   15  N2  UNL     1     -11.956 -56.210 -33.126  1.00  0.00    -0.115 N 
HETATM   16  O5  UNL     1     -12.649 -55.589 -33.896  1.00  0.00    -0.532 OA
HETATM   17  O6  UNL     1     -11.977 -57.598 -33.236  1.00  0.00    -0.532 OA
ENDBRANCH  11  15
ENDBRANCH   4   6
ENDBRANCH   3   4
ENDBRANCH   2   3
BRANCH   2  18
HETATM   18  C10 UNL     1     -15.080 -57.083 -27.803  1.00  0.00     0.042 C 
HETATM   19  C11 UNL     1     -14.793 -57.535 -26.352  1.00  0.00     0.015 C 
BRANCH  18  20
HETATM   20  C12 UNL     1     -15.048 -58.255 -28.718  1.00  0.00     0.197 C 
HETATM   21  N3  UNL     1     -15.687 -58.110 -29.996  1.00  0.00    -0.066 N 
HETATM   22  C13 UNL     1     -16.245 -59.424 -30.364  1.00  0.00     0.191 C 
ATOM     23  H32 UNL     1     -16.383 -57.364 -30.011  1.00  0.00     0.278 HD
ATOM     24  H31 UNL     1     -15.066 -57.727 -30.710  1.00  0.00     0.278 HD
HETATM   25  C14 UNL     1     -15.513 -60.354 -29.366  1.00  0.00     0.040 C 
HETATM   26  C21 UNL     1     -17.572 -59.568 -29.771  1.00  0.00     0.021 C 
HETATM   27  C15 UNL     1     -15.857 -59.445 -28.163  1.00  0.00     0.023 C 
HETATM   28  C16 UNL     1     -17.271 -59.097 -28.333  1.00  0.00    -0.002 C 
HETATM   29  C17 UNL     1     -18.294 -59.739 -27.497  1.00  0.00     0.005 C 
HETATM   30  C18 UNL     1     -19.649 -59.227 -27.935  1.00  0.00     0.000 C 
HETATM   31  C19 UNL     1     -19.907 -59.247 -29.392  1.00  0.00     0.000 C 
HETATM   32  C20 UNL     1     -18.713 -58.798 -30.249  1.00  0.00     0.007 C 
ENDBRANCH  18  20
ENDBRANCH   2  18
TORSDOF 7
ENDMDL
MODEL 2
REMARK VINA RESULT: -7.392025971      4.146      6.564
REMARK  7 active torsions:
REMARK  status: ('A' for Active; 'I' for Inactive)
REMARK    1  A    between atoms: C2_2  and  O1_3 
REMARK    2  A    between atoms: C2_2  and  C10_18 
REMARK    3  A    between atoms: O1_3  and  C3_4 
REMARK    4  A    between atoms: C3_4  and  C4_6 
REMARK    5  A    between atoms: C7_9  and  N1_10 
REMARK    6  A    between atoms: C9_14  and  N2_15 
REMARK    7  A    between atoms: C10_18  and  C12_20 
ROOT
HETATM    1  C1  UNL     1      -9.619 -53.983 -33.029  1.00  0.00     0.040 C 
HETATM    2  C2  UNL     1      -9.243 -55.429 -32.958  1.00  0.00     0.134 C 
ENDROOT
BRANCH   2   3
HETATM    3  O1  UNL     1      -8.750 -55.719 -31.678  1.00  0.00    -0.312 OA
BRANCH   3   4
HETATM    4  C3  UNL     1      -7.933 -54.783 -30.985  1.00  0.00     0.296 C 
HETATM    5  O2  UNL     1      -6.887 -54.498 -31.573  1.00  0.00    -0.259 OA
BRANCH   4   6
HETATM    6  C4  UNL     1      -8.383 -54.270 -29.703  1.00  0.00     0.072 A 
HETATM    7  C5  UNL     1      -9.769 -54.345 -29.425  1.00  0.00     0.022 A 
HETATM    8  C6  UNL     1     -10.322 -53.835 -28.287  1.00  0.00     0.037 A 
HETATM    9  C7  UNL     1      -9.533 -53.212 -27.339  1.00  0.00     0.105 A 
HETATM   10  C8  UNL     1      -8.198 -53.128 -27.579  1.00  0.00     0.073 A 
HETATM   11  C9  UNL     1      -7.624 -53.662 -28.767  1.00  0.00     0.121 A 
BRANCH   9  12
HETATM   12  N1  UNL     1     -10.126 -52.682 -26.154  1.00  0.00    -0.116 N 
HETATM   13  O3  UNL     1      -9.687 -51.630 -25.651  1.00  0.00    -0.532 OA
HETATM   14  O4  UNL     1     -11.169 -53.314 -25.564  1.00  0.00    -0.532 OA
ENDBRANCH   9  12
BRANCH  11  15
HETATM   15  N2  UNL     1      -6.223 -53.513 -28.894  1.00  0.00    -0.115 N 
HETATM   16  O5  UNL     1      -5.401 -54.306 -28.501  1.00  0.00    -0.532 OA
HETATM   17  O6  UNL     1      -5.743 -52.328 -29.447  1.00  0.00    -0.532 OA
ENDBRANCH  11  15
ENDBRANCH   4   6
ENDBRANCH   3   4
ENDBRANCH   2   3
BRANCH   2  18
HETATM   18  C10 UNL     1     -10.327 -56.391 -33.389  1.00  0.00     0.042 C 
HETATM   19  C11 UNL     1     -10.745 -55.840 -34.774  1.00  0.00     0.015 C 
BRANCH  18  20
HETATM   20  C12 UNL     1     -11.469 -56.308 -32.442  1.00  0.00     0.197 C 
HETATM   21  N3  UNL     1     -11.923 -57.535 -31.849  1.00  0.00    -0.066 N 
HETATM   22  C13 UNL     1     -13.381 -57.420 -31.655  1.00  0.00     0.191 C 
ATOM     23  H32 UNL     1     -11.658 -58.360 -32.389  1.00  0.00     0.278 HD
ATOM     24  H31 UNL     1     -11.425 -57.771 -30.991  1.00  0.00     0.278 HD
HETATM   25  C14 UNL     1     -13.590 -55.897 -31.830  1.00  0.00     0.040 C 
HETATM   26  C21 UNL     1     -14.064 -57.817 -32.884  1.00  0.00     0.021 C 
HETATM   27  C15 UNL     1     -12.771 -55.867 -33.142  1.00  0.00     0.023 C 
HETATM   28  C16 UNL     1     -13.236 -57.022 -33.914  1.00  0.00    -0.002 C 
HETATM   29  C17 UNL     1     -14.134 -56.829 -35.061  1.00  0.00     0.005 C 
HETATM   30  C18 UNL     1     -14.483 -58.191 -35.620  1.00  0.00     0.000 C 
HETATM   31  C19 UNL     1     -14.916 -59.204 -34.630  1.00  0.00     0.000 C 
HETATM   32  C20 UNL     1     -14.096 -59.203 -33.331  1.00  0.00     0.007 C 
ENDBRANCH  18  20
ENDBRANCH   2  18
TORSDOF 7
ENDMDL
MODEL 3
REMARK VINA RESULT: -7.391210786      1.804      2.859
REMARK  7 active torsions:
REMARK  status: ('A' for Active; 'I' for Inactive)
REMARK    1  A    between atoms: C2_2  and  O1_3 
REMARK    2  A    between atoms: C2_2  and  C10_18 
REMARK    3  A    between atoms: O1_3  and  C3_4 
REMARK    4  A    between atoms: C3_4  and  C4_6 
REMARK    5  A    between atoms: C7_9  and  N1_10 
REMARK    6  A    between atoms: C9_14  and  N2_15 
REMARK    7  A    between atoms: C10_18  and  C12_20 
ROOT
HETATM    1  C1  UNL     1     -13.518 -55.867 -28.025  1.00  0.00     0.040 C 
HETATM    2  C2  UNL     1     -13.938 -56.639 -29.235  1.00  0.00     0.134 C 
ENDROOT
BRANCH   2   3
HETATM    3  O1  UNL     1     -12.854 -56.743 -30.119  1.00  0.00    -0.312 OA
BRANCH   3   4
HETATM    4  C3  UNL     1     -12.358 -55.597 -30.799  1.00  0.00     0.296 C 
HETATM    5  O2  UNL     1     -13.215 -54.981 -31.436  1.00  0.00    -0.259 OA
BRANCH   4   6
HETATM    6  C4  UNL     1     -10.948 -55.269 -30.686  1.00  0.00     0.072 A 
HETATM    7  C5  UNL     1     -10.509 -54.699 -29.467  1.00  0.00     0.022 A 
HETATM    8  C6  UNL     1      -9.225 -54.285 -29.266  1.00  0.00     0.037 A 
HETATM    9  C7  UNL     1      -8.280 -54.409 -30.265  1.00  0.00     0.105 A 
HETATM   10  C8  UNL     1      -8.673 -54.955 -31.446  1.00  0.00     0.073 A 
HETATM   11  C9  UNL     1     -10.013 -55.387 -31.653  1.00  0.00     0.121 A 
BRANCH   9  12
HETATM   12  N1  UNL     1      -6.941 -53.970 -30.040  1.00  0.00    -0.116 N 
HETATM   13  O3  UNL     1      -6.209 -53.673 -31.004  1.00  0.00    -0.532 OA
HETATM   14  O4  UNL     1      -6.451 -53.870 -28.782  1.00  0.00    -0.532 OA
ENDBRANCH   9  12
BRANCH  11  15
HETATM   15  N2  UNL     1     -10.291 -55.942 -32.925  1.00  0.00    -0.115 N 
HETATM   16  O5  UNL     1     -10.576 -55.308 -33.912  1.00  0.00    -0.532 OA
HETATM   17  O6  UNL     1     -10.313 -57.330 -33.038  1.00  0.00    -0.532 OA
ENDBRANCH  11  15
ENDBRANCH   4   6
ENDBRANCH   3   4
ENDBRANCH   2   3
BRANCH   2  18
HETATM   18  C10 UNL     1     -14.578 -57.978 -28.947  1.00  0.00     0.042 C 
HETATM   19  C11 UNL     1     -15.025 -58.454 -30.350  1.00  0.00     0.015 C 
BRANCH  18  20
HETATM   20  C12 UNL     1     -15.764 -57.783 -28.073  1.00  0.00     0.197 C 
HETATM   21  N3  UNL     1     -15.531 -57.672 -26.660  1.00  0.00    -0.066 N 
HETATM   22  C13 UNL     1     -16.688 -58.273 -25.972  1.00  0.00     0.191 C 
ATOM     23  H32 UNL     1     -14.641 -58.080 -26.371  1.00  0.00     0.278 HD
ATOM     24  H31 UNL     1     -15.343 -56.716 -26.362  1.00  0.00     0.278 HD
HETATM   25  C14 UNL     1     -17.718 -58.352 -27.124  1.00  0.00     0.040 C 
HETATM   26  C21 UNL     1     -16.481 -59.714 -25.845  1.00  0.00     0.021 C 
HETATM   27  C15 UNL     1     -16.697 -59.011 -28.081  1.00  0.00     0.023 C 
HETATM   28  C16 UNL     1     -16.029 -60.042 -27.283  1.00  0.00    -0.002 C 
HETATM   29  C17 UNL     1     -16.366 -61.459 -27.476  1.00  0.00     0.005 C 
HETATM   30  C18 UNL     1     -15.564 -62.273 -26.484  1.00  0.00     0.000 C 
HETATM   31  C19 UNL     1     -15.590 -61.793 -25.083  1.00  0.00     0.000 C 
HETATM   32  C20 UNL     1     -15.482 -60.267 -24.940  1.00  0.00     0.007 C 
ENDBRANCH  18  20
ENDBRANCH   2  18
TORSDOF 7
ENDMDL
MODEL 4
REMARK VINA RESULT: -7.214669280      4.073      5.903
REMARK  7 active torsions:
REMARK  status: ('A' for Active; 'I' for Inactive)
REMARK    1  A    between atoms: C2_2  and  O1_3 
REMARK    2  A    between atoms: C2_2  and  C10_18 
REMARK    3  A    between atoms: O1_3  and  C3_4 
REMARK    4  A    between atoms: C3_4  and  C4_6 
REMARK    5  A    between atoms: C7_9  and  N1_10 
REMARK    6  A    between atoms: C9_14  and  N2_15 
REMARK    7  A    between atoms: C10_18  and  C12_20 
ROOT
HETATM    1  C1  UNL     1     -10.172 -57.342 -31.589  1.00  0.00     0.040 C 
HETATM    2  C2  UNL     1     -11.093 -56.428 -32.334  1.00  0.00     0.134 C 
ENDROOT
BRANCH   2   3
HETATM    3  O1  UNL     1     -10.973 -55.129 -31.821  1.00  0.00    -0.312 OA
BRANCH   3   4
HETATM    4  C3  UNL     1     -10.729 -54.914 -30.437  1.00  0.00     0.296 C 
HETATM    5  O2  UNL     1     -11.677 -55.211 -29.707  1.00  0.00    -0.259 OA
BRANCH   4   6
HETATM    6  C4  UNL     1      -9.440 -54.387 -30.024  1.00  0.00     0.072 A 
HETATM    7  C5  UNL     1      -8.460 -54.209 -31.030  1.00  0.00     0.022 A 
HETATM    8  C6  UNL     1      -7.192 -53.787 -30.759  1.00  0.00     0.037 A 
HETATM    9  C7  UNL     1      -6.803 -53.511 -29.462  1.00  0.00     0.105 A 
HETATM   10  C8  UNL     1      -7.725 -53.671 -28.476  1.00  0.00     0.073 A 
HETATM   11  C9  UNL     1      -9.049 -54.110 -28.763  1.00  0.00     0.121 A 
BRANCH   9  12
HETATM   12  N1  UNL     1      -5.473 -53.072 -29.193  1.00  0.00    -0.116 N 
HETATM   13  O3  UNL     1      -4.568 -53.904 -28.989  1.00  0.00    -0.532 OA
HETATM   14  O4  UNL     1      -5.177 -51.750 -29.156  1.00  0.00    -0.532 OA
ENDBRANCH   9  12
BRANCH  11  15
HETATM   15  N2  UNL     1      -9.911 -54.232 -27.648  1.00  0.00    -0.115 N 
HETATM   16  O5  UNL     1     -10.413 -53.309 -27.053  1.00  0.00    -0.532 OA
HETATM   17  O6  UNL     1     -10.145 -55.510 -27.144  1.00  0.00    -0.532 OA
ENDBRANCH  11  15
ENDBRANCH   4   6
ENDBRANCH   3   4
ENDBRANCH   2   3
BRANCH   2  18
HETATM   18  C10 UNL     1     -10.952 -56.469 -33.839  1.00  0.00     0.042 C 
HETATM   19  C11 UNL     1     -10.127 -55.196 -34.141  1.00  0.00     0.015 C 
BRANCH  18  20
HETATM   20  C12 UNL     1     -12.296 -56.367 -34.466  1.00  0.00     0.197 C 
HETATM   21  N3  UNL     1     -13.437 -56.522 -33.607  1.00  0.00    -0.066 N 
HETATM   22  C13 UNL     1     -14.500 -57.169 -34.397  1.00  0.00     0.191 C 
ATOM     23  H32 UNL     1     -13.221 -57.023 -32.745  1.00  0.00     0.278 HD
ATOM     24  H31 UNL     1     -13.736 -55.645 -33.180  1.00  0.00     0.278 HD
HETATM   25  C14 UNL     1     -13.963 -56.985 -35.837  1.00  0.00     0.040 C 
HETATM   26  C21 UNL     1     -14.325 -58.619 -34.346  1.00  0.00     0.021 C 
HETATM   27  C15 UNL     1     -12.562 -57.520 -35.454  1.00  0.00     0.023 C 
HETATM   28  C16 UNL     1     -12.813 -58.712 -34.639  1.00  0.00    -0.002 C 
HETATM   29  C17 UNL     1     -12.616 -60.051 -35.210  1.00  0.00     0.005 C 
HETATM   30  C18 UNL     1     -13.002 -61.071 -34.162  1.00  0.00     0.000 C 
HETATM   31  C19 UNL     1     -14.302 -60.847 -33.490  1.00  0.00     0.000 C 
HETATM   32  C20 UNL     1     -14.578 -59.379 -33.129  1.00  0.00     0.007 C 
ENDBRANCH  18  20
ENDBRANCH   2  18
TORSDOF 7
ENDMDL
MODEL 5
REMARK VINA RESULT: -7.196579389      4.030      6.415
REMARK  7 active torsions:
REMARK  status: ('A' for Active; 'I' for Inactive)
REMARK    1  A    between atoms: C2_2  and  O1_3 
REMARK    2  A    between atoms: C2_2  and  C10_18 
REMARK    3  A    between atoms: O1_3  and  C3_4 
REMARK    4  A    between atoms: C3_4  and  C4_6 
REMARK    5  A    between atoms: C7_9  and  N1_10 
REMARK    6  A    between atoms: C9_14  and  N2_15 
REMARK    7  A    between atoms: C10_18  and  C12_20 
ROOT
HETATM    1  C1  UNL     1      -9.819 -54.707 -34.552  1.00  0.00     0.040 C 
HETATM    2  C2  UNL     1      -9.912 -55.972 -33.758  1.00  0.00     0.134 C 
ENDROOT
BRANCH   2   3
HETATM    3  O1  UNL     1     -10.353 -55.674 -32.461  1.00  0.00    -0.312 OA
BRANCH   3   4
HETATM    4  C3  UNL     1      -9.633 -56.137 -31.325  1.00  0.00     0.296 C 
HETATM    5  O2  UNL     1      -9.048 -57.208 -31.502  1.00  0.00    -0.259 OA
BRANCH   4   6
HETATM    6  C4  UNL     1      -9.649 -55.341 -30.111  1.00  0.00     0.072 A 
HETATM    7  C5  UNL     1     -10.673 -55.611 -29.171  1.00  0.00     0.022 A 
HETATM    8  C6  UNL     1     -10.836 -54.887 -28.027  1.00  0.00     0.037 A 
HETATM    9  C7  UNL     1      -9.988 -53.836 -27.732  1.00  0.00     0.105 A 
HETATM   10  C8  UNL     1      -8.994 -53.556 -28.615  1.00  0.00     0.073 A 
HETATM   11  C9  UNL     1      -8.826 -54.314 -29.808  1.00  0.00     0.121 A 
BRANCH   9  12
HETATM   12  N1  UNL     1     -10.171 -53.087 -26.532  1.00  0.00    -0.116 N 
HETATM   13  O3  UNL     1     -11.195 -53.250 -25.842  1.00  0.00    -0.532 OA
HETATM   14  O4  UNL     1      -9.237 -52.192 -26.129  1.00  0.00    -0.532 OA
ENDBRANCH   9  12
BRANCH  11  15
HETATM   15  N2  UNL     1      -7.752 -53.922 -30.640  1.00  0.00    -0.115 N 
HETATM   16  O5  UNL     1      -7.848 -53.629 -31.808  1.00  0.00    -0.532 OA
HETATM   17  O6  UNL     1      -6.468 -53.944 -30.099  1.00  0.00    -0.532 OA
ENDBRANCH  11  15
ENDBRANCH   4   6
ENDBRANCH   3   4
ENDBRANCH   2   3
BRANCH   2  18
HETATM   18  C10 UNL     1     -10.723 -57.072 -34.404  1.00  0.00     0.042 C 
HETATM   19  C11 UNL     1     -10.155 -57.120 -35.842  1.00  0.00     0.015 C 
BRANCH  18  20
HETATM   20  C12 UNL     1     -12.156 -56.678 -34.436  1.00  0.00     0.197 C 
HETATM   21  N3  UNL     1     -12.970 -57.061 -33.316  1.00  0.00    -0.066 N 
HETATM   22  C13 UNL     1     -14.328 -57.326 -33.825  1.00  0.00     0.191 C 
ATOM     23  H32 UNL     1     -12.582 -57.846 -32.792  1.00  0.00     0.278 HD
ATOM     24  H31 UNL     1     -12.955 -56.376 -32.560  1.00  0.00     0.278 HD
HETATM   25  C14 UNL     1     -14.258 -56.676 -35.228  1.00  0.00     0.040 C 
HETATM   26  C21 UNL     1     -14.407 -58.708 -34.294  1.00  0.00     0.021 C 
HETATM   27  C15 UNL     1     -12.928 -57.390 -35.566  1.00  0.00     0.023 C 
HETATM   28  C16 UNL     1     -13.112 -58.777 -35.128  1.00  0.00    -0.002 C 
HETATM   29  C17 UNL     1     -13.350 -59.837 -36.117  1.00  0.00     0.005 C 
HETATM   30  C18 UNL     1     -13.555 -61.138 -35.373  1.00  0.00     0.000 C 
HETATM   31  C19 UNL     1     -14.508 -61.092 -34.241  1.00  0.00     0.000 C 
HETATM   32  C20 UNL     1     -14.387 -59.833 -33.368  1.00  0.00     0.007 C 
ENDBRANCH  18  20
ENDBRANCH   2  18
TORSDOF 7
ENDMDL
