MODEL 1
REMARK VINA RESULT: -8.718845993      0.000      0.000
REMARK  7 active torsions:
REMARK  status: ('A' for Active; 'I' for Inactive)
REMARK    1  A    between atoms: O1_1  and  C1_3 
REMARK    2  A    between atoms: C1_3  and  C2_4 
REMARK    3  A    between atoms: C2_4  and  S1_5 
REMARK    4  A    between atoms: S1_5  and  C3_6 
REMARK    5  A    between atoms: C8_17  and  C9_18 
REMARK    6  A    between atoms: C9_18  and  C10_19 
REMARK    7  A    between atoms: N4_27  and  C17_29 
ROOT
HETATM    1  C3  UNL     1     -11.459 -57.378 -34.830  1.00  0.00     0.159 A 
HETATM    2  N1  UNL     1     -10.833 -56.500 -35.577  1.00  0.00    -0.278 N 
ATOM      3  H1  UNL     1     -10.981 -56.558 -36.584  1.00  0.00     0.189 HD
HETATM    4  N2  UNL     1     -10.016 -55.532 -35.133  1.00  0.00    -0.276 N 
ATOM      5  H2  UNL     1      -9.566 -54.885 -35.781  1.00  0.00     0.189 HD
HETATM    6  C4  UNL     1      -9.814 -55.444 -33.815  1.00  0.00     0.180 A 
HETATM    7  C5  UNL     1     -10.449 -56.345 -32.953  1.00  0.00     0.064 A 
HETATM    8  N3  UNL     1     -11.234 -57.265 -33.456  1.00  0.00    -0.336 N 
ATOM      9  H3  UNL     1     -11.695 -57.919 -32.824  1.00  0.00     0.168 HD
HETATM   10  C6  UNL     1     -10.319 -56.370 -31.450  1.00  0.00     0.062 C 
HETATM   11  C7  UNL     1      -8.973 -55.905 -31.079  1.00  0.00     0.013 C 
HETATM   12  C8  UNL     1      -8.778 -54.419 -30.870  1.00  0.00     0.011 C 
HETATM   13  C16 UNL     1      -8.948 -53.678 -32.189  1.00  0.00     0.182 C 
HETATM   14  O2  UNL     1      -8.973 -54.458 -33.344  1.00  0.00    -0.333 OA
ENDROOT
BRANCH   1  15
HETATM   15  S1  UNL     1     -12.560 -58.672 -35.302  1.00  0.00    -0.085 SA
BRANCH  15  16
HETATM   16  C2  UNL     1     -14.193 -58.471 -34.644  1.00  0.00     0.166 C 
BRANCH  16  17
HETATM   17  C1  UNL     1     -14.235 -57.898 -33.282  1.00  0.00     0.126 C 
HETATM   18  N4  UNL     1     -14.177 -58.587 -32.108  1.00  0.00    -0.334 N 
ATOM     19  H4  UNL     1     -14.074 -59.601 -32.143  1.00  0.00     0.168 HD
BRANCH  17  20
HETATM   20  O1  UNL     1     -14.338 -56.591 -33.317  1.00  0.00    -0.349 OA
ATOM     21  H1  UNL     1     -13.510 -56.173 -33.110  1.00  0.00     0.219 HD
ENDBRANCH  17  20
BRANCH  18  22
HETATM   22  C17 UNL     1     -14.255 -57.943 -30.810  1.00  0.00     0.075 A 
HETATM   23  C18 UNL     1     -13.707 -56.786 -30.345  1.00  0.00     0.038 A 
HETATM   24  C19 UNL     1     -13.935 -56.446 -29.073  1.00  0.00     0.010 A 
HETATM   25  C20 UNL     1     -14.702 -57.280 -28.311  1.00  0.00     0.052 A 
HETATM   26  S2  UNL     1     -15.084 -58.526 -29.418  1.00  0.00    -0.084 SA
ENDBRANCH  18  22
ENDBRANCH  16  17
ENDBRANCH  15  16
ENDBRANCH   1  15
BRANCH  12  27
HETATM   27  C9  UNL     1      -9.690 -53.925 -29.801  1.00  0.00     0.011 C 
BRANCH  27  28
HETATM   28  C10 UNL     1      -9.471 -54.294 -28.397  1.00  0.00    -0.014 C 
HETATM   29  C11 UNL     1      -9.235 -53.347 -27.321  1.00  0.00     0.005 C 
HETATM   30  C12 UNL     1     -10.455 -52.775 -26.614  1.00  0.00     0.000 C 
HETATM   31  C13 UNL     1     -11.232 -53.864 -25.903  1.00  0.00     0.000 C 
HETATM   32  C14 UNL     1     -10.957 -55.186 -26.547  1.00  0.00     0.000 C 
HETATM   33  C15 UNL     1     -10.737 -55.108 -28.016  1.00  0.00     0.005 C 
ENDBRANCH  27  28
ENDBRANCH  12  27
TORSDOF 7
ENDMDL
MODEL 2
REMARK VINA RESULT: -8.410359666      2.283      3.323
REMARK  7 active torsions:
REMARK  status: ('A' for Active; 'I' for Inactive)
REMARK    1  A    between atoms: O1_1  and  C1_3 
REMARK    2  A    between atoms: C1_3  and  C2_4 
REMARK    3  A    between atoms: C2_4  and  S1_5 
REMARK    4  A    between atoms: S1_5  and  C3_6 
REMARK    5  A    between atoms: C8_17  and  C9_18 
REMARK    6  A    between atoms: C9_18  and  C10_19 
REMARK    7  A    between atoms: N4_27  and  C17_29 
ROOT
HETATM    1  C3  UNL     1     -14.200 -58.306 -33.080  1.00  0.00     0.159 A 
HETATM    2  N1  UNL     1     -14.381 -57.277 -33.874  1.00  0.00    -0.278 N 
ATOM      3  H1  UNL     1     -15.217 -57.281 -34.457  1.00  0.00     0.189 HD
HETATM    4  N2  UNL     1     -13.563 -56.219 -33.987  1.00  0.00    -0.276 N 
ATOM      5  H2  UNL     1     -13.774 -55.456 -34.630  1.00  0.00     0.189 HD
HETATM    6  C4  UNL     1     -12.462 -56.199 -33.228  1.00  0.00     0.180 A 
HETATM    7  C5  UNL     1     -12.202 -57.260 -32.354  1.00  0.00     0.064 A 
HETATM    8  N3  UNL     1     -13.045 -58.261 -32.296  1.00  0.00    -0.336 N 
ATOM      9  H3  UNL     1     -12.852 -59.032 -31.656  1.00  0.00     0.168 HD
HETATM   10  C6  UNL     1     -11.008 -57.378 -31.438  1.00  0.00     0.062 C 
HETATM   11  C7  UNL     1      -9.855 -56.716 -32.070  1.00  0.00     0.013 C 
HETATM   12  C8  UNL     1      -9.662 -55.240 -31.801  1.00  0.00     0.011 C 
HETATM   13  C16 UNL     1     -10.792 -54.440 -32.435  1.00  0.00     0.182 C 
HETATM   14  O2  UNL     1     -11.609 -55.121 -33.336  1.00  0.00    -0.333 OA
ENDROOT
BRANCH   1  15
HETATM   15  S1  UNL     1     -15.210 -59.730 -32.841  1.00  0.00    -0.085 SA
BRANCH  15  16
HETATM   16  C2  UNL     1     -16.174 -59.659 -31.356  1.00  0.00     0.166 C 
BRANCH  16  17
HETATM   17  C1  UNL     1     -15.477 -59.047 -30.206  1.00  0.00     0.126 C 
HETATM   18  N4  UNL     1     -15.524 -57.739 -29.829  1.00  0.00    -0.334 N 
ATOM     19  H4  UNL     1     -16.109 -57.098 -30.365  1.00  0.00     0.168 HD
BRANCH  17  20
HETATM   20  O1  UNL     1     -14.769 -59.935 -29.549  1.00  0.00    -0.349 OA
ATOM     21  H1  UNL     1     -13.839 -59.816 -29.699  1.00  0.00     0.219 HD
ENDBRANCH  17  20
BRANCH  18  22
HETATM   22  C17 UNL     1     -14.780 -57.216 -28.698  1.00  0.00     0.075 A 
HETATM   23  C18 UNL     1     -14.904 -57.435 -27.360  1.00  0.00     0.038 A 
HETATM   24  C19 UNL     1     -14.078 -56.786 -26.534  1.00  0.00     0.010 A 
HETATM   25  C20 UNL     1     -13.158 -55.938 -27.080  1.00  0.00     0.052 A 
HETATM   26  S2  UNL     1     -13.485 -56.082 -28.752  1.00  0.00    -0.084 SA
ENDBRANCH  18  22
ENDBRANCH  16  17
ENDBRANCH  15  16
ENDBRANCH   1  15
BRANCH  12  27
HETATM   27  C9  UNL     1      -9.523 -54.996 -30.339  1.00  0.00     0.011 C 
BRANCH  27  28
HETATM   28  C10 UNL     1      -8.715 -53.878 -29.837  1.00  0.00    -0.014 C 
HETATM   29  C11 UNL     1      -8.297 -53.716 -28.455  1.00  0.00     0.005 C 
HETATM   30  C12 UNL     1      -6.996 -54.384 -28.036  1.00  0.00     0.000 C 
HETATM   31  C13 UNL     1      -5.818 -53.800 -28.786  1.00  0.00     0.000 C 
HETATM   32  C14 UNL     1      -6.283 -53.202 -30.076  1.00  0.00     0.000 C 
HETATM   33  C15 UNL     1      -7.424 -53.925 -30.699  1.00  0.00     0.005 C 
ENDBRANCH  27  28
ENDBRANCH  12  27
TORSDOF 7
ENDMDL
MODEL 3
REMARK VINA RESULT: -8.403054748      3.414      7.075
REMARK  7 active torsions:
REMARK  status: ('A' for Active; 'I' for Inactive)
REMARK    1  A    between atoms: O1_1  and  C1_3 
REMARK    2  A    between atoms: C1_3  and  C2_4 
REMARK    3  A    between atoms: C2_4  and  S1_5 
REMARK    4  A    between atoms: S1_5  and  C3_6 
REMARK    5  A    between atoms: C8_17  and  C9_18 
REMARK    6  A    between atoms: C9_18  and  C10_19 
REMARK    7  A    between atoms: N4_27  and  C17_29 
ROOT
HETATM    1  C3  UNL     1      -7.215 -54.279 -31.826  1.00  0.00     0.159 A 
HETATM    2  N1  UNL     1      -7.236 -53.961 -33.098  1.00  0.00    -0.278 N 
ATOM      3  H1  UNL     1      -6.411 -53.493 -33.474  1.00  0.00     0.189 HD
HETATM    4  N2  UNL     1      -8.246 -54.196 -33.950  1.00  0.00    -0.276 N 
ATOM      5  H2  UNL     1      -8.186 -53.917 -34.929  1.00  0.00     0.189 HD
HETATM    6  C4  UNL     1      -9.334 -54.808 -33.471  1.00  0.00     0.180 A 
HETATM    7  C5  UNL     1      -9.385 -55.181 -32.123  1.00  0.00     0.064 A 
HETATM    8  N3  UNL     1      -8.361 -54.919 -31.350  1.00  0.00    -0.336 N 
ATOM      9  H3  UNL     1      -8.402 -55.193 -30.368  1.00  0.00     0.168 HD
HETATM   10  C6  UNL     1     -10.538 -55.876 -31.442  1.00  0.00     0.062 C 
HETATM   11  C7  UNL     1     -11.795 -55.454 -32.081  1.00  0.00     0.013 C 
HETATM   12  C8  UNL     1     -12.278 -56.253 -33.271  1.00  0.00     0.011 C 
HETATM   13  C16 UNL     1     -11.325 -56.074 -34.445  1.00  0.00     0.182 C 
HETATM   14  O2  UNL     1     -10.383 -55.053 -34.332  1.00  0.00    -0.333 OA
ENDROOT
BRANCH   1  15
HETATM   15  S1  UNL     1      -5.944 -54.034 -30.628  1.00  0.00    -0.085 SA
BRANCH  15  16
HETATM   16  C2  UNL     1      -6.442 -52.985 -29.289  1.00  0.00     0.166 C 
BRANCH  16  17
HETATM   17  C1  UNL     1      -7.511 -53.550 -28.439  1.00  0.00     0.126 C 
HETATM   18  N4  UNL     1      -8.849 -53.328 -28.560  1.00  0.00    -0.334 N 
ATOM     19  H4  UNL     1      -9.178 -52.731 -29.318  1.00  0.00     0.168 HD
BRANCH  17  20
HETATM   20  O1  UNL     1      -7.017 -54.329 -27.506  1.00  0.00    -0.349 OA
ATOM     21  H1  UNL     1      -7.090 -55.245 -27.746  1.00  0.00     0.219 HD
ENDBRANCH  17  20
BRANCH  18  22
HETATM   22  C17 UNL     1      -9.830 -53.903 -27.658  1.00  0.00     0.075 A 
HETATM   23  C18 UNL     1     -10.414 -55.133 -27.628  1.00  0.00     0.038 A 
HETATM   24  C19 UNL     1     -11.318 -55.381 -26.676  1.00  0.00     0.010 A 
HETATM   25  C20 UNL     1     -11.606 -54.385 -25.788  1.00  0.00     0.052 A 
HETATM   26  S2  UNL     1     -10.587 -53.120 -26.323  1.00  0.00    -0.084 SA
ENDBRANCH  18  22
ENDBRANCH  16  17
ENDBRANCH  15  16
ENDBRANCH   1  15
BRANCH  12  27
HETATM   27  C9  UNL     1     -12.473 -57.679 -32.889  1.00  0.00     0.011 C 
BRANCH  27  28
HETATM   28  C10 UNL     1     -13.446 -58.520 -33.596  1.00  0.00    -0.014 C 
HETATM   29  C11 UNL     1     -14.493 -58.017 -34.470  1.00  0.00     0.005 C 
HETATM   30  C12 UNL     1     -14.138 -57.807 -35.934  1.00  0.00     0.000 C 
HETATM   31  C13 UNL     1     -13.783 -59.120 -36.601  1.00  0.00     0.000 C 
HETATM   32  C14 UNL     1     -13.317 -60.101 -35.573  1.00  0.00     0.000 C 
HETATM   33  C15 UNL     1     -12.572 -59.484 -34.443  1.00  0.00     0.005 C 
ENDBRANCH  27  28
ENDBRANCH  12  27
TORSDOF 7
ENDMDL
MODEL 4
REMARK VINA RESULT: -8.235478160      1.344      1.492
REMARK  7 active torsions:
REMARK  status: ('A' for Active; 'I' for Inactive)
REMARK    1  A    between atoms: O1_1  and  C1_3 
REMARK    2  A    between atoms: C1_3  and  C2_4 
REMARK    3  A    between atoms: C2_4  and  S1_5 
REMARK    4  A    between atoms: S1_5  and  C3_6 
REMARK    5  A    between atoms: C8_17  and  C9_18 
REMARK    6  A    between atoms: C9_18  and  C10_19 
REMARK    7  A    between atoms: N4_27  and  C17_29 
ROOT
HETATM    1  C3  UNL     1     -11.510 -57.345 -34.990  1.00  0.00     0.159 A 
HETATM    2  N1  UNL     1     -10.841 -56.464 -35.697  1.00  0.00    -0.278 N 
ATOM      3  H1  UNL     1     -10.962 -56.491 -36.709  1.00  0.00     0.189 HD
HETATM    4  N2  UNL     1     -10.012 -55.530 -35.205  1.00  0.00    -0.276 N 
ATOM      5  H2  UNL     1      -9.527 -54.879 -35.823  1.00  0.00     0.189 HD
HETATM    6  C4  UNL     1      -9.844 -55.483 -33.880  1.00  0.00     0.180 A 
HETATM    7  C5  UNL     1     -10.525 -56.388 -33.060  1.00  0.00     0.064 A 
HETATM    8  N3  UNL     1     -11.320 -57.273 -33.609  1.00  0.00    -0.336 N 
ATOM      9  H3  UNL     1     -11.815 -57.932 -33.007  1.00  0.00     0.168 HD
HETATM   10  C6  UNL     1     -10.438 -56.456 -31.555  1.00  0.00     0.062 C 
HETATM   11  C7  UNL     1      -9.091 -56.037 -31.136  1.00  0.00     0.013 C 
HETATM   12  C8  UNL     1      -8.864 -54.562 -30.881  1.00  0.00     0.011 C 
HETATM   13  C16 UNL     1      -8.978 -53.783 -32.184  1.00  0.00     0.182 C 
HETATM   14  O2  UNL     1      -8.991 -54.531 -33.360  1.00  0.00    -0.333 OA
ENDROOT
BRANCH   1  15
HETATM   15  S1  UNL     1     -12.630 -58.596 -35.526  1.00  0.00    -0.085 SA
BRANCH  15  16
HETATM   16  C2  UNL     1     -14.250 -58.425 -34.829  1.00  0.00     0.166 C 
BRANCH  16  17
HETATM   17  C1  UNL     1     -14.388 -58.982 -33.467  1.00  0.00     0.126 C 
HETATM   18  N4  UNL     1     -15.489 -58.911 -32.668  1.00  0.00    -0.334 N 
ATOM     19  H4  UNL     1     -16.324 -58.450 -33.028  1.00  0.00     0.168 HD
BRANCH  17  20
HETATM   20  O1  UNL     1     -13.288 -59.584 -33.083  1.00  0.00    -0.349 OA
ATOM     21  H1  UNL     1     -13.340 -60.522 -33.222  1.00  0.00     0.219 HD
ENDBRANCH  17  20
BRANCH  18  22
HETATM   22  C17 UNL     1     -15.527 -59.463 -31.326  1.00  0.00     0.075 A 
HETATM   23  C18 UNL     1     -15.232 -58.909 -30.117  1.00  0.00     0.038 A 
HETATM   24  C19 UNL     1     -15.338 -59.677 -29.028  1.00  0.00     0.010 A 
HETATM   25  C20 UNL     1     -15.734 -60.974 -29.191  1.00  0.00     0.052 A 
HETATM   26  S2  UNL     1     -15.947 -61.073 -30.884  1.00  0.00    -0.084 SA
ENDBRANCH  18  22
ENDBRANCH  16  17
ENDBRANCH  15  16
ENDBRANCH   1  15
BRANCH  12  27
HETATM   27  C9  UNL     1      -9.792 -54.073 -29.825  1.00  0.00     0.011 C 
BRANCH  27  28
HETATM   28  C10 UNL     1      -9.571 -54.414 -28.414  1.00  0.00    -0.014 C 
HETATM   29  C11 UNL     1      -9.310 -53.446 -27.362  1.00  0.00     0.005 C 
HETATM   30  C12 UNL     1     -10.515 -52.836 -26.661  1.00  0.00     0.000 C 
HETATM   31  C13 UNL     1     -11.307 -53.894 -25.920  1.00  0.00     0.000 C 
HETATM   32  C14 UNL     1     -11.060 -55.235 -26.535  1.00  0.00     0.000 C 
HETATM   33  C15 UNL     1     -10.849 -55.195 -28.007  1.00  0.00     0.005 C 
ENDBRANCH  27  28
ENDBRANCH  12  27
TORSDOF 7
ENDMDL
MODEL 5
REMARK VINA RESULT: -8.189058984      1.375      1.616
REMARK  7 active torsions:
REMARK  status: ('A' for Active; 'I' for Inactive)
REMARK    1  A    between atoms: O1_1  and  C1_3 
REMARK    2  A    between atoms: C1_3  and  C2_4 
REMARK    3  A    between atoms: C2_4  and  S1_5 
REMARK    4  A    between atoms: S1_5  and  C3_6 
REMARK    5  A    between atoms: C8_17  and  C9_18 
REMARK    6  A    between atoms: C9_18  and  C10_19 
REMARK    7  A    between atoms: N4_27  and  C17_29 
ROOT
HETATM    1  C3  UNL     1     -11.723 -57.121 -34.900  1.00  0.00     0.159 A 
HETATM    2  N1  UNL     1     -10.929 -56.345 -35.599  1.00  0.00    -0.278 N 
ATOM      3  H1  UNL     1     -11.030 -56.368 -36.613  1.00  0.00     0.189 HD
HETATM    4  N2  UNL     1      -9.994 -55.523 -35.097  1.00  0.00    -0.276 N 
ATOM      5  H2  UNL     1      -9.414 -54.948 -35.708  1.00  0.00     0.189 HD
HETATM    6  C4  UNL     1      -9.850 -55.482 -33.768  1.00  0.00     0.180 A 
HETATM    7  C5  UNL     1     -10.663 -56.280 -32.956  1.00  0.00     0.064 A 
HETATM    8  N3  UNL     1     -11.555 -57.059 -33.515  1.00  0.00    -0.336 N 
ATOM      9  H3  UNL     1     -12.147 -57.639 -32.920  1.00  0.00     0.168 HD
HETATM   10  C6  UNL     1     -10.619 -56.341 -31.449  1.00  0.00     0.062 C 
HETATM   11  C7  UNL     1      -9.238 -56.098 -31.002  1.00  0.00     0.013 C 
HETATM   12  C8  UNL     1      -8.823 -54.664 -30.756  1.00  0.00     0.011 C 
HETATM   13  C16 UNL     1      -8.805 -53.891 -32.068  1.00  0.00     0.182 C 
HETATM   14  O2  UNL     1      -8.891 -54.646 -33.237  1.00  0.00    -0.333 OA
ENDROOT
BRANCH   1  15
HETATM   15  S1  UNL     1     -12.987 -58.220 -35.451  1.00  0.00    -0.085 SA
BRANCH  15  16
HETATM   16  C2  UNL     1     -13.315 -59.533 -34.307  1.00  0.00     0.166 C 
BRANCH  16  17
HETATM   17  C1  UNL     1     -14.321 -59.205 -33.276  1.00  0.00     0.126 C 
HETATM   18  N4  UNL     1     -14.818 -60.047 -32.328  1.00  0.00    -0.334 N 
ATOM     19  H4  UNL     1     -14.463 -61.003 -32.290  1.00  0.00     0.168 HD
BRANCH  17  20
HETATM   20  O1  UNL     1     -14.709 -57.955 -33.368  1.00  0.00    -0.349 OA
ATOM     21  H1  UNL     1     -15.596 -57.844 -33.047  1.00  0.00     0.219 HD
ENDBRANCH  17  20
BRANCH  18  22
HETATM   22  C17 UNL     1     -15.831 -59.647 -31.369  1.00  0.00     0.075 A 
HETATM   23  C18 UNL     1     -17.174 -59.872 -31.331  1.00  0.00     0.038 A 
HETATM   24  C19 UNL     1     -17.873 -59.353 -30.318  1.00  0.00     0.010 A 
HETATM   25  C20 UNL     1     -17.201 -58.622 -29.380  1.00  0.00     0.052 A 
HETATM   26  S2  UNL     1     -15.593 -58.691 -29.956  1.00  0.00    -0.084 SA
ENDBRANCH  18  22
ENDBRANCH  16  17
ENDBRANCH  15  16
ENDBRANCH   1  15
BRANCH  12  27
HETATM   27  C9  UNL     1      -9.702 -54.044 -29.725  1.00  0.00     0.011 C 
BRANCH  27  28
HETATM   28  C10 UNL     1      -9.518 -54.347 -28.301  1.00  0.00    -0.014 C 
HETATM   29  C11 UNL     1      -9.273 -53.353 -27.270  1.00  0.00     0.005 C 
HETATM   30  C12 UNL     1     -10.487 -52.712 -26.616  1.00  0.00     0.000 C 
HETATM   31  C13 UNL     1     -11.308 -53.741 -25.866  1.00  0.00     0.000 C 
HETATM   32  C14 UNL     1     -11.061 -55.101 -26.437  1.00  0.00     0.000 C 
HETATM   33  C15 UNL     1     -10.814 -55.104 -27.904  1.00  0.00     0.005 C 
ENDBRANCH  27  28
ENDBRANCH  12  27
TORSDOF 7
ENDMDL
