MODEL 1
REMARK VINA RESULT: -8.538703303      0.000      0.000
REMARK  7 active torsions:
REMARK  status: ('A' for Active; 'I' for Inactive)
REMARK    1  A    between atoms: C6_9  and  C7_10 
REMARK    2  A    between atoms: C7_10  and  N3_11 
REMARK    3  A    between atoms: C7_10  and  C9_15 
REMARK    4  A    between atoms: C9_15  and  C11_18 
REMARK    5  A    between atoms: C11_18  and  C12_20 
REMARK    6  A    between atoms: N6_22  and  C14_23 
REMARK    7  A    between atoms: C18_27  and  C19_28 
ROOT
HETATM    1  C1  UNL     1      -9.811 -54.736 -35.102  1.00  0.00     0.057 C 
HETATM    2  C2  UNL     1     -10.232 -56.157 -35.113  1.00  0.00    -0.006 A 
HETATM    3  S1  UNL     1      -9.409 -57.352 -35.990  1.00  0.00    -0.078 SA
HETATM    4  C3  UNL     1     -10.354 -58.696 -35.596  1.00  0.00     0.109 A 
HETATM    5  N1  UNL     1     -10.168 -60.048 -36.037  1.00  0.00    -0.093 NA
HETATM    6  C4  UNL     1     -11.335 -58.157 -34.752  1.00  0.00     0.089 A 
HETATM    7  C5  UNL     1     -12.324 -59.143 -34.284  1.00  0.00     0.103 C 
HETATM    8  N2  UNL     1     -13.107 -59.966 -33.944  1.00  0.00    -0.191 NA
HETATM    9  C6  UNL     1     -11.272 -56.837 -34.499  1.00  0.00     0.025 A 
ENDROOT
BRANCH   9  10
HETATM   10  C7  UNL     1     -12.217 -56.050 -33.644  1.00  0.00     0.057 C 
BRANCH  10  11
HETATM   11  N3  UNL     1     -13.313 -55.776 -34.207  1.00  0.00    -0.295 N 
HETATM   12  C8  UNL     1     -14.251 -56.311 -34.954  1.00  0.00     0.182 C 
HETATM   13  N4  UNL     1     -15.098 -56.747 -35.599  1.00  0.00    -0.172 NA
ATOM     14  H3  UNL     1     -13.553 -54.803 -34.015  1.00  0.00     0.178 HD
ENDBRANCH  10  11
BRANCH  10  15
HETATM   15  C9  UNL     1     -11.938 -55.514 -32.301  1.00  0.00     0.218 C 
HETATM   16  C10 UNL     1     -13.100 -55.450 -31.447  1.00  0.00     0.078 C 
HETATM   17  N5  UNL     1     -14.036 -55.415 -30.770  1.00  0.00    -0.196 NA
BRANCH  15  18
HETATM   18  C11 UNL     1     -10.776 -56.122 -31.588  1.00  0.00     0.180 C 
HETATM   19  O1  UNL     1     -10.502 -57.336 -31.772  1.00  0.00    -0.291 OA
BRANCH  18  20
HETATM   20  C12 UNL     1      -9.919 -55.366 -30.665  1.00  0.00     0.009 A 
HETATM   21  C13 UNL     1     -10.302 -55.228 -29.402  1.00  0.00     0.102 A 
HETATM   22  N6  UNL     1      -9.558 -54.519 -28.421  1.00  0.00    -0.362 N 
HETATM   23  C17 UNL     1      -8.329 -53.933 -28.867  1.00  0.00     0.094 A 
HETATM   24  C18 UNL     1      -7.903 -54.032 -30.094  1.00  0.00    -0.057 A 
HETATM   25  C22 UNL     1      -8.668 -54.755 -31.129  1.00  0.00     0.079 A 
BRANCH  22  26
HETATM   26  C14 UNL     1     -10.009 -54.396 -27.061  1.00  0.00     0.080 C 
HETATM   27  C15 UNL     1     -10.251 -52.945 -26.731  1.00  0.00     0.032 C 
HETATM   28  C16 UNL     1     -11.304 -55.139 -26.816  1.00  0.00     0.032 C 
ENDBRANCH  22  26
BRANCH  24  29
HETATM   29  C19 UNL     1      -6.627 -53.411 -30.512  1.00  0.00     0.008 C 
HETATM   30  C20 UNL     1      -5.843 -52.835 -29.367  1.00  0.00     0.014 C 
HETATM   31  C21 UNL     1      -5.776 -54.408 -31.302  1.00  0.00     0.014 C 
ENDBRANCH  24  29
ENDBRANCH  18  20
ENDBRANCH  15  18
ENDBRANCH  10  15
ENDBRANCH   9  10
TORSDOF 7
ENDMDL
MODEL 2
REMARK VINA RESULT: -8.417537795      0.513      2.761
REMARK  7 active torsions:
REMARK  status: ('A' for Active; 'I' for Inactive)
REMARK    1  A    between atoms: C6_9  and  C7_10 
REMARK    2  A    between atoms: C7_10  and  N3_11 
REMARK    3  A    between atoms: C7_10  and  C9_15 
REMARK    4  A    between atoms: C9_15  and  C11_18 
REMARK    5  A    between atoms: C11_18  and  C12_20 
REMARK    6  A    between atoms: N6_22  and  C14_23 
REMARK    7  A    between atoms: C18_27  and  C19_28 
ROOT
HETATM    1  C1  UNL     1      -9.812 -54.742 -35.123  1.00  0.00     0.057 C 
HETATM    2  C2  UNL     1     -10.239 -56.161 -35.126  1.00  0.00    -0.006 A 
HETATM    3  S1  UNL     1      -9.414 -57.366 -35.990  1.00  0.00    -0.078 SA
HETATM    4  C3  UNL     1     -10.367 -58.703 -35.592  1.00  0.00     0.109 A 
HETATM    5  N1  UNL     1     -10.182 -60.059 -36.022  1.00  0.00    -0.093 NA
HETATM    6  C4  UNL     1     -11.351 -58.154 -34.759  1.00  0.00     0.089 A 
HETATM    7  C5  UNL     1     -12.347 -59.134 -34.291  1.00  0.00     0.103 C 
HETATM    8  N2  UNL     1     -13.135 -59.952 -33.950  1.00  0.00    -0.191 NA
HETATM    9  C6  UNL     1     -11.285 -56.833 -34.515  1.00  0.00     0.025 A 
ENDROOT
BRANCH   9  10
HETATM   10  C7  UNL     1     -12.233 -56.037 -33.671  1.00  0.00     0.057 C 
BRANCH  10  11
HETATM   11  N3  UNL     1     -13.325 -55.764 -34.243  1.00  0.00    -0.295 N 
HETATM   12  C8  UNL     1     -14.267 -56.307 -34.981  1.00  0.00     0.182 C 
HETATM   13  N4  UNL     1     -15.116 -56.749 -35.618  1.00  0.00    -0.172 NA
ATOM     14  H3  UNL     1     -13.557 -54.786 -34.072  1.00  0.00     0.178 HD
ENDBRANCH  10  11
BRANCH  10  15
HETATM   15  C9  UNL     1     -11.960 -55.491 -32.332  1.00  0.00     0.218 C 
HETATM   16  C10 UNL     1     -13.118 -55.458 -31.470  1.00  0.00     0.078 C 
HETATM   17  N5  UNL     1     -14.050 -55.448 -30.787  1.00  0.00    -0.196 NA
BRANCH  15  18
HETATM   18  C11 UNL     1     -10.777 -56.063 -31.626  1.00  0.00     0.180 C 
HETATM   19  O1  UNL     1     -10.410 -57.239 -31.884  1.00  0.00    -0.291 OA
BRANCH  18  20
HETATM   20  C12 UNL     1     -10.002 -55.316 -30.626  1.00  0.00     0.009 A 
HETATM   21  C13 UNL     1      -8.844 -54.777 -30.984  1.00  0.00     0.102 A 
HETATM   22  N6  UNL     1      -8.009 -54.036 -30.105  1.00  0.00    -0.362 N 
HETATM   23  C17 UNL     1      -8.483 -53.891 -28.761  1.00  0.00     0.094 A 
HETATM   24  C18 UNL     1      -9.610 -54.401 -28.350  1.00  0.00    -0.057 A 
HETATM   25  C22 UNL     1     -10.485 -55.182 -29.247  1.00  0.00     0.079 A 
BRANCH  22  26
HETATM   26  C14 UNL     1      -6.761 -53.465 -30.535  1.00  0.00     0.080 C 
HETATM   27  C15 UNL     1      -5.868 -53.229 -29.344  1.00  0.00     0.032 C 
HETATM   28  C16 UNL     1      -6.015 -54.372 -31.490  1.00  0.00     0.032 C 
ENDBRANCH  22  26
BRANCH  24  29
HETATM   29  C19 UNL     1     -10.063 -54.226 -26.953  1.00  0.00     0.008 C 
HETATM   30  C20 UNL     1     -10.292 -52.789 -26.577  1.00  0.00     0.014 C 
HETATM   31  C21 UNL     1     -11.317 -55.061 -26.684  1.00  0.00     0.014 C 
ENDBRANCH  24  29
ENDBRANCH  18  20
ENDBRANCH  15  18
ENDBRANCH  10  15
ENDBRANCH   9  10
TORSDOF 7
ENDMDL
MODEL 3
REMARK VINA RESULT: -8.211197013      1.777      2.677
REMARK  7 active torsions:
REMARK  status: ('A' for Active; 'I' for Inactive)
REMARK    1  A    between atoms: C6_9  and  C7_10 
REMARK    2  A    between atoms: C7_10  and  N3_11 
REMARK    3  A    between atoms: C7_10  and  C9_15 
REMARK    4  A    between atoms: C9_15  and  C11_18 
REMARK    5  A    between atoms: C11_18  and  C12_20 
REMARK    6  A    between atoms: N6_22  and  C14_23 
REMARK    7  A    between atoms: C18_27  and  C19_28 
ROOT
HETATM    1  C1  UNL     1     -14.151 -58.927 -32.737  1.00  0.00     0.057 C 
HETATM    2  C2  UNL     1     -13.071 -59.181 -33.719  1.00  0.00    -0.006 A 
HETATM    3  S1  UNL     1     -12.748 -60.721 -34.353  1.00  0.00    -0.078 SA
HETATM    4  C3  UNL     1     -11.455 -60.344 -35.372  1.00  0.00     0.109 A 
HETATM    5  N1  UNL     1     -10.720 -61.245 -36.212  1.00  0.00    -0.093 NA
HETATM    6  C4  UNL     1     -11.297 -58.964 -35.186  1.00  0.00     0.089 A 
HETATM    7  C5  UNL     1     -10.186 -58.383 -35.960  1.00  0.00     0.103 C 
HETATM    8  N2  UNL     1      -9.274 -57.960 -36.588  1.00  0.00    -0.191 NA
HETATM    9  C6  UNL     1     -12.137 -58.358 -34.328  1.00  0.00     0.025 A 
ENDROOT
BRANCH   9  10
HETATM   10  C7  UNL     1     -12.142 -56.904 -33.966  1.00  0.00     0.057 C 
BRANCH  10  11
HETATM   11  N3  UNL     1     -13.043 -56.234 -34.544  1.00  0.00    -0.295 N 
HETATM   12  C8  UNL     1     -14.201 -56.369 -35.149  1.00  0.00     0.182 C 
HETATM   13  N4  UNL     1     -15.222 -56.446 -35.675  1.00  0.00    -0.172 NA
ATOM     14  H3  UNL     1     -12.782 -55.248 -34.538  1.00  0.00     0.178 HD
ENDBRANCH  10  11
BRANCH  10  15
HETATM   15  C9  UNL     1     -11.163 -56.214 -33.110  1.00  0.00     0.218 C 
HETATM   16  C10 UNL     1     -10.242 -55.374 -33.840  1.00  0.00     0.078 C 
HETATM   17  N5  UNL     1      -9.520 -54.696 -34.434  1.00  0.00    -0.196 NA
BRANCH  15  18
HETATM   18  C11 UNL     1     -11.724 -55.501 -31.927  1.00  0.00     0.180 C 
HETATM   19  O1  UNL     1     -12.940 -55.175 -31.918  1.00  0.00    -0.291 OA
BRANCH  18  20
HETATM   20  C12 UNL     1     -10.921 -55.150 -30.748  1.00  0.00     0.009 A 
HETATM   21  C13 UNL     1     -11.406 -55.410 -29.540  1.00  0.00     0.102 A 
HETATM   22  N6  UNL     1     -10.723 -55.115 -28.331  1.00  0.00    -0.362 N 
HETATM   23  C17 UNL     1      -9.437 -54.496 -28.470  1.00  0.00     0.094 A 
HETATM   24  C18 UNL     1      -8.911 -54.213 -29.628  1.00  0.00    -0.057 A 
HETATM   25  C22 UNL     1      -9.612 -54.504 -30.894  1.00  0.00     0.079 A 
BRANCH  22  26
HETATM   26  C14 UNL     1     -11.284 -55.417 -27.041  1.00  0.00     0.080 C 
HETATM   27  C15 UNL     1     -11.257 -54.187 -26.170  1.00  0.00     0.032 C 
HETATM   28  C16 UNL     1     -12.723 -55.876 -27.136  1.00  0.00     0.032 C 
ENDBRANCH  22  26
BRANCH  24  29
HETATM   29  C19 UNL     1      -7.581 -53.575 -29.726  1.00  0.00     0.008 C 
HETATM   30  C20 UNL     1      -6.657 -53.947 -28.600  1.00  0.00     0.014 C 
HETATM   31  C21 UNL     1      -6.933 -53.883 -31.079  1.00  0.00     0.014 C 
ENDBRANCH  24  29
ENDBRANCH  18  20
ENDBRANCH  15  18
ENDBRANCH  10  15
ENDBRANCH   9  10
TORSDOF 7
ENDMDL
MODEL 4
REMARK VINA RESULT: -8.172302510      2.722      3.762
REMARK  7 active torsions:
REMARK  status: ('A' for Active; 'I' for Inactive)
REMARK    1  A    between atoms: C6_9  and  C7_10 
REMARK    2  A    between atoms: C7_10  and  N3_11 
REMARK    3  A    between atoms: C7_10  and  C9_15 
REMARK    4  A    between atoms: C9_15  and  C11_18 
REMARK    5  A    between atoms: C11_18  and  C12_20 
REMARK    6  A    between atoms: N6_22  and  C14_23 
REMARK    7  A    between atoms: C18_27  and  C19_28 
ROOT
HETATM    1  C1  UNL     1     -14.794 -57.307 -29.642  1.00  0.00     0.057 C 
HETATM    2  C2  UNL     1     -14.979 -58.366 -30.662  1.00  0.00    -0.006 A 
HETATM    3  S1  UNL     1     -15.852 -59.789 -30.362  1.00  0.00    -0.078 SA
HETATM    4  C3  UNL     1     -15.695 -60.543 -31.865  1.00  0.00     0.109 A 
HETATM    5  N1  UNL     1     -16.229 -61.814 -32.259  1.00  0.00    -0.093 NA
HETATM    6  C4  UNL     1     -14.930 -59.627 -32.600  1.00  0.00     0.089 A 
HETATM    7  C5  UNL     1     -14.621 -60.074 -33.969  1.00  0.00     0.103 C 
HETATM    8  N2  UNL     1     -14.383 -60.478 -35.058  1.00  0.00    -0.191 NA
HETATM    9  C6  UNL     1     -14.558 -58.494 -31.976  1.00  0.00     0.025 A 
ENDROOT
BRANCH   9  10
HETATM   10  C7  UNL     1     -13.732 -57.389 -32.559  1.00  0.00     0.057 C 
BRANCH  10  11
HETATM   11  N3  UNL     1     -14.260 -56.824 -33.557  1.00  0.00    -0.295 N 
HETATM   12  C8  UNL     1     -14.288 -56.865 -34.870  1.00  0.00     0.182 C 
HETATM   13  N4  UNL     1     -14.348 -56.877 -36.019  1.00  0.00    -0.172 NA
ATOM     14  H3  UNL     1     -14.877 -56.080 -33.232  1.00  0.00     0.178 HD
ENDBRANCH  10  11
BRANCH  10  15
HETATM   15  C9  UNL     1     -12.376 -56.999 -32.139  1.00  0.00     0.218 C 
HETATM   16  C10 UNL     1     -11.355 -57.300 -33.115  1.00  0.00     0.078 C 
HETATM   17  N5  UNL     1     -10.550 -57.536 -33.910  1.00  0.00    -0.196 NA
BRANCH  15  18
HETATM   18  C11 UNL     1     -12.232 -55.608 -31.619  1.00  0.00     0.180 C 
HETATM   19  O1  UNL     1     -12.942 -54.689 -32.103  1.00  0.00    -0.291 OA
BRANCH  18  20
HETATM   20  C12 UNL     1     -11.289 -55.245 -30.553  1.00  0.00     0.009 A 
HETATM   21  C13 UNL     1     -11.635 -55.459 -29.290  1.00  0.00     0.102 A 
HETATM   22  N6  UNL     1     -10.808 -55.148 -28.177  1.00  0.00    -0.362 N 
HETATM   23  C17 UNL     1      -9.535 -54.566 -28.484  1.00  0.00     0.094 A 
HETATM   24  C18 UNL     1      -9.142 -54.329 -29.703  1.00  0.00    -0.057 A 
HETATM   25  C22 UNL     1      -9.992 -54.637 -30.870  1.00  0.00     0.079 A 
BRANCH  22  26
HETATM   26  C14 UNL     1     -11.222 -55.399 -26.823  1.00  0.00     0.080 C 
HETATM   27  C15 UNL     1     -11.212 -54.113 -26.037  1.00  0.00     0.032 C 
HETATM   28  C16 UNL     1     -12.622 -55.967 -26.747  1.00  0.00     0.032 C 
ENDBRANCH  22  26
BRANCH  24  29
HETATM   29  C19 UNL     1      -7.818 -53.728 -29.975  1.00  0.00     0.008 C 
HETATM   30  C20 UNL     1      -6.837 -53.916 -28.852  1.00  0.00     0.014 C 
HETATM   31  C21 UNL     1      -7.243 -54.262 -31.289  1.00  0.00     0.014 C 
ENDBRANCH  24  29
ENDBRANCH  18  20
ENDBRANCH  15  18
ENDBRANCH  10  15
ENDBRANCH   9  10
TORSDOF 7
ENDMDL
MODEL 5
REMARK VINA RESULT: -8.110895400      1.765      2.392
REMARK  7 active torsions:
REMARK  status: ('A' for Active; 'I' for Inactive)
REMARK    1  A    between atoms: C6_9  and  C7_10 
REMARK    2  A    between atoms: C7_10  and  N3_11 
REMARK    3  A    between atoms: C7_10  and  C9_15 
REMARK    4  A    between atoms: C9_15  and  C11_18 
REMARK    5  A    between atoms: C11_18  and  C12_20 
REMARK    6  A    between atoms: N6_22  and  C14_23 
REMARK    7  A    between atoms: C18_27  and  C19_28 
ROOT
HETATM    1  C1  UNL     1     -10.106 -58.008 -35.992  1.00  0.00     0.057 C 
HETATM    2  C2  UNL     1     -11.187 -58.735 -35.284  1.00  0.00    -0.006 A 
HETATM    3  S1  UNL     1     -11.475 -60.392 -35.501  1.00  0.00    -0.078 SA
HETATM    4  C3  UNL     1     -12.785 -60.592 -34.453  1.00  0.00     0.109 A 
HETATM    5  N1  UNL     1     -13.502 -61.804 -34.183  1.00  0.00    -0.093 NA
HETATM    6  C4  UNL     1     -12.977 -59.304 -33.937  1.00  0.00     0.089 A 
HETATM    7  C5  UNL     1     -14.109 -59.203 -32.999  1.00  0.00     0.103 C 
HETATM    8  N2  UNL     1     -15.037 -59.162 -32.262  1.00  0.00    -0.191 NA
HETATM    9  C6  UNL     1     -12.147 -58.337 -34.367  1.00  0.00     0.025 A 
ENDROOT
BRANCH   9  10
HETATM   10  C7  UNL     1     -12.177 -56.895 -33.964  1.00  0.00     0.057 C 
BRANCH  10  11
HETATM   11  N3  UNL     1     -13.078 -56.220 -34.536  1.00  0.00    -0.295 N 
HETATM   12  C8  UNL     1     -14.237 -56.349 -35.139  1.00  0.00     0.182 C 
HETATM   13  N4  UNL     1     -15.259 -56.421 -35.664  1.00  0.00    -0.172 NA
ATOM     14  H3  UNL     1     -12.815 -55.234 -34.524  1.00  0.00     0.178 HD
ENDBRANCH  10  11
BRANCH  10  15
HETATM   15  C9  UNL     1     -11.220 -56.218 -33.073  1.00  0.00     0.218 C 
HETATM   16  C10 UNL     1     -10.284 -55.364 -33.765  1.00  0.00     0.078 C 
HETATM   17  N5  UNL     1      -9.548 -54.676 -34.330  1.00  0.00    -0.196 NA
BRANCH  15  18
HETATM   18  C11 UNL     1     -11.812 -55.526 -31.891  1.00  0.00     0.180 C 
HETATM   19  O1  UNL     1     -13.029 -55.205 -31.905  1.00  0.00    -0.291 OA
BRANCH  18  20
HETATM   20  C12 UNL     1     -11.037 -55.189 -30.689  1.00  0.00     0.009 A 
HETATM   21  C13 UNL     1     -11.544 -55.480 -29.498  1.00  0.00     0.102 A 
HETATM   22  N6  UNL     1     -10.889 -55.202 -28.268  1.00  0.00    -0.362 N 
HETATM   23  C17 UNL     1      -9.609 -54.565 -28.368  1.00  0.00     0.094 A 
HETATM   24  C18 UNL     1      -9.062 -54.252 -29.509  1.00  0.00    -0.057 A 
HETATM   25  C22 UNL     1      -9.733 -54.525 -30.795  1.00  0.00     0.079 A 
BRANCH  22  26
HETATM   26  C14 UNL     1     -11.473 -55.536 -26.997  1.00  0.00     0.080 C 
HETATM   27  C15 UNL     1     -11.416 -54.344 -26.077  1.00  0.00     0.032 C 
HETATM   28  C16 UNL     1     -12.925 -55.944 -27.123  1.00  0.00     0.032 C 
ENDBRANCH  22  26
BRANCH  24  29
HETATM   29  C19 UNL     1      -7.738 -53.597 -29.566  1.00  0.00     0.008 C 
HETATM   30  C20 UNL     1      -6.846 -53.955 -28.412  1.00  0.00     0.014 C 
HETATM   31  C21 UNL     1      -7.045 -53.898 -30.897  1.00  0.00     0.014 C 
ENDBRANCH  24  29
ENDBRANCH  18  20
ENDBRANCH  15  18
ENDBRANCH  10  15
ENDBRANCH   9  10
TORSDOF 7
ENDMDL
