MODEL 1
REMARK VINA RESULT: -8.455986644      0.000      0.000
REMARK  7 active torsions:
REMARK  status: ('A' for Active; 'I' for Inactive)
REMARK    1  A    between atoms: C2_2  and  O1_3 
REMARK    2  A    between atoms: O1_3  and  C3_4 
REMARK    3  A    between atoms: C3_4  and  C4_6 
REMARK    4  A    between atoms: C5_7  and  N1_8 
REMARK       I    between atoms: N1_8  and  C6_10 
REMARK    5  A    between atoms: C6_10  and  C7_12 
REMARK    6  A    between atoms: C7_12  and  C8_13 
REMARK    7  A    between atoms: C16_25  and  C17_26 
ROOT
HETATM    1  N1  UNL     1     -10.741 -54.288 -27.982  1.00  0.00    -0.320 N 
ATOM      2  H1  UNL     1     -11.436 -53.571 -28.189  1.00  0.00     0.169 HD
HETATM    3  C6  UNL     1     -11.052 -55.177 -26.977  1.00  0.00     0.228 C 
HETATM    4  O3  UNL     1     -10.330 -56.143 -26.633  1.00  0.00    -0.273 OA
ENDROOT
BRANCH   1   5
HETATM    5  C5  UNL     1      -9.550 -54.266 -28.761  1.00  0.00     0.094 A 
HETATM    6  C4  UNL     1      -9.230 -54.417 -30.065  1.00  0.00     0.080 A 
HETATM    7  C19 UNL     1      -7.995 -54.040 -30.479  1.00  0.00    -0.022 A 
HETATM    8  C16 UNL     1      -7.140 -53.544 -29.552  1.00  0.00     0.059 A 
HETATM    9  C20 UNL     1      -7.588 -54.130 -31.945  1.00  0.00     0.051 C 
HETATM   10  S2  UNL     1      -8.053 -53.595 -28.106  1.00  0.00    -0.067 SA
BRANCH   6  11
HETATM   11  C3  UNL     1     -10.099 -55.271 -30.945  1.00  0.00     0.296 C 
HETATM   12  O2  UNL     1     -10.019 -56.533 -30.945  1.00  0.00    -0.259 OA
BRANCH  11  13
HETATM   13  O1  UNL     1     -11.053 -54.765 -31.802  1.00  0.00    -0.318 OA
BRANCH  13  14
HETATM   14  C2  UNL     1     -12.406 -55.151 -31.821  1.00  0.00     0.174 C 
HETATM   15  C1  UNL     1     -12.812 -55.873 -33.091  1.00  0.00     0.034 C 
ENDBRANCH  13  14
ENDBRANCH  11  13
ENDBRANCH   6  11
BRANCH   8  16
HETATM   16  C17 UNL     1      -5.735 -53.063 -29.659  1.00  0.00     0.163 C 
HETATM   17  C18 UNL     1      -4.742 -53.951 -30.354  1.00  0.00     0.097 C 
HETATM   18  O4  UNL     1      -5.327 -51.997 -29.225  1.00  0.00    -0.292 OA
ENDBRANCH   8  16
ENDBRANCH   1   5
BRANCH   3  19
HETATM   19  C7  UNL     1     -12.325 -55.063 -26.180  1.00  0.00     0.168 C 
BRANCH  19  20
HETATM   20  C8  UNL     1     -13.303 -56.003 -26.801  1.00  0.00     0.060 A 
HETATM   21  N2  UNL     1     -14.236 -56.761 -26.274  1.00  0.00    -0.356 N 
HETATM   22  C9  UNL     1     -14.999 -57.496 -27.024  1.00  0.00     0.023 A 
ATOM     23  H2  UNL     1     -14.364 -56.772 -25.263  1.00  0.00     0.166 HD
HETATM   24  C10 UNL     1     -14.798 -57.454 -28.374  1.00  0.00     0.007 A 
HETATM   25  C15 UNL     1     -16.075 -58.351 -26.382  1.00  0.00     0.058 C 
HETATM   26  S1  UNL     1     -13.489 -56.332 -28.487  1.00  0.00    -0.079 SA
HETATM   27  C11 UNL     1     -15.466 -58.120 -29.547  1.00  0.00     0.048 C 
HETATM   28  C12 UNL     1     -15.533 -59.587 -29.266  1.00  0.00     0.005 C 
HETATM   29  C13 UNL     1     -16.705 -59.785 -28.310  1.00  0.00     0.001 C 
HETATM   30  C14 UNL     1     -16.102 -59.744 -26.920  1.00  0.00     0.006 C 
ENDBRANCH  19  20
ENDBRANCH   3  19
TORSDOF 7
ENDMDL
MODEL 2
REMARK VINA RESULT: -8.143129925      1.830      3.564
REMARK  7 active torsions:
REMARK  status: ('A' for Active; 'I' for Inactive)
REMARK    1  A    between atoms: C2_2  and  O1_3 
REMARK    2  A    between atoms: O1_3  and  C3_4 
REMARK    3  A    between atoms: C3_4  and  C4_6 
REMARK    4  A    between atoms: C5_7  and  N1_8 
REMARK       I    between atoms: N1_8  and  C6_10 
REMARK    5  A    between atoms: C6_10  and  C7_12 
REMARK    6  A    between atoms: C7_12  and  C8_13 
REMARK    7  A    between atoms: C16_25  and  C17_26 
ROOT
HETATM    1  N1  UNL     1     -10.371 -54.542 -31.327  1.00  0.00    -0.320 N 
ATOM      2  H1  UNL     1     -10.968 -53.783 -31.656  1.00  0.00     0.169 HD
HETATM    3  C6  UNL     1     -10.801 -55.823 -31.591  1.00  0.00     0.228 C 
HETATM    4  O3  UNL     1     -10.163 -56.862 -31.297  1.00  0.00    -0.273 OA
ENDROOT
BRANCH   1   5
HETATM    5  C5  UNL     1      -9.180 -54.166 -30.643  1.00  0.00     0.094 A 
HETATM    6  C4  UNL     1      -8.751 -54.151 -29.361  1.00  0.00     0.080 A 
HETATM    7  C19 UNL     1      -7.427 -53.987 -29.122  1.00  0.00    -0.022 A 
HETATM    8  C16 UNL     1      -6.605 -53.832 -30.188  1.00  0.00     0.059 A 
HETATM    9  C20 UNL     1      -6.867 -54.016 -27.705  1.00  0.00     0.051 C 
HETATM   10  S2  UNL     1      -7.670 -53.920 -31.524  1.00  0.00    -0.067 SA
BRANCH   6  11
HETATM   11  C3  UNL     1      -9.750 -53.994 -28.250  1.00  0.00     0.296 C 
HETATM   12  O2  UNL     1      -9.765 -52.975 -27.500  1.00  0.00    -0.259 OA
BRANCH  11  13
HETATM   13  O1  UNL     1     -10.730 -54.920 -27.963  1.00  0.00    -0.318 OA
BRANCH  13  14
HETATM   14  C2  UNL     1     -10.947 -55.499 -26.699  1.00  0.00     0.174 C 
HETATM   15  C1  UNL     1     -11.955 -54.744 -25.853  1.00  0.00     0.034 C 
ENDBRANCH  13  14
ENDBRANCH  11  13
ENDBRANCH   6  11
BRANCH   8  16
HETATM   16  C17 UNL     1      -5.134 -53.618 -30.281  1.00  0.00     0.163 C 
HETATM   17  C18 UNL     1      -4.518 -52.591 -29.373  1.00  0.00     0.097 C 
HETATM   18  O4  UNL     1      -4.387 -54.216 -31.040  1.00  0.00    -0.292 OA
ENDBRANCH   8  16
ENDBRANCH   1   5
BRANCH   3  19
HETATM   19  C7  UNL     1     -12.115 -56.096 -32.275  1.00  0.00     0.168 C 
BRANCH  19  20
HETATM   20  C8  UNL     1     -13.051 -56.586 -31.221  1.00  0.00     0.060 A 
HETATM   21  N2  UNL     1     -13.233 -56.211 -29.977  1.00  0.00    -0.356 N 
HETATM   22  C9  UNL     1     -14.139 -56.775 -29.237  1.00  0.00     0.023 A 
ATOM     23  H2  UNL     1     -12.657 -55.466 -29.586  1.00  0.00     0.166 HD
HETATM   24  C10 UNL     1     -14.892 -57.768 -29.796  1.00  0.00     0.007 A 
HETATM   25  C15 UNL     1     -14.329 -56.309 -27.806  1.00  0.00     0.058 C 
HETATM   26  S1  UNL     1     -14.235 -57.833 -31.392  1.00  0.00    -0.079 SA
HETATM   27  C11 UNL     1     -16.021 -58.626 -29.291  1.00  0.00     0.048 C 
HETATM   28  C12 UNL     1     -15.597 -59.223 -27.988  1.00  0.00     0.005 C 
HETATM   29  C13 UNL     1     -15.779 -58.130 -26.939  1.00  0.00     0.001 C 
HETATM   30  C14 UNL     1     -14.432 -57.442 -26.838  1.00  0.00     0.006 C 
ENDBRANCH  19  20
ENDBRANCH   3  19
TORSDOF 7
ENDMDL
MODEL 3
REMARK VINA RESULT: -8.120176218      2.136      7.916
REMARK  7 active torsions:
REMARK  status: ('A' for Active; 'I' for Inactive)
REMARK    1  A    between atoms: C2_2  and  O1_3 
REMARK    2  A    between atoms: O1_3  and  C3_4 
REMARK    3  A    between atoms: C3_4  and  C4_6 
REMARK    4  A    between atoms: C5_7  and  N1_8 
REMARK       I    between atoms: N1_8  and  C6_10 
REMARK    5  A    between atoms: C6_10  and  C7_12 
REMARK    6  A    between atoms: C7_12  and  C8_13 
REMARK    7  A    between atoms: C16_25  and  C17_26 
ROOT
HETATM    1  N1  UNL     1     -13.160 -55.282 -27.112  1.00  0.00    -0.320 N 
ATOM      2  H1  UNL     1     -13.501 -54.321 -27.128  1.00  0.00     0.169 HD
HETATM    3  C6  UNL     1     -11.884 -55.475 -26.631  1.00  0.00     0.228 C 
HETATM    4  O3  UNL     1     -11.335 -56.595 -26.500  1.00  0.00    -0.273 OA
ENDROOT
BRANCH   1   5
HETATM    5  C5  UNL     1     -14.051 -56.285 -27.589  1.00  0.00     0.094 A 
HETATM    6  C4  UNL     1     -14.194 -57.010 -28.720  1.00  0.00     0.080 A 
HETATM    7  C19 UNL     1     -15.009 -58.092 -28.699  1.00  0.00    -0.022 A 
HETATM    8  C16 UNL     1     -15.651 -58.380 -27.540  1.00  0.00     0.059 A 
HETATM    9  C20 UNL     1     -15.173 -58.987 -29.921  1.00  0.00     0.051 C 
HETATM   10  S2  UNL     1     -15.117 -57.150 -26.478  1.00  0.00    -0.067 SA
BRANCH   6  11
HETATM   11  C3  UNL     1     -13.722 -56.440 -30.027  1.00  0.00     0.296 C 
HETATM   12  O2  UNL     1     -14.385 -55.566 -30.658  1.00  0.00    -0.259 OA
BRANCH  11  13
HETATM   13  O1  UNL     1     -12.538 -56.799 -30.638  1.00  0.00    -0.318 OA
BRANCH  13  14
HETATM   14  C2  UNL     1     -12.419 -57.245 -31.966  1.00  0.00     0.174 C 
HETATM   15  C1  UNL     1     -11.750 -56.240 -32.884  1.00  0.00     0.034 C 
ENDBRANCH  13  14
ENDBRANCH  11  13
ENDBRANCH   6  11
BRANCH   8  16
HETATM   16  C17 UNL     1     -16.610 -59.462 -27.182  1.00  0.00     0.163 C 
HETATM   17  C18 UNL     1     -16.050 -60.727 -26.598  1.00  0.00     0.097 C 
HETATM   18  O4  UNL     1     -17.821 -59.397 -27.326  1.00  0.00    -0.292 OA
ENDBRANCH   8  16
ENDBRANCH   1   5
BRANCH   3  19
HETATM   19  C7  UNL     1     -11.011 -54.323 -26.208  1.00  0.00     0.168 C 
BRANCH  19  20
HETATM   20  C8  UNL     1     -10.033 -54.101 -27.313  1.00  0.00     0.060 A 
HETATM   21  N2  UNL     1     -10.121 -54.302 -28.606  1.00  0.00    -0.356 N 
HETATM   22  C9  UNL     1      -9.133 -54.009 -29.395  1.00  0.00     0.023 A 
ATOM     23  H2  UNL     1     -10.978 -54.693 -28.997  1.00  0.00     0.166 HD
HETATM   24  C10 UNL     1      -8.003 -53.485 -28.834  1.00  0.00     0.007 A 
HETATM   25  C15 UNL     1      -9.274 -54.244 -30.887  1.00  0.00     0.058 C 
HETATM   26  S1  UNL     1      -8.440 -53.447 -27.164  1.00  0.00    -0.079 SA
HETATM   27  C11 UNL     1      -6.689 -53.010 -29.393  1.00  0.00     0.048 C 
HETATM   28  C12 UNL     1      -6.152 -54.084 -30.284  1.00  0.00     0.005 C 
HETATM   29  C13 UNL     1      -6.911 -53.964 -31.602  1.00  0.00     0.001 C 
HETATM   30  C14 UNL     1      -8.081 -54.920 -31.480  1.00  0.00     0.006 C 
ENDBRANCH  19  20
ENDBRANCH   3  19
TORSDOF 7
ENDMDL
MODEL 4
REMARK VINA RESULT: -7.858101923      2.019      3.802
REMARK  7 active torsions:
REMARK  status: ('A' for Active; 'I' for Inactive)
REMARK    1  A    between atoms: C2_2  and  O1_3 
REMARK    2  A    between atoms: O1_3  and  C3_4 
REMARK    3  A    between atoms: C3_4  and  C4_6 
REMARK    4  A    between atoms: C5_7  and  N1_8 
REMARK       I    between atoms: N1_8  and  C6_10 
REMARK    5  A    between atoms: C6_10  and  C7_12 
REMARK    6  A    between atoms: C7_12  and  C8_13 
REMARK    7  A    between atoms: C16_25  and  C17_26 
ROOT
HETATM    1  N1  UNL     1     -10.529 -54.715 -31.164  1.00  0.00    -0.320 N 
ATOM      2  H1  UNL     1     -11.257 -54.009 -31.278  1.00  0.00     0.169 HD
HETATM    3  C6  UNL     1     -10.810 -55.973 -31.648  1.00  0.00     0.228 C 
HETATM    4  O3  UNL     1     -10.008 -56.937 -31.631  1.00  0.00    -0.273 OA
ENDROOT
BRANCH   1   5
HETATM    5  C5  UNL     1      -9.329 -54.297 -30.522  1.00  0.00     0.094 A 
HETATM    6  C4  UNL     1      -8.862 -54.253 -29.255  1.00  0.00     0.080 A 
HETATM    7  C19 UNL     1      -7.536 -54.048 -29.059  1.00  0.00    -0.022 A 
HETATM    8  C16 UNL     1      -6.752 -53.884 -30.151  1.00  0.00     0.059 A 
HETATM    9  C20 UNL     1      -6.932 -54.043 -27.660  1.00  0.00     0.051 C 
HETATM   10  S2  UNL     1      -7.855 -54.020 -31.452  1.00  0.00    -0.067 SA
BRANCH   6  11
HETATM   11  C3  UNL     1      -9.830 -54.109 -28.115  1.00  0.00     0.296 C 
HETATM   12  O2  UNL     1     -10.393 -55.109 -27.582  1.00  0.00    -0.259 OA
BRANCH  11  13
HETATM   13  O1  UNL     1     -10.172 -52.899 -27.547  1.00  0.00    -0.318 OA
BRANCH  13  14
HETATM   14  C2  UNL     1     -10.421 -52.693 -26.178  1.00  0.00     0.174 C 
HETATM   15  C1  UNL     1      -9.626 -51.545 -25.586  1.00  0.00     0.034 C 
ENDBRANCH  13  14
ENDBRANCH  11  13
ENDBRANCH   6  11
BRANCH   8  16
HETATM   16  C17 UNL     1      -5.291 -53.630 -30.292  1.00  0.00     0.163 C 
HETATM   17  C18 UNL     1      -4.671 -52.597 -29.395  1.00  0.00     0.097 C 
HETATM   18  O4  UNL     1      -4.556 -54.200 -31.084  1.00  0.00    -0.292 OA
ENDBRANCH   8  16
ENDBRANCH   1   5
BRANCH   3  19
HETATM   19  C7  UNL     1     -12.145 -56.311 -32.259  1.00  0.00     0.168 C 
BRANCH  19  20
HETATM   20  C8  UNL     1     -13.060 -56.641 -31.127  1.00  0.00     0.060 A 
HETATM   21  N2  UNL     1     -13.142 -56.166 -29.907  1.00  0.00    -0.356 N 
HETATM   22  C9  UNL     1     -14.049 -56.594 -29.084  1.00  0.00     0.023 A 
ATOM     23  H2  UNL     1     -12.483 -55.450 -29.601  1.00  0.00     0.166 HD
HETATM   24  C10 UNL     1     -14.914 -57.553 -29.531  1.00  0.00     0.007 A 
HETATM   25  C15 UNL     1     -14.121 -56.015 -27.685  1.00  0.00     0.058 C 
HETATM   26  S1  UNL     1     -14.353 -57.787 -31.148  1.00  0.00    -0.079 SA
HETATM   27  C11 UNL     1     -16.082 -58.270 -28.911  1.00  0.00     0.048 C 
HETATM   28  C12 UNL     1     -15.641 -58.811 -27.588  1.00  0.00     0.005 C 
HETATM   29  C13 UNL     1     -15.671 -57.636 -26.616  1.00  0.00     0.001 C 
HETATM   30  C14 UNL     1     -14.267 -57.065 -26.632  1.00  0.00     0.006 C 
ENDBRANCH  19  20
ENDBRANCH   3  19
TORSDOF 7
ENDMDL
MODEL 5
REMARK VINA RESULT: -7.831917138      2.793      8.852
REMARK  7 active torsions:
REMARK  status: ('A' for Active; 'I' for Inactive)
REMARK    1  A    between atoms: C2_2  and  O1_3 
REMARK    2  A    between atoms: O1_3  and  C3_4 
REMARK    3  A    between atoms: C3_4  and  C4_6 
REMARK    4  A    between atoms: C5_7  and  N1_8 
REMARK       I    between atoms: N1_8  and  C6_10 
REMARK    5  A    between atoms: C6_10  and  C7_12 
REMARK    6  A    between atoms: C7_12  and  C8_13 
REMARK    7  A    between atoms: C16_25  and  C17_26 
ROOT
HETATM    1  N1  UNL     1     -14.279 -56.399 -30.315  1.00  0.00    -0.320 N 
ATOM      2  H1  UNL     1     -14.814 -55.533 -30.238  1.00  0.00     0.169 HD
HETATM    3  C6  UNL     1     -13.094 -56.331 -31.013  1.00  0.00     0.228 C 
HETATM    4  O3  UNL     1     -12.299 -57.290 -31.159  1.00  0.00    -0.273 OA
ENDROOT
BRANCH   1   5
HETATM    5  C5  UNL     1     -14.836 -57.551 -29.691  1.00  0.00     0.094 A 
HETATM    6  C4  UNL     1     -15.340 -57.859 -28.476  1.00  0.00     0.080 A 
HETATM    7  C19 UNL     1     -16.050 -59.005 -28.338  1.00  0.00    -0.022 A 
HETATM    8  C16 UNL     1     -16.204 -59.790 -29.432  1.00  0.00     0.059 A 
HETATM    9  C20 UNL     1     -16.694 -59.386 -27.011  1.00  0.00     0.051 C 
HETATM   10  S2  UNL     1     -15.367 -58.933 -30.653  1.00  0.00    -0.067 SA
BRANCH   6  11
HETATM   11  C3  UNL     1     -14.848 -57.120 -27.263  1.00  0.00     0.296 C 
HETATM   12  O2  UNL     1     -15.640 -56.655 -26.393  1.00  0.00    -0.259 OA
BRANCH  11  13
HETATM   13  O1  UNL     1     -13.514 -56.901 -26.988  1.00  0.00    -0.318 OA
BRANCH  13  14
HETATM   14  C2  UNL     1     -12.895 -55.639 -26.952  1.00  0.00     0.174 C 
HETATM   15  C1  UNL     1     -11.476 -55.676 -26.420  1.00  0.00     0.034 C 
ENDBRANCH  13  14
ENDBRANCH  11  13
ENDBRANCH   6  11
BRANCH   8  16
HETATM   16  C17 UNL     1     -16.896 -61.095 -29.625  1.00  0.00     0.163 C 
HETATM   17  C18 UNL     1     -16.080 -62.347 -29.480  1.00  0.00     0.097 C 
HETATM   18  O4  UNL     1     -18.081 -61.224 -29.891  1.00  0.00    -0.292 OA
ENDBRANCH   8  16
ENDBRANCH   1   5
BRANCH   3  19
HETATM   19  C7  UNL     1     -12.637 -55.061 -31.682  1.00  0.00     0.168 C 
BRANCH  19  20
HETATM   20  C8  UNL     1     -11.210 -54.863 -31.291  1.00  0.00     0.060 A 
HETATM   21  N2  UNL     1     -10.642 -54.722 -30.117  1.00  0.00    -0.356 N 
HETATM   22  C9  UNL     1      -9.356 -54.583 -30.011  1.00  0.00     0.023 A 
ATOM     23  H2  UNL     1     -11.218 -54.722 -29.275  1.00  0.00     0.166 HD
HETATM   24  C10 UNL     1      -8.618 -54.589 -31.161  1.00  0.00     0.007 A 
HETATM   25  C15 UNL     1      -8.731 -54.433 -28.638  1.00  0.00     0.058 C 
HETATM   26  S1  UNL     1      -9.850 -54.798 -32.353  1.00  0.00    -0.079 SA
HETATM   27  C11 UNL     1      -7.145 -54.481 -31.451  1.00  0.00     0.048 C 
HETATM   28  C12 UNL     1      -6.619 -53.284 -30.724  1.00  0.00     0.005 C 
HETATM   29  C13 UNL     1      -6.440 -53.714 -29.272  1.00  0.00     0.001 C 
HETATM   30  C14 UNL     1      -7.730 -53.327 -28.576  1.00  0.00     0.006 C 
ENDBRANCH  19  20
ENDBRANCH   3  19
TORSDOF 7
ENDMDL
