MODEL 1
REMARK VINA RESULT: -6.388546634      0.000      0.000
REMARK  3 active torsions:
REMARK  status: ('A' for Active; 'I' for Inactive)
REMARK    1  A    between atoms: C2_2  and  O2_4 
REMARK    2  A    between atoms: O2_4  and  C3_5 
REMARK    3  A    between atoms: C10_15  and  C11_16 
ROOT
HETATM    1  C3  UNL     1     -20.578  -0.509  -3.559  1.00  0.00     0.135 C 
HETATM    2  C4  UNL     1     -20.153  -1.709  -4.370  1.00  0.00     0.035 C 
HETATM    3  C5  UNL     1     -19.920  -1.333  -5.841  1.00  0.00     0.036 C 
HETATM    4  C6  UNL     1     -21.104  -0.545  -6.247  1.00  0.00     0.191 C 
HETATM    5  N1  UNL     1     -22.279  -1.167  -5.615  1.00  0.00    -0.063 N 
ATOM      6  H11 UNL     1     -22.074  -1.714  -4.778  1.00  0.00     0.278 HD
ATOM      7  H12 UNL     1     -22.690  -1.937  -6.143  1.00  0.00     0.278 HD
HETATM    8  C7  UNL     1     -23.181  -0.020  -5.394  1.00  0.00     0.224 C 
HETATM    9  C8  UNL     1     -23.086   0.982  -6.486  1.00  0.00     0.037 C 
HETATM   10  C9  UNL     1     -22.647   0.378  -7.816  1.00  0.00     0.009 C 
HETATM   11  C10 UNL     1     -21.440  -0.506  -7.686  1.00  0.00     0.019 C 
HETATM   12  C14 UNL     1     -22.855   0.472  -4.014  1.00  0.00     0.110 C 
HETATM   13  C15 UNL     1     -22.338   1.833  -3.930  1.00  0.00     0.011 C 
HETATM   14  C16 UNL     1     -22.987   2.478  -2.951  1.00  0.00     0.003 C 
HETATM   15  C17 UNL     1     -23.954   1.534  -2.371  1.00  0.00     0.141 C 
HETATM   16  C18 UNL     1     -25.326   2.178  -2.172  1.00  0.00     0.044 C 
HETATM   17  O3  UNL     1     -24.094   0.569  -3.334  1.00  0.00    -0.365 OA
HETATM   18  C19 UNL     1     -22.050  -0.528  -3.212  1.00  0.00     0.077 C 
ENDROOT
BRANCH   1  19
HETATM   19  O2  UNL     1     -19.896  -0.616  -2.308  1.00  0.00    -0.316 OA
BRANCH  19  20
HETATM   20  C2  UNL     1     -19.391  -1.786  -1.811  1.00  0.00     0.255 C 
HETATM   21  C1  UNL     1     -17.918  -2.076  -1.863  1.00  0.00     0.126 C 
HETATM   22  O1  UNL     1     -20.194  -2.611  -1.307  1.00  0.00    -0.266 OA
ENDBRANCH  19  20
ENDBRANCH   1  19
BRANCH  11  23
HETATM   23  C11 UNL     1     -20.311  -0.119  -8.592  1.00  0.00    -0.017 C 
HETATM   24  C12 UNL     1     -20.650  -0.585  -9.993  1.00  0.00     0.010 C 
HETATM   25  C13 UNL     1     -19.927   1.317  -8.523  1.00  0.00     0.010 C 
ENDBRANCH  11  23
TORSDOF 3
ENDMDL
MODEL 2
REMARK VINA RESULT: -6.363946734      1.336      4.460
REMARK  3 active torsions:
REMARK  status: ('A' for Active; 'I' for Inactive)
REMARK    1  A    between atoms: C2_2  and  O2_4 
REMARK    2  A    between atoms: O2_4  and  C3_5 
REMARK    3  A    between atoms: C10_15  and  C11_16 
ROOT
HETATM    1  C3  UNL     1     -23.050   0.522  -3.542  1.00  0.00     0.135 C 
HETATM    2  C4  UNL     1     -23.475   1.731  -4.340  1.00  0.00     0.035 C 
HETATM    3  C5  UNL     1     -23.700   1.371  -5.818  1.00  0.00     0.036 C 
HETATM    4  C6  UNL     1     -22.512   0.592  -6.227  1.00  0.00     0.191 C 
HETATM    5  N1  UNL     1     -21.341   1.210  -5.581  1.00  0.00    -0.063 N 
ATOM      6  H11 UNL     1     -21.552   1.746  -4.740  1.00  0.00     0.278 HD
ATOM      7  H12 UNL     1     -20.930   1.988  -6.098  1.00  0.00     0.278 HD
HETATM    8  C7  UNL     1     -20.437   0.063  -5.370  1.00  0.00     0.224 C 
HETATM    9  C8  UNL     1     -20.523  -0.926  -6.474  1.00  0.00     0.037 C 
HETATM   10  C9  UNL     1     -20.957  -0.308  -7.799  1.00  0.00     0.009 C 
HETATM   11  C10 UNL     1     -22.168   0.571  -7.664  1.00  0.00     0.019 C 
HETATM   12  C14 UNL     1     -20.768  -0.446  -3.998  1.00  0.00     0.110 C 
HETATM   13  C15 UNL     1     -21.280  -1.809  -3.932  1.00  0.00     0.011 C 
HETATM   14  C16 UNL     1     -20.634  -2.464  -2.958  1.00  0.00     0.003 C 
HETATM   15  C17 UNL     1     -19.673  -1.524  -2.362  1.00  0.00     0.141 C 
HETATM   16  C18 UNL     1     -18.300  -2.166  -2.163  1.00  0.00     0.044 C 
HETATM   17  O3  UNL     1     -19.531  -0.547  -3.312  1.00  0.00    -0.365 OA
HETATM   18  C19 UNL     1     -21.580   0.542  -3.187  1.00  0.00     0.077 C 
ENDROOT
BRANCH   1  19
HETATM   19  O2  UNL     1     -23.739   0.612  -2.293  1.00  0.00    -0.316 OA
BRANCH  19  20
HETATM   20  C2  UNL     1     -24.240   1.777  -1.779  1.00  0.00     0.255 C 
HETATM   21  C1  UNL     1     -25.710   2.078  -1.840  1.00  0.00     0.126 C 
HETATM   22  O1  UNL     1     -23.435   2.587  -1.254  1.00  0.00    -0.266 OA
ENDBRANCH  19  20
ENDBRANCH   1  19
BRANCH  11  23
HETATM   23  C11 UNL     1     -23.292   0.191  -8.580  1.00  0.00    -0.017 C 
HETATM   24  C12 UNL     1     -22.945   0.670  -9.975  1.00  0.00     0.010 C 
HETATM   25  C13 UNL     1     -23.674  -1.246  -8.527  1.00  0.00     0.010 C 
ENDBRANCH  11  23
TORSDOF 3
ENDMDL
MODEL 3
REMARK VINA RESULT: -6.138883153      5.093      8.477
REMARK  3 active torsions:
REMARK  status: ('A' for Active; 'I' for Inactive)
REMARK    1  A    between atoms: C2_2  and  O2_4 
REMARK    2  A    between atoms: O2_4  and  C3_5 
REMARK    3  A    between atoms: C10_15  and  C11_16 
ROOT
HETATM    1  C3  UNL     1     -27.471   1.845   0.766  1.00  0.00     0.135 C 
HETATM    2  C4  UNL     1     -27.357   2.714  -0.463  1.00  0.00     0.035 C 
HETATM    3  C5  UNL     1     -26.152   2.305  -1.324  1.00  0.00     0.036 C 
HETATM    4  C6  UNL     1     -25.012   2.189  -0.390  1.00  0.00     0.191 C 
HETATM    5  N1  UNL     1     -25.135   3.282   0.588  1.00  0.00    -0.063 N 
ATOM      6  H11 UNL     1     -26.081   3.646   0.704  1.00  0.00     0.278 HD
ATOM      7  H12 UNL     1     -24.721   4.167   0.293  1.00  0.00     0.278 HD
HETATM    8  C7  UNL     1     -24.545   2.701   1.809  1.00  0.00     0.224 C 
HETATM    9  C8  UNL     1     -23.405   1.801   1.504  1.00  0.00     0.037 C 
HETATM   10  C9  UNL     1     -22.699   2.151   0.198  1.00  0.00     0.009 C 
HETATM   11  C10 UNL     1     -23.652   2.347  -0.946  1.00  0.00     0.019 C 
HETATM   12  C14 UNL     1     -25.699   2.083   2.543  1.00  0.00     0.110 C 
HETATM   13  C15 UNL     1     -25.630   0.639   2.735  1.00  0.00     0.011 C 
HETATM   14  C16 UNL     1     -25.932   0.361   4.010  1.00  0.00     0.003 C 
HETATM   15  C17 UNL     1     -26.208   1.639   4.683  1.00  0.00     0.141 C 
HETATM   16  C18 UNL     1     -25.514   1.725   6.043  1.00  0.00     0.044 C 
HETATM   17  O3  UNL     1     -25.624   2.575   3.870  1.00  0.00    -0.365 OA
HETATM   18  C19 UNL     1     -27.042   2.558   2.029  1.00  0.00     0.077 C 
ENDROOT
BRANCH   1  19
HETATM   19  O2  UNL     1     -28.865   1.585   0.938  1.00  0.00    -0.316 OA
BRANCH  19  20
HETATM   20  C2  UNL     1     -29.479   0.424   0.555  1.00  0.00     0.255 C 
HETATM   21  C1  UNL     1     -30.713  -0.065   1.258  1.00  0.00     0.126 C 
HETATM   22  O1  UNL     1     -28.982  -0.221  -0.402  1.00  0.00    -0.266 OA
ENDBRANCH  19  20
ENDBRANCH   1  19
BRANCH  11  23
HETATM   23  C11 UNL     1     -23.348   1.488  -2.136  1.00  0.00    -0.017 C 
HETATM   24  C12 UNL     1     -23.095   2.396  -3.322  1.00  0.00     0.010 C 
HETATM   25  C13 UNL     1     -22.268   0.487  -1.916  1.00  0.00     0.010 C 
ENDBRANCH  11  23
TORSDOF 3
ENDMDL
MODEL 4
REMARK VINA RESULT: -5.683712627      1.883      5.087
REMARK  3 active torsions:
REMARK  status: ('A' for Active; 'I' for Inactive)
REMARK    1  A    between atoms: C2_2  and  O2_4 
REMARK    2  A    between atoms: O2_4  and  C3_5 
REMARK    3  A    between atoms: C10_15  and  C11_16 
ROOT
HETATM    1  C3  UNL     1     -21.137  -1.316  -3.751  1.00  0.00     0.135 C 
HETATM    2  C4  UNL     1     -20.794  -0.532  -2.507  1.00  0.00     0.035 C 
HETATM    3  C5  UNL     1     -22.043   0.128  -1.903  1.00  0.00     0.036 C 
HETATM    4  C6  UNL     1     -22.733   0.791  -3.030  1.00  0.00     0.191 C 
HETATM    5  N1  UNL     1     -21.694   1.371  -3.897  1.00  0.00    -0.063 N 
ATOM      6  H11 UNL     1     -20.778   0.930  -3.819  1.00  0.00     0.278 HD
ATOM      7  H12 UNL     1     -21.383   2.304  -3.624  1.00  0.00     0.278 HD
HETATM    8  C7  UNL     1     -22.303   1.293  -5.239  1.00  0.00     0.224 C 
HETATM    9  C8  UNL     1     -23.770   1.521  -5.201  1.00  0.00     0.037 C 
HETATM   10  C9  UNL     1     -24.211   2.381  -4.021  1.00  0.00     0.009 C 
HETATM   11  C10 UNL     1     -23.624   1.927  -2.716  1.00  0.00     0.019 C 
HETATM   12  C14 UNL     1     -21.852  -0.026  -5.795  1.00  0.00     0.110 C 
HETATM   13  C15 UNL     1     -22.909  -0.986  -6.089  1.00  0.00     0.011 C 
HETATM   14  C16 UNL     1     -22.692  -1.503  -7.306  1.00  0.00     0.003 C 
HETATM   15  C17 UNL     1     -21.470  -0.879  -7.835  1.00  0.00     0.141 C 
HETATM   16  C18 UNL     1     -21.642  -0.436  -9.288  1.00  0.00     0.044 C 
HETATM   17  O3  UNL     1     -21.322   0.254  -7.079  1.00  0.00    -0.365 OA
HETATM   18  C19 UNL     1     -20.696  -0.623  -5.020  1.00  0.00     0.077 C 
ENDROOT
BRANCH   1  19
HETATM   19  O2  UNL     1     -20.362  -2.514  -3.688  1.00  0.00    -0.316 OA
BRANCH  19  20
HETATM   20  C2  UNL     1     -18.995  -2.544  -3.735  1.00  0.00     0.255 C 
HETATM   21  C1  UNL     1     -18.170  -1.972  -2.619  1.00  0.00     0.126 C 
HETATM   22  O1  UNL     1     -18.449  -3.065  -4.741  1.00  0.00    -0.266 OA
ENDBRANCH  19  20
ENDBRANCH   1  19
BRANCH  11  23
HETATM   23  C11 UNL     1     -24.651   1.655  -1.658  1.00  0.00    -0.017 C 
HETATM   24  C12 UNL     1     -24.325   2.515  -0.453  1.00  0.00     0.010 C 
HETATM   25  C13 UNL     1     -26.060   1.788  -2.115  1.00  0.00     0.010 C 
ENDBRANCH  11  23
TORSDOF 3
ENDMDL
MODEL 5
REMARK VINA RESULT: -5.670882876      2.063      5.591
REMARK  3 active torsions:
REMARK  status: ('A' for Active; 'I' for Inactive)
REMARK    1  A    between atoms: C2_2  and  O2_4 
REMARK    2  A    between atoms: O2_4  and  C3_5 
REMARK    3  A    between atoms: C10_15  and  C11_16 
ROOT
HETATM    1  C3  UNL     1     -22.457   1.304  -3.697  1.00  0.00     0.135 C 
HETATM    2  C4  UNL     1     -22.788   0.519  -2.451  1.00  0.00     0.035 C 
HETATM    3  C5  UNL     1     -21.531  -0.137  -1.857  1.00  0.00     0.036 C 
HETATM    4  C6  UNL     1     -20.848  -0.797  -2.990  1.00  0.00     0.191 C 
HETATM    5  N1  UNL     1     -21.892  -1.381  -3.848  1.00  0.00    -0.063 N 
ATOM      6  H11 UNL     1     -22.809  -0.943  -3.763  1.00  0.00     0.278 HD
ATOM      7  H12 UNL     1     -22.198  -2.314  -3.573  1.00  0.00     0.278 HD
HETATM    8  C7  UNL     1     -21.295  -1.300  -5.195  1.00  0.00     0.224 C 
HETATM    9  C8  UNL     1     -19.827  -1.523  -5.169  1.00  0.00     0.037 C 
HETATM   10  C9  UNL     1     -19.373  -2.382  -3.994  1.00  0.00     0.009 C 
HETATM   11  C10 UNL     1     -19.950  -1.930  -2.683  1.00  0.00     0.019 C 
HETATM   12  C14 UNL     1     -21.754   0.017  -5.747  1.00  0.00     0.110 C 
HETATM   13  C15 UNL     1     -20.704   0.981  -6.050  1.00  0.00     0.011 C 
HETATM   14  C16 UNL     1     -20.932   1.498  -7.265  1.00  0.00     0.003 C 
HETATM   15  C17 UNL     1     -22.157   0.870  -7.783  1.00  0.00     0.141 C 
HETATM   16  C18 UNL     1     -21.995   0.428  -9.238  1.00  0.00     0.044 C 
HETATM   17  O3  UNL     1     -22.295  -0.264  -7.027  1.00  0.00    -0.365 OA
HETATM   18  C19 UNL     1     -22.906   0.610  -4.963  1.00  0.00     0.077 C 
ENDROOT
BRANCH   1  19
HETATM   19  O2  UNL     1     -23.236   2.500  -3.627  1.00  0.00    -0.316 OA
BRANCH  19  20
HETATM   20  C2  UNL     1     -24.601   2.530  -3.715  1.00  0.00     0.255 C 
HETATM   21  C1  UNL     1     -25.458   1.937  -2.634  1.00  0.00     0.126 C 
HETATM   22  O1  UNL     1     -25.117   3.068  -4.726  1.00  0.00    -0.266 OA
ENDBRANCH  19  20
ENDBRANCH   1  19
BRANCH  11  23
HETATM   23  C11 UNL     1     -18.916  -1.655  -1.634  1.00  0.00    -0.017 C 
HETATM   24  C12 UNL     1     -19.240  -2.503  -0.420  1.00  0.00     0.010 C 
HETATM   25  C13 UNL     1     -17.510  -1.800  -2.098  1.00  0.00     0.010 C 
ENDBRANCH  11  23
TORSDOF 3
ENDMDL
