MODEL 1
REMARK VINA RESULT: -5.864799217      0.000      0.000
REMARK  5 active torsions:
REMARK  status: ('A' for Active; 'I' for Inactive)
REMARK    1  A    between atoms: C3_3  and  O1_5 
REMARK    2  A    between atoms: C3_3  and  C5_7 
REMARK    3  A    between atoms: C7_10  and  C8_11 
REMARK    4  A    between atoms: C8_11  and  C9_12 
REMARK    5  A    between atoms: C10_13  and  C11_14 
ROOT
HETATM    1  C1  UNL     1     -21.787  -3.402 -10.317  1.00  0.00     0.015 C 
HETATM    2  C2  UNL     1     -21.593  -2.234 -10.488  1.00  0.00    -0.074 C 
HETATM    3  C3  UNL     1     -21.380  -0.834 -10.695  1.00  0.00     0.174 C 
HETATM    4  C4  UNL     1     -22.393  -0.247 -11.640  1.00  0.00     0.066 C 
ENDROOT
BRANCH   3   5
HETATM    5  O1  UNL     1     -20.168  -0.738 -11.460  1.00  0.00    -0.372 OA
ATOM      6  H1  UNL     1     -20.445  -0.613 -12.360  1.00  0.00     0.212 HD
ENDBRANCH   3   5
BRANCH   3   7
HETATM    7  C5  UNL     1     -21.109   0.008  -9.509  1.00  0.00     0.225 C 
HETATM    8  O2  UNL     1     -19.798  -0.153  -9.108  1.00  0.00    -0.349 OA
HETATM    9  C6  UNL     1     -19.711  -0.906  -8.020  1.00  0.00     0.189 C 
HETATM   10  C7  UNL     1     -21.007  -0.587  -7.251  1.00  0.00     0.095 C 
HETATM   11  C15 UNL     1     -21.901  -0.024  -8.308  1.00  0.00     0.045 C 
HETATM   12  C16 UNL     1     -23.210  -0.758  -8.359  1.00  0.00     0.023 C 
HETATM   13  C17 UNL     1     -22.115   1.428  -7.966  1.00  0.00     0.096 C 
HETATM   14  C18 UNL     1     -23.394   1.783  -7.295  1.00  0.00     0.021 C 
HETATM   15  C19 UNL     1     -22.088   2.076  -9.326  1.00  0.00     0.266 C 
HETATM   16  O3  UNL     1     -22.809   3.044  -9.686  1.00  0.00    -0.265 OA
HETATM   17  O4  UNL     1     -21.133   1.370 -10.011  1.00  0.00    -0.278 OA
BRANCH  10  18
HETATM   18  C8  UNL     1     -21.086  -0.830  -6.059  1.00  0.00    -0.148 C 
BRANCH  18  19
HETATM   19  C9  UNL     1     -21.178  -1.114  -4.662  1.00  0.00     0.048 C 
HETATM   20  C10 UNL     1     -20.089  -1.461  -3.952  1.00  0.00    -0.011 C 
BRANCH  20  21
HETATM   21  C11 UNL     1     -20.142  -1.760  -2.506  1.00  0.00    -0.033 C 
HETATM   22  C12 UNL     1     -20.723  -3.158  -2.362  1.00  0.00     0.018 C 
HETATM   23  C13 UNL     1     -18.764  -1.768  -1.868  1.00  0.00     0.018 C 
HETATM   24  C14 UNL     1     -21.040  -0.792  -1.771  1.00  0.00     0.018 C 
ENDBRANCH  20  21
ENDBRANCH  18  19
ENDBRANCH  10  18
ENDBRANCH   3   7
TORSDOF 5
ENDMDL
MODEL 2
REMARK VINA RESULT: -5.861434409      2.389      4.107
REMARK  5 active torsions:
REMARK  status: ('A' for Active; 'I' for Inactive)
REMARK    1  A    between atoms: C3_3  and  O1_5 
REMARK    2  A    between atoms: C3_3  and  C5_7 
REMARK    3  A    between atoms: C7_10  and  C8_11 
REMARK    4  A    between atoms: C8_11  and  C9_12 
REMARK    5  A    between atoms: C10_13  and  C11_14 
ROOT
HETATM    1  C1  UNL     1     -21.723   3.367 -10.331  1.00  0.00     0.015 C 
HETATM    2  C2  UNL     1     -21.951   2.204 -10.497  1.00  0.00    -0.074 C 
HETATM    3  C3  UNL     1     -22.204   0.810 -10.700  1.00  0.00     0.174 C 
HETATM    4  C4  UNL     1     -21.224   0.196 -11.663  1.00  0.00     0.066 C 
ENDROOT
BRANCH   3   5
HETATM    5  O1  UNL     1     -23.432   0.746 -11.444  1.00  0.00    -0.372 OA
ATOM      6  H1  UNL     1     -23.925   1.516 -11.187  1.00  0.00     0.212 HD
ENDBRANCH   3   5
BRANCH   3   7
HETATM    7  C5  UNL     1     -22.477  -0.025  -9.510  1.00  0.00     0.225 C 
HETATM    8  O2  UNL     1     -23.786   0.147  -9.105  1.00  0.00    -0.349 OA
HETATM    9  C6  UNL     1     -23.864   0.906  -8.021  1.00  0.00     0.189 C 
HETATM   10  C7  UNL     1     -22.567   0.581  -7.254  1.00  0.00     0.095 C 
HETATM   11  C15 UNL     1     -21.682   0.007  -8.312  1.00  0.00     0.045 C 
HETATM   12  C16 UNL     1     -20.367   0.732  -8.370  1.00  0.00     0.023 C 
HETATM   13  C17 UNL     1     -21.476  -1.445  -7.963  1.00  0.00     0.096 C 
HETATM   14  C18 UNL     1     -20.197  -1.805  -7.295  1.00  0.00     0.021 C 
HETATM   15  C19 UNL     1     -21.512  -2.099  -9.320  1.00  0.00     0.266 C 
HETATM   16  O3  UNL     1     -20.799  -3.073  -9.678  1.00  0.00    -0.265 OA
HETATM   17  O4  UNL     1     -22.464  -1.389 -10.005  1.00  0.00    -0.278 OA
BRANCH  10  18
HETATM   18  C8  UNL     1     -22.483   0.829  -6.064  1.00  0.00    -0.148 C 
BRANCH  18  19
HETATM   19  C9  UNL     1     -22.385   1.121  -4.669  1.00  0.00     0.048 C 
HETATM   20  C10 UNL     1     -23.476   1.439  -3.949  1.00  0.00    -0.011 C 
BRANCH  20  21
HETATM   21  C11 UNL     1     -23.417   1.744  -2.503  1.00  0.00    -0.033 C 
HETATM   22  C12 UNL     1     -22.835   3.143  -2.368  1.00  0.00     0.018 C 
HETATM   23  C13 UNL     1     -24.793   1.755  -1.860  1.00  0.00     0.018 C 
HETATM   24  C14 UNL     1     -22.516   0.779  -1.768  1.00  0.00     0.018 C 
ENDBRANCH  20  21
ENDBRANCH  18  19
ENDBRANCH  10  18
ENDBRANCH   3   7
TORSDOF 5
ENDMDL
MODEL 3
REMARK VINA RESULT: -5.735543621      9.372     12.462
REMARK  5 active torsions:
REMARK  status: ('A' for Active; 'I' for Inactive)
REMARK    1  A    between atoms: C3_3  and  O1_5 
REMARK    2  A    between atoms: C3_3  and  C5_7 
REMARK    3  A    between atoms: C7_10  and  C8_11 
REMARK    4  A    between atoms: C8_11  and  C9_12 
REMARK    5  A    between atoms: C10_13  and  C11_14 
ROOT
HETATM    1  C1  UNL     1     -28.156   6.150   2.409  1.00  0.00     0.015 C 
HETATM    2  C2  UNL     1     -28.384   5.061   2.852  1.00  0.00    -0.074 C 
HETATM    3  C3  UNL     1     -28.675   3.761   3.374  1.00  0.00     0.174 C 
HETATM    4  C4  UNL     1     -30.139   3.596   3.681  1.00  0.00     0.066 C 
ENDROOT
BRANCH   3   5
HETATM    5  O1  UNL     1     -28.091   3.734   4.686  1.00  0.00    -0.372 OA
ATOM      6  H1  UNL     1     -28.441   4.494   5.136  1.00  0.00     0.212 HD
ENDBRANCH   3   5
BRANCH   3   7
HETATM    7  C5  UNL     1     -28.069   2.593   2.700  1.00  0.00     0.225 C 
HETATM    8  O2  UNL     1     -26.709   2.565   2.940  1.00  0.00    -0.349 OA
HETATM    9  C6  UNL     1     -26.020   2.956   1.877  1.00  0.00     0.189 C 
HETATM   10  C7  UNL     1     -26.881   2.483   0.689  1.00  0.00     0.095 C 
HETATM   11  C15 UNL     1     -28.233   2.303   1.301  1.00  0.00     0.045 C 
HETATM   12  C16 UNL     1     -29.276   3.080   0.549  1.00  0.00     0.023 C 
HETATM   13  C17 UNL     1     -28.533   0.826   1.260  1.00  0.00     0.096 C 
HETATM   14  C18 UNL     1     -29.429   0.349   0.173  1.00  0.00     0.021 C 
HETATM   15  C19 UNL     1     -29.222   0.612   2.582  1.00  0.00     0.266 C 
HETATM   16  O3  UNL     1     -30.189  -0.170   2.781  1.00  0.00    -0.265 OA
HETATM   17  O4  UNL     1     -28.555   1.445   3.443  1.00  0.00    -0.278 OA
BRANCH  10  18
HETATM   18  C8  UNL     1     -26.384   2.364  -0.417  1.00  0.00    -0.148 C 
BRANCH  18  19
HETATM   19  C9  UNL     1     -25.802   2.225  -1.714  1.00  0.00     0.048 C 
HETATM   20  C10 UNL     1     -24.490   1.967  -1.861  1.00  0.00    -0.011 C 
BRANCH  20  21
HETATM   21  C11 UNL     1     -23.850   1.814  -3.185  1.00  0.00    -0.033 C 
HETATM   22  C12 UNL     1     -22.635   2.728  -3.200  1.00  0.00     0.018 C 
HETATM   23  C13 UNL     1     -23.361   0.397  -3.428  1.00  0.00     0.018 C 
HETATM   24  C14 UNL     1     -24.778   2.233  -4.302  1.00  0.00     0.018 C 
ENDBRANCH  20  21
ENDBRANCH  18  19
ENDBRANCH  10  18
ENDBRANCH   3   7
TORSDOF 5
ENDMDL
MODEL 4
REMARK VINA RESULT: -5.716707271      1.573      3.321
REMARK  5 active torsions:
REMARK  status: ('A' for Active; 'I' for Inactive)
REMARK    1  A    between atoms: C3_3  and  O1_5 
REMARK    2  A    between atoms: C3_3  and  C5_7 
REMARK    3  A    between atoms: C7_10  and  C8_11 
REMARK    4  A    between atoms: C8_11  and  C9_12 
REMARK    5  A    between atoms: C10_13  and  C11_14 
ROOT
HETATM    1  C1  UNL     1     -21.564   3.209  -9.916  1.00  0.00     0.015 C 
HETATM    2  C2  UNL     1     -21.858   2.119 -10.314  1.00  0.00    -0.074 C 
HETATM    3  C3  UNL     1     -22.190   0.813 -10.796  1.00  0.00     0.174 C 
HETATM    4  C4  UNL     1     -21.303   0.394 -11.936  1.00  0.00     0.066 C 
ENDROOT
BRANCH   3   5
HETATM    5  O1  UNL     1     -23.463   0.956 -11.447  1.00  0.00    -0.372 OA
ATOM      6  H1  UNL     1     -23.923   0.141 -11.287  1.00  0.00     0.212 HD
ENDBRANCH   3   5
BRANCH   3   7
HETATM    7  C5  UNL     1     -22.429  -0.253  -9.798  1.00  0.00     0.225 C 
HETATM    8  O2  UNL     1     -23.639  -0.043  -9.167  1.00  0.00    -0.349 OA
HETATM    9  C6  UNL     1     -23.471   0.430  -7.940  1.00  0.00     0.189 C 
HETATM   10  C7  UNL     1     -22.148  -0.212  -7.478  1.00  0.00     0.095 C 
HETATM   11  C15 UNL     1     -21.493  -0.602  -8.763  1.00  0.00     0.045 C 
HETATM   12  C16 UNL     1     -20.107  -0.033  -8.860  1.00  0.00     0.023 C 
HETATM   13  C17 UNL     1     -21.456  -2.109  -8.790  1.00  0.00     0.096 C 
HETATM   14  C18 UNL     1     -20.168  -2.759  -8.429  1.00  0.00     0.021 C 
HETATM   15  C19 UNL     1     -21.755  -2.402 -10.237  1.00  0.00     0.266 C 
HETATM   16  O3  UNL     1     -21.239  -3.331 -10.913  1.00  0.00    -0.265 OA
HETATM   17  O4  UNL     1     -22.674  -1.447 -10.587  1.00  0.00    -0.278 OA
BRANCH  10  18
HETATM   18  C8  UNL     1     -21.881  -0.274  -6.291  1.00  0.00    -0.148 C 
BRANCH  18  19
HETATM   19  C9  UNL     1     -21.567  -0.346  -4.899  1.00  0.00     0.048 C 
HETATM   20  C10 UNL     1     -20.750  -1.302  -4.421  1.00  0.00    -0.011 C 
BRANCH  20  21
HETATM   21  C11 UNL     1     -20.399  -1.409  -2.989  1.00  0.00    -0.033 C 
HETATM   22  C12 UNL     1     -20.727  -2.828  -2.556  1.00  0.00     0.018 C 
HETATM   23  C13 UNL     1     -18.917  -1.184  -2.741  1.00  0.00     0.018 C 
HETATM   24  C14 UNL     1     -21.209  -0.452  -2.146  1.00  0.00     0.018 C 
ENDBRANCH  20  21
ENDBRANCH  18  19
ENDBRANCH  10  18
ENDBRANCH   3   7
TORSDOF 5
ENDMDL
MODEL 5
REMARK VINA RESULT: -5.672069162      8.904     12.082
REMARK  5 active torsions:
REMARK  status: ('A' for Active; 'I' for Inactive)
REMARK    1  A    between atoms: C3_3  and  O1_5 
REMARK    2  A    between atoms: C3_3  and  C5_7 
REMARK    3  A    between atoms: C7_10  and  C8_11 
REMARK    4  A    between atoms: C8_11  and  C9_12 
REMARK    5  A    between atoms: C10_13  and  C11_14 
ROOT
HETATM    1  C1  UNL     1     -30.553   0.463   1.463  1.00  0.00     0.015 C 
HETATM    2  C2  UNL     1     -30.051   1.372   2.058  1.00  0.00    -0.074 C 
HETATM    3  C3  UNL     1     -29.440   2.445   2.782  1.00  0.00     0.174 C 
HETATM    4  C4  UNL     1     -29.215   2.089   4.227  1.00  0.00     0.066 C 
ENDROOT
BRANCH   3   5
HETATM    5  O1  UNL     1     -30.448   3.464   2.881  1.00  0.00    -0.372 OA
ATOM      6  H1  UNL     1     -30.015   4.274   2.640  1.00  0.00     0.212 HD
ENDBRANCH   3   5
BRANCH   3   7
HETATM    7  C5  UNL     1     -28.300   3.145   2.152  1.00  0.00     0.225 C 
HETATM    8  O2  UNL     1     -28.746   3.913   1.095  1.00  0.00    -0.349 OA
HETATM    9  C6  UNL     1     -28.451   3.354  -0.070  1.00  0.00     0.189 C 
HETATM   10  C7  UNL     1     -27.123   2.621   0.202  1.00  0.00     0.095 C 
HETATM   11  C15 UNL     1     -27.111   2.480   1.689  1.00  0.00     0.045 C 
HETATM   12  C16 UNL     1     -26.913   1.048   2.097  1.00  0.00     0.023 C 
HETATM   13  C17 UNL     1     -25.983   3.342   2.197  1.00  0.00     0.096 C 
HETATM   14  C18 UNL     1     -24.712   2.653   2.547  1.00  0.00     0.021 C 
HETATM   15  C19 UNL     1     -26.577   3.925   3.452  1.00  0.00     0.266 C 
HETATM   16  O3  UNL     1     -25.949   4.141   4.522  1.00  0.00    -0.265 OA
HETATM   17  O4  UNL     1     -27.892   4.138   3.129  1.00  0.00    -0.278 OA
BRANCH  10  18
HETATM   18  C8  UNL     1     -26.400   2.303  -0.726  1.00  0.00    -0.148 C 
BRANCH  18  19
HETATM   19  C9  UNL     1     -25.552   1.930  -1.813  1.00  0.00     0.048 C 
HETATM   20  C10 UNL     1     -24.214   1.918  -1.676  1.00  0.00    -0.011 C 
BRANCH  20  21
HETATM   21  C11 UNL     1     -23.302   1.536  -2.776  1.00  0.00    -0.033 C 
HETATM   22  C12 UNL     1     -24.155   0.881  -3.851  1.00  0.00     0.018 C 
HETATM   23  C13 UNL     1     -22.619   2.739  -3.402  1.00  0.00     0.018 C 
HETATM   24  C14 UNL     1     -22.264   0.540  -2.316  1.00  0.00     0.018 C 
ENDBRANCH  20  21
ENDBRANCH  18  19
ENDBRANCH  10  18
ENDBRANCH   3   7
TORSDOF 5
ENDMDL
