MODEL 1
REMARK VINA RESULT: -6.342409678      0.000      0.000
REMARK  3 active torsions:
REMARK  status: ('A' for Active; 'I' for Inactive)
REMARK    1  A    between atoms: C2_2  and  C4_4 
REMARK    2  A    between atoms: N1_5  and  C5_6 
REMARK    3  A    between atoms: C14_16  and  C16_18 
ROOT
HETATM    1  C4  UNL     1      10.607 -12.245  -6.787  1.00  0.00     0.261 C 
HETATM    2  N1  UNL     1      10.364 -11.380  -5.614  1.00  0.00     0.101 N 
HETATM    3  C10 UNL     1       9.067 -11.712  -5.140  1.00  0.00     0.276 C 
HETATM    4  C11 UNL     1       8.617 -12.942  -5.901  1.00  0.00     0.071 C 
HETATM    5  C12 UNL     1       9.997 -13.501  -6.358  1.00  0.00     0.099 C 
HETATM    6  C13 UNL     1       9.855 -14.682  -7.235  1.00  0.00     0.089 C 
HETATM    7  C14 UNL     1      10.366 -15.462  -6.045  1.00  0.00     0.149 C 
HETATM    8  C15 UNL     1      11.632 -16.281  -6.359  1.00  0.00     0.058 C 
HETATM    9  O4  UNL     1      10.602 -14.279  -5.406  1.00  0.00    -0.356 OA
ENDROOT
BRANCH   1  10
HETATM   10  C2  UNL     1      11.998 -12.148  -7.234  1.00  0.00     0.014 C 
HETATM   11  C1  UNL     1      12.229 -12.505  -8.665  1.00  0.00     0.012 C 
HETATM   12  C3  UNL     1      13.014 -12.854  -6.382  1.00  0.00     0.012 C 
ENDBRANCH   1  10
BRANCH   2  13
HETATM   13  C5  UNL     1      10.552  -9.991  -5.917  1.00  0.00     0.227 C 
HETATM   14  C6  UNL     1      11.172  -9.354  -4.668  1.00  0.00     0.062 C 
HETATM   15  C7  UNL     1      11.443  -7.906  -5.026  1.00  0.00     0.169 C 
HETATM   16  O1  UNL     1      10.169  -7.302  -5.136  1.00  0.00    -0.391 OA
HETATM   17  C8  UNL     1       9.582  -7.768  -6.284  1.00  0.00     0.169 C 
HETATM   18  C9  UNL     1       9.307  -9.256  -6.268  1.00  0.00     0.062 C 
ENDBRANCH   2  13
BRANCH   7  19
HETATM   19  C16 UNL     1       9.382 -16.396  -5.493  1.00  0.00     0.209 C 
HETATM   20  O2  UNL     1       9.727 -16.999  -4.421  1.00  0.00    -0.646 OA
HETATM   21  O3  UNL     1       8.150 -16.692  -5.992  1.00  0.00    -0.646 OA
ENDBRANCH   7  19
TORSDOF 3
ENDMDL
MODEL 2
REMARK VINA RESULT: -5.435325731      1.941      6.358
REMARK  3 active torsions:
REMARK  status: ('A' for Active; 'I' for Inactive)
REMARK    1  A    between atoms: C2_2  and  C4_4 
REMARK    2  A    between atoms: N1_5  and  C5_6 
REMARK    3  A    between atoms: C14_16  and  C16_18 
ROOT
HETATM    1  C4  UNL     1      10.304 -13.544  -6.161  1.00  0.00     0.261 C 
HETATM    2  N1  UNL     1      10.355 -14.303  -4.894  1.00  0.00     0.101 N 
HETATM    3  C10 UNL     1      11.410 -13.732  -4.134  1.00  0.00     0.276 C 
HETATM    4  C11 UNL     1      11.852 -12.477  -4.857  1.00  0.00     0.071 C 
HETATM    5  C12 UNL     1      10.576 -12.184  -5.701  1.00  0.00     0.099 C 
HETATM    6  C13 UNL     1      10.763 -11.035  -6.612  1.00  0.00     0.089 C 
HETATM    7  C14 UNL     1       9.838 -10.304  -5.665  1.00  0.00     0.149 C 
HETATM    8  C15 UNL     1       8.591  -9.729  -6.364  1.00  0.00     0.058 C 
HETATM    9  O4  UNL     1       9.625 -11.481  -5.008  1.00  0.00    -0.356 OA
ENDROOT
BRANCH   1  10
HETATM   10  C2  UNL     1       9.116 -13.897  -6.940  1.00  0.00     0.014 C 
HETATM   11  C1  UNL     1       9.168 -13.515  -8.382  1.00  0.00     0.012 C 
HETATM   12  C3  UNL     1       7.798 -13.463  -6.364  1.00  0.00     0.012 C 
ENDBRANCH   1  10
BRANCH   2  13
HETATM   13  C5  UNL     1      10.472 -15.715  -5.113  1.00  0.00     0.227 C 
HETATM   14  C6  UNL     1      10.566 -16.363  -3.727  1.00  0.00     0.062 C 
HETATM   15  C7  UNL     1      10.607 -17.859  -3.965  1.00  0.00     0.169 C 
HETATM   16  O1  UNL     1      11.865 -18.111  -4.560  1.00  0.00    -0.391 OA
HETATM   17  C8  UNL     1      11.826 -17.625  -5.841  1.00  0.00     0.169 C 
HETATM   18  C9  UNL     1      11.652 -16.124  -5.920  1.00  0.00     0.062 C 
ENDBRANCH   2  13
BRANCH   7  19
HETATM   19  C16 UNL     1      10.481  -9.191  -4.963  1.00  0.00     0.209 C 
HETATM   20  O2  UNL     1       9.805  -8.666  -4.014  1.00  0.00    -0.646 OA
HETATM   21  O3  UNL     1      11.711  -8.658  -5.206  1.00  0.00    -0.646 OA
ENDBRANCH   7  19
TORSDOF 3
ENDMDL
MODEL 3
REMARK VINA RESULT: -5.289001346      1.611      2.358
REMARK  3 active torsions:
REMARK  status: ('A' for Active; 'I' for Inactive)
REMARK    1  A    between atoms: C2_2  and  C4_4 
REMARK    2  A    between atoms: N1_5  and  C5_6 
REMARK    3  A    between atoms: C14_16  and  C16_18 
ROOT
HETATM    1  C4  UNL     1      10.257 -13.107  -5.955  1.00  0.00     0.261 C 
HETATM    2  N1  UNL     1       9.107 -12.201  -5.749  1.00  0.00     0.101 N 
HETATM    3  C10 UNL     1       8.302 -12.313  -6.914  1.00  0.00     0.276 C 
HETATM    4  C11 UNL     1       8.857 -13.463  -7.729  1.00  0.00     0.071 C 
HETATM    5  C12 UNL     1       9.620 -14.243  -6.618  1.00  0.00     0.099 C 
HETATM    6  C13 UNL     1      10.368 -15.396  -7.162  1.00  0.00     0.089 C 
HETATM    7  C14 UNL     1       9.308 -16.235  -6.486  1.00  0.00     0.149 C 
HETATM    8  C15 UNL     1       9.889 -17.251  -5.486  1.00  0.00     0.058 C 
HETATM    9  O4  UNL     1       8.813 -15.098  -5.913  1.00  0.00    -0.356 OA
ENDROOT
BRANCH   1  10
HETATM   10  C2  UNL     1      11.047 -13.243  -4.730  1.00  0.00     0.014 C 
HETATM   11  C1  UNL     1      12.437 -13.750  -4.927  1.00  0.00     0.012 C 
HETATM   12  C3  UNL     1      10.400 -14.006  -3.610  1.00  0.00     0.012 C 
ENDBRANCH   1  10
BRANCH   2  13
HETATM   13  C5  UNL     1       9.522 -10.865  -5.436  1.00  0.00     0.227 C 
HETATM   14  C6  UNL     1       8.698  -9.933  -6.333  1.00  0.00     0.062 C 
HETATM   15  C7  UNL     1       9.083  -8.521  -5.936  1.00  0.00     0.169 C 
HETATM   16  O1  UNL     1      10.415  -8.356  -6.382  1.00  0.00    -0.391 OA
HETATM   17  C8  UNL     1      11.224  -9.104  -5.568  1.00  0.00     0.169 C 
HETATM   18  C9  UNL     1      10.968 -10.594  -5.653  1.00  0.00     0.062 C 
ENDBRANCH   2  13
BRANCH   7  19
HETATM   19  C16 UNL     1       8.475 -16.991  -7.424  1.00  0.00     0.209 C 
HETATM   20  O2  UNL     1       8.716 -18.243  -7.498  1.00  0.00    -0.646 OA
HETATM   21  O3  UNL     1       7.478 -16.512  -8.219  1.00  0.00    -0.646 OA
ENDBRANCH   7  19
TORSDOF 3
ENDMDL
MODEL 4
REMARK VINA RESULT: -5.268181158      1.959      6.250
REMARK  3 active torsions:
REMARK  status: ('A' for Active; 'I' for Inactive)
REMARK    1  A    between atoms: C2_2  and  C4_4 
REMARK    2  A    between atoms: N1_5  and  C5_6 
REMARK    3  A    between atoms: C14_16  and  C16_18 
ROOT
HETATM    1  C4  UNL     1       9.968 -12.207  -5.418  1.00  0.00     0.261 C 
HETATM    2  N1  UNL     1      10.226 -12.720  -6.780  1.00  0.00     0.101 N 
HETATM    3  C10 UNL     1       9.359 -12.000  -7.645  1.00  0.00     0.276 C 
HETATM    4  C11 UNL     1       8.734 -10.891  -6.825  1.00  0.00     0.071 C 
HETATM    5  C12 UNL     1       9.776 -10.780  -5.673  1.00  0.00     0.099 C 
HETATM    6  C13 UNL     1       9.358  -9.814  -4.635  1.00  0.00     0.089 C 
HETATM    7  C14 UNL     1      10.456  -8.940  -5.195  1.00  0.00     0.149 C 
HETATM    8  C15 UNL     1      11.496  -8.525  -4.137  1.00  0.00     0.058 C 
HETATM    9  O4  UNL     1      10.842  -9.980  -5.990  1.00  0.00    -0.356 OA
ENDROOT
BRANCH   1  10
HETATM   10  C2  UNL     1      10.955 -12.718  -4.466  1.00  0.00     0.014 C 
HETATM   11  C1  UNL     1      12.311 -12.972  -5.035  1.00  0.00     0.012 C 
HETATM   12  C3  UNL     1      10.531 -13.910  -3.655  1.00  0.00     0.012 C 
ENDBRANCH   1  10
BRANCH   2  13
HETATM   13  C5  UNL     1      10.097 -14.146  -6.855  1.00  0.00     0.227 C 
HETATM   14  C6  UNL     1      10.739 -14.571  -8.180  1.00  0.00     0.062 C 
HETATM   15  C7  UNL     1      10.671 -16.085  -8.212  1.00  0.00     0.169 C 
HETATM   16  O1  UNL     1       9.300 -16.396  -8.367  1.00  0.00    -0.391 OA
HETATM   17  C8  UNL     1       8.671 -16.114  -7.183  1.00  0.00     0.169 C 
HETATM   18  C9  UNL     1       8.697 -14.647  -6.812  1.00  0.00     0.062 C 
ENDBRANCH   2  13
BRANCH   7  19
HETATM   19  C16 UNL     1       9.964  -7.706  -5.811  1.00  0.00     0.209 C 
HETATM   20  O2  UNL     1      10.616  -6.643  -5.529  1.00  0.00    -0.646 OA
HETATM   21  O3  UNL     1       8.897  -7.565  -6.646  1.00  0.00    -0.646 OA
ENDBRANCH   7  19
TORSDOF 3
ENDMDL
MODEL 5
REMARK VINA RESULT: -5.231051791      2.836      6.326
REMARK  3 active torsions:
REMARK  status: ('A' for Active; 'I' for Inactive)
REMARK    1  A    between atoms: C2_2  and  C4_4 
REMARK    2  A    between atoms: N1_5  and  C5_6 
REMARK    3  A    between atoms: C14_16  and  C16_18 
ROOT
HETATM    1  C4  UNL     1      11.759 -15.254  -6.462  1.00  0.00     0.261 C 
HETATM    2  N1  UNL     1      12.712 -15.244  -5.333  1.00  0.00     0.101 N 
HETATM    3  C10 UNL     1      13.325 -13.962  -5.344  1.00  0.00     0.276 C 
HETATM    4  C11 UNL     1      12.574 -13.119  -6.353  1.00  0.00     0.071 C 
HETATM    5  C12 UNL     1      11.225 -13.895  -6.409  1.00  0.00     0.099 C 
HETATM    6  C13 UNL     1      10.304 -13.338  -7.422  1.00  0.00     0.089 C 
HETATM    7  C14 UNL     1       9.520 -12.826  -6.236  1.00  0.00     0.149 C 
HETATM    8  C15 UNL     1       8.058 -13.312  -6.225  1.00  0.00     0.058 C 
HETATM    9  O4  UNL     1      10.355 -13.528  -5.416  1.00  0.00    -0.356 OA
ENDROOT
BRANCH   1  10
HETATM   10  C2  UNL     1      10.909 -16.444  -6.424  1.00  0.00     0.014 C 
HETATM   11  C1  UNL     1      10.135 -16.710  -7.673  1.00  0.00     0.012 C 
HETATM   12  C3  UNL     1       9.987 -16.558  -5.243  1.00  0.00     0.012 C 
ENDBRANCH   1  10
BRANCH   2  13
HETATM   13  C5  UNL     1      13.628 -16.345  -5.387  1.00  0.00     0.227 C 
HETATM   14  C6  UNL     1      14.522 -16.229  -4.147  1.00  0.00     0.062 C 
HETATM   15  C7  UNL     1      15.431 -17.441  -4.170  1.00  0.00     0.169 C 
HETATM   16  O1  UNL     1      16.308 -17.232  -5.260  1.00  0.00    -0.391 OA
HETATM   17  C8  UNL     1      15.589 -17.402  -6.414  1.00  0.00     0.169 C 
HETATM   18  C9  UNL     1      14.486 -16.382  -6.601  1.00  0.00     0.062 C 
ENDBRANCH   2  13
BRANCH   7  19
HETATM   19  C16 UNL     1       9.481 -11.365  -6.148  1.00  0.00     0.209 C 
HETATM   20  O2  UNL     1       8.522 -10.873  -5.461  1.00  0.00    -0.646 OA
HETATM   21  O3  UNL     1      10.348 -10.477  -6.711  1.00  0.00    -0.646 OA
ENDBRANCH   7  19
TORSDOF 3
ENDMDL
