MODEL 1
REMARK VINA RESULT: -7.394409781      0.000      0.000
REMARK  6 active torsions:
REMARK  status: ('A' for Active; 'I' for Inactive)
REMARK    1  A    between atoms: N1_5  and  C5_6 
REMARK    2  A    between atoms: C5_6  and  O1_7 
REMARK    3  A    between atoms: C5_6  and  C6_9 
REMARK    4  A    between atoms: C6_9  and  O2_12 
REMARK    5  A    between atoms: O2_12  and  C9_13 
REMARK    6  A    between atoms: C15_19  and  O3_20 
ROOT
HETATM    1  C6  UNL     1      10.666  -9.007  -5.160  1.00  0.00     0.118 C 
HETATM    2  C7  UNL     1       9.560  -8.983  -4.053  1.00  0.00     0.055 C 
HETATM    3  C8  UNL     1       9.987  -8.141  -6.251  1.00  0.00     0.055 C 
ENDROOT
BRANCH   1   4
HETATM    4  C5  UNL     1      11.704  -8.128  -4.636  1.00  0.00     0.148 C 
BRANCH   4   5
HETATM    5  N1  UNL     1      11.845  -7.568  -3.348  1.00  0.00    -0.363 N 
HETATM    6  C4  UNL     1      11.709  -8.236  -2.091  1.00  0.00     0.125 C 
HETATM    7  C3  UNL     1      12.808  -7.867  -1.116  1.00  0.00     0.024 C 
HETATM    8  C2  UNL     1      13.015  -6.398  -0.950  1.00  0.00    -0.015 C 
HETATM    9  C1  UNL     1      12.801  -5.993   0.515  1.00  0.00     0.010 C 
HETATM   10  C18 UNL     1      12.023  -5.663  -1.825  1.00  0.00     0.024 C 
HETATM   11  C17 UNL     1      12.192  -6.142  -3.239  1.00  0.00     0.125 C 
ENDBRANCH   4   5
BRANCH   4  12
HETATM   12  O1  UNL     1      12.693  -7.775  -5.418  1.00  0.00    -0.347 OA
ATOM     13  H1  UNL     1      12.673  -6.843  -5.599  1.00  0.00     0.219 HD
ENDBRANCH   4  12
ENDBRANCH   1   4
BRANCH   1  14
HETATM   14  O2  UNL     1      10.999 -10.194  -5.540  1.00  0.00    -0.367 OA
BRANCH  14  15
HETATM   15  C9  UNL     1      10.431 -11.029  -6.414  1.00  0.00     0.126 C 
HETATM   16  C10 UNL     1      11.381 -11.965  -7.114  1.00  0.00     0.033 C 
HETATM   17  C11 UNL     1      12.763 -12.173  -6.549  1.00  0.00     0.014 C 
HETATM   18  C12 UNL     1      12.697 -13.264  -5.369  1.00  0.00     0.094 C 
HETATM   19  C13 UNL     1      11.332 -13.160  -4.996  1.00  0.00    -0.104 C 
HETATM   20  C14 UNL     1      10.301 -12.945  -4.874  1.00  0.00    -0.075 C 
HETATM   21  C15 UNL     1       8.956 -12.493  -4.939  1.00  0.00     0.199 C 
HETATM   22  C16 UNL     1       9.017 -11.524  -6.221  1.00  0.00     0.076 C 
BRANCH  21  23
HETATM   23  O3  UNL     1       8.075 -13.497  -5.154  1.00  0.00    -0.383 OA
ATOM     24  H3  UNL     1       8.398 -14.147  -5.766  1.00  0.00     0.211 HD
ENDBRANCH  21  23
ENDBRANCH  14  15
ENDBRANCH   1  14
TORSDOF 6
ENDMDL
MODEL 2
REMARK VINA RESULT: -7.009896980      3.646      5.825
REMARK  6 active torsions:
REMARK  status: ('A' for Active; 'I' for Inactive)
REMARK    1  A    between atoms: N1_5  and  C5_6 
REMARK    2  A    between atoms: C5_6  and  O1_7 
REMARK    3  A    between atoms: C5_6  and  C6_9 
REMARK    4  A    between atoms: C6_9  and  O2_12 
REMARK    5  A    between atoms: O2_12  and  C9_13 
REMARK    6  A    between atoms: C15_19  and  O3_20 
ROOT
HETATM    1  C6  UNL     1      11.336 -14.308  -5.296  1.00  0.00     0.118 C 
HETATM    2  C7  UNL     1      10.985 -14.477  -6.811  1.00  0.00     0.055 C 
HETATM    3  C8  UNL     1      12.686 -13.555  -5.404  1.00  0.00     0.055 C 
ENDROOT
BRANCH   1   4
HETATM    4  C5  UNL     1      10.415 -13.275  -4.836  1.00  0.00     0.148 C 
BRANCH   4   5
HETATM    5  N1  UNL     1      10.244 -11.952  -5.295  1.00  0.00    -0.363 N 
HETATM    6  C4  UNL     1       9.236 -11.465  -6.186  1.00  0.00     0.125 C 
HETATM    7  C3  UNL     1       8.629 -10.159  -5.717  1.00  0.00     0.024 C 
HETATM    8  C2  UNL     1       9.628  -9.105  -5.371  1.00  0.00    -0.015 C 
HETATM    9  C1  UNL     1       9.414  -7.862  -6.246  1.00  0.00     0.010 C 
HETATM   10  C18 UNL     1      11.019  -9.654  -5.608  1.00  0.00     0.024 C 
HETATM   11  C17 UNL     1      11.172 -10.918  -4.812  1.00  0.00     0.125 C 
ENDBRANCH   4   5
BRANCH   4  12
HETATM   12  O1  UNL     1       9.582 -13.552  -3.864  1.00  0.00    -0.347 OA
ATOM     13  H1  UNL     1      10.008 -14.051  -3.177  1.00  0.00     0.219 HD
ENDBRANCH   4  12
ENDBRANCH   1   4
BRANCH   1  14
HETATM   14  O2  UNL     1      11.387 -15.421  -4.644  1.00  0.00    -0.367 OA
BRANCH  14  15
HETATM   15  C9  UNL     1      11.045 -16.662  -4.998  1.00  0.00     0.126 C 
HETATM   16  C10 UNL     1      12.200 -17.600  -5.236  1.00  0.00     0.033 C 
HETATM   17  C11 UNL     1      13.567 -17.233  -4.716  1.00  0.00     0.014 C 
HETATM   18  C12 UNL     1      13.673 -17.638  -3.163  1.00  0.00     0.094 C 
HETATM   19  C13 UNL     1      12.299 -17.655  -2.807  1.00  0.00    -0.104 C 
HETATM   20  C14 UNL     1      11.242 -17.624  -2.741  1.00  0.00    -0.075 C 
HETATM   21  C15 UNL     1       9.838 -17.541  -2.933  1.00  0.00     0.199 C 
HETATM   22  C16 UNL     1       9.757 -17.289  -4.519  1.00  0.00     0.076 C 
BRANCH  21  23
HETATM   23  O3  UNL     1       9.194 -18.686  -2.609  1.00  0.00    -0.383 OA
ATOM     24  H3  UNL     1       9.648 -19.188  -1.943  1.00  0.00     0.211 HD
ENDBRANCH  21  23
ENDBRANCH  14  15
ENDBRANCH   1  14
TORSDOF 6
ENDMDL
MODEL 3
REMARK VINA RESULT: -6.954012166      2.151      7.007
REMARK  6 active torsions:
REMARK  status: ('A' for Active; 'I' for Inactive)
REMARK    1  A    between atoms: N1_5  and  C5_6 
REMARK    2  A    between atoms: C5_6  and  O1_7 
REMARK    3  A    between atoms: C5_6  and  C6_9 
REMARK    4  A    between atoms: C6_9  and  O2_12 
REMARK    5  A    between atoms: O2_12  and  C9_13 
REMARK    6  A    between atoms: C15_19  and  O3_20 
ROOT
HETATM    1  C6  UNL     1      11.463  -7.467  -4.405  1.00  0.00     0.118 C 
HETATM    2  C7  UNL     1      12.357  -8.018  -5.565  1.00  0.00     0.055 C 
HETATM    3  C8  UNL     1      10.603  -6.437  -5.181  1.00  0.00     0.055 C 
ENDROOT
BRANCH   1   4
HETATM    4  C5  UNL     1      10.525  -8.553  -4.141  1.00  0.00     0.148 C 
BRANCH   4   5
HETATM    5  N1  UNL     1      10.187  -9.665  -4.941  1.00  0.00    -0.363 N 
HETATM    6  C4  UNL     1      10.914 -10.888  -5.079  1.00  0.00     0.125 C 
HETATM    7  C3  UNL     1      10.016 -12.107  -5.026  1.00  0.00     0.024 C 
HETATM    8  C2  UNL     1       8.841 -12.046  -5.945  1.00  0.00    -0.015 C 
HETATM    9  C1  UNL     1       8.879 -13.220  -6.934  1.00  0.00     0.010 C 
HETATM   10  C18 UNL     1       8.887 -10.741  -6.711  1.00  0.00     0.024 C 
HETATM   11  C17 UNL     1       8.940  -9.612  -5.721  1.00  0.00     0.125 C 
ENDBRANCH   4   5
BRANCH   4  12
HETATM   12  O1  UNL     1       9.875  -8.569  -3.005  1.00  0.00    -0.347 OA
ATOM     13  H1  UNL     1       9.790  -9.453  -2.669  1.00  0.00     0.219 HD
ENDBRANCH   4  12
ENDBRANCH   1   4
BRANCH   1  14
HETATM   14  O2  UNL     1      12.133  -6.979  -3.416  1.00  0.00    -0.367 OA
BRANCH  14  15
HETATM   15  C9  UNL     1      11.797  -6.081  -2.487  1.00  0.00     0.126 C 
HETATM   16  C10 UNL     1      11.764  -6.605  -1.075  1.00  0.00     0.033 C 
HETATM   17  C11 UNL     1      12.446  -7.910  -0.756  1.00  0.00     0.014 C 
HETATM   18  C12 UNL     1      14.017  -7.650  -0.529  1.00  0.00     0.094 C 
HETATM   19  C13 UNL     1      14.184  -6.438  -1.249  1.00  0.00    -0.104 C 
HETATM   20  C14 UNL     1      14.104  -5.547  -1.816  1.00  0.00    -0.075 C 
HETATM   21  C15 UNL     1      13.719  -4.410  -2.576  1.00  0.00     0.199 C 
HETATM   22  C16 UNL     1      12.126  -4.616  -2.655  1.00  0.00     0.076 C 
BRANCH  21  23
HETATM   23  O3  UNL     1      14.008  -3.242  -1.957  1.00  0.00    -0.383 OA
ATOM     24  H3  UNL     1      14.609  -2.700  -2.454  1.00  0.00     0.211 HD
ENDBRANCH  21  23
ENDBRANCH  14  15
ENDBRANCH   1  14
TORSDOF 6
ENDMDL
MODEL 4
REMARK VINA RESULT: -6.808978002      3.310      5.437
REMARK  6 active torsions:
REMARK  status: ('A' for Active; 'I' for Inactive)
REMARK    1  A    between atoms: N1_5  and  C5_6 
REMARK    2  A    between atoms: C5_6  and  O1_7 
REMARK    3  A    between atoms: C5_6  and  C6_9 
REMARK    4  A    between atoms: C6_9  and  O2_12 
REMARK    5  A    between atoms: O2_12  and  C9_13 
REMARK    6  A    between atoms: C15_19  and  O3_20 
ROOT
HETATM    1  C6  UNL     1       9.759 -13.894  -6.216  1.00  0.00     0.118 C 
HETATM    2  C7  UNL     1      10.248 -14.919  -5.139  1.00  0.00     0.055 C 
HETATM    3  C8  UNL     1       8.402 -14.530  -6.610  1.00  0.00     0.055 C 
ENDROOT
BRANCH   1   4
HETATM    4  C5  UNL     1       9.365 -12.728  -5.433  1.00  0.00     0.148 C 
BRANCH   4   5
HETATM    5  N1  UNL     1       9.675 -11.365  -5.630  1.00  0.00    -0.363 N 
HETATM    6  C4  UNL     1       8.996 -10.434  -6.477  1.00  0.00     0.125 C 
HETATM    7  C3  UNL     1       8.765  -9.097  -5.803  1.00  0.00     0.024 C 
HETATM    8  C2  UNL     1       9.985  -8.503  -5.181  1.00  0.00    -0.015 C 
HETATM    9  C1  UNL     1      10.284  -7.132  -5.804  1.00  0.00     0.010 C 
HETATM   10  C18 UNL     1      11.157  -9.431  -5.421  1.00  0.00     0.024 C 
HETATM   11  C17 UNL     1      10.804 -10.788  -4.883  1.00  0.00     0.125 C 
ENDBRANCH   4   5
BRANCH   4  12
HETATM   12  O1  UNL     1       8.598 -12.894  -4.385  1.00  0.00    -0.347 OA
ATOM     13  H1  UNL     1       8.763 -13.730  -3.967  1.00  0.00     0.219 HD
ENDBRANCH   4  12
ENDBRANCH   1   4
BRANCH   1  14
HETATM   14  O2  UNL     1      10.585 -13.729  -7.193  1.00  0.00    -0.367 OA
BRANCH  14  15
HETATM   15  C9  UNL     1      11.791 -14.253  -7.422  1.00  0.00     0.126 C 
HETATM   16  C10 UNL     1      11.873 -15.171  -8.614  1.00  0.00     0.033 C 
HETATM   17  C11 UNL     1      10.774 -15.141  -9.645  1.00  0.00     0.014 C 
HETATM   18  C12 UNL     1      11.037 -13.930 -10.670  1.00  0.00     0.094 C 
HETATM   19  C13 UNL     1      11.856 -13.089  -9.872  1.00  0.00    -0.104 C 
HETATM   20  C14 UNL     1      12.451 -12.614  -9.135  1.00  0.00    -0.075 C 
HETATM   21  C15 UNL     1      13.207 -12.216  -8.001  1.00  0.00     0.199 C 
HETATM   22  C16 UNL     1      13.053 -13.508  -7.057  1.00  0.00     0.076 C 
BRANCH  21  23
HETATM   23  O3  UNL     1      14.512 -12.000  -8.289  1.00  0.00    -0.383 OA
ATOM     24  H3  UNL     1      14.753 -12.302  -9.156  1.00  0.00     0.211 HD
ENDBRANCH  21  23
ENDBRANCH  14  15
ENDBRANCH   1  14
TORSDOF 6
ENDMDL
MODEL 5
REMARK VINA RESULT: -6.727681338      4.778      7.568
REMARK  6 active torsions:
REMARK  status: ('A' for Active; 'I' for Inactive)
REMARK    1  A    between atoms: N1_5  and  C5_6 
REMARK    2  A    between atoms: C5_6  and  O1_7 
REMARK    3  A    between atoms: C5_6  and  C6_9 
REMARK    4  A    between atoms: C6_9  and  O2_12 
REMARK    5  A    between atoms: O2_12  and  C9_13 
REMARK    6  A    between atoms: C15_19  and  O3_20 
ROOT
HETATM    1  C6  UNL     1       9.662 -15.695  -6.473  1.00  0.00     0.118 C 
HETATM    2  C7  UNL     1      10.087 -16.387  -7.810  1.00  0.00     0.055 C 
HETATM    3  C8  UNL     1       8.119 -15.791  -6.588  1.00  0.00     0.055 C 
ENDROOT
BRANCH   1   4
HETATM    4  C5  UNL     1       9.981 -16.686  -5.451  1.00  0.00     0.148 C 
BRANCH   4   5
HETATM    5  N1  UNL     1      11.234 -17.065  -4.925  1.00  0.00    -0.363 N 
HETATM    6  C4  UNL     1      12.341 -17.625  -5.636  1.00  0.00     0.125 C 
HETATM    7  C3  UNL     1      13.661 -16.991  -5.249  1.00  0.00     0.024 C 
HETATM    8  C2  UNL     1      13.909 -16.936  -3.777  1.00  0.00    -0.015 C 
HETATM    9  C1  UNL     1      15.193 -17.702  -3.427  1.00  0.00     0.010 C 
HETATM   10  C18 UNL     1      12.735 -17.567  -3.060  1.00  0.00     0.024 C 
HETATM   11  C17 UNL     1      11.482 -16.858  -3.489  1.00  0.00     0.125 C 
ENDBRANCH   4   5
BRANCH   4  12
HETATM   12  O1  UNL     1       9.007 -17.351  -4.883  1.00  0.00    -0.347 OA
ATOM     13  H1  UNL     1       8.763 -16.962  -4.052  1.00  0.00     0.219 HD
ENDBRANCH   4  12
ENDBRANCH   1   4
BRANCH   1  14
HETATM   14  O2  UNL     1      10.122 -14.498  -6.334  1.00  0.00    -0.367 OA
BRANCH  14  15
HETATM   15  C9  UNL     1      10.366 -13.773  -5.240  1.00  0.00     0.126 C 
HETATM   16  C10 UNL     1      11.811 -13.403  -5.027  1.00  0.00     0.033 C 
HETATM   17  C11 UNL     1      12.778 -13.518  -6.178  1.00  0.00     0.014 C 
HETATM   18  C12 UNL     1      12.669 -12.204  -7.100  1.00  0.00     0.094 C 
HETATM   19  C13 UNL     1      11.361 -11.764  -6.767  1.00  0.00    -0.104 C 
HETATM   20  C14 UNL     1      10.387 -11.596  -6.387  1.00  0.00    -0.075 C 
HETATM   21  C15 UNL     1       9.140 -11.589  -5.707  1.00  0.00     0.199 C 
HETATM   22  C16 UNL     1       9.337 -12.815  -4.686  1.00  0.00     0.076 C 
BRANCH  21  23
HETATM   23  O3  UNL     1       8.921 -10.442  -5.023  1.00  0.00    -0.383 OA
ATOM     24  H3  UNL     1       9.723 -10.040  -4.712  1.00  0.00     0.211 HD
ENDBRANCH  21  23
ENDBRANCH  14  15
ENDBRANCH   1  14
TORSDOF 6
ENDMDL
