MODEL 1
REMARK VINA RESULT: -7.607560102      0.000      0.000
REMARK  3 active torsions:
REMARK  status: ('A' for Active; 'I' for Inactive)
REMARK    1  A    between atoms: C2_3  and  O1_4 
REMARK    2  A    between atoms: N2_7  and  C4_8 
REMARK    3  A    between atoms: C4_8  and  C5_9 
ROOT
HETATM    1  C5  UNL     1      13.290 -28.845   4.322  1.00  0.00     0.066 C 
HETATM    2  C6  UNL     1      12.587 -29.498   5.413  1.00  0.00     0.071 C 
HETATM    3  N3  UNL     1      12.037 -30.016   6.320  1.00  0.00    -0.196 NA
HETATM    4  C7  UNL     1      14.698 -29.448   4.320  1.00  0.00     0.026 C 
HETATM    5  C8  UNL     1      15.254 -29.140   5.694  1.00  0.00     0.002 C 
HETATM    6  C9  UNL     1      15.560 -27.649   5.657  1.00  0.00     0.009 C 
HETATM    7  C10 UNL     1      14.334 -26.824   5.434  1.00  0.00    -0.046 C 
HETATM    8  C11 UNL     1      13.728 -26.566   6.812  1.00  0.00     0.015 C 
HETATM    9  C12 UNL     1      14.800 -25.450   4.931  1.00  0.00     0.015 C 
HETATM   10  C13 UNL     1      13.326 -27.360   4.523  1.00  0.00     0.035 C 
ENDROOT
BRANCH   1  11
HETATM   11  C4  UNL     1      12.652 -29.219   3.013  1.00  0.00     0.158 C 
BRANCH  11  12
HETATM   12  N2  UNL     1      11.953 -30.481   3.026  1.00  0.00    -0.304 N 
HETATM   13  C3  UNL     1      10.599 -30.589   3.090  1.00  0.00     0.151 A 
HETATM   14  C2  UNL     1      10.259 -31.919   3.105  1.00  0.00     0.161 A 
HETATM   15  N1  UNL     1      11.407 -32.601   3.050  1.00  0.00    -0.283 N 
HETATM   16  C1  UNL     1      11.510 -34.050   3.044  1.00  0.00     0.163 C 
HETATM   17  C14 UNL     1      12.420 -31.729   3.002  1.00  0.00     0.330 A 
HETATM   18  O2  UNL     1      13.662 -32.054   2.939  1.00  0.00    -0.246 OA
BRANCH  14  19
HETATM   19  O1  UNL     1       8.952 -32.443   3.167  1.00  0.00    -0.345 OA
ATOM     20  H1  UNL     1       8.136 -31.960   3.222  1.00  0.00     0.219 HD
ENDBRANCH  14  19
ENDBRANCH  11  12
ENDBRANCH   1  11
TORSDOF 3
ENDMDL
MODEL 2
REMARK VINA RESULT: -7.584770457      2.161      3.472
REMARK  3 active torsions:
REMARK  status: ('A' for Active; 'I' for Inactive)
REMARK    1  A    between atoms: C2_3  and  O1_4 
REMARK    2  A    between atoms: N2_7  and  C4_8 
REMARK    3  A    between atoms: C4_8  and  C5_9 
ROOT
HETATM    1  C5  UNL     1      14.165 -29.077   4.677  1.00  0.00     0.066 C 
HETATM    2  C6  UNL     1      14.180 -28.762   3.259  1.00  0.00     0.071 C 
HETATM    3  N3  UNL     1      14.178 -28.478   2.113  1.00  0.00    -0.196 NA
HETATM    4  C7  UNL     1      12.686 -29.119   5.074  1.00  0.00     0.026 C 
HETATM    5  C8  UNL     1      12.155 -27.743   4.735  1.00  0.00     0.002 C 
HETATM    6  C9  UNL     1      12.734 -26.833   5.810  1.00  0.00     0.009 C 
HETATM    7  C10 UNL     1      14.228 -26.797   5.776  1.00  0.00    -0.046 C 
HETATM    8  C11 UNL     1      14.614 -25.705   4.782  1.00  0.00     0.015 C 
HETATM    9  C12 UNL     1      14.696 -26.284   7.146  1.00  0.00     0.015 C 
HETATM   10  C13 UNL     1      14.918 -28.045   5.461  1.00  0.00     0.035 C 
ENDROOT
BRANCH   1  11
HETATM   11  C4  UNL     1      14.715 -30.460   4.895  1.00  0.00     0.158 C 
BRANCH  11  12
HETATM   12  N2  UNL     1      14.715 -31.296   3.720  1.00  0.00    -0.304 N 
HETATM   13  C3  UNL     1      15.818 -31.520   2.957  1.00  0.00     0.151 A 
HETATM   14  C2  UNL     1      15.475 -32.339   1.909  1.00  0.00     0.161 A 
HETATM   15  N1  UNL     1      14.173 -32.602   2.049  1.00  0.00    -0.283 N 
HETATM   16  C1  UNL     1      13.396 -33.439   1.150  1.00  0.00     0.163 C 
HETATM   17  C14 UNL     1      13.724 -31.973   3.140  1.00  0.00     0.330 A 
HETATM   18  O2  UNL     1      12.511 -32.019   3.564  1.00  0.00    -0.246 OA
BRANCH  14  19
HETATM   19  O1  UNL     1      16.340 -32.801   0.896  1.00  0.00    -0.345 OA
ATOM     20  H1  UNL     1      17.133 -32.385   0.579  1.00  0.00     0.219 HD
ENDBRANCH  14  19
ENDBRANCH  11  12
ENDBRANCH   1  11
TORSDOF 3
ENDMDL
MODEL 3
REMARK VINA RESULT: -7.563920990      1.214      1.795
REMARK  3 active torsions:
REMARK  status: ('A' for Active; 'I' for Inactive)
REMARK    1  A    between atoms: C2_3  and  O1_4 
REMARK    2  A    between atoms: N2_7  and  C4_8 
REMARK    3  A    between atoms: C4_8  and  C5_9 
ROOT
HETATM    1  C5  UNL     1      13.002 -28.571   4.658  1.00  0.00     0.066 C 
HETATM    2  C6  UNL     1      12.666 -29.283   5.879  1.00  0.00     0.071 C 
HETATM    3  N3  UNL     1      12.422 -29.851   6.884  1.00  0.00    -0.196 NA
HETATM    4  C7  UNL     1      14.300 -29.207   4.154  1.00  0.00     0.026 C 
HETATM    5  C8  UNL     1      15.291 -29.012   5.281  1.00  0.00     0.002 C 
HETATM    6  C9  UNL     1      15.638 -27.531   5.234  1.00  0.00     0.009 C 
HETATM    7  C10 UNL     1      14.447 -26.661   5.481  1.00  0.00    -0.046 C 
HETATM    8  C11 UNL     1      14.342 -26.489   6.994  1.00  0.00     0.015 C 
HETATM    9  C12 UNL     1      14.787 -25.267   4.935  1.00  0.00     0.015 C 
HETATM   10  C13 UNL     1      13.172 -27.105   4.925  1.00  0.00     0.035 C 
ENDROOT
BRANCH   1  11
HETATM   11  C4  UNL     1      11.952 -28.833   3.614  1.00  0.00     0.158 C 
BRANCH  11  12
HETATM   12  N2  UNL     1      12.134 -30.058   2.875  1.00  0.00    -0.304 N 
HETATM   13  C3  UNL     1      12.764 -30.124   1.673  1.00  0.00     0.151 A 
HETATM   14  C2  UNL     1      12.750 -31.425   1.233  1.00  0.00     0.161 A 
HETATM   15  N1  UNL     1      12.112 -32.131   2.171  1.00  0.00    -0.283 N 
HETATM   16  C1  UNL     1      11.872 -33.563   2.110  1.00  0.00     0.163 C 
HETATM   17  C14 UNL     1      11.747 -31.303   3.156  1.00  0.00     0.330 A 
HETATM   18  O2  UNL     1      11.115 -31.661   4.216  1.00  0.00    -0.246 OA
BRANCH  14  19
HETATM   19  O1  UNL     1      13.302 -31.902   0.027  1.00  0.00    -0.345 OA
ATOM     20  H1  UNL     1      14.130 -31.655  -0.368  1.00  0.00     0.219 HD
ENDBRANCH  14  19
ENDBRANCH  11  12
ENDBRANCH   1  11
TORSDOF 3
ENDMDL
MODEL 4
REMARK VINA RESULT: -7.491450438      3.265      4.722
REMARK  3 active torsions:
REMARK  status: ('A' for Active; 'I' for Inactive)
REMARK    1  A    between atoms: C2_3  and  O1_4 
REMARK    2  A    between atoms: N2_7  and  C4_8 
REMARK    3  A    between atoms: C4_8  and  C5_9 
ROOT
HETATM    1  C5  UNL     1      13.943 -28.985   3.699  1.00  0.00     0.066 C 
HETATM    2  C6  UNL     1      12.827 -29.771   4.194  1.00  0.00     0.071 C 
HETATM    3  N3  UNL     1      11.927 -30.401   4.627  1.00  0.00    -0.196 NA
HETATM    4  C7  UNL     1      15.191 -29.576   4.362  1.00  0.00     0.026 C 
HETATM    5  C8  UNL     1      14.942 -29.439   5.848  1.00  0.00     0.002 C 
HETATM    6  C9  UNL     1      15.122 -27.954   6.131  1.00  0.00     0.009 C 
HETATM    7  C10 UNL     1      14.129 -27.113   5.394  1.00  0.00    -0.046 C 
HETATM    8  C11 UNL     1      12.888 -27.032   6.279  1.00  0.00     0.015 C 
HETATM    9  C12 UNL     1      14.693 -25.686   5.351  1.00  0.00     0.015 C 
HETATM   10  C13 UNL     1      13.769 -27.536   4.043  1.00  0.00     0.035 C 
ENDROOT
BRANCH   1  11
HETATM   11  C4  UNL     1      14.093 -29.195   2.217  1.00  0.00     0.158 C 
BRANCH  11  12
HETATM   12  N2  UNL     1      15.418 -28.943   1.707  1.00  0.00    -0.304 N 
HETATM   13  C3  UNL     1      16.037 -27.735   1.787  1.00  0.00     0.151 A 
HETATM   14  C2  UNL     1      17.272 -27.827   1.192  1.00  0.00     0.161 A 
HETATM   15  N1  UNL     1      17.387 -29.087   0.761  1.00  0.00    -0.283 N 
HETATM   16  C1  UNL     1      18.548 -29.622   0.068  1.00  0.00     0.163 C 
HETATM   17  C14 UNL     1      16.270 -29.751   1.075  1.00  0.00     0.330 A 
HETATM   18  O2  UNL     1      16.055 -30.989   0.806  1.00  0.00    -0.246 OA
BRANCH  14  19
HETATM   19  O1  UNL     1      18.216 -26.789   1.071  1.00  0.00    -0.345 OA
ATOM     20  H1  UNL     1      18.052 -25.853   1.083  1.00  0.00     0.219 HD
ENDBRANCH  14  19
ENDBRANCH  11  12
ENDBRANCH   1  11
TORSDOF 3
ENDMDL
MODEL 5
REMARK VINA RESULT: -7.350684765      1.500      1.743
REMARK  3 active torsions:
REMARK  status: ('A' for Active; 'I' for Inactive)
REMARK    1  A    between atoms: C2_3  and  O1_4 
REMARK    2  A    between atoms: N2_7  and  C4_8 
REMARK    3  A    between atoms: C4_8  and  C5_9 
ROOT
HETATM    1  C5  UNL     1      13.453 -29.014   3.446  1.00  0.00     0.066 C 
HETATM    2  C6  UNL     1      13.980 -30.215   4.071  1.00  0.00     0.071 C 
HETATM    3  N3  UNL     1      14.435 -31.176   4.584  1.00  0.00    -0.196 NA
HETATM    4  C7  UNL     1      14.359 -28.746   2.241  1.00  0.00     0.026 C 
HETATM    5  C8  UNL     1      15.746 -28.588   2.825  1.00  0.00     0.002 C 
HETATM    6  C9  UNL     1      15.724 -27.224   3.501  1.00  0.00     0.009 C 
HETATM    7  C10 UNL     1      14.722 -27.155   4.608  1.00  0.00    -0.046 C 
HETATM    8  C11 UNL     1      15.428 -27.658   5.864  1.00  0.00     0.015 C 
HETATM    9  C12 UNL     1      14.439 -25.669   4.867  1.00  0.00     0.015 C 
HETATM   10  C13 UNL     1      13.461 -27.865   4.410  1.00  0.00     0.035 C 
ENDROOT
BRANCH   1  11
HETATM   11  C4  UNL     1      12.076 -29.285   2.908  1.00  0.00     0.158 C 
BRANCH  11  12
HETATM   12  N2  UNL     1      11.728 -30.683   2.829  1.00  0.00    -0.304 N 
HETATM   13  C3  UNL     1      11.034 -31.340   3.796  1.00  0.00     0.151 A 
HETATM   14  C2  UNL     1      10.888 -32.654   3.425  1.00  0.00     0.161 A 
HETATM   15  N1  UNL     1      11.494 -32.778   2.240  1.00  0.00    -0.283 N 
HETATM   16  C1  UNL     1      11.578 -34.013   1.478  1.00  0.00     0.163 C 
HETATM   17  C14 UNL     1      11.994 -31.588   1.888  1.00  0.00     0.330 A 
HETATM   18  O2  UNL     1      12.637 -31.359   0.799  1.00  0.00    -0.246 OA
BRANCH  14  19
HETATM   19  O1  UNL     1      10.228 -33.658   4.160  1.00  0.00    -0.345 OA
ATOM     20  H1  UNL     1      10.111 -33.704   5.102  1.00  0.00     0.219 HD
ENDBRANCH  14  19
ENDBRANCH  11  12
ENDBRANCH   1  11
TORSDOF 3
ENDMDL
