MODEL 1
REMARK VINA RESULT: -8.416622167      0.000      0.000
REMARK  3 active torsions:
REMARK  status: ('A' for Active; 'I' for Inactive)
REMARK    1  A    between atoms: O1_2  and  N1_3 
REMARK    2  A    between atoms: C12_15  and  O2_16 
REMARK    3  A    between atoms: C15_19  and  O3_20 
ROOT
HETATM    1  N1  UNL     1      14.667 -31.282   5.190  1.00  0.00    -0.275 N 
ATOM      2  H1  UNL     1      14.850 -31.580   6.148  1.00  0.00     0.193 HD
HETATM    3  C2  UNL     1      14.538 -30.029   4.977  1.00  0.00     0.020 C 
HETATM    4  C3  UNL     1      14.638 -28.992   6.021  1.00  0.00     0.068 C 
HETATM    5  C4  UNL     1      14.320 -27.678   5.356  1.00  0.00    -0.001 C 
HETATM    6  C5  UNL     1      13.259 -26.900   6.098  1.00  0.00     0.013 C 
HETATM    7  C6  UNL     1      12.063 -26.848   5.168  1.00  0.00     0.001 C 
HETATM    8  C7  UNL     1      12.223 -28.179   4.436  1.00  0.00     0.007 C 
HETATM    9  C8  UNL     1      13.698 -28.077   4.034  1.00  0.00     0.011 C 
HETATM   10  C9  UNL     1      14.271 -29.400   3.661  1.00  0.00     0.007 C 
HETATM   11  C10 UNL     1      13.307 -30.218   2.830  1.00  0.00     0.022 C 
HETATM   12  C11 UNL     1      15.568 -29.172   2.909  1.00  0.00     0.080 C 
HETATM   13  C12 UNL     1      15.889 -27.728   2.776  1.00  0.00     0.045 C 
HETATM   14  C14 UNL     1      15.893 -26.784   3.688  1.00  0.00     0.037 C 
HETATM   15  C15 UNL     1      15.576 -26.879   5.133  1.00  0.00     0.152 C 
ENDROOT
BRANCH   1  16
HETATM   16  O1  UNL     1      14.578 -32.247   4.236  1.00  0.00    -0.285 OA
HETATM   17  C1  UNL     1      15.670 -33.027   3.796  1.00  0.00     0.237 C 
ENDBRANCH   1  16
BRANCH  15  18
HETATM   18  O3  UNL     1      15.505 -25.632   5.721  1.00  0.00    -0.391 OA
ATOM     19  H3  UNL     1      16.274 -25.443   6.247  1.00  0.00     0.210 HD
ENDBRANCH  15  18
BRANCH  13  20
HETATM   20  O2  UNL     1      16.234 -27.333   1.490  1.00  0.00    -0.360 OA
HETATM   21  C13 UNL     1      17.576 -27.323   1.055  1.00  0.00     0.209 C 
ENDBRANCH  13  20
TORSDOF 3
ENDMDL
MODEL 2
REMARK VINA RESULT: -7.305180073      2.143      3.312
REMARK  3 active torsions:
REMARK  status: ('A' for Active; 'I' for Inactive)
REMARK    1  A    between atoms: O1_2  and  N1_3 
REMARK    2  A    between atoms: C12_15  and  O2_16 
REMARK    3  A    between atoms: C15_19  and  O3_20 
ROOT
HETATM    1  N1  UNL     1      15.957 -31.394   2.018  1.00  0.00    -0.275 N 
ATOM      2  H1  UNL     1      15.975 -32.395   2.212  1.00  0.00     0.193 HD
HETATM    3  C2  UNL     1      15.122 -30.682   2.670  1.00  0.00     0.020 C 
HETATM    4  C3  UNL     1      14.187 -31.210   3.682  1.00  0.00     0.068 C 
HETATM    5  C4  UNL     1      13.324 -30.055   4.118  1.00  0.00    -0.001 C 
HETATM    6  C5  UNL     1      11.850 -30.379   4.046  1.00  0.00     0.013 C 
HETATM    7  C6  UNL     1      11.283 -29.474   2.971  1.00  0.00     0.001 C 
HETATM    8  C7  UNL     1      12.489 -29.358   2.040  1.00  0.00     0.007 C 
HETATM    9  C8  UNL     1      13.570 -28.995   3.064  1.00  0.00     0.011 C 
HETATM   10  C9  UNL     1      14.944 -29.216   2.532  1.00  0.00     0.007 C 
HETATM   11  C10 UNL     1      15.070 -28.765   1.094  1.00  0.00     0.022 C 
HETATM   12  C11 UNL     1      15.930 -28.476   3.416  1.00  0.00     0.080 C 
HETATM   13  C12 UNL     1      15.256 -27.772   4.536  1.00  0.00     0.045 C 
HETATM   14  C14 UNL     1      14.358 -28.215   5.384  1.00  0.00     0.037 C 
HETATM   15  C15 UNL     1      13.744 -29.562   5.476  1.00  0.00     0.152 C 
ENDROOT
BRANCH   1  16
HETATM   16  O1  UNL     1      16.824 -30.918   1.084  1.00  0.00    -0.285 OA
HETATM   17  C1  UNL     1      17.858 -31.684   0.503  1.00  0.00     0.237 C 
ENDBRANCH   1  16
BRANCH  15  18
HETATM   18  O3  UNL     1      12.700 -29.584   6.379  1.00  0.00    -0.391 OA
ATOM     19  H3  UNL     1      12.361 -28.713   6.551  1.00  0.00     0.210 HD
ENDBRANCH  15  18
BRANCH  13  20
HETATM   20  O2  UNL     1      15.645 -26.449   4.698  1.00  0.00    -0.360 OA
HETATM   21  C13 UNL     1      14.994 -25.593   5.611  1.00  0.00     0.209 C 
ENDBRANCH  13  20
TORSDOF 3
ENDMDL
MODEL 3
REMARK VINA RESULT: -7.032330167      2.201      3.793
REMARK  3 active torsions:
REMARK  status: ('A' for Active; 'I' for Inactive)
REMARK    1  A    between atoms: O1_2  and  N1_3 
REMARK    2  A    between atoms: C12_15  and  O2_16 
REMARK    3  A    between atoms: C15_19  and  O3_20 
ROOT
HETATM    1  N1  UNL     1      11.777 -29.191   1.946  1.00  0.00    -0.275 N 
ATOM      2  H1  UNL     1      10.822 -28.865   2.092  1.00  0.00     0.193 HD
HETATM    3  C2  UNL     1      12.610 -29.023   2.900  1.00  0.00     0.020 C 
HETATM    4  C3  UNL     1      12.281 -28.390   4.191  1.00  0.00     0.068 C 
HETATM    5  C4  UNL     1      13.567 -28.302   4.970  1.00  0.00    -0.001 C 
HETATM    6  C5  UNL     1      13.827 -26.910   5.497  1.00  0.00     0.013 C 
HETATM    7  C6  UNL     1      15.061 -26.419   4.769  1.00  0.00     0.001 C 
HETATM    8  C7  UNL     1      14.900 -27.138   3.431  1.00  0.00     0.007 C 
HETATM    9  C8  UNL     1      14.641 -28.562   3.933  1.00  0.00     0.011 C 
HETATM   10  C9  UNL     1      14.036 -29.427   2.883  1.00  0.00     0.007 C 
HETATM   11  C10 UNL     1      14.672 -29.197   1.529  1.00  0.00     0.022 C 
HETATM   12  C11 UNL     1      14.182 -30.877   3.305  1.00  0.00     0.080 C 
HETATM   13  C12 UNL     1      14.860 -31.009   4.620  1.00  0.00     0.045 C 
HETATM   14  C14 UNL     1      14.626 -30.383   5.749  1.00  0.00     0.037 C 
HETATM   15  C15 UNL     1      13.606 -29.348   6.050  1.00  0.00     0.152 C 
ENDROOT
BRANCH   1  16
HETATM   16  O1  UNL     1      12.069 -29.773   0.752  1.00  0.00    -0.285 OA
HETATM   17  C1  UNL     1      11.171 -30.590   0.031  1.00  0.00     0.237 C 
ENDBRANCH   1  16
BRANCH  15  18
HETATM   18  O3  UNL     1      13.800 -28.794   7.299  1.00  0.00    -0.391 OA
ATOM     19  H3  UNL     1      13.166 -29.112   7.932  1.00  0.00     0.210 HD
ENDBRANCH  15  18
BRANCH  13  20
HETATM   20  O2  UNL     1      15.891 -31.938   4.642  1.00  0.00    -0.360 OA
HETATM   21  C13 UNL     1      15.876 -33.081   3.816  1.00  0.00     0.209 C 
ENDBRANCH  13  20
TORSDOF 3
ENDMDL
MODEL 4
REMARK VINA RESULT: -6.891833929      2.389      4.347
REMARK  3 active torsions:
REMARK  status: ('A' for Active; 'I' for Inactive)
REMARK    1  A    between atoms: O1_2  and  N1_3 
REMARK    2  A    between atoms: C12_15  and  O2_16 
REMARK    3  A    between atoms: C15_19  and  O3_20 
ROOT
HETATM    1  N1  UNL     1      14.473 -29.449  -0.098  1.00  0.00    -0.275 N 
ATOM      2  H1  UNL     1      13.603 -29.120  -0.517  1.00  0.00     0.193 HD
HETATM    3  C2  UNL     1      14.554 -29.438   1.177  1.00  0.00     0.020 C 
HETATM    4  C3  UNL     1      13.477 -28.984   2.077  1.00  0.00     0.068 C 
HETATM    5  C4  UNL     1      14.031 -29.040   3.476  1.00  0.00    -0.001 C 
HETATM    6  C5  UNL     1      13.835 -27.744   4.226  1.00  0.00     0.013 C 
HETATM    7  C6  UNL     1      15.225 -27.190   4.460  1.00  0.00     0.001 C 
HETATM    8  C7  UNL     1      15.944 -27.710   3.216  1.00  0.00     0.007 C 
HETATM    9  C8  UNL     1      15.526 -29.183   3.274  1.00  0.00     0.011 C 
HETATM   10  C9  UNL     1      15.727 -29.875   1.971  1.00  0.00     0.007 C 
HETATM   11  C10 UNL     1      17.032 -29.476   1.317  1.00  0.00     0.022 C 
HETATM   12  C11 UNL     1      15.681 -31.373   2.206  1.00  0.00     0.080 C 
HETATM   13  C12 UNL     1      15.441 -31.707   3.633  1.00  0.00     0.045 C 
HETATM   14  C14 UNL     1      14.537 -31.238   4.462  1.00  0.00     0.037 C 
HETATM   15  C15 UNL     1      13.479 -30.228   4.217  1.00  0.00     0.152 C 
ENDROOT
BRANCH   1  16
HETATM   16  O1  UNL     1      15.458 -29.866  -0.937  1.00  0.00    -0.285 OA
HETATM   17  C1  UNL     1      15.422 -31.081  -1.657  1.00  0.00     0.237 C 
ENDBRANCH   1  16
BRANCH  15  18
HETATM   18  O3  UNL     1      12.849 -29.859   5.389  1.00  0.00    -0.391 OA
ATOM     19  H3  UNL     1      12.282 -30.546   5.719  1.00  0.00     0.210 HD
ENDBRANCH  15  18
BRANCH  13  20
HETATM   20  O2  UNL     1      16.309 -32.657   4.153  1.00  0.00    -0.360 OA
HETATM   21  C13 UNL     1      16.980 -33.579   3.324  1.00  0.00     0.209 C 
ENDBRANCH  13  20
TORSDOF 3
ENDMDL
MODEL 5
REMARK VINA RESULT: -6.788427756      2.234      4.456
REMARK  3 active torsions:
REMARK  status: ('A' for Active; 'I' for Inactive)
REMARK    1  A    between atoms: O1_2  and  N1_3 
REMARK    2  A    between atoms: C12_15  and  O2_16 
REMARK    3  A    between atoms: C15_19  and  O3_20 
ROOT
HETATM    1  N1  UNL     1      12.097 -29.384   1.709  1.00  0.00    -0.275 N 
ATOM      2  H1  UNL     1      11.775 -29.405   0.741  1.00  0.00     0.193 HD
HETATM    3  C2  UNL     1      13.356 -29.323   1.909  1.00  0.00     0.020 C 
HETATM    4  C3  UNL     1      14.370 -29.281   0.839  1.00  0.00     0.068 C 
HETATM    5  C4  UNL     1      15.715 -29.319   1.515  1.00  0.00    -0.001 C 
HETATM    6  C5  UNL     1      16.615 -30.391   0.947  1.00  0.00     0.013 C 
HETATM    7  C6  UNL     1      16.816 -31.394   2.065  1.00  0.00     0.001 C 
HETATM    8  C7  UNL     1      15.478 -31.272   2.792  1.00  0.00     0.007 C 
HETATM    9  C8  UNL     1      15.400 -29.748   2.934  1.00  0.00     0.011 C 
HETATM   10  C9  UNL     1      14.018 -29.282   3.235  1.00  0.00     0.007 C 
HETATM   11  C10 UNL     1      13.328 -30.179   4.239  1.00  0.00     0.022 C 
HETATM   12  C11 UNL     1      14.089 -27.857   3.750  1.00  0.00     0.080 C 
HETATM   13  C12 UNL     1      15.483 -27.347   3.791  1.00  0.00     0.045 C 
HETATM   14  C14 UNL     1      16.417 -27.387   2.869  1.00  0.00     0.037 C 
HETATM   15  C15 UNL     1      16.355 -27.958   1.501  1.00  0.00     0.152 C 
ENDROOT
BRANCH   1  16
HETATM   16  O1  UNL     1      11.153 -29.422   2.687  1.00  0.00    -0.285 OA
HETATM   17  C1  UNL     1       9.916 -30.093   2.567  1.00  0.00     0.237 C 
ENDBRANCH   1  16
BRANCH  15  18
HETATM   18  O3  UNL     1      17.599 -27.978   0.903  1.00  0.00    -0.391 OA
ATOM     19  H3  UNL     1      18.298 -27.833   1.531  1.00  0.00     0.210 HD
ENDBRANCH  15  18
BRANCH  13  20
HETATM   20  O2  UNL     1      15.837 -26.740   4.988  1.00  0.00    -0.360 OA
HETATM   21  C13 UNL     1      15.087 -25.675   5.528  1.00  0.00     0.209 C 
ENDBRANCH  13  20
TORSDOF 3
ENDMDL
