MODEL 1
REMARK VINA RESULT: -6.597537991      0.000      0.000
REMARK  3 active torsions:
REMARK  status: ('A' for Active; 'I' for Inactive)
REMARK    1  A    between atoms: C2_2  and  N1_3 
REMARK    2  A    between atoms: C4_6  and  N2_7 
REMARK    3  A    between atoms: C5_10  and  O3_12 
ROOT
HETATM    1  N1  UNL     1      11.490 -29.855   3.069  1.00  0.00    -0.393 N 
ATOM      2  H1  UNL     1      11.337 -28.997   3.599  1.00  0.00     0.159 HD
HETATM    3  C3  UNL     1      12.454 -30.470   3.521  1.00  0.00     0.042 C 
HETATM    4  C4  UNL     1      13.201 -29.908   4.691  1.00  0.00     0.237 C 
HETATM    5  C5  UNL     1      14.578 -29.450   4.396  1.00  0.00     0.094 C 
HETATM    6  C6  UNL     1      15.134 -28.850   5.679  1.00  0.00     0.049 C 
HETATM    7  C7  UNL     1      15.491 -30.500   3.840  1.00  0.00     0.063 C 
HETATM    8  C8  UNL     1      16.007 -30.139   2.447  1.00  0.00     0.019 C 
HETATM    9  C9  UNL     1      15.035 -31.867   3.865  1.00  0.00    -0.014 C 
HETATM   10  C10 UNL     1      15.980 -32.862   4.440  1.00  0.00     0.063 C 
HETATM   11  N3  UNL     1      13.946 -32.375   3.472  1.00  0.00    -0.382 N 
ATOM     12  H3  UNL     1      13.866 -33.383   3.604  1.00  0.00     0.160 HD
HETATM   13  C11 UNL     1      12.811 -31.749   2.872  1.00  0.00     0.063 C 
HETATM   14  C12 UNL     1      11.610 -32.687   3.069  1.00  0.00     0.044 C 
HETATM   15  C13 UNL     1      13.059 -31.658   1.404  1.00  0.00     0.044 C 
ENDROOT
BRANCH   1  16
HETATM   16  C2  UNL     1      10.555 -29.973   2.067  1.00  0.00     0.115 C 
HETATM   17  C1  UNL     1       9.162 -30.082   2.713  1.00  0.00     0.026 C 
ENDBRANCH   1  16
BRANCH   4  18
HETATM   18  N2  UNL     1      12.451 -28.864   5.340  1.00  0.00    -0.142 N 
HETATM   19  O1  UNL     1      12.060 -28.972   6.515  1.00  0.00    -0.536 OA
HETATM   20  O2  UNL     1      12.124 -27.671   4.703  1.00  0.00    -0.536 OA
ENDBRANCH   4  18
BRANCH   5  21
HETATM   21  O3  UNL     1      14.613 -28.374   3.489  1.00  0.00    -0.387 OA
ATOM     22  H3  UNL     1      15.175 -28.541   2.742  1.00  0.00     0.210 HD
ENDBRANCH   5  21
TORSDOF 3
ENDMDL
MODEL 2
REMARK VINA RESULT: -6.499774869      2.143      3.915
REMARK  3 active torsions:
REMARK  status: ('A' for Active; 'I' for Inactive)
REMARK    1  A    between atoms: C2_2  and  N1_3 
REMARK    2  A    between atoms: C4_6  and  N2_7 
REMARK    3  A    between atoms: C5_10  and  O3_12 
ROOT
HETATM    1  N1  UNL     1      12.541 -28.886   4.924  1.00  0.00    -0.393 N 
ATOM      2  H1  UNL     1      11.639 -29.292   4.678  1.00  0.00     0.159 HD
HETATM    3  C3  UNL     1      13.385 -29.172   4.076  1.00  0.00     0.042 C 
HETATM    4  C4  UNL     1      12.990 -30.012   2.901  1.00  0.00     0.237 C 
HETATM    5  C5  UNL     1      13.580 -31.369   2.871  1.00  0.00     0.094 C 
HETATM    6  C6  UNL     1      13.003 -32.081   1.657  1.00  0.00     0.049 C 
HETATM    7  C7  UNL     1      15.078 -31.410   2.872  1.00  0.00     0.063 C 
HETATM    8  C8  UNL     1      15.636 -32.142   4.093  1.00  0.00     0.019 C 
HETATM    9  C9  UNL     1      15.783 -30.170   2.667  1.00  0.00    -0.014 C 
HETATM   10  C10 UNL     1      16.843 -30.183   1.623  1.00  0.00     0.063 C 
HETATM   11  N3  UNL     1      15.651 -29.049   3.237  1.00  0.00    -0.382 N 
ATOM     12  H3  UNL     1      16.281 -28.318   2.905  1.00  0.00     0.160 HD
HETATM   13  C11 UNL     1      14.754 -28.652   4.275  1.00  0.00     0.063 C 
HETATM   14  C12 UNL     1      14.648 -27.120   4.232  1.00  0.00     0.044 C 
HETATM   15  C13 UNL     1      15.376 -29.012   5.582  1.00  0.00     0.044 C 
ENDROOT
BRANCH   1  16
HETATM   16  C2  UNL     1      12.445 -28.183   6.102  1.00  0.00     0.115 C 
HETATM   17  C1  UNL     1      11.667 -26.883   5.831  1.00  0.00     0.026 C 
ENDBRANCH   1  16
BRANCH   4  18
HETATM   18  N2  UNL     1      11.557 -30.082   2.765  1.00  0.00    -0.142 N 
HETATM   19  O1  UNL     1      10.948 -29.426   1.902  1.00  0.00    -0.536 OA
HETATM   20  O2  UNL     1      10.768 -30.890   3.577  1.00  0.00    -0.536 OA
ENDBRANCH   4  18
BRANCH   5  21
HETATM   21  O3  UNL     1      13.162 -32.170   3.950  1.00  0.00    -0.387 OA
ATOM     22  H3  UNL     1      12.365 -31.852   4.359  1.00  0.00     0.210 HD
ENDBRANCH   5  21
TORSDOF 3
ENDMDL
MODEL 3
REMARK VINA RESULT: -6.124195402      2.444      4.641
REMARK  3 active torsions:
REMARK  status: ('A' for Active; 'I' for Inactive)
REMARK    1  A    between atoms: C2_2  and  N1_3 
REMARK    2  A    between atoms: C4_6  and  N2_7 
REMARK    3  A    between atoms: C5_10  and  O3_12 
ROOT
HETATM    1  N1  UNL     1      14.930 -29.256   4.223  1.00  0.00    -0.393 N 
ATOM      2  H1  UNL     1      15.773 -29.652   3.808  1.00  0.00     0.159 HD
HETATM    3  C3  UNL     1      13.990 -30.041   4.115  1.00  0.00     0.042 C 
HETATM    4  C4  UNL     1      14.208 -31.359   3.439  1.00  0.00     0.237 C 
HETATM    5  C5  UNL     1      13.522 -31.520   2.137  1.00  0.00     0.094 C 
HETATM    6  C6  UNL     1      13.925 -32.878   1.583  1.00  0.00     0.049 C 
HETATM    7  C7  UNL     1      12.032 -31.365   2.181  1.00  0.00     0.063 C 
HETATM    8  C8  UNL     1      11.544 -30.209   1.307  1.00  0.00     0.019 C 
HETATM    9  C9  UNL     1      11.401 -31.314   3.475  1.00  0.00    -0.014 C 
HETATM   10  C10 UNL     1      10.246 -32.230   3.679  1.00  0.00     0.063 C 
HETATM   11  N3  UNL     1      11.667 -30.607   4.490  1.00  0.00    -0.382 N 
ATOM     12  H3  UNL     1      11.062 -30.761   5.297  1.00  0.00     0.160 HD
HETATM   13  C11 UNL     1      12.687 -29.625   4.675  1.00  0.00     0.063 C 
HETATM   14  C12 UNL     1      12.898 -29.459   6.189  1.00  0.00     0.044 C 
HETATM   15  C13 UNL     1      12.171 -28.323   4.160  1.00  0.00     0.044 C 
ENDROOT
BRANCH   1  16
HETATM   16  C2  UNL     1      15.190 -28.006   4.735  1.00  0.00     0.115 C 
HETATM   17  C1  UNL     1      15.898 -27.175   3.651  1.00  0.00     0.026 C 
ENDBRANCH   1  16
BRANCH   4  18
HETATM   18  N2  UNL     1      15.611 -31.657   3.309  1.00  0.00    -0.142 N 
HETATM   19  O1  UNL     1      16.352 -31.005   2.552  1.00  0.00    -0.536 OA
HETATM   20  O2  UNL     1      16.228 -32.679   4.022  1.00  0.00    -0.536 OA
ENDBRANCH   4  18
BRANCH   5  21
HETATM   21  O3  UNL     1      13.985 -30.617   1.161  1.00  0.00    -0.387 OA
ATOM     22  H3  UNL     1      14.767 -30.924   0.718  1.00  0.00     0.210 HD
ENDBRANCH   5  21
TORSDOF 3
ENDMDL
MODEL 4
REMARK VINA RESULT: -6.056242094      0.862      1.163
REMARK  3 active torsions:
REMARK  status: ('A' for Active; 'I' for Inactive)
REMARK    1  A    between atoms: C2_2  and  N1_3 
REMARK    2  A    between atoms: C4_6  and  N2_7 
REMARK    3  A    between atoms: C5_10  and  O3_12 
ROOT
HETATM    1  N1  UNL     1      11.466 -30.871   3.093  1.00  0.00    -0.393 N 
ATOM      2  H1  UNL     1      11.252 -29.977   3.535  1.00  0.00     0.159 HD
HETATM    3  C3  UNL     1      12.543 -31.302   3.501  1.00  0.00     0.042 C 
HETATM    4  C4  UNL     1      13.317 -30.510   4.509  1.00  0.00     0.237 C 
HETATM    5  C5  UNL     1      14.586 -29.930   4.013  1.00  0.00     0.094 C 
HETATM    6  C6  UNL     1      15.176 -29.109   5.149  1.00  0.00     0.049 C 
HETATM    7  C7  UNL     1      15.573 -30.923   3.482  1.00  0.00     0.063 C 
HETATM    8  C8  UNL     1      15.901 -30.682   2.008  1.00  0.00     0.019 C 
HETATM    9  C9  UNL     1      15.309 -32.321   3.712  1.00  0.00    -0.014 C 
HETATM   10  C10 UNL     1      16.428 -33.114   4.288  1.00  0.00     0.063 C 
HETATM   11  N3  UNL     1      14.264 -33.003   3.503  1.00  0.00    -0.382 N 
ATOM     12  H3  UNL     1      14.332 -33.989   3.756  1.00  0.00     0.160 HD
HETATM   13  C11 UNL     1      13.004 -32.601   2.966  1.00  0.00     0.063 C 
HETATM   14  C12 UNL     1      11.963 -33.645   3.400  1.00  0.00     0.044 C 
HETATM   15  C13 UNL     1      13.095 -32.667   1.479  1.00  0.00     0.044 C 
ENDROOT
BRANCH   1  16
HETATM   16  C2  UNL     1      10.464 -31.227   2.221  1.00  0.00     0.115 C 
HETATM   17  C1  UNL     1      10.437 -30.207   1.069  1.00  0.00     0.026 C 
ENDBRANCH   1  16
BRANCH   4  18
HETATM   18  N2  UNL     1      12.500 -29.490   5.115  1.00  0.00    -0.142 N 
HETATM   19  O1  UNL     1      12.091 -28.509   4.470  1.00  0.00    -0.536 OA
HETATM   20  O2  UNL     1      12.110 -29.540   6.450  1.00  0.00    -0.536 OA
ENDBRANCH   4  18
BRANCH   5  21
HETATM   21  O3  UNL     1      14.389 -28.982   2.992  1.00  0.00    -0.387 OA
ATOM     22  H3  UNL     1      14.146 -29.377   2.163  1.00  0.00     0.210 HD
ENDBRANCH   5  21
TORSDOF 3
ENDMDL
MODEL 5
REMARK VINA RESULT: -6.040610371      2.927      4.807
REMARK  3 active torsions:
REMARK  status: ('A' for Active; 'I' for Inactive)
REMARK    1  A    between atoms: C2_2  and  N1_3 
REMARK    2  A    between atoms: C4_6  and  N2_7 
REMARK    3  A    between atoms: C5_10  and  O3_12 
ROOT
HETATM    1  N1  UNL     1      15.639 -32.621   1.476  1.00  0.00    -0.393 N 
ATOM      2  H1  UNL     1      15.361 -33.282   2.201  1.00  0.00     0.159 HD
HETATM    3  C3  UNL     1      15.809 -31.504   1.959  1.00  0.00     0.042 C 
HETATM    4  C4  UNL     1      15.598 -31.297   3.427  1.00  0.00     0.237 C 
HETATM    5  C5  UNL     1      14.432 -30.457   3.782  1.00  0.00     0.094 C 
HETATM    6  C6  UNL     1      14.345 -30.432   5.301  1.00  0.00     0.049 C 
HETATM    7  C7  UNL     1      14.449 -29.073   3.211  1.00  0.00     0.063 C 
HETATM    8  C8  UNL     1      13.254 -28.810   2.293  1.00  0.00     0.019 C 
HETATM    9  C9  UNL     1      15.667 -28.619   2.587  1.00  0.00    -0.014 C 
HETATM   10  C10 UNL     1      16.178 -27.295   3.032  1.00  0.00     0.063 C 
HETATM   11  N3  UNL     1      16.389 -29.167   1.706  1.00  0.00    -0.382 N 
ATOM     12  H3  UNL     1      17.213 -28.634   1.427  1.00  0.00     0.160 HD
HETATM   13  C11 UNL     1      16.226 -30.421   1.042  1.00  0.00     0.063 C 
HETATM   14  C12 UNL     1      17.598 -30.829   0.483  1.00  0.00     0.044 C 
HETATM   15  C13 UNL     1      15.323 -30.209  -0.126  1.00  0.00     0.044 C 
ENDROOT
BRANCH   1  16
HETATM   16  C2  UNL     1      15.710 -33.250   0.255  1.00  0.00     0.115 C 
HETATM   17  C1  UNL     1      16.728 -34.400   0.359  1.00  0.00     0.026 C 
ENDBRANCH   1  16
BRANCH   4  18
HETATM   18  N2  UNL     1      15.547 -32.553   4.131  1.00  0.00    -0.142 N 
HETATM   19  O1  UNL     1      16.548 -33.029   4.694  1.00  0.00    -0.536 OA
HETATM   20  O2  UNL     1      14.382 -33.306   4.233  1.00  0.00    -0.536 OA
ENDBRANCH   4  18
BRANCH   5  21
HETATM   21  O3  UNL     1      13.207 -31.031   3.394  1.00  0.00    -0.387 OA
ATOM     22  H3  UNL     1      13.316 -31.777   2.817  1.00  0.00     0.210 HD
ENDBRANCH   5  21
TORSDOF 3
ENDMDL
