MODEL 1
REMARK VINA RESULT: -7.789401927      0.000      0.000
REMARK  20 active torsions:
REMARK  status: ('A' for Active; 'I' for Inactive)
REMARK    1  A    between atoms: C2_2  and  O1_3 
REMARK    2  A    between atoms: O1_3  and  N1_4 
REMARK    3  A    between atoms: N1_4  and  C3_5 
REMARK    4  A    between atoms: N1_4  and  C4_7 
REMARK    5  A    between atoms: C4_7  and  C5_8 
REMARK    6  A    between atoms: C6_12  and  O3_13 
REMARK    7  A    between atoms: O3_13  and  C7_14 
REMARK    8  A    between atoms: C8_16  and  O5_17 
REMARK    9  A    between atoms: O5_17  and  C9_18 
REMARK   10  A    between atoms: C10_19  and  N3_20 
REMARK   11  A    between atoms: C13_26  and  C14_27 
REMARK   12  A    between atoms: C14_27  and  O6_28 
REMARK   13  A    between atoms: O6_28  and  C15_29 
REMARK   14  A    between atoms: C17_32  and  N4_33 
REMARK   15  A    between atoms: C19_38  and  N5_39 
REMARK   16  A    between atoms: C20_43  and  O8_44 
REMARK   17  A    between atoms: C21_46  and  N6_47 
REMARK   18  A    between atoms: C23_52  and  N7_53 
REMARK   19  A    between atoms: C24_57  and  N8_58 
REMARK   20  A    between atoms: C26_64  and  O9_65 
ROOT
HETATM    1  C7  UNL     1       4.294 -16.654  -2.292  1.00  0.00     0.296 C 
HETATM    2  O4  UNL     1       5.204 -15.638  -2.292  1.00  0.00    -0.327 OA
HETATM    3  C8  UNL     1       6.047 -15.687  -1.179  1.00  0.00     0.294 C 
HETATM    4  C21 UNL     1       5.223 -16.254  -0.034  1.00  0.00     0.240 C 
HETATM    5  C22 UNL     1       5.127 -17.767  -0.319  1.00  0.00     0.075 C 
HETATM    6  C23 UNL     1       5.060 -17.912  -1.852  1.00  0.00     0.240 C 
ENDROOT
BRANCH   3   7
HETATM    7  O5  UNL     1       6.606 -14.460  -0.940  1.00  0.00    -0.349 OA
BRANCH   7   8
HETATM    8  C9  UNL     1       8.024 -14.475  -0.836  1.00  0.00     0.184 C 
HETATM    9  C10 UNL     1       8.419 -13.661   0.321  1.00  0.00     0.215 C 
HETATM   10  C11 UNL     1       9.794 -13.116   0.363  1.00  0.00     0.036 C 
HETATM   11  C12 UNL     1      10.535 -13.125  -0.947  1.00  0.00     0.011 C 
HETATM   12  C13 UNL     1       9.571 -12.875  -2.045  1.00  0.00     0.041 C 
HETATM   13  C20 UNL     1       8.621 -14.058  -2.141  1.00  0.00     0.155 C 
BRANCH   9  14
HETATM   14  N3  UNL     1       7.471 -12.535   0.405  1.00  0.00    -0.072 N 
ATOM     15  H33 UNL     1       6.924 -12.409  -0.446  1.00  0.00     0.274 HD
ATOM     16  H32 UNL     1       6.691 -12.714   1.037  1.00  0.00     0.274 HD
ATOM     17  H31 UNL     1       8.009 -11.706   0.659  1.00  0.00     0.274 HD
ENDBRANCH   9  14
BRANCH  12  18
HETATM   18  C14 UNL     1      10.112 -12.434  -3.358  1.00  0.00     0.178 C 
BRANCH  18  19
HETATM   19  O6  UNL     1      10.333 -13.329  -4.305  1.00  0.00    -0.359 OA
BRANCH  19  20
HETATM   20  C15 UNL     1      10.050 -13.241  -5.601  1.00  0.00     0.289 C 
HETATM   21  O7  UNL     1       8.699 -12.768  -5.772  1.00  0.00    -0.357 OA
HETATM   22  C16 UNL     1       8.583 -12.283  -7.073  1.00  0.00     0.203 C 
HETATM   23  C17 UNL     1       8.753 -13.382  -8.092  1.00  0.00     0.209 C 
HETATM   24  C18 UNL     1       9.175 -14.679  -7.483  1.00  0.00     0.072 C 
HETATM   25  C19 UNL     1      10.044 -14.576  -6.280  1.00  0.00     0.240 C 
BRANCH  23  26
HETATM   26  N4  UNL     1       9.585 -12.957  -9.210  1.00  0.00    -0.073 N 
ATOM     27  H43 UNL     1       9.719 -11.946  -9.210  1.00  0.00     0.274 HD
ATOM     28  H42 UNL     1      10.554 -13.247  -9.084  1.00  0.00     0.274 HD
ATOM     29  H41 UNL     1       9.212 -13.282 -10.103  1.00  0.00     0.274 HD
ENDBRANCH  23  26
BRANCH  25  30
HETATM   30  N5  UNL     1       9.581 -15.549  -5.275  1.00  0.00    -0.070 N 
ATOM     31  H53 UNL     1       8.979 -15.139  -4.561  1.00  0.00     0.274 HD
ATOM     32  H52 UNL     1       8.903 -16.217  -5.642  1.00  0.00     0.274 HD
ATOM     33  H51 UNL     1      10.419 -15.990  -4.895  1.00  0.00     0.274 HD
ENDBRANCH  25  30
ENDBRANCH  19  20
ENDBRANCH  18  19
ENDBRANCH  12  18
BRANCH  13  34
HETATM   34  O8  UNL     1       7.683 -13.797  -3.124  1.00  0.00    -0.392 OA
ATOM     35  H8  UNL     1       7.244 -12.960  -3.021  1.00  0.00     0.210 HD
ENDBRANCH  13  34
ENDBRANCH   7   8
ENDBRANCH   3   7
BRANCH   4  36
HETATM   36  N6  UNL     1       5.849 -16.115   1.256  1.00  0.00    -0.070 N 
ATOM     37  H63 UNL     1       5.582 -16.885   1.869  1.00  0.00     0.274 HD
ATOM     38  H62 UNL     1       6.852 -16.289   1.190  1.00  0.00     0.274 HD
ATOM     39  H61 UNL     1       5.669 -15.217   1.705  1.00  0.00     0.274 HD
ENDBRANCH   4  36
BRANCH   1  40
HETATM   40  O3  UNL     1       3.551 -16.821  -3.446  1.00  0.00    -0.324 OA
BRANCH  40  41
HETATM   41  C6  UNL     1       2.422 -16.016  -3.451  1.00  0.00     0.357 C 
HETATM   42  N2  UNL     1       2.494 -14.888  -2.487  1.00  0.00    -0.038 N 
HETATM   43  C5  UNL     1       1.061 -14.642  -2.195  1.00  0.00     0.240 C 
ATOM     44  H22 UNL     1       3.016 -14.074  -2.812  1.00  0.00     0.281 HD
ATOM     45  H21 UNL     1       3.080 -15.055  -1.668  1.00  0.00     0.281 HD
HETATM   46  C26 UNL     1       0.564 -13.862  -3.419  1.00  0.00     0.186 C 
HETATM   47  C25 UNL     1       1.346 -14.129  -4.655  1.00  0.00     0.235 C 
HETATM   48  C24 UNL     1       2.047 -15.459  -4.752  1.00  0.00     0.275 C 
HETATM   49  F1  UNL     1       2.236 -13.084  -4.874  1.00  0.00    -0.244 F 
BRANCH  43  50
HETATM   50  C4  UNL     1       0.819 -13.891  -0.938  1.00  0.00     0.194 C 
BRANCH  50  51
HETATM   51  N1  UNL     1       1.462 -14.648   0.180  1.00  0.00    -0.232 N 
BRANCH  51  52
HETATM   52  O1  UNL     1       1.557 -15.837   0.404  1.00  0.00    -0.276 OA
BRANCH  52  53
HETATM   53  C2  UNL     1       1.659 -17.039   0.715  1.00  0.00     0.197 C 
HETATM   54  C1  UNL     1       2.251 -17.359   2.106  1.00  0.00     0.036 C 
ENDBRANCH  52  53
ENDBRANCH  51  52
BRANCH  51  55
HETATM   55  C3  UNL     1       2.056 -13.659   1.136  1.00  0.00     0.376 C 
HETATM   56  O2  UNL     1       1.482 -13.388   2.189  1.00  0.00    -0.281 OA
ENDBRANCH  51  55
ENDBRANCH  50  51
ENDBRANCH  43  50
BRANCH  46  57
HETATM   57  O9  UNL     1       0.734 -12.477  -3.154  1.00  0.00    -0.390 OA
ATOM     58  H9  UNL     1       1.598 -12.353  -2.779  1.00  0.00     0.210 HD
ENDBRANCH  46  57
BRANCH  48  59
HETATM   59  N8  UNL     1       3.227 -15.282  -5.633  1.00  0.00    -0.068 N 
ATOM     60  H83 UNL     1       2.975 -15.372  -6.617  1.00  0.00     0.275 HD
ATOM     61  H82 UNL     1       3.545 -14.313  -5.639  1.00  0.00     0.275 HD
ATOM     62  H81 UNL     1       3.983 -15.920  -5.384  1.00  0.00     0.275 HD
ENDBRANCH  48  59
ENDBRANCH  40  41
ENDBRANCH   1  40
BRANCH   6  63
HETATM   63  N7  UNL     1       4.412 -19.128  -2.213  1.00  0.00    -0.070 N 
ATOM     64  H73 UNL     1       3.584 -18.941  -2.779  1.00  0.00     0.274 HD
ATOM     65  H72 UNL     1       4.969 -19.646  -2.892  1.00  0.00     0.274 HD
ATOM     66  H71 UNL     1       4.178 -19.718  -1.414  1.00  0.00     0.274 HD
ENDBRANCH   6  63
TORSDOF 20
ENDMDL
MODEL 2
REMARK VINA RESULT: -7.563747673      2.508      8.746
REMARK  20 active torsions:
REMARK  status: ('A' for Active; 'I' for Inactive)
REMARK    1  A    between atoms: C2_2  and  O1_3 
REMARK    2  A    between atoms: O1_3  and  N1_4 
REMARK    3  A    between atoms: N1_4  and  C3_5 
REMARK    4  A    between atoms: N1_4  and  C4_7 
REMARK    5  A    between atoms: C4_7  and  C5_8 
REMARK    6  A    between atoms: C6_12  and  O3_13 
REMARK    7  A    between atoms: O3_13  and  C7_14 
REMARK    8  A    between atoms: C8_16  and  O5_17 
REMARK    9  A    between atoms: O5_17  and  C9_18 
REMARK   10  A    between atoms: C10_19  and  N3_20 
REMARK   11  A    between atoms: C13_26  and  C14_27 
REMARK   12  A    between atoms: C14_27  and  O6_28 
REMARK   13  A    between atoms: O6_28  and  C15_29 
REMARK   14  A    between atoms: C17_32  and  N4_33 
REMARK   15  A    between atoms: C19_38  and  N5_39 
REMARK   16  A    between atoms: C20_43  and  O8_44 
REMARK   17  A    between atoms: C21_46  and  N6_47 
REMARK   18  A    between atoms: C23_52  and  N7_53 
REMARK   19  A    between atoms: C24_57  and  N8_58 
REMARK   20  A    between atoms: C26_64  and  O9_65 
ROOT
HETATM    1  C7  UNL     1       6.705 -16.586  -3.554  1.00  0.00     0.296 C 
HETATM    2  O4  UNL     1       5.424 -16.122  -3.500  1.00  0.00    -0.327 OA
HETATM    3  C8  UNL     1       5.051 -15.466  -4.675  1.00  0.00     0.294 C 
HETATM    4  C21 UNL     1       6.304 -14.798  -5.217  1.00  0.00     0.240 C 
HETATM    5  C22 UNL     1       7.132 -15.941  -5.840  1.00  0.00     0.075 C 
HETATM    6  C23 UNL     1       6.883 -17.182  -4.959  1.00  0.00     0.240 C 
ENDROOT
BRANCH   3   7
HETATM    7  O5  UNL     1       3.996 -14.623  -4.447  1.00  0.00    -0.349 OA
BRANCH   7   8
HETATM    8  C9  UNL     1       2.720 -15.228  -4.614  1.00  0.00     0.184 C 
HETATM    9  C10 UNL     1       2.024 -14.557  -5.720  1.00  0.00     0.215 C 
HETATM   10  C11 UNL     1       0.548 -14.643  -5.780  1.00  0.00     0.036 C 
HETATM   11  C12 UNL     1      -0.127 -15.082  -4.509  1.00  0.00     0.011 C 
HETATM   12  C13 UNL     1       0.632 -14.548  -3.353  1.00  0.00     0.041 C 
HETATM   13  C20 UNL     1       1.993 -15.222  -3.308  1.00  0.00     0.155 C 
BRANCH   9  14
HETATM   14  N3  UNL     1       2.404 -13.132  -5.672  1.00  0.00    -0.072 N 
ATOM     15  H33 UNL     1       2.831 -12.862  -4.787  1.00  0.00     0.274 HD
ATOM     16  H32 UNL     1       3.196 -12.909  -6.275  1.00  0.00     0.274 HD
ATOM     17  H31 UNL     1       1.568 -12.590  -5.894  1.00  0.00     0.274 HD
ENDBRANCH   9  14
BRANCH  12  18
HETATM   18  C14 UNL     1      -0.055 -14.499  -2.035  1.00  0.00     0.178 C 
BRANCH  18  19
HETATM   19  O6  UNL     1       0.311 -15.333  -1.079  1.00  0.00    -0.359 OA
BRANCH  19  20
HETATM   20  C15 UNL     1       0.538 -15.067   0.204  1.00  0.00     0.289 C 
HETATM   21  O7  UNL     1       1.500 -13.999   0.315  1.00  0.00    -0.357 OA
HETATM   22  C16 UNL     1       1.390 -13.463   1.596  1.00  0.00     0.203 C 
HETATM   23  C17 UNL     1       1.783 -14.465   2.653  1.00  0.00     0.209 C 
HETATM   24  C18 UNL     1       2.023 -15.830   2.097  1.00  0.00     0.072 C 
HETATM   25  C19 UNL     1       1.192 -16.206   0.922  1.00  0.00     0.240 C 
BRANCH  23  26
HETATM   26  N4  UNL     1       0.867 -14.441   3.785  1.00  0.00    -0.073 N 
ATOM     27  H43 UNL     1      -0.009 -14.915   3.565  1.00  0.00     0.274 HD
ATOM     28  H42 UNL     1       1.192 -15.046   4.539  1.00  0.00     0.274 HD
ATOM     29  H41 UNL     1       0.703 -13.490   4.117  1.00  0.00     0.274 HD
ENDBRANCH  23  26
BRANCH  25  30
HETATM   30  N5  UNL     1       2.049 -16.882  -0.069  1.00  0.00    -0.070 N 
ATOM     31  H53 UNL     1       1.718 -16.779  -1.028  1.00  0.00     0.274 HD
ATOM     32  H52 UNL     1       2.953 -16.428  -0.199  1.00  0.00     0.274 HD
ATOM     33  H51 UNL     1       2.123 -17.854   0.232  1.00  0.00     0.274 HD
ENDBRANCH  25  30
ENDBRANCH  19  20
ENDBRANCH  18  19
ENDBRANCH  12  18
BRANCH  13  34
HETATM   34  O8  UNL     1       2.725 -14.678  -2.267  1.00  0.00    -0.392 OA
ATOM     35  H8  UNL     1       3.478 -15.200  -2.015  1.00  0.00     0.210 HD
ENDBRANCH  13  34
ENDBRANCH   7   8
ENDBRANCH   3   7
BRANCH   4  36
HETATM   36  N6  UNL     1       6.048 -13.850  -6.270  1.00  0.00    -0.070 N 
ATOM     37  H63 UNL     1       6.618 -14.061  -7.090  1.00  0.00     0.274 HD
ATOM     38  H62 UNL     1       5.119 -13.995  -6.666  1.00  0.00     0.274 HD
ATOM     39  H61 UNL     1       6.171 -12.878  -5.987  1.00  0.00     0.274 HD
ENDBRANCH   4  36
BRANCH   1  40
HETATM   40  O3  UNL     1       7.104 -17.426  -2.531  1.00  0.00    -0.324 OA
BRANCH  40  41
HETATM   41  C6  UNL     1       7.812 -16.744  -1.553  1.00  0.00     0.357 C 
HETATM   42  N2  UNL     1       7.452 -15.306  -1.455  1.00  0.00    -0.038 N 
HETATM   43  C5  UNL     1       8.701 -14.714  -0.916  1.00  0.00     0.240 C 
ATOM     44  H22 UNL     1       6.610 -15.108  -0.914  1.00  0.00     0.281 HD
ATOM     45  H21 UNL     1       7.112 -14.885  -2.319  1.00  0.00     0.281 HD
HETATM   46  C26 UNL     1       8.659 -15.060   0.578  1.00  0.00     0.186 C 
HETATM   47  C25 UNL     1       7.864 -16.279   0.886  1.00  0.00     0.235 C 
HETATM   48  C24 UNL     1       7.735 -17.310  -0.205  1.00  0.00     0.275 C 
HETATM   49  F1  UNL     1       6.614 -15.908   1.366  1.00  0.00    -0.244 F 
BRANCH  43  50
HETATM   50  C4  UNL     1       8.818 -13.251  -1.130  1.00  0.00     0.194 C 
BRANCH  50  51
HETATM   51  N1  UNL     1       9.638 -13.031  -2.362  1.00  0.00    -0.232 N 
BRANCH  51  52
HETATM   52  O1  UNL     1       9.677 -13.616  -3.424  1.00  0.00    -0.276 OA
BRANCH  52  53
HETATM   53  C2  UNL     1       9.795 -14.195  -4.521  1.00  0.00     0.197 C 
HETATM   54  C1  UNL     1       9.807 -13.309  -5.787  1.00  0.00     0.036 C 
ENDBRANCH  52  53
ENDBRANCH  51  52
BRANCH  51  55
HETATM   55  C3  UNL     1      10.538 -11.857  -2.125  1.00  0.00     0.376 C 
HETATM   56  O2  UNL     1      11.260 -11.432  -3.025  1.00  0.00    -0.281 OA
ENDBRANCH  51  55
ENDBRANCH  50  51
ENDBRANCH  43  50
BRANCH  46  57
HETATM   57  O9  UNL     1       8.002 -13.998   1.255  1.00  0.00    -0.390 OA
ATOM     58  H9  UNL     1       7.075 -14.049   1.052  1.00  0.00     0.210 HD
ENDBRANCH  46  57
BRANCH  48  59
HETATM   59  N8  UNL     1       6.460 -18.037   0.012  1.00  0.00    -0.068 N 
ATOM     60  H83 UNL     1       6.188 -18.027   0.995  1.00  0.00     0.275 HD
ATOM     61  H82 UNL     1       5.669 -17.524  -0.376  1.00  0.00     0.275 HD
ATOM     62  H81 UNL     1       6.502 -18.989  -0.352  1.00  0.00     0.275 HD
ENDBRANCH  48  59
ENDBRANCH  40  41
ENDBRANCH   1  40
BRANCH   6  63
HETATM   63  N7  UNL     1       7.973 -18.093  -5.058  1.00  0.00    -0.070 N 
ATOM     64  H73 UNL     1       8.674 -17.896  -4.343  1.00  0.00     0.274 HD
ATOM     65  H72 UNL     1       7.689 -19.028  -4.765  1.00  0.00     0.274 HD
ATOM     66  H71 UNL     1       8.400 -18.120  -5.984  1.00  0.00     0.274 HD
ENDBRANCH   6  63
TORSDOF 20
ENDMDL
MODEL 3
REMARK VINA RESULT: -7.549150635      2.639      9.272
REMARK  20 active torsions:
REMARK  status: ('A' for Active; 'I' for Inactive)
REMARK    1  A    between atoms: C2_2  and  O1_3 
REMARK    2  A    between atoms: O1_3  and  N1_4 
REMARK    3  A    between atoms: N1_4  and  C3_5 
REMARK    4  A    between atoms: N1_4  and  C4_7 
REMARK    5  A    between atoms: C4_7  and  C5_8 
REMARK    6  A    between atoms: C6_12  and  O3_13 
REMARK    7  A    between atoms: O3_13  and  C7_14 
REMARK    8  A    between atoms: C8_16  and  O5_17 
REMARK    9  A    between atoms: O5_17  and  C9_18 
REMARK   10  A    between atoms: C10_19  and  N3_20 
REMARK   11  A    between atoms: C13_26  and  C14_27 
REMARK   12  A    between atoms: C14_27  and  O6_28 
REMARK   13  A    between atoms: O6_28  and  C15_29 
REMARK   14  A    between atoms: C17_32  and  N4_33 
REMARK   15  A    between atoms: C19_38  and  N5_39 
REMARK   16  A    between atoms: C20_43  and  O8_44 
REMARK   17  A    between atoms: C21_46  and  N6_47 
REMARK   18  A    between atoms: C23_52  and  N7_53 
REMARK   19  A    between atoms: C24_57  and  N8_58 
REMARK   20  A    between atoms: C26_64  and  O9_65 
ROOT
HETATM    1  C7  UNL     1       5.674 -15.837  -4.674  1.00  0.00     0.296 C 
HETATM    2  O4  UNL     1       4.766 -15.394  -3.760  1.00  0.00    -0.327 OA
HETATM    3  C8  UNL     1       3.516 -15.149  -4.334  1.00  0.00     0.294 C 
HETATM    4  C21 UNL     1       3.776 -14.674  -5.754  1.00  0.00     0.240 C 
HETATM    5  C22 UNL     1       4.149 -15.947  -6.542  1.00  0.00     0.075 C 
HETATM    6  C23 UNL     1       4.928 -16.846  -5.561  1.00  0.00     0.240 C 
ENDROOT
BRANCH   3   7
HETATM    7  O5  UNL     1       2.785 -14.288  -3.559  1.00  0.00    -0.349 OA
BRANCH   7   8
HETATM    8  C9  UNL     1       1.693 -14.898  -2.882  1.00  0.00     0.184 C 
HETATM    9  C10 UNL     1       0.487 -14.094  -3.121  1.00  0.00     0.215 C 
HETATM   10  C11 UNL     1      -0.638 -14.211  -2.167  1.00  0.00     0.036 C 
HETATM   11  C12 UNL     1      -0.303 -14.847  -0.844  1.00  0.00     0.011 C 
HETATM   12  C13 UNL     1       1.078 -14.464  -0.464  1.00  0.00     0.041 C 
HETATM   13  C20 UNL     1       2.050 -15.099  -1.445  1.00  0.00     0.155 C 
BRANCH   9  14
HETATM   14  N3  UNL     1       0.907 -12.682  -3.170  1.00  0.00    -0.072 N 
ATOM     15  H33 UNL     1       1.681 -12.473  -2.540  1.00  0.00     0.274 HD
ATOM     16  H32 UNL     1       1.376 -12.434  -4.041  1.00  0.00     0.274 HD
ATOM     17  H31 UNL     1       0.079 -12.114  -2.987  1.00  0.00     0.274 HD
ENDBRANCH   9  14
BRANCH  12  18
HETATM   18  C14 UNL     1       1.475 -14.622   0.959  1.00  0.00     0.178 C 
BRANCH  18  19
HETATM   19  O6  UNL     1       1.789 -15.821   1.418  1.00  0.00    -0.359 OA
BRANCH  19  20
HETATM   20  C15 UNL     1       2.926 -16.213   1.985  1.00  0.00     0.289 C 
HETATM   21  O7  UNL     1       3.761 -16.858   1.002  1.00  0.00    -0.357 OA
HETATM   22  C16 UNL     1       5.065 -16.860   1.493  1.00  0.00     0.203 C 
HETATM   23  C17 UNL     1       5.189 -17.704   2.737  1.00  0.00     0.209 C 
HETATM   24  C18 UNL     1       3.870 -18.187   3.244  1.00  0.00     0.072 C 
HETATM   25  C19 UNL     1       2.717 -17.274   3.020  1.00  0.00     0.240 C 
BRANCH  23  26
HETATM   26  N4  UNL     1       6.009 -17.053   3.750  1.00  0.00    -0.073 N 
ATOM     27  H43 UNL     1       6.472 -16.225   3.377  1.00  0.00     0.274 HD
ATOM     28  H42 UNL     1       5.433 -16.607   4.464  1.00  0.00     0.274 HD
ATOM     29  H41 UNL     1       6.680 -17.700   4.165  1.00  0.00     0.274 HD
ENDBRANCH  23  26
BRANCH  25  30
HETATM   30  N5  UNL     1       1.562 -18.071   2.569  1.00  0.00    -0.070 N 
ATOM     31  H53 UNL     1       0.670 -17.591   2.684  1.00  0.00     0.274 HD
ATOM     32  H52 UNL     1       1.516 -18.179   1.556  1.00  0.00     0.274 HD
ATOM     33  H51 UNL     1       1.612 -18.958   3.069  1.00  0.00     0.274 HD
ENDBRANCH  25  30
ENDBRANCH  19  20
ENDBRANCH  18  19
ENDBRANCH  12  18
BRANCH  13  34
HETATM   34  O8  UNL     1       3.333 -14.690  -1.128  1.00  0.00    -0.392 OA
ATOM     35  H8  UNL     1       3.457 -14.501  -0.205  1.00  0.00     0.210 HD
ENDBRANCH  13  34
ENDBRANCH   7   8
ENDBRANCH   3   7
BRANCH   4  36
HETATM   36  N6  UNL     1       2.617 -14.113  -6.400  1.00  0.00    -0.070 N 
ATOM     37  H63 UNL     1       1.917 -13.843  -5.709  1.00  0.00     0.274 HD
ATOM     38  H62 UNL     1       2.833 -13.196  -6.793  1.00  0.00     0.274 HD
ATOM     39  H61 UNL     1       2.208 -14.721  -7.110  1.00  0.00     0.274 HD
ENDBRANCH   4  36
BRANCH   1  40
HETATM   40  O3  UNL     1       6.877 -16.305  -4.177  1.00  0.00    -0.324 OA
BRANCH  40  41
HETATM   41  C6  UNL     1       7.948 -15.550  -4.632  1.00  0.00     0.357 C 
HETATM   42  N2  UNL     1       7.563 -14.191  -5.090  1.00  0.00    -0.038 N 
HETATM   43  C5  UNL     1       8.626 -13.890  -6.080  1.00  0.00     0.240 C 
ATOM     44  H22 UNL     1       7.454 -13.499  -4.348  1.00  0.00     0.281 HD
ATOM     45  H21 UNL     1       6.609 -14.106  -5.440  1.00  0.00     0.281 HD
HETATM   46  C26 UNL     1       9.835 -13.504  -5.219  1.00  0.00     0.186 C 
HETATM   47  C25 UNL     1       9.816 -14.107  -3.860  1.00  0.00     0.235 C 
HETATM   48  C24 UNL     1       9.060 -15.399  -3.691  1.00  0.00     0.275 C 
HETATM   49  F1  UNL     1       9.387 -13.159  -2.939  1.00  0.00    -0.244 F 
BRANCH  43  50
HETATM   50  C4  UNL     1       8.274 -12.811  -7.036  1.00  0.00     0.194 C 
BRANCH  50  51
HETATM   51  N1  UNL     1       9.086 -13.013  -8.276  1.00  0.00    -0.232 N 
BRANCH  51  52
HETATM   52  O1  UNL     1       9.230 -13.973  -9.003  1.00  0.00    -0.276 OA
BRANCH  52  53
HETATM   53  C2  UNL     1       9.454 -14.935  -9.763  1.00  0.00     0.197 C 
HETATM   54  C1  UNL     1       9.792 -14.605 -11.234  1.00  0.00     0.036 C 
ENDBRANCH  52  53
ENDBRANCH  51  52
BRANCH  51  55
HETATM   55  C3  UNL     1       9.813 -11.737  -8.574  1.00  0.00     0.376 C 
HETATM   56  O2  UNL     1      10.714 -11.344  -7.835  1.00  0.00    -0.281 OA
ENDBRANCH  51  55
ENDBRANCH  50  51
ENDBRANCH  43  50
BRANCH  46  57
HETATM   57  O9  UNL     1       9.794 -12.099  -5.011  1.00  0.00    -0.390 OA
ATOM     58  H9  UNL     1      10.259 -11.683  -5.727  1.00  0.00     0.210 HD
ENDBRANCH  46  57
BRANCH  48  59
HETATM   59  N8  UNL     1       8.599 -15.470  -2.282  1.00  0.00    -0.068 N 
ATOM     60  H83 UNL     1       7.799 -14.858  -2.121  1.00  0.00     0.275 HD
ATOM     61  H82 UNL     1       8.156 -16.366  -2.080  1.00  0.00     0.275 HD
ATOM     62  H81 UNL     1       9.356 -15.272  -1.628  1.00  0.00     0.275 HD
ENDBRANCH  48  59
ENDBRANCH  40  41
ENDBRANCH   1  40
BRANCH   6  63
HETATM   63  N7  UNL     1       5.791 -17.731  -6.269  1.00  0.00    -0.070 N 
ATOM     64  H73 UNL     1       6.089 -17.313  -7.152  1.00  0.00     0.274 HD
ATOM     65  H72 UNL     1       6.695 -17.803  -5.802  1.00  0.00     0.274 HD
ATOM     66  H71 UNL     1       5.390 -18.655  -6.424  1.00  0.00     0.274 HD
ENDBRANCH   6  63
TORSDOF 20
ENDMDL
MODEL 4
REMARK VINA RESULT: -7.518756385      2.761      8.852
REMARK  20 active torsions:
REMARK  status: ('A' for Active; 'I' for Inactive)
REMARK    1  A    between atoms: C2_2  and  O1_3 
REMARK    2  A    between atoms: O1_3  and  N1_4 
REMARK    3  A    between atoms: N1_4  and  C3_5 
REMARK    4  A    between atoms: N1_4  and  C4_7 
REMARK    5  A    between atoms: C4_7  and  C5_8 
REMARK    6  A    between atoms: C6_12  and  O3_13 
REMARK    7  A    between atoms: O3_13  and  C7_14 
REMARK    8  A    between atoms: C8_16  and  O5_17 
REMARK    9  A    between atoms: O5_17  and  C9_18 
REMARK   10  A    between atoms: C10_19  and  N3_20 
REMARK   11  A    between atoms: C13_26  and  C14_27 
REMARK   12  A    between atoms: C14_27  and  O6_28 
REMARK   13  A    between atoms: O6_28  and  C15_29 
REMARK   14  A    between atoms: C17_32  and  N4_33 
REMARK   15  A    between atoms: C19_38  and  N5_39 
REMARK   16  A    between atoms: C20_43  and  O8_44 
REMARK   17  A    between atoms: C21_46  and  N6_47 
REMARK   18  A    between atoms: C23_52  and  N7_53 
REMARK   19  A    between atoms: C24_57  and  N8_58 
REMARK   20  A    between atoms: C26_64  and  O9_65 
ROOT
HETATM    1  C7  UNL     1       6.611 -16.477  -3.132  1.00  0.00     0.296 C 
HETATM    2  O4  UNL     1       5.335 -15.998  -3.190  1.00  0.00    -0.327 OA
HETATM    3  C8  UNL     1       5.009 -15.520  -4.461  1.00  0.00     0.294 C 
HETATM    4  C21 UNL     1       6.288 -14.950  -5.052  1.00  0.00     0.240 C 
HETATM    5  C22 UNL     1       7.120 -16.180  -5.473  1.00  0.00     0.075 C 
HETATM    6  C23 UNL     1       6.825 -17.275  -4.428  1.00  0.00     0.240 C 
ENDROOT
BRANCH   3   7
HETATM    7  O5  UNL     1       3.959 -14.643  -4.395  1.00  0.00    -0.349 OA
BRANCH   7   8
HETATM    8  C9  UNL     1       2.685 -15.244  -4.584  1.00  0.00     0.184 C 
HETATM    9  C10 UNL     1       2.000 -14.556  -5.686  1.00  0.00     0.215 C 
HETATM   10  C11 UNL     1       0.525 -14.641  -5.763  1.00  0.00     0.036 C 
HETATM   11  C12 UNL     1      -0.164 -15.100  -4.505  1.00  0.00     0.011 C 
HETATM   12  C13 UNL     1       0.584 -14.584  -3.333  1.00  0.00     0.041 C 
HETATM   13  C20 UNL     1       1.945 -15.258  -3.285  1.00  0.00     0.155 C 
BRANCH   9  14
HETATM   14  N3  UNL     1       2.379 -13.133  -5.613  1.00  0.00    -0.072 N 
ATOM     15  H33 UNL     1       3.091 -12.945  -4.907  1.00  0.00     0.274 HD
ATOM     16  H32 UNL     1       2.912 -12.818  -6.424  1.00  0.00     0.274 HD
ATOM     17  H31 UNL     1       1.522 -12.600  -5.467  1.00  0.00     0.274 HD
ENDBRANCH   9  14
BRANCH  12  18
HETATM   18  C14 UNL     1      -0.116 -14.554  -2.022  1.00  0.00     0.178 C 
BRANCH  18  19
HETATM   19  O6  UNL     1       0.273 -15.369  -1.058  1.00  0.00    -0.359 OA
BRANCH  19  20
HETATM   20  C15 UNL     1       0.511 -15.081   0.218  1.00  0.00     0.289 C 
HETATM   21  O7  UNL     1       1.478 -14.015   0.302  1.00  0.00    -0.357 OA
HETATM   22  C16 UNL     1       1.381 -13.456   1.574  1.00  0.00     0.203 C 
HETATM   23  C17 UNL     1       1.777 -14.441   2.646  1.00  0.00     0.209 C 
HETATM   24  C18 UNL     1       2.008 -15.816   2.113  1.00  0.00     0.072 C 
HETATM   25  C19 UNL     1       1.166 -16.209   0.951  1.00  0.00     0.240 C 
BRANCH  23  26
HETATM   26  N4  UNL     1       0.871 -14.392   3.784  1.00  0.00    -0.073 N 
ATOM     27  H43 UNL     1      -0.066 -14.103   3.502  1.00  0.00     0.274 HD
ATOM     28  H42 UNL     1       0.653 -15.328   4.127  1.00  0.00     0.274 HD
ATOM     29  H41 UNL     1       1.234 -13.799   4.531  1.00  0.00     0.274 HD
ENDBRANCH  23  26
BRANCH  25  30
HETATM   30  N5  UNL     1       2.012 -16.907  -0.034  1.00  0.00    -0.070 N 
ATOM     31  H53 UNL     1       1.837 -17.910  -0.080  1.00  0.00     0.274 HD
ATOM     32  H52 UNL     1       1.769 -16.692  -1.000  1.00  0.00     0.274 HD
ATOM     33  H51 UNL     1       2.977 -16.675   0.202  1.00  0.00     0.274 HD
ENDBRANCH  25  30
ENDBRANCH  19  20
ENDBRANCH  18  19
ENDBRANCH  12  18
BRANCH  13  34
HETATM   34  O8  UNL     1       2.666 -14.731  -2.229  1.00  0.00    -0.392 OA
ATOM     35  H8  UNL     1       3.535 -15.103  -2.136  1.00  0.00     0.210 HD
ENDBRANCH  13  34
ENDBRANCH   7   8
ENDBRANCH   3   7
BRANCH   4  36
HETATM   36  N6  UNL     1       6.078 -14.166  -6.242  1.00  0.00    -0.070 N 
ATOM     37  H63 UNL     1       5.363 -14.592  -6.831  1.00  0.00     0.274 HD
ATOM     38  H62 UNL     1       5.613 -13.287  -6.016  1.00  0.00     0.274 HD
ATOM     39  H61 UNL     1       6.930 -13.995  -6.777  1.00  0.00     0.274 HD
ENDBRANCH   4  36
BRANCH   1  40
HETATM   40  O3  UNL     1       6.965 -17.161  -1.984  1.00  0.00    -0.324 OA
BRANCH  40  41
HETATM   41  C6  UNL     1       7.805 -16.408  -1.177  1.00  0.00     0.357 C 
HETATM   42  N2  UNL     1       7.321 -15.023  -0.946  1.00  0.00    -0.038 N 
HETATM   43  C5  UNL     1       8.588 -14.294  -0.697  1.00  0.00     0.240 C 
ATOM     44  H22 UNL     1       6.615 -14.928  -0.215  1.00  0.00     0.281 HD
ATOM     45  H21 UNL     1       6.740 -14.638  -1.690  1.00  0.00     0.281 HD
HETATM   46  C26 UNL     1       8.942 -14.653   0.752  1.00  0.00     0.186 C 
HETATM   47  C25 UNL     1       8.385 -15.959   1.196  1.00  0.00     0.235 C 
HETATM   48  C24 UNL     1       8.115 -16.990   0.130  1.00  0.00     0.275 C 
HETATM   49  F1  UNL     1       7.252 -15.739   1.970  1.00  0.00    -0.244 F 
BRANCH  43  50
HETATM   50  C4  UNL     1       8.487 -12.825  -0.881  1.00  0.00     0.194 C 
BRANCH  50  51
HETATM   51  N1  UNL     1       9.814 -12.331  -1.364  1.00  0.00    -0.232 N 
BRANCH  51  52
HETATM   52  O1  UNL     1      10.706 -11.727  -0.807  1.00  0.00    -0.276 OA
BRANCH  52  53
HETATM   53  C2  UNL     1      11.618 -11.162  -0.173  1.00  0.00     0.197 C 
HETATM   54  C1  UNL     1      11.412  -9.672   0.179  1.00  0.00     0.036 C 
ENDBRANCH  52  53
ENDBRANCH  51  52
BRANCH  51  55
HETATM   55  C3  UNL     1       9.954 -12.699  -2.810  1.00  0.00     0.376 C 
HETATM   56  O2  UNL     1      10.592 -11.982  -3.578  1.00  0.00    -0.281 OA
ENDBRANCH  51  55
ENDBRANCH  50  51
ENDBRANCH  43  50
BRANCH  46  57
HETATM   57  O9  UNL     1       8.351 -13.681   1.602  1.00  0.00    -0.390 OA
ATOM     58  H9  UNL     1       9.051 -13.218   2.050  1.00  0.00     0.210 HD
ENDBRANCH  46  57
BRANCH  48  59
HETATM   59  N8  UNL     1       7.018 -17.862   0.617  1.00  0.00    -0.068 N 
ATOM     60  H83 UNL     1       6.398 -18.141  -0.144  1.00  0.00     0.275 HD
ATOM     61  H82 UNL     1       7.365 -18.783   0.883  1.00  0.00     0.275 HD
ATOM     62  H81 UNL     1       6.498 -17.425   1.378  1.00  0.00     0.275 HD
ENDBRANCH  48  59
ENDBRANCH  40  41
ENDBRANCH   1  40
BRANCH   6  63
HETATM   63  N7  UNL     1       7.905 -18.201  -4.355  1.00  0.00    -0.070 N 
ATOM     64  H73 UNL     1       8.098 -18.602  -5.273  1.00  0.00     0.274 HD
ATOM     65  H72 UNL     1       8.787 -17.714  -4.193  1.00  0.00     0.274 HD
ATOM     66  H71 UNL     1       7.766 -18.936  -3.661  1.00  0.00     0.274 HD
ENDBRANCH   6  63
TORSDOF 20
ENDMDL
MODEL 5
REMARK VINA RESULT: -7.477697141      3.040      4.738
REMARK  20 active torsions:
REMARK  status: ('A' for Active; 'I' for Inactive)
REMARK    1  A    between atoms: C2_2  and  O1_3 
REMARK    2  A    between atoms: O1_3  and  N1_4 
REMARK    3  A    between atoms: N1_4  and  C3_5 
REMARK    4  A    between atoms: N1_4  and  C4_7 
REMARK    5  A    between atoms: C4_7  and  C5_8 
REMARK    6  A    between atoms: C6_12  and  O3_13 
REMARK    7  A    between atoms: O3_13  and  C7_14 
REMARK    8  A    between atoms: C8_16  and  O5_17 
REMARK    9  A    between atoms: O5_17  and  C9_18 
REMARK   10  A    between atoms: C10_19  and  N3_20 
REMARK   11  A    between atoms: C13_26  and  C14_27 
REMARK   12  A    between atoms: C14_27  and  O6_28 
REMARK   13  A    between atoms: O6_28  and  C15_29 
REMARK   14  A    between atoms: C17_32  and  N4_33 
REMARK   15  A    between atoms: C19_38  and  N5_39 
REMARK   16  A    between atoms: C20_43  and  O8_44 
REMARK   17  A    between atoms: C21_46  and  N6_47 
REMARK   18  A    between atoms: C23_52  and  N7_53 
REMARK   19  A    between atoms: C24_57  and  N8_58 
REMARK   20  A    between atoms: C26_64  and  O9_65 
ROOT
HETATM    1  C7  UNL     1       4.486 -15.526  -5.711  1.00  0.00     0.296 C 
HETATM    2  O4  UNL     1       5.464 -14.831  -6.358  1.00  0.00    -0.327 OA
HETATM    3  C8  UNL     1       6.731 -15.085  -5.827  1.00  0.00     0.294 C 
HETATM    4  C21 UNL     1       6.537 -15.334  -4.340  1.00  0.00     0.240 C 
HETATM    5  C22 UNL     1       5.954 -16.759  -4.243  1.00  0.00     0.075 C 
HETATM    6  C23 UNL     1       5.050 -16.938  -5.480  1.00  0.00     0.240 C 
ENDROOT
BRANCH   3   7
HETATM    7  O5  UNL     1       7.600 -14.073  -6.138  1.00  0.00    -0.349 OA
BRANCH   7   8
HETATM    8  C9  UNL     1       8.789 -14.505  -6.787  1.00  0.00     0.184 C 
HETATM    9  C10 UNL     1       9.936 -14.189  -5.924  1.00  0.00     0.215 C 
HETATM   10  C11 UNL     1      11.274 -14.075  -6.544  1.00  0.00     0.036 C 
HETATM   11  C12 UNL     1      11.284 -13.919  -8.041  1.00  0.00     0.011 C 
HETATM   12  C13 UNL     1      10.105 -13.118  -8.447  1.00  0.00     0.041 C 
HETATM   13  C20 UNL     1       8.846 -13.919  -8.160  1.00  0.00     0.155 C 
BRANCH   9  14
HETATM   14  N3  UNL     1       9.630 -12.916  -5.244  1.00  0.00    -0.072 N 
ATOM     15  H33 UNL     1       8.816 -12.441  -5.632  1.00  0.00     0.274 HD
ATOM     16  H32 UNL     1       9.271 -13.044  -4.298  1.00  0.00     0.274 HD
ATOM     17  H31 UNL     1      10.476 -12.347  -5.276  1.00  0.00     0.274 HD
ENDBRANCH   9  14
BRANCH  12  18
HETATM   18  C14 UNL     1      10.122 -12.493  -9.796  1.00  0.00     0.178 C 
BRANCH  18  19
HETATM   19  O6  UNL     1      11.014 -12.889 -10.686  1.00  0.00    -0.359 OA
BRANCH  19  20
HETATM   20  C15 UNL     1      10.865 -13.785 -11.659  1.00  0.00     0.289 C 
HETATM   21  O7  UNL     1      10.037 -14.870 -11.196  1.00  0.00    -0.357 OA
HETATM   22  C16 UNL     1       9.553 -15.539 -12.317  1.00  0.00     0.203 C 
HETATM   23  C17 UNL     1      10.666 -16.192 -13.098  1.00  0.00     0.209 C 
HETATM   24  C18 UNL     1      12.022 -15.825 -12.593  1.00  0.00     0.072 C 
HETATM   25  C19 UNL     1      12.152 -14.456 -12.025  1.00  0.00     0.240 C 
BRANCH  23  26
HETATM   26  N4  UNL     1      10.500 -16.004 -14.533  1.00  0.00    -0.073 N 
ATOM     27  H43 UNL     1       9.645 -16.447 -14.870  1.00  0.00     0.274 HD
ATOM     28  H42 UNL     1      10.277 -15.034 -14.758  1.00  0.00     0.274 HD
ATOM     29  H41 UNL     1      11.316 -16.327 -15.053  1.00  0.00     0.274 HD
ENDBRANCH  23  26
BRANCH  25  30
HETATM   30  N5  UNL     1      12.948 -14.529 -10.787  1.00  0.00    -0.070 N 
ATOM     31  H53 UNL     1      12.395 -14.393  -9.941  1.00  0.00     0.274 HD
ATOM     32  H52 UNL     1      13.277 -15.470 -10.572  1.00  0.00     0.274 HD
ATOM     33  H51 UNL     1      13.703 -13.850 -10.891  1.00  0.00     0.274 HD
ENDBRANCH  25  30
ENDBRANCH  19  20
ENDBRANCH  18  19
ENDBRANCH  12  18
BRANCH  13  34
HETATM   34  O8  UNL     1       7.744 -13.146  -8.481  1.00  0.00    -0.392 OA
ATOM     35  H8  UNL     1       6.927 -13.631  -8.489  1.00  0.00     0.210 HD
ENDBRANCH  13  34
ENDBRANCH   7   8
ENDBRANCH   3   7
BRANCH   4  36
HETATM   36  N6  UNL     1       7.765 -15.338  -3.588  1.00  0.00    -0.070 N 
ATOM     37  H63 UNL     1       7.999 -16.284  -3.286  1.00  0.00     0.274 HD
ATOM     38  H62 UNL     1       8.562 -15.152  -4.197  1.00  0.00     0.274 HD
ATOM     39  H61 UNL     1       7.763 -14.698  -2.794  1.00  0.00     0.274 HD
ENDBRANCH   4  36
BRANCH   1  40
HETATM   40  O3  UNL     1       3.229 -15.509  -6.286  1.00  0.00    -0.324 OA
BRANCH  40  41
HETATM   41  C6  UNL     1       2.252 -15.146  -5.371  1.00  0.00     0.357 C 
HETATM   42  N2  UNL     1       2.789 -14.442  -4.178  1.00  0.00    -0.038 N 
HETATM   43  C5  UNL     1       1.775 -14.771  -3.147  1.00  0.00     0.240 C 
ATOM     44  H22 UNL     1       2.968 -13.446  -4.307  1.00  0.00     0.281 HD
ATOM     45  H21 UNL     1       3.749 -14.680  -3.931  1.00  0.00     0.281 HD
HETATM   46  C26 UNL     1       0.609 -13.824  -3.460  1.00  0.00     0.186 C 
HETATM   47  C25 UNL     1       0.550 -13.404  -4.886  1.00  0.00     0.235 C 
HETATM   48  C24 UNL     1       1.156 -14.334  -5.904  1.00  0.00     0.275 C 
HETATM   49  F1  UNL     1       1.073 -12.123  -5.012  1.00  0.00    -0.244 F 
BRANCH  43  50
HETATM   50  C4  UNL     1       2.252 -14.599  -1.752  1.00  0.00     0.194 C 
BRANCH  50  51
HETATM   51  N1  UNL     1       2.240 -15.942  -1.094  1.00  0.00    -0.232 N 
BRANCH  51  52
HETATM   52  O1  UNL     1       1.586 -16.388  -0.175  1.00  0.00    -0.276 OA
BRANCH  52  53
HETATM   53  C2  UNL     1       0.982 -16.848   0.813  1.00  0.00     0.197 C 
HETATM   54  C1  UNL     1       1.373 -18.270   1.277  1.00  0.00     0.036 C 
ENDBRANCH  52  53
ENDBRANCH  51  52
BRANCH  51  55
HETATM   55  C3  UNL     1       3.262 -16.805  -1.769  1.00  0.00     0.376 C 
HETATM   56  O2  UNL     1       2.924 -17.836  -2.347  1.00  0.00    -0.281 OA
ENDBRANCH  51  55
ENDBRANCH  50  51
ENDBRANCH  43  50
BRANCH  46  57
HETATM   57  O9  UNL     1       0.804 -12.628  -2.720  1.00  0.00    -0.390 OA
ATOM     58  H9  UNL     1       0.728 -12.839  -1.796  1.00  0.00     0.210 HD
ENDBRANCH  46  57
BRANCH  48  59
HETATM   59  N8  UNL     1       1.594 -13.512  -7.059  1.00  0.00    -0.068 N 
ATOM     60  H83 UNL     1       1.824 -12.560  -6.773  1.00  0.00     0.275 HD
ATOM     61  H82 UNL     1       2.512 -13.803  -7.395  1.00  0.00     0.275 HD
ATOM     62  H81 UNL     1       0.903 -13.518  -7.810  1.00  0.00     0.275 HD
ENDBRANCH  48  59
ENDBRANCH  40  41
ENDBRANCH   1  40
BRANCH   6  63
HETATM   63  N7  UNL     1       4.047 -17.918  -5.229  1.00  0.00    -0.070 N 
ATOM     64  H73 UNL     1       4.130 -18.285  -4.281  1.00  0.00     0.274 HD
ATOM     65  H72 UNL     1       3.127 -17.483  -5.163  1.00  0.00     0.274 HD
ATOM     66  H71 UNL     1       4.038 -18.676  -5.911  1.00  0.00     0.274 HD
ENDBRANCH   6  63
TORSDOF 20
ENDMDL
