MODEL 1
REMARK VINA RESULT: -9.405112846      0.000      0.000
REMARK  21 active torsions:
REMARK  status: ('A' for Active; 'I' for Inactive)
REMARK    1  A    between atoms: C2_2  and  O2_4 
REMARK    2  A    between atoms: O2_4  and  N1_5 
REMARK    3  A    between atoms: N1_5  and  C3_7 
REMARK    4  A    between atoms: C3_7  and  N2_8 
REMARK    5  A    between atoms: C3_7  and  C10_30 
REMARK    6  A    between atoms: N2_8  and  C4_10 
REMARK    7  A    between atoms: C4_10  and  C5_11 
REMARK    8  A    between atoms: C6_14  and  N4_15 
REMARK    9  A    between atoms: C7_20  and  N6_21 
REMARK   10  A    between atoms: C8_24  and  C9_25 
REMARK   11  A    between atoms: C9_25  and  O3_26 
REMARK   12  A    between atoms: C9_25  and  O4_28 
REMARK   13  A    between atoms: N7_34  and  C12_35 
REMARK   14  A    between atoms: C12_35  and  C13_36 
REMARK   15  A    between atoms: C13_36  and  O7_37 
REMARK   16  A    between atoms: O7_37  and  C14_38 
REMARK   17  A    between atoms: C14_38  and  C15_40 
REMARK   18  A    between atoms: C17_44  and  S1_45 
REMARK   19  A    between atoms: S1_45  and  N9_46 
REMARK   20  A    between atoms: S1_45  and  N10_50 
REMARK       I    between atoms: N10_50  and  C18_52 
REMARK   21  A    between atoms: N12_55  and  N13_56 
ROOT
HETATM    1  C10 UNL     1       8.845 -13.220  -6.451  1.00  0.00     0.293 C 
HETATM    2  O5  UNL     1       9.243 -12.028  -7.115  1.00  0.00    -0.336 OA
HETATM    3  C11 UNL     1       8.312 -11.887  -8.114  1.00  0.00     0.365 C 
HETATM    4  O6  UNL     1       7.993 -13.180  -8.531  1.00  0.00    -0.275 OA
HETATM    5  N7  UNL     1       8.342 -14.000  -7.542  1.00  0.00    -0.156 NA
ENDROOT
BRANCH   1   6
HETATM    6  C3  UNL     1      10.093 -13.869  -5.915  1.00  0.00     0.144 C 
BRANCH   6   7
HETATM    7  N1  UNL     1      10.253 -13.907  -4.649  1.00  0.00    -0.242 N 
ATOM      8  H1  UNL     1      10.877 -14.586  -4.214  1.00  0.00     0.196 HD
BRANCH   7   9
HETATM    9  O2  UNL     1       9.541 -12.987  -3.885  1.00  0.00    -0.199 OA
BRANCH   9  10
HETATM   10  C2  UNL     1      10.242 -12.314  -2.901  1.00  0.00     0.277 C 
HETATM   11  C1  UNL     1       9.919 -12.473  -1.453  1.00  0.00     0.128 C 
HETATM   12  O1  UNL     1      11.189 -11.532  -3.183  1.00  0.00    -0.264 OA
ENDBRANCH   9  10
ENDBRANCH   7   9
ENDBRANCH   6   7
BRANCH   6  13
HETATM   13  N2  UNL     1      11.046 -14.426  -6.789  1.00  0.00    -0.369 N 
ATOM     14  H2  UNL     1      10.954 -15.404  -7.066  1.00  0.00     0.161 HD
BRANCH  13  15
HETATM   15  C4  UNL     1      12.166 -13.640  -7.310  1.00  0.00     0.179 C 
BRANCH  15  16
HETATM   16  C5  UNL     1      12.781 -14.306  -8.482  1.00  0.00     0.059 A 
HETATM   17  N3  UNL     1      13.897 -15.038  -8.288  1.00  0.00    -0.193 N 
HETATM   18  C6  UNL     1      14.466 -15.674  -9.310  1.00  0.00     0.677 A 
ATOM     19  H3  UNL     1      14.306 -15.103  -7.356  1.00  0.00     0.184 HD
HETATM   20  N5  UNL     1      13.946 -15.603 -10.555  1.00  0.00    -0.177 N 
HETATM   21  C7  UNL     1      12.843 -14.885 -10.777  1.00  0.00     0.128 A 
ATOM     22  H5  UNL     1      14.396 -16.097 -11.325  1.00  0.00     0.186 HD
HETATM   23  C8  UNL     1      12.210 -14.199  -9.724  1.00  0.00     0.065 A 
BRANCH  18  24
HETATM   24  N4  UNL     1      15.544 -16.403  -9.177  1.00  0.00    -0.234 N 
ATOM     25  H42 UNL     1      16.302 -16.208  -9.830  1.00  0.00     0.174 HD
ATOM     26  H41 UNL     1      15.632 -17.132  -8.469  1.00  0.00     0.174 HD
ENDBRANCH  18  24
BRANCH  21  27
HETATM   27  N6  UNL     1      12.308 -14.787 -11.948  1.00  0.00    -0.384 N 
ATOM     28  H62 UNL     1      12.559 -13.972 -12.507  1.00  0.00     0.157 HD
ATOM     29  H61 UNL     1      11.659 -15.486 -12.311  1.00  0.00     0.157 HD
ENDBRANCH  21  27
BRANCH  23  30
HETATM   30  C9  UNL     1      10.990 -13.399 -10.031  1.00  0.00     0.294 C 
BRANCH  30  31
HETATM   31  O3  UNL     1      11.406 -12.485 -11.032  1.00  0.00    -0.367 OA
ATOM     32  H3  UNL     1      10.597 -12.152 -11.403  1.00  0.00     0.213 HD
ENDBRANCH  30  31
BRANCH  30  33
HETATM   33  O4  UNL     1       9.954 -14.110 -10.579  1.00  0.00    -0.367 OA
ATOM     34  H4  UNL     1       9.169 -13.605 -10.752  1.00  0.00     0.213 HD
ENDBRANCH  30  33
ENDBRANCH  23  30
ENDBRANCH  15  16
ENDBRANCH  13  15
ENDBRANCH   6  13
ENDBRANCH   1   6
BRANCH   5  35
HETATM   35  C12 UNL     1       7.342 -14.972  -7.198  1.00  0.00     0.151 C 
BRANCH  35  36
HETATM   36  C13 UNL     1       6.334 -14.311  -6.266  1.00  0.00     0.196 C 
BRANCH  36  37
HETATM   37  O7  UNL     1       5.041 -14.643  -6.635  1.00  0.00    -0.315 OA
BRANCH  37  38
HETATM   38  C14 UNL     1       4.290 -15.721  -6.205  1.00  0.00     0.313 C 
HETATM   39  O8  UNL     1       4.177 -16.701  -7.010  1.00  0.00    -0.257 OA
BRANCH  38  40
HETATM   40  C15 UNL     1       3.660 -15.750  -4.897  1.00  0.00     0.148 A 
HETATM   41  C16 UNL     1       3.612 -16.796  -4.048  1.00  0.00     0.128 A 
HETATM   42  N8  UNL     1       2.884 -16.404  -2.949  1.00  0.00    -0.339 N 
HETATM   43  C17 UNL     1       2.504 -15.160  -3.130  1.00  0.00     0.223 A 
ATOM     44  H8  UNL     1       2.676 -16.980  -2.134  1.00  0.00     0.167 HD
HETATM   45  N12 UNL     1       2.958 -14.736  -4.296  1.00  0.00    -0.229 N 
BRANCH  43  46
HETATM   46  S1  UNL     1       1.288 -14.074  -1.925  1.00  0.00     0.175 S 
HETATM   47  O9  UNL     1       1.297 -16.068  -0.905  1.00  0.00    -0.220 OA
BRANCH  46  48
HETATM   48  N9  UNL     1      -0.471 -14.793  -2.008  1.00  0.00    -0.338 N 
ATOM     49  H92 UNL     1      -1.327 -14.242  -1.936  1.00  0.00     0.167 HD
ATOM     50  H91 UNL     1      -0.413 -15.803  -2.133  1.00  0.00     0.167 HD
ENDBRANCH  46  48
BRANCH  46  51
HETATM   51  N10 UNL     1       2.060 -13.835  -0.199  1.00  0.00    -0.249 N 
HETATM   52  C18 UNL     1       1.199 -13.620   0.891  1.00  0.00     0.341 C 
HETATM   53  N11 UNL     1       1.659 -13.440   2.213  1.00  0.00    -0.039 NA
HETATM   54  O10 UNL     1      -0.050 -13.579   0.722  1.00  0.00    -0.250 OA
ATOM     55  H10 UNL     1       3.071 -13.863  -0.069  1.00  0.00     0.181 HD
ENDBRANCH  46  51
ENDBRANCH  43  46
BRANCH  45  56
HETATM   56  N13 UNL     1       2.794 -13.482  -4.894  1.00  0.00    -0.336 N 
ATOM     57 2H13 UNL     1       3.452 -12.703  -4.932  1.00  0.00     0.177 HD
ATOM     58 1H13 UNL     1       1.937 -13.216  -5.379  1.00  0.00     0.177 HD
ENDBRANCH  45  56
ENDBRANCH  38  40
ENDBRANCH  37  38
ENDBRANCH  36  37
ENDBRANCH  35  36
ENDBRANCH   5  35
TORSDOF 21
ENDMDL
MODEL 2
REMARK VINA RESULT: -9.382559800      2.121      3.651
REMARK  21 active torsions:
REMARK  status: ('A' for Active; 'I' for Inactive)
REMARK    1  A    between atoms: C2_2  and  O2_4 
REMARK    2  A    between atoms: O2_4  and  N1_5 
REMARK    3  A    between atoms: N1_5  and  C3_7 
REMARK    4  A    between atoms: C3_7  and  N2_8 
REMARK    5  A    between atoms: C3_7  and  C10_30 
REMARK    6  A    between atoms: N2_8  and  C4_10 
REMARK    7  A    between atoms: C4_10  and  C5_11 
REMARK    8  A    between atoms: C6_14  and  N4_15 
REMARK    9  A    between atoms: C7_20  and  N6_21 
REMARK   10  A    between atoms: C8_24  and  C9_25 
REMARK   11  A    between atoms: C9_25  and  O3_26 
REMARK   12  A    between atoms: C9_25  and  O4_28 
REMARK   13  A    between atoms: N7_34  and  C12_35 
REMARK   14  A    between atoms: C12_35  and  C13_36 
REMARK   15  A    between atoms: C13_36  and  O7_37 
REMARK   16  A    between atoms: O7_37  and  C14_38 
REMARK   17  A    between atoms: C14_38  and  C15_40 
REMARK   18  A    between atoms: C17_44  and  S1_45 
REMARK   19  A    between atoms: S1_45  and  N9_46 
REMARK   20  A    between atoms: S1_45  and  N10_50 
REMARK       I    between atoms: N10_50  and  C18_52 
REMARK   21  A    between atoms: N12_55  and  N13_56 
ROOT
HETATM    1  C10 UNL     1       8.541 -14.246  -5.242  1.00  0.00     0.293 C 
HETATM    2  O5  UNL     1       9.503 -13.568  -4.446  1.00  0.00    -0.336 OA
HETATM    3  C11 UNL     1       8.981 -13.637  -3.178  1.00  0.00     0.365 C 
HETATM    4  O6  UNL     1       7.596 -13.552  -3.325  1.00  0.00    -0.275 OA
HETATM    5  N7  UNL     1       7.321 -13.889  -4.583  1.00  0.00    -0.156 NA
ENDROOT
BRANCH   1   6
HETATM    6  C3  UNL     1       8.567 -13.613  -6.607  1.00  0.00     0.144 C 
BRANCH   6   7
HETATM    7  N1  UNL     1       8.663 -12.341  -6.677  1.00  0.00    -0.242 N 
ATOM      8  H1  UNL     1       8.784 -11.772  -5.839  1.00  0.00     0.196 HD
BRANCH   7   9
HETATM    9  O2  UNL     1       8.595 -11.761  -7.941  1.00  0.00    -0.199 OA
BRANCH   9  10
HETATM   10  C2  UNL     1       9.791 -11.573  -8.608  1.00  0.00     0.277 C 
HETATM   11  C1  UNL     1       9.867 -11.539 -10.098  1.00  0.00     0.128 C 
HETATM   12  O1  UNL     1      10.877 -11.421  -7.987  1.00  0.00    -0.264 OA
ENDBRANCH   9  10
ENDBRANCH   7   9
ENDBRANCH   6   7
BRANCH   6  13
HETATM   13  N2  UNL     1       8.500 -14.405  -7.769  1.00  0.00    -0.369 N 
ATOM     14  H2  UNL     1       7.697 -14.308  -8.391  1.00  0.00     0.161 HD
BRANCH  13  15
HETATM   15  C4  UNL     1       9.553 -15.365  -8.108  1.00  0.00     0.179 C 
BRANCH  15  16
HETATM   16  C5  UNL     1      10.086 -15.108  -9.466  1.00  0.00     0.059 A 
HETATM   17  N3  UNL     1       9.235 -15.179 -10.511  1.00  0.00    -0.193 N 
HETATM   18  C6  UNL     1       9.668 -14.929 -11.745  1.00  0.00     0.677 A 
ATOM     19  H3  UNL     1       8.258 -15.424 -10.354  1.00  0.00     0.184 HD
HETATM   20  N5  UNL     1      10.959 -14.603 -11.980  1.00  0.00    -0.177 N 
HETATM   21  C7  UNL     1      11.823 -14.527 -10.967  1.00  0.00     0.128 A 
ATOM     22  H5  UNL     1      11.271 -14.416 -12.933  1.00  0.00     0.186 HD
HETATM   23  C8  UNL     1      11.405 -14.782  -9.648  1.00  0.00     0.065 A 
BRANCH  18  24
HETATM   24  N4  UNL     1       8.885 -14.975 -12.791  1.00  0.00    -0.234 N 
ATOM     25  H42 UNL     1       7.888 -14.866 -12.611  1.00  0.00     0.174 HD
ATOM     26  H41 UNL     1       9.238 -15.117 -13.738  1.00  0.00     0.174 HD
ENDBRANCH  18  24
BRANCH  21  27
HETATM   27  N6  UNL     1      13.065 -14.219 -11.141  1.00  0.00    -0.384 N 
ATOM     28  H62 UNL     1      13.517 -14.569 -11.987  1.00  0.00     0.157 HD
ATOM     29  H61 UNL     1      13.585 -13.653 -10.471  1.00  0.00     0.157 HD
ENDBRANCH  21  27
BRANCH  23  30
HETATM   30  C9  UNL     1      12.417 -14.700  -8.555  1.00  0.00     0.294 C 
BRANCH  30  31
HETATM   31  O3  UNL     1      13.401 -15.658  -8.907  1.00  0.00    -0.367 OA
ATOM     32  H3  UNL     1      13.335 -16.326  -8.235  1.00  0.00     0.213 HD
ENDBRANCH  30  31
BRANCH  30  33
HETATM   33  O4  UNL     1      13.075 -13.501  -8.466  1.00  0.00    -0.367 OA
ATOM     34  H4  UNL     1      12.997 -12.943  -9.231  1.00  0.00     0.213 HD
ENDBRANCH  30  33
ENDBRANCH  23  30
ENDBRANCH  15  16
ENDBRANCH  13  15
ENDBRANCH   6  13
ENDBRANCH   1   6
BRANCH   5  35
HETATM   35  C12 UNL     1       6.243 -14.829  -4.722  1.00  0.00     0.151 C 
BRANCH  35  36
HETATM   36  C13 UNL     1       5.540 -14.556  -6.046  1.00  0.00     0.196 C 
BRANCH  36  37
HETATM   37  O7  UNL     1       4.299 -13.981  -5.827  1.00  0.00    -0.315 OA
BRANCH  37  38
HETATM   38  C14 UNL     1       3.102 -14.626  -5.577  1.00  0.00     0.313 C 
HETATM   39  O8  UNL     1       2.857 -15.671  -6.261  1.00  0.00    -0.257 OA
BRANCH  38  40
HETATM   40  C15 UNL     1       2.162 -14.146  -4.579  1.00  0.00     0.148 A 
HETATM   41  C16 UNL     1       1.136 -13.296  -4.783  1.00  0.00     0.128 A 
HETATM   42  N8  UNL     1       0.535 -13.075  -3.566  1.00  0.00    -0.339 N 
HETATM   43  C17 UNL     1       1.180 -13.770  -2.656  1.00  0.00     0.223 A 
ATOM     44  H8  UNL     1      -0.273 -12.476  -3.398  1.00  0.00     0.167 HD
HETATM   45  N12 UNL     1       2.167 -14.428  -3.237  1.00  0.00    -0.229 N 
BRANCH  43  46
HETATM   46  S1  UNL     1       0.855 -13.749  -0.655  1.00  0.00     0.175 S 
HETATM   47  O9  UNL     1      -0.775 -15.104  -1.378  1.00  0.00    -0.220 OA
BRANCH  46  48
HETATM   48  N9  UNL     1      -0.815 -12.909  -0.305  1.00  0.00    -0.338 N 
ATOM     49  H92 UNL     1      -1.164 -12.677   0.625  1.00  0.00     0.167 HD
ATOM     50  H91 UNL     1      -1.292 -12.734  -1.189  1.00  0.00     0.167 HD
ENDBRANCH  46  48
BRANCH  46  51
HETATM   51  N10 UNL     1       1.152 -15.469   0.112  1.00  0.00    -0.249 N 
HETATM   52  C18 UNL     1       2.423 -15.753   0.636  1.00  0.00     0.341 C 
HETATM   53  N11 UNL     1       2.752 -16.988   1.236  1.00  0.00    -0.039 NA
HETATM   54  O10 UNL     1       3.342 -14.891   0.591  1.00  0.00    -0.250 OA
ATOM     55  H10 UNL     1       0.406 -16.165   0.140  1.00  0.00     0.181 HD
ENDBRANCH  46  51
ENDBRANCH  43  46
BRANCH  45  56
HETATM   56  N13 UNL     1       3.106 -15.287  -2.656  1.00  0.00    -0.336 N 
ATOM     57 2H13 UNL     1       3.450 -16.184  -3.001  1.00  0.00     0.177 HD
ATOM     58 1H13 UNL     1       3.561 -15.077  -1.768  1.00  0.00     0.177 HD
ENDBRANCH  45  56
ENDBRANCH  38  40
ENDBRANCH  37  38
ENDBRANCH  36  37
ENDBRANCH  35  36
ENDBRANCH   5  35
TORSDOF 21
ENDMDL
MODEL 3
REMARK VINA RESULT: -9.369714896      2.159      3.822
REMARK  21 active torsions:
REMARK  status: ('A' for Active; 'I' for Inactive)
REMARK    1  A    between atoms: C2_2  and  O2_4 
REMARK    2  A    between atoms: O2_4  and  N1_5 
REMARK    3  A    between atoms: N1_5  and  C3_7 
REMARK    4  A    between atoms: C3_7  and  N2_8 
REMARK    5  A    between atoms: C3_7  and  C10_30 
REMARK    6  A    between atoms: N2_8  and  C4_10 
REMARK    7  A    between atoms: C4_10  and  C5_11 
REMARK    8  A    between atoms: C6_14  and  N4_15 
REMARK    9  A    between atoms: C7_20  and  N6_21 
REMARK   10  A    between atoms: C8_24  and  C9_25 
REMARK   11  A    between atoms: C9_25  and  O3_26 
REMARK   12  A    between atoms: C9_25  and  O4_28 
REMARK   13  A    between atoms: N7_34  and  C12_35 
REMARK   14  A    between atoms: C12_35  and  C13_36 
REMARK   15  A    between atoms: C13_36  and  O7_37 
REMARK   16  A    between atoms: O7_37  and  C14_38 
REMARK   17  A    between atoms: C14_38  and  C15_40 
REMARK   18  A    between atoms: C17_44  and  S1_45 
REMARK   19  A    between atoms: S1_45  and  N9_46 
REMARK   20  A    between atoms: S1_45  and  N10_50 
REMARK       I    between atoms: N10_50  and  C18_52 
REMARK   21  A    between atoms: N12_55  and  N13_56 
ROOT
HETATM    1  C10 UNL     1       9.610 -13.722  -5.116  1.00  0.00     0.293 C 
HETATM    2  O5  UNL     1      10.179 -12.449  -4.845  1.00  0.00    -0.336 OA
HETATM    3  C11 UNL     1      10.233 -12.403  -3.474  1.00  0.00     0.365 C 
HETATM    4  O6  UNL     1       9.106 -13.088  -3.019  1.00  0.00    -0.275 OA
HETATM    5  N7  UNL     1       8.701 -13.869  -4.019  1.00  0.00    -0.156 NA
ENDROOT
BRANCH   1   6
HETATM    6  C3  UNL     1       8.823 -13.596  -6.394  1.00  0.00     0.144 C 
BRANCH   6   7
HETATM    7  N1  UNL     1       7.670 -13.050  -6.337  1.00  0.00    -0.242 N 
ATOM      8  H1  UNL     1       7.530 -12.156  -5.866  1.00  0.00     0.196 HD
BRANCH   7   9
HETATM    9  O2  UNL     1       6.612 -13.721  -6.942  1.00  0.00    -0.199 OA
BRANCH   9  10
HETATM   10  C2  UNL     1       5.785 -14.461  -6.117  1.00  0.00     0.277 C 
HETATM   11  C1  UNL     1       5.606 -15.931  -6.293  1.00  0.00     0.128 C 
HETATM   12  O1  UNL     1       5.142 -13.925  -5.174  1.00  0.00    -0.264 OA
ENDBRANCH   9  10
ENDBRANCH   7   9
ENDBRANCH   6   7
BRANCH   6  13
HETATM   13  N2  UNL     1       9.354 -14.057  -7.613  1.00  0.00    -0.369 N 
ATOM     14  H2  UNL     1       9.614 -15.039  -7.702  1.00  0.00     0.161 HD
BRANCH  13  15
HETATM   15  C4  UNL     1       9.543 -13.163  -8.758  1.00  0.00     0.179 C 
BRANCH  15  16
HETATM   16  C5  UNL     1      10.030 -13.912  -9.940  1.00  0.00     0.059 A 
HETATM   17  N3  UNL     1       9.154 -14.183 -10.929  1.00  0.00    -0.193 N 
HETATM   18  C6  UNL     1       9.557 -14.831 -12.021  1.00  0.00     0.677 A 
ATOM     19  H3  UNL     1       8.181 -13.891 -10.841  1.00  0.00     0.184 HD
HETATM   20  N5  UNL     1      10.841 -15.231 -12.162  1.00  0.00    -0.177 N 
HETATM   21  C7  UNL     1      11.728 -14.978 -11.199  1.00  0.00     0.128 A 
ATOM     22  H5  UNL     1      11.130 -15.727 -13.005  1.00  0.00     0.186 HD
HETATM   23  C8  UNL     1      11.343 -14.295 -10.031  1.00  0.00     0.065 A 
BRANCH  18  24
HETATM   24  N4  UNL     1       8.753 -15.113 -13.013  1.00  0.00    -0.234 N 
ATOM     25  H42 UNL     1       8.292 -16.021 -12.973  1.00  0.00     0.174 HD
ATOM     26  H41 UNL     1       8.593 -14.472 -13.790  1.00  0.00     0.174 HD
ENDBRANCH  18  24
BRANCH  21  27
HETATM   27  N6  UNL     1      12.965 -15.339 -11.288  1.00  0.00    -0.384 N 
ATOM     28  H62 UNL     1      13.150 -16.289 -11.611  1.00  0.00     0.157 HD
ATOM     29  H61 UNL     1      13.734 -14.714 -11.048  1.00  0.00     0.157 HD
ENDBRANCH  21  27
BRANCH  23  30
HETATM   30  C9  UNL     1      12.372 -14.053  -8.979  1.00  0.00     0.294 C 
BRANCH  30  31
HETATM   31  O3  UNL     1      12.718 -15.348  -8.514  1.00  0.00    -0.367 OA
ATOM     32  H3  UNL     1      13.668 -15.355  -8.514  1.00  0.00     0.213 HD
ENDBRANCH  30  31
BRANCH  30  33
HETATM   33  O4  UNL     1      13.539 -13.492  -9.429  1.00  0.00    -0.367 OA
ATOM     34  H4  UNL     1      13.758 -12.655  -9.037  1.00  0.00     0.213 HD
ENDBRANCH  30  33
ENDBRANCH  23  30
ENDBRANCH  15  16
ENDBRANCH  13  15
ENDBRANCH   6  13
ENDBRANCH   1   6
BRANCH   5  35
HETATM   35  C12 UNL     1       8.408 -15.221  -3.633  1.00  0.00     0.151 C 
BRANCH  35  36
HETATM   36  C13 UNL     1       7.250 -15.194  -2.643  1.00  0.00     0.196 C 
BRANCH  36  37
HETATM   37  O7  UNL     1       6.352 -16.213  -2.917  1.00  0.00    -0.315 OA
BRANCH  37  38
HETATM   38  C14 UNL     1       5.281 -16.624  -2.147  1.00  0.00     0.313 C 
HETATM   39  O8  UNL     1       5.490 -17.581  -1.335  1.00  0.00    -0.257 OA
BRANCH  38  40
HETATM   40  C15 UNL     1       3.974 -15.998  -2.247  1.00  0.00     0.148 A 
HETATM   41  C16 UNL     1       3.123 -16.073  -3.290  1.00  0.00     0.128 A 
HETATM   42  N8  UNL     1       2.027 -15.300  -2.984  1.00  0.00    -0.339 N 
HETATM   43  C17 UNL     1       2.213 -14.775  -1.794  1.00  0.00     0.223 A 
ATOM     44  H8  UNL     1       1.211 -15.159  -3.579  1.00  0.00     0.167 HD
HETATM   45  N12 UNL     1       3.378 -15.179  -1.323  1.00  0.00    -0.229 N 
BRANCH  43  46
HETATM   46  S1  UNL     1       1.014 -13.434  -0.858  1.00  0.00     0.175 S 
HETATM   47  O9  UNL     1      -0.400 -15.122  -1.263  1.00  0.00    -0.220 OA
BRANCH  46  48
HETATM   48  N9  UNL     1      -0.308 -12.822  -2.081  1.00  0.00    -0.338 N 
ATOM     49  H92 UNL     1      -1.244 -13.217  -2.169  1.00  0.00     0.167 HD
ATOM     50  H91 UNL     1       0.073 -12.046  -2.623  1.00  0.00     0.167 HD
ENDBRANCH  46  48
BRANCH  46  51
HETATM   51  N10 UNL     1       0.414 -14.100   0.825  1.00  0.00    -0.249 N 
HETATM   52  C18 UNL     1       1.237 -13.909   1.947  1.00  0.00     0.341 C 
HETATM   53  N11 UNL     1       0.890 -14.350   3.242  1.00  0.00    -0.039 NA
HETATM   54  O10 UNL     1       2.345 -13.318   1.836  1.00  0.00    -0.250 OA
ATOM     55  H10 UNL     1      -0.481 -14.582   0.908  1.00  0.00     0.181 HD
ENDBRANCH  46  51
ENDBRANCH  43  46
BRANCH  45  56
HETATM   56  N13 UNL     1       3.981 -14.868  -0.098  1.00  0.00    -0.336 N 
ATOM     57 2H13 UNL     1       4.743 -14.217   0.090  1.00  0.00     0.177 HD
ATOM     58 1H13 UNL     1       3.690 -15.301   0.778  1.00  0.00     0.177 HD
ENDBRANCH  45  56
ENDBRANCH  38  40
ENDBRANCH  37  38
ENDBRANCH  36  37
ENDBRANCH  35  36
ENDBRANCH   5  35
TORSDOF 21
ENDMDL
MODEL 4
REMARK VINA RESULT: -9.328712202      1.108      1.522
REMARK  21 active torsions:
REMARK  status: ('A' for Active; 'I' for Inactive)
REMARK    1  A    between atoms: C2_2  and  O2_4 
REMARK    2  A    between atoms: O2_4  and  N1_5 
REMARK    3  A    between atoms: N1_5  and  C3_7 
REMARK    4  A    between atoms: C3_7  and  N2_8 
REMARK    5  A    between atoms: C3_7  and  C10_30 
REMARK    6  A    between atoms: N2_8  and  C4_10 
REMARK    7  A    between atoms: C4_10  and  C5_11 
REMARK    8  A    between atoms: C6_14  and  N4_15 
REMARK    9  A    between atoms: C7_20  and  N6_21 
REMARK   10  A    between atoms: C8_24  and  C9_25 
REMARK   11  A    between atoms: C9_25  and  O3_26 
REMARK   12  A    between atoms: C9_25  and  O4_28 
REMARK   13  A    between atoms: N7_34  and  C12_35 
REMARK   14  A    between atoms: C12_35  and  C13_36 
REMARK   15  A    between atoms: C13_36  and  O7_37 
REMARK   16  A    between atoms: O7_37  and  C14_38 
REMARK   17  A    between atoms: C14_38  and  C15_40 
REMARK   18  A    between atoms: C17_44  and  S1_45 
REMARK   19  A    between atoms: S1_45  and  N9_46 
REMARK   20  A    between atoms: S1_45  and  N10_50 
REMARK       I    between atoms: N10_50  and  C18_52 
REMARK   21  A    between atoms: N12_55  and  N13_56 
ROOT
HETATM    1  C10 UNL     1       8.800 -13.172  -6.340  1.00  0.00     0.293 C 
HETATM    2  O5  UNL     1       9.171 -11.962  -6.986  1.00  0.00    -0.336 OA
HETATM    3  C11 UNL     1       8.167 -11.763  -7.901  1.00  0.00     0.365 C 
HETATM    4  O6  UNL     1       7.787 -13.031  -8.341  1.00  0.00    -0.275 OA
HETATM    5  N7  UNL     1       8.195 -13.898  -7.415  1.00  0.00    -0.156 NA
ENDROOT
BRANCH   1   6
HETATM    6  C3  UNL     1      10.072 -13.866  -5.932  1.00  0.00     0.144 C 
BRANCH   6   7
HETATM    7  N1  UNL     1      10.342 -13.941  -4.685  1.00  0.00    -0.242 N 
ATOM      8  H1  UNL     1      11.134 -14.486  -4.346  1.00  0.00     0.196 HD
BRANCH   7   9
HETATM    9  O2  UNL     1       9.512 -13.248  -3.807  1.00  0.00    -0.199 OA
BRANCH   9  10
HETATM   10  C2  UNL     1      10.128 -12.438  -2.872  1.00  0.00     0.277 C 
HETATM   11  C1  UNL     1       9.661 -12.371  -1.456  1.00  0.00     0.128 C 
HETATM   12  O1  UNL     1      11.116 -11.715  -3.172  1.00  0.00    -0.264 OA
ENDBRANCH   9  10
ENDBRANCH   7   9
ENDBRANCH   6   7
BRANCH   6  13
HETATM   13  N2  UNL     1      10.929 -14.426  -6.898  1.00  0.00    -0.369 N 
ATOM     14  H2  UNL     1      10.738 -15.365  -7.247  1.00  0.00     0.161 HD
BRANCH  13  15
HETATM   15  C4  UNL     1      12.087 -13.694  -7.417  1.00  0.00     0.179 C 
BRANCH  15  16
HETATM   16  C5  UNL     1      12.715 -14.427  -8.541  1.00  0.00     0.059 A 
HETATM   17  N3  UNL     1      13.890 -15.051  -8.320  1.00  0.00    -0.193 N 
HETATM   18  C6  UNL     1      14.475 -15.742  -9.296  1.00  0.00     0.677 A 
ATOM     19  H3  UNL     1      14.331 -14.994  -7.402  1.00  0.00     0.184 HD
HETATM   20  N5  UNL     1      13.913 -15.833 -10.522  1.00  0.00    -0.177 N 
HETATM   21  C7  UNL     1      12.752 -15.224 -10.770  1.00  0.00     0.128 A 
ATOM     22  H5  UNL     1      14.377 -16.366 -11.257  1.00  0.00     0.186 HD
HETATM   23  C8  UNL     1      12.101 -14.486  -9.766  1.00  0.00     0.065 A 
BRANCH  18  24
HETATM   24  N4  UNL     1      15.609 -16.373  -9.134  1.00  0.00    -0.234 N 
ATOM     25  H42 UNL     1      16.324 -15.882  -8.598  1.00  0.00     0.174 HD
ATOM     26  H41 UNL     1      15.783 -17.301  -9.521  1.00  0.00     0.174 HD
ENDBRANCH  18  24
BRANCH  21  27
HETATM   27  N6  UNL     1      12.176 -15.282 -11.925  1.00  0.00    -0.384 N 
ATOM     28  H62 UNL     1      12.537 -14.670 -12.657  1.00  0.00     0.157 HD
ATOM     29  H61 UNL     1      11.392 -15.907 -12.112  1.00  0.00     0.157 HD
ENDBRANCH  21  27
BRANCH  23  30
HETATM   30  C9  UNL     1      10.814 -13.811 -10.103  1.00  0.00     0.294 C 
BRANCH  30  31
HETATM   31  O3  UNL     1       9.813 -14.728  -9.694  1.00  0.00    -0.367 OA
ATOM     32  H3  UNL     1       9.282 -14.865 -10.469  1.00  0.00     0.213 HD
ENDBRANCH  30  31
BRANCH  30  33
HETATM   33  O4  UNL     1      10.569 -12.654  -9.411  1.00  0.00    -0.367 OA
ATOM     34  H4  UNL     1       9.721 -12.260  -9.575  1.00  0.00     0.213 HD
ENDBRANCH  30  33
ENDBRANCH  23  30
ENDBRANCH  15  16
ENDBRANCH  13  15
ENDBRANCH   6  13
ENDBRANCH   1   6
BRANCH   5  35
HETATM   35  C12 UNL     1       7.204 -14.864  -7.031  1.00  0.00     0.151 C 
BRANCH  35  36
HETATM   36  C13 UNL     1       6.314 -14.236  -5.965  1.00  0.00     0.196 C 
BRANCH  36  37
HETATM   37  O7  UNL     1       4.984 -14.293  -6.347  1.00  0.00    -0.315 OA
BRANCH  37  38
HETATM   38  C14 UNL     1       4.013 -15.170  -5.900  1.00  0.00     0.313 C 
HETATM   39  O8  UNL     1       3.862 -16.246  -6.562  1.00  0.00    -0.257 OA
BRANCH  38  40
HETATM   40  C15 UNL     1       3.203 -14.890  -4.728  1.00  0.00     0.148 A 
HETATM   41  C16 UNL     1       2.427 -13.806  -4.526  1.00  0.00     0.128 A 
HETATM   42  N8  UNL     1       1.874 -13.922  -3.272  1.00  0.00    -0.339 N 
HETATM   43  C17 UNL     1       2.304 -15.042  -2.735  1.00  0.00     0.223 A 
ATOM     44  H8  UNL     1       1.239 -13.255  -2.835  1.00  0.00     0.167 HD
HETATM   45  N12 UNL     1       3.106 -15.649  -3.590  1.00  0.00    -0.229 N 
BRANCH  43  46
HETATM   46  S1  UNL     1       1.951 -15.698  -0.850  1.00  0.00     0.175 S 
HETATM   47  O9  UNL     1       3.906 -14.632  -0.614  1.00  0.00    -0.220 OA
BRANCH  46  48
HETATM   48  N9  UNL     1       3.274 -16.981  -0.380  1.00  0.00    -0.338 N 
ATOM     49  H92 UNL     1       4.274 -16.869  -0.545  1.00  0.00     0.167 HD
ATOM     50  H91 UNL     1       2.820 -17.784   0.056  1.00  0.00     0.167 HD
ENDBRANCH  46  48
BRANCH  46  51
HETATM   51  N10 UNL     1       1.674 -14.242   0.349  1.00  0.00    -0.249 N 
HETATM   52  C18 UNL     1       1.539 -14.524   1.718  1.00  0.00     0.341 C 
HETATM   53  N11 UNL     1       1.341 -13.525   2.696  1.00  0.00    -0.039 NA
HETATM   54  O10 UNL     1       1.593 -15.712   2.136  1.00  0.00    -0.250 OA
ATOM     55  H10 UNL     1       1.625 -13.282   0.005  1.00  0.00     0.181 HD
ENDBRANCH  46  51
ENDBRANCH  43  46
BRANCH  45  56
HETATM   56  N13 UNL     1       3.787 -16.863  -3.440  1.00  0.00    -0.336 N 
ATOM     57 2H13 UNL     1       4.791 -17.025  -3.363  1.00  0.00     0.177 HD
ATOM     58 1H13 UNL     1       3.302 -17.758  -3.392  1.00  0.00     0.177 HD
ENDBRANCH  45  56
ENDBRANCH  38  40
ENDBRANCH  37  38
ENDBRANCH  36  37
ENDBRANCH  35  36
ENDBRANCH   5  35
TORSDOF 21
ENDMDL
MODEL 5
REMARK VINA RESULT: -9.328398310      1.844      2.684
REMARK  21 active torsions:
REMARK  status: ('A' for Active; 'I' for Inactive)
REMARK    1  A    between atoms: C2_2  and  O2_4 
REMARK    2  A    between atoms: O2_4  and  N1_5 
REMARK    3  A    between atoms: N1_5  and  C3_7 
REMARK    4  A    between atoms: C3_7  and  N2_8 
REMARK    5  A    between atoms: C3_7  and  C10_30 
REMARK    6  A    between atoms: N2_8  and  C4_10 
REMARK    7  A    between atoms: C4_10  and  C5_11 
REMARK    8  A    between atoms: C6_14  and  N4_15 
REMARK    9  A    between atoms: C7_20  and  N6_21 
REMARK   10  A    between atoms: C8_24  and  C9_25 
REMARK   11  A    between atoms: C9_25  and  O3_26 
REMARK   12  A    between atoms: C9_25  and  O4_28 
REMARK   13  A    between atoms: N7_34  and  C12_35 
REMARK   14  A    between atoms: C12_35  and  C13_36 
REMARK   15  A    between atoms: C13_36  and  O7_37 
REMARK   16  A    between atoms: O7_37  and  C14_38 
REMARK   17  A    between atoms: C14_38  and  C15_40 
REMARK   18  A    between atoms: C17_44  and  S1_45 
REMARK   19  A    between atoms: S1_45  and  N9_46 
REMARK   20  A    between atoms: S1_45  and  N10_50 
REMARK       I    between atoms: N10_50  and  C18_52 
REMARK   21  A    between atoms: N12_55  and  N13_56 
ROOT
HETATM    1  C10 UNL     1       7.902 -15.235  -4.706  1.00  0.00     0.293 C 
HETATM    2  O5  UNL     1       8.071 -15.971  -3.503  1.00  0.00    -0.336 OA
HETATM    3  C11 UNL     1       6.785 -16.229  -3.097  1.00  0.00     0.365 C 
HETATM    4  O6  UNL     1       6.033 -15.112  -3.464  1.00  0.00    -0.275 OA
HETATM    5  N7  UNL     1       6.717 -14.484  -4.419  1.00  0.00    -0.156 NA
ENDROOT
BRANCH   1   6
HETATM    6  C3  UNL     1       9.068 -14.290  -4.818  1.00  0.00     0.144 C 
BRANCH   6   7
HETATM    7  N1  UNL     1       9.737 -14.035  -3.760  1.00  0.00    -0.242 N 
ATOM      8  H1  UNL     1      10.510 -14.633  -3.465  1.00  0.00     0.196 HD
BRANCH   7   9
HETATM    9  O2  UNL     1       9.372 -12.911  -3.025  1.00  0.00    -0.199 OA
BRANCH   9  10
HETATM   10  C2  UNL     1      10.397 -12.130  -2.524  1.00  0.00     0.277 C 
HETATM   11  C1  UNL     1      10.598 -11.936  -1.059  1.00  0.00     0.128 C 
HETATM   12  O1  UNL     1      11.212 -11.542  -3.286  1.00  0.00    -0.264 OA
ENDBRANCH   9  10
ENDBRANCH   7   9
ENDBRANCH   6   7
BRANCH   6  13
HETATM   13  N2  UNL     1       9.414 -13.717  -6.056  1.00  0.00    -0.369 N 
ATOM     14  H2  UNL     1       9.682 -12.733  -6.091  1.00  0.00     0.161 HD
BRANCH  13  15
HETATM   15  C4  UNL     1       9.399 -14.495  -7.296  1.00  0.00     0.179 C 
BRANCH  15  16
HETATM   16  C5  UNL     1      10.605 -14.217  -8.111  1.00  0.00     0.059 A 
HETATM   17  N3  UNL     1      11.806 -14.583  -7.618  1.00  0.00    -0.193 N 
HETATM   18  C6  UNL     1      12.912 -14.376  -8.330  1.00  0.00     0.677 A 
ATOM     19  H3  UNL     1      11.867 -15.020  -6.699  1.00  0.00     0.184 HD
HETATM   20  N5  UNL     1      12.860 -13.797  -9.551  1.00  0.00    -0.177 N 
HETATM   21  C7  UNL     1      11.685 -13.424 -10.062  1.00  0.00     0.128 A 
ATOM     22  H5  UNL     1      13.718 -13.646 -10.080  1.00  0.00     0.186 HD
HETATM   23  C8  UNL     1      10.494 -13.627  -9.343  1.00  0.00     0.065 A 
BRANCH  18  24
HETATM   24  N4  UNL     1      14.101 -14.718  -7.905  1.00  0.00    -0.234 N 
ATOM     25  H42 UNL     1      14.142 -15.535  -7.298  1.00  0.00     0.174 HD
ATOM     26  H41 UNL     1      14.945 -14.202  -8.154  1.00  0.00     0.174 HD
ENDBRANCH  18  24
BRANCH  21  27
HETATM   27  N6  UNL     1      11.585 -12.868 -11.224  1.00  0.00    -0.384 N 
ATOM     28  H62 UNL     1      11.113 -13.401 -11.955  1.00  0.00     0.157 HD
ATOM     29  H61 UNL     1      11.956 -11.938 -11.416  1.00  0.00     0.157 HD
ENDBRANCH  21  27
BRANCH  23  30
HETATM   30  C9  UNL     1       9.211 -13.175  -9.955  1.00  0.00     0.294 C 
BRANCH  30  31
HETATM   31  O3  UNL     1       9.340 -11.766 -10.055  1.00  0.00    -0.367 OA
ATOM     32  H3  UNL     1       9.268 -11.585 -10.984  1.00  0.00     0.213 HD
ENDBRANCH  30  31
BRANCH  30  33
HETATM   33  O4  UNL     1       8.989 -13.623 -11.231  1.00  0.00    -0.367 OA
ATOM     34  H4  UNL     1       8.077 -13.761 -11.454  1.00  0.00     0.213 HD
ENDBRANCH  30  33
ENDBRANCH  23  30
ENDBRANCH  15  16
ENDBRANCH  13  15
ENDBRANCH   6  13
ENDBRANCH   1   6
BRANCH   5  35
HETATM   35  C12 UNL     1       5.930 -14.107  -5.559  1.00  0.00     0.151 C 
BRANCH  35  36
HETATM   36  C13 UNL     1       5.442 -15.377  -6.244  1.00  0.00     0.196 C 
BRANCH  36  37
HETATM   37  O7  UNL     1       4.081 -15.543  -6.045  1.00  0.00    -0.315 OA
BRANCH  37  38
HETATM   38  C14 UNL     1       3.140 -14.566  -5.776  1.00  0.00     0.313 C 
HETATM   39  O8  UNL     1       2.855 -13.767  -6.724  1.00  0.00    -0.257 OA
BRANCH  38  40
HETATM   40  C15 UNL     1       2.498 -14.452  -4.479  1.00  0.00     0.148 A 
HETATM   41  C16 UNL     1       1.687 -13.456  -4.067  1.00  0.00     0.128 A 
HETATM   42  N8  UNL     1       1.338 -13.720  -2.763  1.00  0.00    -0.339 N 
HETATM   43  C17 UNL     1       1.922 -14.840  -2.400  1.00  0.00     0.223 A 
ATOM     44  H8  UNL     1       0.731 -13.146  -2.179  1.00  0.00     0.167 HD
HETATM   45  N12 UNL     1       2.628 -15.306  -3.414  1.00  0.00    -0.229 N 
BRANCH  43  46
HETATM   46  S1  UNL     1       1.905 -15.674  -0.552  1.00  0.00     0.175 S 
HETATM   47  O9  UNL     1       4.010 -14.928  -0.707  1.00  0.00    -0.220 OA
BRANCH  46  48
HETATM   48  N9  UNL     1       3.071 -17.177  -0.538  1.00  0.00    -0.338 N 
ATOM     49  H92 UNL     1       3.968 -17.220  -1.022  1.00  0.00     0.167 HD
ATOM     50  H91 UNL     1       2.654 -17.917   0.026  1.00  0.00     0.167 HD
ENDBRANCH  46  48
BRANCH  46  51
HETATM   51  N10 UNL     1       2.152 -14.357   0.804  1.00  0.00    -0.249 N 
HETATM   52  C18 UNL     1       1.248 -14.332   1.879  1.00  0.00     0.341 C 
HETATM   53  N11 UNL     1       1.339 -13.409   2.942  1.00  0.00    -0.039 NA
HETATM   54  O10 UNL     1       0.296 -15.157   1.934  1.00  0.00    -0.250 OA
ATOM     55  H10 UNL     1       2.920 -13.688   0.751  1.00  0.00     0.181 HD
ENDBRANCH  46  51
ENDBRANCH  43  46
BRANCH  45  56
HETATM   56  N13 UNL     1       3.408 -16.467  -3.476  1.00  0.00    -0.336 N 
ATOM     57 2H13 UNL     1       3.322 -17.259  -4.113  1.00  0.00     0.177 HD
ATOM     58 1H13 UNL     1       4.187 -16.635  -2.840  1.00  0.00     0.177 HD
ENDBRANCH  45  56
ENDBRANCH  38  40
ENDBRANCH  37  38
ENDBRANCH  36  37
ENDBRANCH  35  36
ENDBRANCH   5  35
TORSDOF 21
ENDMDL
