MODEL 1
REMARK VINA RESULT: -7.934893027      0.000      0.000
REMARK  21 active torsions:
REMARK  status: ('A' for Active; 'I' for Inactive)
REMARK    1  A    between atoms: N1_1  and  C1_5 
REMARK    2  A    between atoms: C1_5  and  C2_6 
REMARK    3  A    between atoms: C2_6  and  O1_7 
REMARK    4  A    between atoms: O1_7  and  C3_8 
REMARK    5  A    between atoms: C4_9  and  C5_10 
REMARK    6  A    between atoms: C5_10  and  N2_11 
REMARK    7  A    between atoms: C6_16  and  O3_17 
REMARK    8  A    between atoms: O3_17  and  C7_18 
REMARK    9  A    between atoms: C8_19  and  N3_20 
REMARK   10  A    between atoms: C12_28  and  O4_29 
REMARK   11  A    between atoms: O4_29  and  C13_30 
REMARK   12  A    between atoms: C15_33  and  O5_34 
REMARK   13  A    between atoms: O5_34  and  C16_35 
REMARK   14  A    between atoms: C17_37  and  C18_38 
REMARK   15  A    between atoms: C18_38  and  O7_39 
REMARK   16  A    between atoms: C19_41  and  O8_42 
REMARK   17  A    between atoms: C20_44  and  O9_45 
REMARK   18  A    between atoms: C21_47  and  N4_48 
REMARK   19  A    between atoms: C23_53  and  N5_54 
REMARK   20  A    between atoms: C24_58  and  N6_59 
REMARK   21  A    between atoms: C25_63  and  O10_64 
ROOT
HETATM    1  C7  UNL     1       8.634 -14.608  -4.941  1.00  0.00     0.185 C 
HETATM    2  C8  UNL     1       9.826 -15.162  -4.201  1.00  0.00     0.215 C 
HETATM    3  C9  UNL     1       9.833 -14.832  -2.740  1.00  0.00     0.037 C 
HETATM    4  C10 UNL     1       8.618 -14.009  -2.349  1.00  0.00     0.021 C 
HETATM    5  C11 UNL     1       7.431 -14.821  -2.741  1.00  0.00     0.090 C 
HETATM    6  S1  UNL     1       7.477 -16.513  -2.176  1.00  0.00    -0.090 SA
HETATM    7  C12 UNL     1       7.334 -14.737  -4.276  1.00  0.00     0.171 C 
ENDROOT
BRANCH   7   8
HETATM    8  O4  UNL     1       6.689 -15.887  -4.622  1.00  0.00    -0.340 OA
BRANCH   8   9
HETATM    9  C13 UNL     1       5.474 -15.867  -5.153  1.00  0.00     0.236 C 
HETATM   10  F1  UNL     1       5.366 -14.847  -6.078  1.00  0.00    -0.209 F 
HETATM   11  C14 UNL     1       4.283 -15.854  -4.263  1.00  0.00     0.110 C 
HETATM   12  C15 UNL     1       3.245 -16.922  -4.643  1.00  0.00     0.160 C 
HETATM   13  C21 UNL     1       2.935 -16.769  -6.093  1.00  0.00     0.214 C 
HETATM   14  C22 UNL     1       4.156 -17.023  -6.946  1.00  0.00     0.074 C 
HETATM   15  C23 UNL     1       5.342 -17.142  -6.013  1.00  0.00     0.252 C 
BRANCH  12  16
HETATM   16  O5  UNL     1       2.078 -16.610  -3.916  1.00  0.00    -0.351 OA
BRANCH  16  17
HETATM   17  C16 UNL     1       2.327 -15.713  -2.901  1.00  0.00     0.292 C 
HETATM   18  O6  UNL     1       2.277 -16.255  -1.628  1.00  0.00    -0.348 OA
HETATM   19  C17 UNL     1       1.895 -15.236  -0.767  1.00  0.00     0.179 C 
HETATM   20  C19 UNL     1       1.097 -14.232  -1.535  1.00  0.00     0.182 C 
HETATM   21  C20 UNL     1       1.387 -14.565  -2.957  1.00  0.00     0.204 C 
BRANCH  19  22
HETATM   22  C18 UNL     1       3.089 -14.554  -0.133  1.00  0.00     0.198 C 
BRANCH  22  23
HETATM   23  O7  UNL     1       2.717 -13.868   1.023  1.00  0.00    -0.398 OA
ATOM     24  H7  UNL     1       3.383 -13.950   1.696  1.00  0.00     0.209 HD
ENDBRANCH  22  23
ENDBRANCH  19  22
BRANCH  20  25
HETATM   25  O8  UNL     1       1.428 -12.919  -1.204  1.00  0.00    -0.390 OA
ATOM     26  H8  UNL     1       1.598 -12.381  -1.969  1.00  0.00     0.210 HD
ENDBRANCH  20  25
BRANCH  21  27
HETATM   27  O9  UNL     1       1.890 -13.453  -3.630  1.00  0.00    -0.388 OA
ATOM     28  H9  UNL     1       1.812 -13.506  -4.575  1.00  0.00     0.210 HD
ENDBRANCH  21  27
ENDBRANCH  16  17
ENDBRANCH  12  16
BRANCH  13  29
HETATM   29  N4  UNL     1       2.394 -15.440  -6.307  1.00  0.00    -0.072 N 
ATOM     30  H43 UNL     1       2.743 -14.761  -5.631  1.00  0.00     0.274 HD
ATOM     31  H42 UNL     1       2.761 -14.999  -7.150  1.00  0.00     0.274 HD
ATOM     32  H41 UNL     1       1.376 -15.504  -6.309  1.00  0.00     0.274 HD
ENDBRANCH  13  29
BRANCH  15  33
HETATM   33  N5  UNL     1       6.567 -17.255  -6.779  1.00  0.00    -0.070 N 
ATOM     34  H53 UNL     1       6.851 -18.220  -6.945  1.00  0.00     0.275 HD
ATOM     35  H52 UNL     1       6.458 -16.984  -7.756  1.00  0.00     0.275 HD
ATOM     36  H51 UNL     1       7.273 -16.708  -6.285  1.00  0.00     0.275 HD
ENDBRANCH  15  33
ENDBRANCH   8   9
ENDBRANCH   7   8
BRANCH   1  37
HETATM   37  O3  UNL     1       8.664 -15.113  -6.233  1.00  0.00    -0.349 OA
BRANCH  37  38
HETATM   38  C6  UNL     1       9.420 -14.339  -7.112  1.00  0.00     0.294 C 
HETATM   39  O2  UNL     1       9.412 -15.063  -8.305  1.00  0.00    -0.349 OA
HETATM   40  C4  UNL     1       9.494 -14.292  -9.446  1.00  0.00     0.181 C 
HETATM   41  C3  UNL     1      10.499 -13.211  -9.277  1.00  0.00     0.183 C 
HETATM   42  C25 UNL     1       9.861 -12.231  -8.254  1.00  0.00     0.185 C 
HETATM   43  C24 UNL     1       8.988 -12.933  -7.269  1.00  0.00     0.269 C 
BRANCH  40  44
HETATM   44  C5  UNL     1       9.772 -15.236 -10.596  1.00  0.00     0.264 C 
BRANCH  44  45
HETATM   45  N2  UNL     1       9.022 -14.835 -11.787  1.00  0.00    -0.077 N 
ATOM     46  H23 UNL     1       9.197 -15.461 -12.573  1.00  0.00     0.274 HD
ATOM     47  H22 UNL     1       8.021 -15.000 -11.678  1.00  0.00     0.274 HD
ATOM     48  H21 UNL     1       9.221 -13.864 -12.027  1.00  0.00     0.274 HD
ENDBRANCH  44  45
ENDBRANCH  40  44
BRANCH  41  49
HETATM   49  O1  UNL     1      11.719 -13.627  -8.785  1.00  0.00    -0.379 OA
BRANCH  49  50
HETATM   50  C2  UNL     1      12.711 -13.844  -9.686  1.00  0.00     0.195 C 
BRANCH  50  51
HETATM   51  C1  UNL     1      13.597 -15.000  -9.338  1.00  0.00     0.255 C 
BRANCH  51  52
HETATM   52  N1  UNL     1      14.057 -14.787  -7.957  1.00  0.00    -0.077 N 
ATOM     53  H13 UNL     1      14.194 -13.803  -7.728  1.00  0.00     0.274 HD
ATOM     54  H12 UNL     1      13.339 -14.985  -7.260  1.00  0.00     0.274 HD
ATOM     55  H11 UNL     1      14.901 -15.347  -7.835  1.00  0.00     0.274 HD
ENDBRANCH  51  52
ENDBRANCH  50  51
ENDBRANCH  49  50
ENDBRANCH  41  49
BRANCH  42  56
HETATM   56  O10 UNL     1      10.957 -11.602  -7.631  1.00  0.00    -0.391 OA
ATOM     57  H10 UNL     1      10.569 -11.041  -6.970  1.00  0.00     0.210 HD
ENDBRANCH  42  56
BRANCH  43  58
HETATM   58  N6  UNL     1       7.580 -12.771  -7.536  1.00  0.00    -0.068 N 
ATOM     59  H63 UNL     1       7.034 -13.421  -6.972  1.00  0.00     0.275 HD
ATOM     60  H62 UNL     1       7.245 -11.886  -7.156  1.00  0.00     0.275 HD
ATOM     61  H61 UNL     1       7.328 -12.855  -8.521  1.00  0.00     0.275 HD
ENDBRANCH  43  58
ENDBRANCH  37  38
ENDBRANCH   1  37
BRANCH   2  62
HETATM   62  N3  UNL     1       9.906 -16.587  -4.363  1.00  0.00    -0.072 N 
ATOM     63  H33 UNL     1       9.451 -16.896  -5.222  1.00  0.00     0.274 HD
ATOM     64  H32 UNL     1      10.856 -16.891  -4.576  1.00  0.00     0.274 HD
ATOM     65  H31 UNL     1       9.531 -17.063  -3.544  1.00  0.00     0.274 HD
ENDBRANCH   2  62
TORSDOF 21
ENDMDL
MODEL 2
REMARK VINA RESULT: -7.795885576      1.559      1.798
REMARK  21 active torsions:
REMARK  status: ('A' for Active; 'I' for Inactive)
REMARK    1  A    between atoms: N1_1  and  C1_5 
REMARK    2  A    between atoms: C1_5  and  C2_6 
REMARK    3  A    between atoms: C2_6  and  O1_7 
REMARK    4  A    between atoms: O1_7  and  C3_8 
REMARK    5  A    between atoms: C4_9  and  C5_10 
REMARK    6  A    between atoms: C5_10  and  N2_11 
REMARK    7  A    between atoms: C6_16  and  O3_17 
REMARK    8  A    between atoms: O3_17  and  C7_18 
REMARK    9  A    between atoms: C8_19  and  N3_20 
REMARK   10  A    between atoms: C12_28  and  O4_29 
REMARK   11  A    between atoms: O4_29  and  C13_30 
REMARK   12  A    between atoms: C15_33  and  O5_34 
REMARK   13  A    between atoms: O5_34  and  C16_35 
REMARK   14  A    between atoms: C17_37  and  C18_38 
REMARK   15  A    between atoms: C18_38  and  O7_39 
REMARK   16  A    between atoms: C19_41  and  O8_42 
REMARK   17  A    between atoms: C20_44  and  O9_45 
REMARK   18  A    between atoms: C21_47  and  N4_48 
REMARK   19  A    between atoms: C23_53  and  N5_54 
REMARK   20  A    between atoms: C24_58  and  N6_59 
REMARK   21  A    between atoms: C25_63  and  O10_64 
ROOT
HETATM    1  C7  UNL     1       8.780 -14.858  -5.065  1.00  0.00     0.185 C 
HETATM    2  C8  UNL     1       9.925 -14.922  -4.084  1.00  0.00     0.215 C 
HETATM    3  C9  UNL     1       9.557 -14.478  -2.702  1.00  0.00     0.037 C 
HETATM    4  C10 UNL     1       8.098 -14.066  -2.618  1.00  0.00     0.021 C 
HETATM    5  C11 UNL     1       7.313 -15.255  -3.059  1.00  0.00     0.090 C 
HETATM    6  S1  UNL     1       7.770 -16.780  -2.255  1.00  0.00    -0.090 SA
HETATM    7  C12 UNL     1       7.483 -15.346  -4.588  1.00  0.00     0.171 C 
ENDROOT
BRANCH   7   8
HETATM    8  O4  UNL     1       7.299 -16.670  -4.854  1.00  0.00    -0.340 OA
BRANCH   8   9
HETATM    9  C13 UNL     1       6.290 -17.092  -5.606  1.00  0.00     0.236 C 
HETATM   10  F1  UNL     1       6.731 -17.404  -6.877  1.00  0.00    -0.209 F 
HETATM   11  C14 UNL     1       5.052 -16.275  -5.700  1.00  0.00     0.110 C 
HETATM   12  C15 UNL     1       3.777 -17.096  -5.448  1.00  0.00     0.160 C 
HETATM   13  C21 UNL     1       3.806 -18.281  -6.351  1.00  0.00     0.214 C 
HETATM   14  C22 UNL     1       4.977 -19.183  -6.036  1.00  0.00     0.074 C 
HETATM   15  C23 UNL     1       5.851 -18.457  -5.037  1.00  0.00     0.252 C 
BRANCH  12  16
HETATM   16  O5  UNL     1       2.699 -16.277  -5.843  1.00  0.00    -0.351 OA
BRANCH  16  17
HETATM   17  C16 UNL     1       2.227 -15.508  -4.803  1.00  0.00     0.292 C 
HETATM   18  O6  UNL     1       1.024 -15.937  -4.269  1.00  0.00    -0.348 OA
HETATM   19  C17 UNL     1       0.381 -14.817  -3.762  1.00  0.00     0.179 C 
HETATM   20  C19 UNL     1       0.849 -13.613  -4.514  1.00  0.00     0.182 C 
HETATM   21  C20 UNL     1       2.076 -14.088  -5.211  1.00  0.00     0.204 C 
BRANCH  19  22
HETATM   22  C18 UNL     1       0.656 -14.627  -2.285  1.00  0.00     0.198 C 
BRANCH  22  23
HETATM   23  O7  UNL     1      -0.404 -15.107  -1.514  1.00  0.00    -0.398 OA
ATOM     24  H7  UNL     1      -0.145 -15.878  -1.023  1.00  0.00     0.209 HD
ENDBRANCH  22  23
ENDBRANCH  19  22
BRANCH  20  25
HETATM   25  O8  UNL     1       1.083 -12.519  -3.682  1.00  0.00    -0.390 OA
ATOM     26  H8  UNL     1       1.985 -12.470  -3.388  1.00  0.00     0.210 HD
ENDBRANCH  20  25
BRANCH  21  27
HETATM   27  O9  UNL     1       3.168 -13.287  -4.886  1.00  0.00    -0.388 OA
ATOM     28  H9  UNL     1       3.156 -12.431  -5.299  1.00  0.00     0.210 HD
ENDBRANCH  21  27
ENDBRANCH  16  17
ENDBRANCH  12  16
BRANCH  13  29
HETATM   29  N4  UNL     1       3.840 -17.811  -7.723  1.00  0.00    -0.072 N 
ATOM     30  H43 UNL     1       3.181 -18.306  -8.324  1.00  0.00     0.274 HD
ATOM     31  H42 UNL     1       3.448 -16.875  -7.826  1.00  0.00     0.274 HD
ATOM     32  H41 UNL     1       4.801 -17.873  -8.060  1.00  0.00     0.274 HD
ENDBRANCH  13  29
BRANCH  15  33
HETATM   33  N5  UNL     1       7.062 -19.216  -4.793  1.00  0.00    -0.070 N 
ATOM     34  H53 UNL     1       7.135 -20.053  -5.369  1.00  0.00     0.275 HD
ATOM     35  H52 UNL     1       7.904 -18.751  -5.135  1.00  0.00     0.275 HD
ATOM     36  H51 UNL     1       7.088 -19.412  -3.792  1.00  0.00     0.275 HD
ENDBRANCH  15  33
ENDBRANCH   8   9
ENDBRANCH   7   8
BRANCH   1  37
HETATM   37  O3  UNL     1       9.204 -15.440  -6.251  1.00  0.00    -0.349 OA
BRANCH  37  38
HETATM   38  C6  UNL     1       9.843 -14.545  -7.108  1.00  0.00     0.294 C 
HETATM   39  O2  UNL     1      10.090 -15.289  -8.263  1.00  0.00    -0.349 OA
HETATM   40  C4  UNL     1      10.095 -14.553  -9.431  1.00  0.00     0.181 C 
HETATM   41  C3  UNL     1      10.825 -13.273  -9.239  1.00  0.00     0.183 C 
HETATM   42  C25 UNL     1       9.908 -12.428  -8.313  1.00  0.00     0.185 C 
HETATM   43  C24 UNL     1       9.131 -13.274  -7.362  1.00  0.00     0.269 C 
BRANCH  40  44
HETATM   44  C5  UNL     1      10.663 -15.448 -10.512  1.00  0.00     0.264 C 
BRANCH  44  45
HETATM   45  N2  UNL     1      10.121 -15.083 -11.821  1.00  0.00    -0.077 N 
ATOM     46  H23 UNL     1      10.636 -14.310 -12.242  1.00  0.00     0.274 HD
ATOM     47  H22 UNL     1      10.316 -15.798 -12.523  1.00  0.00     0.274 HD
ATOM     48  H21 UNL     1       9.124 -14.881 -11.755  1.00  0.00     0.274 HD
ENDBRANCH  44  45
ENDBRANCH  40  44
BRANCH  41  49
HETATM   49  O1  UNL     1      12.062 -13.397  -8.641  1.00  0.00    -0.379 OA
BRANCH  49  50
HETATM   50  C2  UNL     1      13.051 -13.968  -9.373  1.00  0.00     0.195 C 
BRANCH  50  51
HETATM   51  C1  UNL     1      13.802 -15.035  -8.638  1.00  0.00     0.255 C 
BRANCH  51  52
HETATM   52  N1  UNL     1      14.567 -15.789  -9.643  1.00  0.00    -0.077 N 
ATOM     53  H13 UNL     1      14.391 -15.479 -10.598  1.00  0.00     0.274 HD
ATOM     54  H12 UNL     1      15.567 -15.585  -9.622  1.00  0.00     0.274 HD
ATOM     55  H11 UNL     1      14.357 -16.777  -9.497  1.00  0.00     0.274 HD
ENDBRANCH  51  52
ENDBRANCH  50  51
ENDBRANCH  49  50
ENDBRANCH  41  49
BRANCH  42  56
HETATM   56  O10 UNL     1      10.788 -11.554  -7.642  1.00  0.00    -0.391 OA
ATOM     57  H10 UNL     1      11.619 -12.014  -7.629  1.00  0.00     0.210 HD
ENDBRANCH  42  56
BRANCH  43  58
HETATM   58  N6  UNL     1       7.748 -13.433  -7.738  1.00  0.00    -0.068 N 
ATOM     59  H63 UNL     1       7.295 -14.127  -7.144  1.00  0.00     0.275 HD
ATOM     60  H62 UNL     1       7.212 -12.605  -7.480  1.00  0.00     0.275 HD
ATOM     61  H61 UNL     1       7.605 -13.658  -8.722  1.00  0.00     0.275 HD
ENDBRANCH  43  58
ENDBRANCH  37  38
ENDBRANCH   1  37
BRANCH   2  62
HETATM   62  N3  UNL     1      10.467 -16.250  -4.025  1.00  0.00    -0.072 N 
ATOM     63  H33 UNL     1       9.771 -16.955  -4.266  1.00  0.00     0.274 HD
ATOM     64  H32 UNL     1      11.128 -16.424  -4.782  1.00  0.00     0.274 HD
ATOM     65  H31 UNL     1      10.884 -16.428  -3.111  1.00  0.00     0.274 HD
ENDBRANCH   2  62
TORSDOF 21
ENDMDL
MODEL 3
REMARK VINA RESULT: -7.746448270      1.180      1.376
REMARK  21 active torsions:
REMARK  status: ('A' for Active; 'I' for Inactive)
REMARK    1  A    between atoms: N1_1  and  C1_5 
REMARK    2  A    between atoms: C1_5  and  C2_6 
REMARK    3  A    between atoms: C2_6  and  O1_7 
REMARK    4  A    between atoms: O1_7  and  C3_8 
REMARK    5  A    between atoms: C4_9  and  C5_10 
REMARK    6  A    between atoms: C5_10  and  N2_11 
REMARK    7  A    between atoms: C6_16  and  O3_17 
REMARK    8  A    between atoms: O3_17  and  C7_18 
REMARK    9  A    between atoms: C8_19  and  N3_20 
REMARK   10  A    between atoms: C12_28  and  O4_29 
REMARK   11  A    between atoms: O4_29  and  C13_30 
REMARK   12  A    between atoms: C15_33  and  O5_34 
REMARK   13  A    between atoms: O5_34  and  C16_35 
REMARK   14  A    between atoms: C17_37  and  C18_38 
REMARK   15  A    between atoms: C18_38  and  O7_39 
REMARK   16  A    between atoms: C19_41  and  O8_42 
REMARK   17  A    between atoms: C20_44  and  O9_45 
REMARK   18  A    between atoms: C21_47  and  N4_48 
REMARK   19  A    between atoms: C23_53  and  N5_54 
REMARK   20  A    between atoms: C24_58  and  N6_59 
REMARK   21  A    between atoms: C25_63  and  O10_64 
ROOT
HETATM    1  C7  UNL     1       8.222 -14.834  -5.105  1.00  0.00     0.185 C 
HETATM    2  C8  UNL     1       9.378 -15.656  -4.590  1.00  0.00     0.215 C 
HETATM    3  C9  UNL     1       9.518 -15.629  -3.099  1.00  0.00     0.037 C 
HETATM    4  C10 UNL     1       8.445 -14.770  -2.453  1.00  0.00     0.021 C 
HETATM    5  C11 UNL     1       7.142 -15.349  -2.890  1.00  0.00     0.090 C 
HETATM    6  S1  UNL     1       7.008 -17.114  -2.667  1.00  0.00    -0.090 SA
HETATM    7  C12 UNL     1       6.961 -14.948  -4.367  1.00  0.00     0.171 C 
ENDROOT
BRANCH   7   8
HETATM    8  O4  UNL     1       6.155 -15.926  -4.869  1.00  0.00    -0.340 OA
BRANCH   8   9
HETATM    9  C13 UNL     1       4.927 -15.660  -5.297  1.00  0.00     0.236 C 
HETATM   10  F1  UNL     1       4.938 -15.364  -6.646  1.00  0.00    -0.209 F 
HETATM   11  C14 UNL     1       4.100 -14.655  -4.579  1.00  0.00     0.110 C 
HETATM   12  C15 UNL     1       2.694 -15.175  -4.240  1.00  0.00     0.160 C 
HETATM   13  C21 UNL     1       2.081 -15.698  -5.494  1.00  0.00     0.214 C 
HETATM   14  C22 UNL     1       2.861 -16.871  -6.039  1.00  0.00     0.074 C 
HETATM   15  C23 UNL     1       4.135 -16.982  -5.229  1.00  0.00     0.252 C 
BRANCH  12  16
HETATM   16  O5  UNL     1       1.949 -14.049  -3.831  1.00  0.00    -0.351 OA
BRANCH  16  17
HETATM   17  C16 UNL     1       1.595 -14.120  -2.502  1.00  0.00     0.292 C 
HETATM   18  O6  UNL     1       1.376 -15.404  -2.031  1.00  0.00    -0.348 OA
HETATM   19  C17 UNL     1       0.455 -15.307  -0.998  1.00  0.00     0.179 C 
HETATM   20  C19 UNL     1      -0.383 -14.088  -1.214  1.00  0.00     0.182 C 
HETATM   21  C20 UNL     1       0.383 -13.309  -2.225  1.00  0.00     0.204 C 
BRANCH  19  22
HETATM   22  C18 UNL     1       1.130 -15.220   0.355  1.00  0.00     0.198 C 
BRANCH  22  23
HETATM   23  O7  UNL     1       0.325 -15.773   1.351  1.00  0.00    -0.398 OA
ATOM     24  H7  UNL     1      -0.383 -15.183   1.582  1.00  0.00     0.209 HD
ENDBRANCH  22  23
ENDBRANCH  19  22
BRANCH  20  25
HETATM   25  O8  UNL     1      -0.611 -13.379  -0.036  1.00  0.00    -0.390 OA
ATOM     26  H8  UNL     1      -0.312 -12.478  -0.089  1.00  0.00     0.210 HD
ENDBRANCH  20  25
BRANCH  21  27
HETATM   27  O9  UNL     1       0.656 -12.026  -1.754  1.00  0.00    -0.388 OA
ATOM     28  H9  UNL     1      -0.111 -11.470  -1.680  1.00  0.00     0.210 HD
ENDBRANCH  21  27
ENDBRANCH  16  17
ENDBRANCH  12  16
BRANCH  13  29
HETATM   29  N4  UNL     1       2.000 -14.611  -6.452  1.00  0.00    -0.072 N 
ATOM     30  H43 UNL     1       1.159 -14.046  -6.334  1.00  0.00     0.274 HD
ATOM     31  H42 UNL     1       2.686 -13.878  -6.272  1.00  0.00     0.274 HD
ATOM     32  H41 UNL     1       2.082 -15.002  -7.390  1.00  0.00     0.274 HD
ENDBRANCH  13  29
BRANCH  15  33
HETATM   33  N5  UNL     1       4.991 -18.009  -5.788  1.00  0.00    -0.070 N 
ATOM     34  H53 UNL     1       4.477 -18.822  -6.126  1.00  0.00     0.275 HD
ATOM     35  H52 UNL     1       5.410 -17.743  -6.680  1.00  0.00     0.275 HD
ATOM     36  H51 UNL     1       5.681 -18.238  -5.072  1.00  0.00     0.275 HD
ENDBRANCH  15  33
ENDBRANCH   8   9
ENDBRANCH   7   8
BRANCH   1  37
HETATM   37  O3  UNL     1       8.107 -15.070  -6.466  1.00  0.00    -0.349 OA
BRANCH  37  38
HETATM   38  C6  UNL     1       9.224 -14.663  -7.194  1.00  0.00     0.294 C 
HETATM   39  O2  UNL     1       9.006 -15.171  -8.476  1.00  0.00    -0.349 OA
HETATM   40  C4  UNL     1       9.557 -14.420  -9.494  1.00  0.00     0.181 C 
HETATM   41  C3  UNL     1      10.925 -13.970  -9.131  1.00  0.00     0.183 C 
HETATM   42  C25 UNL     1      10.712 -12.914  -8.011  1.00  0.00     0.185 C 
HETATM   43  C24 UNL     1       9.515 -13.213  -7.173  1.00  0.00     0.269 C 
BRANCH  40  44
HETATM   44  C5  UNL     1       9.482 -15.261 -10.750  1.00  0.00     0.264 C 
BRANCH  44  45
HETATM   45  N2  UNL     1       9.077 -14.445 -11.895  1.00  0.00    -0.077 N 
ATOM     46  H23 UNL     1       8.209 -14.782 -12.312  1.00  0.00     0.274 HD
ATOM     47  H22 UNL     1       8.759 -13.519 -11.606  1.00  0.00     0.274 HD
ATOM     48  H21 UNL     1       9.829 -14.389 -12.582  1.00  0.00     0.274 HD
ENDBRANCH  44  45
ENDBRANCH  40  44
BRANCH  41  49
HETATM   49  O1  UNL     1      11.752 -14.963  -8.647  1.00  0.00    -0.379 OA
BRANCH  49  50
HETATM   50  C2  UNL     1      12.560 -15.588  -9.541  1.00  0.00     0.195 C 
BRANCH  50  51
HETATM   51  C1  UNL     1      14.013 -15.520  -9.186  1.00  0.00     0.255 C 
BRANCH  51  52
HETATM   52  N1  UNL     1      14.108 -14.810  -7.902  1.00  0.00    -0.077 N 
ATOM     53  H13 UNL     1      14.336 -13.821  -8.006  1.00  0.00     0.274 HD
ATOM     54  H12 UNL     1      13.205 -14.688  -7.443  1.00  0.00     0.274 HD
ATOM     55  H11 UNL     1      14.784 -15.318  -7.330  1.00  0.00     0.274 HD
ENDBRANCH  51  52
ENDBRANCH  50  51
ENDBRANCH  49  50
ENDBRANCH  41  49
BRANCH  42  56
HETATM   56  O10 UNL     1      11.903 -12.948  -7.258  1.00  0.00    -0.391 OA
ATOM     57  H10 UNL     1      12.016 -12.057  -6.948  1.00  0.00     0.210 HD
ENDBRANCH  42  56
BRANCH  43  58
HETATM   58  N6  UNL     1       8.381 -12.376  -7.479  1.00  0.00    -0.068 N 
ATOM     59  H63 UNL     1       8.292 -12.251  -8.487  1.00  0.00     0.275 HD
ATOM     60  H62 UNL     1       7.511 -12.871  -7.287  1.00  0.00     0.275 HD
ATOM     61  H61 UNL     1       8.388 -11.472  -7.007  1.00  0.00     0.275 HD
ENDBRANCH  43  58
ENDBRANCH  37  38
ENDBRANCH   1  37
BRANCH   2  62
HETATM   62  N3  UNL     1       9.266 -17.019  -5.029  1.00  0.00    -0.072 N 
ATOM     63  H33 UNL     1      10.010 -17.603  -4.646  1.00  0.00     0.274 HD
ATOM     64  H32 UNL     1       8.468 -17.489  -4.603  1.00  0.00     0.274 HD
ATOM     65  H31 UNL     1       9.234 -17.067  -6.047  1.00  0.00     0.274 HD
ENDBRANCH   2  62
TORSDOF 21
ENDMDL
MODEL 4
REMARK VINA RESULT: -7.678059317      0.911      1.456
REMARK  21 active torsions:
REMARK  status: ('A' for Active; 'I' for Inactive)
REMARK    1  A    between atoms: N1_1  and  C1_5 
REMARK    2  A    between atoms: C1_5  and  C2_6 
REMARK    3  A    between atoms: C2_6  and  O1_7 
REMARK    4  A    between atoms: O1_7  and  C3_8 
REMARK    5  A    between atoms: C4_9  and  C5_10 
REMARK    6  A    between atoms: C5_10  and  N2_11 
REMARK    7  A    between atoms: C6_16  and  O3_17 
REMARK    8  A    between atoms: O3_17  and  C7_18 
REMARK    9  A    between atoms: C8_19  and  N3_20 
REMARK   10  A    between atoms: C12_28  and  O4_29 
REMARK   11  A    between atoms: O4_29  and  C13_30 
REMARK   12  A    between atoms: C15_33  and  O5_34 
REMARK   13  A    between atoms: O5_34  and  C16_35 
REMARK   14  A    between atoms: C17_37  and  C18_38 
REMARK   15  A    between atoms: C18_38  and  O7_39 
REMARK   16  A    between atoms: C19_41  and  O8_42 
REMARK   17  A    between atoms: C20_44  and  O9_45 
REMARK   18  A    between atoms: C21_47  and  N4_48 
REMARK   19  A    between atoms: C23_53  and  N5_54 
REMARK   20  A    between atoms: C24_58  and  N6_59 
REMARK   21  A    between atoms: C25_63  and  O10_64 
ROOT
HETATM    1  C7  UNL     1       8.857 -14.676  -5.172  1.00  0.00     0.185 C 
HETATM    2  C8  UNL     1       9.915 -15.431  -4.406  1.00  0.00     0.215 C 
HETATM    3  C9  UNL     1       9.888 -15.172  -2.931  1.00  0.00     0.037 C 
HETATM    4  C10 UNL     1       8.785 -14.198  -2.555  1.00  0.00     0.021 C 
HETATM    5  C11 UNL     1       7.517 -14.810  -3.046  1.00  0.00     0.090 C 
HETATM    6  S1  UNL     1       7.288 -16.513  -2.569  1.00  0.00    -0.090 SA
HETATM    7  C12 UNL     1       7.518 -14.644  -4.578  1.00  0.00     0.171 C 
ENDROOT
BRANCH   7   8
HETATM    8  O4  UNL     1       6.734 -15.670  -5.013  1.00  0.00    -0.340 OA
BRANCH   8   9
HETATM    9  C13 UNL     1       5.510 -15.458  -5.479  1.00  0.00     0.236 C 
HETATM   10  F1  UNL     1       5.552 -15.118  -6.817  1.00  0.00    -0.209 F 
HETATM   11  C14 UNL     1       4.602 -14.524  -4.761  1.00  0.00     0.110 C 
HETATM   12  C15 UNL     1       3.216 -15.131  -4.491  1.00  0.00     0.160 C 
HETATM   13  C21 UNL     1       2.678 -15.646  -5.782  1.00  0.00     0.214 C 
HETATM   14  C22 UNL     1       3.542 -16.756  -6.334  1.00  0.00     0.074 C 
HETATM   15  C23 UNL     1       4.791 -16.824  -5.481  1.00  0.00     0.252 C 
BRANCH  12  16
HETATM   16  O5  UNL     1       2.395 -14.063  -4.075  1.00  0.00    -0.351 OA
BRANCH  16  17
HETATM   17  C16 UNL     1       1.595 -14.411  -3.010  1.00  0.00     0.292 C 
HETATM   18  O6  UNL     1       0.934 -13.350  -2.414  1.00  0.00    -0.348 OA
HETATM   19  C17 UNL     1       0.739 -13.688  -1.083  1.00  0.00     0.179 C 
HETATM   20  C19 UNL     1       1.804 -14.653  -0.671  1.00  0.00     0.182 C 
HETATM   21  C20 UNL     1       2.373 -15.122  -1.964  1.00  0.00     0.204 C 
BRANCH  19  22
HETATM   22  C18 UNL     1      -0.622 -14.311  -0.851  1.00  0.00     0.198 C 
BRANCH  22  23
HETATM   23  O7  UNL     1      -0.962 -14.278   0.502  1.00  0.00    -0.398 OA
ATOM     24  H7  UNL     1      -0.184 -14.278   1.048  1.00  0.00     0.209 HD
ENDBRANCH  22  23
ENDBRANCH  19  22
BRANCH  20  25
HETATM   25  O8  UNL     1       1.311 -15.691   0.117  1.00  0.00    -0.390 OA
ATOM     26  H8  UNL     1       1.923 -16.415   0.192  1.00  0.00     0.210 HD
ENDBRANCH  20  25
BRANCH  21  27
HETATM   27  O9  UNL     1       2.308 -16.511  -2.056  1.00  0.00    -0.388 OA
ATOM     28  H9  UNL     1       2.988 -16.963  -1.571  1.00  0.00     0.210 HD
ENDBRANCH  21  27
ENDBRANCH  16  17
ENDBRANCH  12  16
BRANCH  13  29
HETATM   29  N4  UNL     1       2.571 -14.534  -6.708  1.00  0.00    -0.072 N 
ATOM     30  H43 UNL     1       1.711 -14.562  -7.256  1.00  0.00     0.274 HD
ATOM     31  H42 UNL     1       2.406 -13.645  -6.237  1.00  0.00     0.274 HD
ATOM     32  H41 UNL     1       3.407 -14.520  -7.292  1.00  0.00     0.274 HD
ENDBRANCH  13  29
BRANCH  15  33
HETATM   33  N5  UNL     1       5.723 -17.783  -6.039  1.00  0.00    -0.070 N 
ATOM     34  H53 UNL     1       6.641 -17.386  -6.235  1.00  0.00     0.275 HD
ATOM     35  H52 UNL     1       6.028 -18.487  -5.366  1.00  0.00     0.275 HD
ATOM     36  H51 UNL     1       5.273 -18.183  -6.863  1.00  0.00     0.275 HD
ENDBRANCH  15  33
ENDBRANCH   8   9
ENDBRANCH   7   8
BRANCH   1  37
HETATM   37  O3  UNL     1       8.885 -15.121  -6.485  1.00  0.00    -0.349 OA
BRANCH  37  38
HETATM   38  C6  UNL     1       9.601 -14.283  -7.338  1.00  0.00     0.294 C 
HETATM   39  O2  UNL     1       9.669 -14.989  -8.541  1.00  0.00    -0.349 OA
HETATM   40  C4  UNL     1       9.719 -14.198  -9.670  1.00  0.00     0.181 C 
HETATM   41  C3  UNL     1      10.641 -13.052  -9.465  1.00  0.00     0.183 C 
HETATM   42  C25 UNL     1       9.915 -12.134  -8.444  1.00  0.00     0.185 C 
HETATM   43  C24 UNL     1       9.074 -12.909  -7.486  1.00  0.00     0.269 C 
BRANCH  40  44
HETATM   44  C5  UNL     1      10.085 -15.104 -10.826  1.00  0.00     0.264 C 
BRANCH  44  45
HETATM   45  N2  UNL     1       9.122 -14.962 -11.919  1.00  0.00    -0.077 N 
ATOM     46  H23 UNL     1       9.145 -14.027 -12.324  1.00  0.00     0.274 HD
ATOM     47  H22 UNL     1       9.405 -15.494 -12.743  1.00  0.00     0.274 HD
ATOM     48  H21 UNL     1       8.185 -15.216 -11.609  1.00  0.00     0.274 HD
ENDBRANCH  44  45
ENDBRANCH  40  44
BRANCH  41  49
HETATM   49  O1  UNL     1      11.877 -13.388  -8.954  1.00  0.00    -0.379 OA
BRANCH  49  50
HETATM   50  C2  UNL     1      12.821 -13.806  -9.834  1.00  0.00     0.195 C 
BRANCH  50  51
HETATM   51  C1  UNL     1      13.510 -15.070  -9.422  1.00  0.00     0.255 C 
BRANCH  51  52
HETATM   52  N1  UNL     1      14.089 -14.829  -8.092  1.00  0.00    -0.077 N 
ATOM     53  H13 UNL     1      13.924 -13.883  -7.749  1.00  0.00     0.274 HD
ATOM     54  H12 UNL     1      13.601 -15.325  -7.346  1.00  0.00     0.274 HD
ATOM     55  H11 UNL     1      15.080 -15.066  -8.151  1.00  0.00     0.274 HD
ENDBRANCH  51  52
ENDBRANCH  50  51
ENDBRANCH  49  50
ENDBRANCH  41  49
BRANCH  42  56
HETATM   56  O10 UNL     1      10.951 -11.438  -7.790  1.00  0.00    -0.391 OA
ATOM     57  H10 UNL     1      11.150 -10.708  -8.365  1.00  0.00     0.210 HD
ENDBRANCH  42  56
BRANCH  43  58
HETATM   58  N6  UNL     1       7.664 -12.843  -7.781  1.00  0.00    -0.068 N 
ATOM     59  H63 UNL     1       7.324 -11.886  -7.683  1.00  0.00     0.275 HD
ATOM     60  H62 UNL     1       7.502 -12.984  -8.778  1.00  0.00     0.275 HD
ATOM     61  H61 UNL     1       7.091 -13.483  -7.232  1.00  0.00     0.275 HD
ENDBRANCH  43  58
ENDBRANCH  37  38
ENDBRANCH   1  37
BRANCH   2  62
HETATM   62  N3  UNL     1       9.797 -16.844  -4.639  1.00  0.00    -0.072 N 
ATOM     63  H33 UNL     1       8.864 -17.189  -4.414  1.00  0.00     0.274 HD
ATOM     64  H32 UNL     1       9.806 -17.065  -5.634  1.00  0.00     0.274 HD
ATOM     65  H31 UNL     1      10.521 -17.353  -4.132  1.00  0.00     0.274 HD
ENDBRANCH   2  62
TORSDOF 21
ENDMDL
MODEL 5
REMARK VINA RESULT: -7.616692813      2.022      2.684
REMARK  21 active torsions:
REMARK  status: ('A' for Active; 'I' for Inactive)
REMARK    1  A    between atoms: N1_1  and  C1_5 
REMARK    2  A    between atoms: C1_5  and  C2_6 
REMARK    3  A    between atoms: C2_6  and  O1_7 
REMARK    4  A    between atoms: O1_7  and  C3_8 
REMARK    5  A    between atoms: C4_9  and  C5_10 
REMARK    6  A    between atoms: C5_10  and  N2_11 
REMARK    7  A    between atoms: C6_16  and  O3_17 
REMARK    8  A    between atoms: O3_17  and  C7_18 
REMARK    9  A    between atoms: C8_19  and  N3_20 
REMARK   10  A    between atoms: C12_28  and  O4_29 
REMARK   11  A    between atoms: O4_29  and  C13_30 
REMARK   12  A    between atoms: C15_33  and  O5_34 
REMARK   13  A    between atoms: O5_34  and  C16_35 
REMARK   14  A    between atoms: C17_37  and  C18_38 
REMARK   15  A    between atoms: C18_38  and  O7_39 
REMARK   16  A    between atoms: C19_41  and  O8_42 
REMARK   17  A    between atoms: C20_44  and  O9_45 
REMARK   18  A    between atoms: C21_47  and  N4_48 
REMARK   19  A    between atoms: C23_53  and  N5_54 
REMARK   20  A    between atoms: C24_58  and  N6_59 
REMARK   21  A    between atoms: C25_63  and  O10_64 
ROOT
HETATM    1  C7  UNL     1       7.692 -16.915  -5.518  1.00  0.00     0.185 C 
HETATM    2  C8  UNL     1       8.302 -18.230  -5.939  1.00  0.00     0.215 C 
HETATM    3  C9  UNL     1       8.347 -19.249  -4.843  1.00  0.00     0.037 C 
HETATM    4  C10 UNL     1       7.758 -18.707  -3.552  1.00  0.00     0.021 C 
HETATM    5  C11 UNL     1       6.365 -18.293  -3.882  1.00  0.00     0.090 C 
HETATM    6  S1  UNL     1       5.414 -19.528  -4.749  1.00  0.00    -0.090 SA
HETATM    7  C12 UNL     1       6.480 -16.990  -4.698  1.00  0.00     0.171 C 
ENDROOT
BRANCH   7   8
HETATM    8  O4  UNL     1       5.344 -16.980  -5.452  1.00  0.00    -0.340 OA
BRANCH   8   9
HETATM    9  C13 UNL     1       4.441 -16.016  -5.332  1.00  0.00     0.236 C 
HETATM   10  F1  UNL     1       4.710 -14.988  -6.214  1.00  0.00    -0.209 F 
HETATM   11  C14 UNL     1       4.145 -15.450  -3.989  1.00  0.00     0.110 C 
HETATM   12  C15 UNL     1       2.639 -15.403  -3.683  1.00  0.00     0.160 C 
HETATM   13  C21 UNL     1       1.960 -14.705  -4.812  1.00  0.00     0.214 C 
HETATM   14  C22 UNL     1       2.120 -15.470  -6.106  1.00  0.00     0.074 C 
HETATM   15  C23 UNL     1       3.106 -16.590  -5.851  1.00  0.00     0.252 C 
BRANCH  12  16
HETATM   16  O5  UNL     1       2.499 -14.600  -2.532  1.00  0.00    -0.351 OA
BRANCH  16  17
HETATM   17  C16 UNL     1       2.526 -15.348  -1.376  1.00  0.00     0.292 C 
HETATM   18  O6  UNL     1       1.296 -15.846  -0.982  1.00  0.00    -0.348 OA
HETATM   19  C17 UNL     1       1.331 -15.972   0.399  1.00  0.00     0.179 C 
HETATM   20  C19 UNL     1       2.311 -14.985   0.947  1.00  0.00     0.182 C 
HETATM   21  C20 UNL     1       3.098 -14.570  -0.248  1.00  0.00     0.204 C 
BRANCH  19  22
HETATM   22  C18 UNL     1       1.728 -17.368   0.830  1.00  0.00     0.198 C 
BRANCH  22  23
HETATM   23  O7  UNL     1       1.228 -17.661   2.099  1.00  0.00    -0.398 OA
ATOM     24  H7  UNL     1       1.480 -16.993   2.726  1.00  0.00     0.209 HD
ENDBRANCH  22  23
ENDBRANCH  19  22
BRANCH  20  25
HETATM   25  O8  UNL     1       3.103 -15.522   1.961  1.00  0.00    -0.390 OA
ATOM     26  H8  UNL     1       4.023 -15.307   1.858  1.00  0.00     0.210 HD
ENDBRANCH  20  25
BRANCH  21  27
HETATM   27  O9  UNL     1       4.458 -14.787  -0.041  1.00  0.00    -0.388 OA
ATOM     28  H9  UNL     1       4.810 -14.340   0.719  1.00  0.00     0.210 HD
ENDBRANCH  21  27
ENDBRANCH  16  17
ENDBRANCH  12  16
BRANCH  13  29
HETATM   29  N4  UNL     1       2.498 -13.361  -4.909  1.00  0.00    -0.072 N 
ATOM     30  H43 UNL     1       2.494 -12.872  -4.014  1.00  0.00     0.274 HD
ATOM     31  H42 UNL     1       3.505 -13.353  -5.068  1.00  0.00     0.274 HD
ATOM     32  H41 UNL     1       1.983 -12.860  -5.633  1.00  0.00     0.274 HD
ENDBRANCH  13  29
BRANCH  15  33
HETATM   33  N5  UNL     1       3.403 -17.281  -7.089  1.00  0.00    -0.070 N 
ATOM     34  H53 UNL     1       4.247 -16.940  -7.548  1.00  0.00     0.275 HD
ATOM     35  H52 UNL     1       3.714 -18.243  -6.949  1.00  0.00     0.275 HD
ATOM     36  H51 UNL     1       2.569 -17.208  -7.673  1.00  0.00     0.275 HD
ENDBRANCH  15  33
ENDBRANCH   8   9
ENDBRANCH   7   8
BRANCH   1  37
HETATM   37  O3  UNL     1       7.564 -16.125  -6.650  1.00  0.00    -0.349 OA
BRANCH  37  38
HETATM   38  C6  UNL     1       8.652 -15.278  -6.860  1.00  0.00     0.294 C 
HETATM   39  O2  UNL     1       8.834 -15.287  -8.244  1.00  0.00    -0.349 OA
HETATM   40  C4  UNL     1       9.353 -14.117  -8.762  1.00  0.00     0.181 C 
HETATM   41  C3  UNL     1      10.451 -13.606  -7.903  1.00  0.00     0.183 C 
HETATM   42  C25 UNL     1       9.747 -13.116  -6.608  1.00  0.00     0.185 C 
HETATM   43  C24 UNL     1       8.533 -13.921  -6.286  1.00  0.00     0.269 C 
BRANCH  40  44
HETATM   44  C5  UNL     1       9.755 -14.411 -10.192  1.00  0.00     0.264 C 
BRANCH  44  45
HETATM   45  N2  UNL     1       8.893 -13.690 -11.130  1.00  0.00    -0.077 N 
ATOM     46  H23 UNL     1       7.934 -13.626 -10.789  1.00  0.00     0.274 HD
ATOM     47  H22 UNL     1       9.113 -12.694 -11.157  1.00  0.00     0.274 HD
ATOM     48  H21 UNL     1       8.937 -14.113 -12.057  1.00  0.00     0.274 HD
ENDBRANCH  44  45
ENDBRANCH  40  44
BRANCH  41  49
HETATM   49  O1  UNL     1      11.402 -14.545  -7.559  1.00  0.00    -0.379 OA
BRANCH  49  50
HETATM   50  C2  UNL     1      12.698 -14.243  -7.827  1.00  0.00     0.195 C 
BRANCH  50  51
HETATM   51  C1  UNL     1      13.256 -14.983  -9.003  1.00  0.00     0.255 C 
BRANCH  51  52
HETATM   52  N1  UNL     1      13.362 -14.017 -10.107  1.00  0.00    -0.077 N 
ATOM     53  H13 UNL     1      12.573 -13.374 -10.153  1.00  0.00     0.274 HD
ATOM     54  H12 UNL     1      14.091 -13.319  -9.959  1.00  0.00     0.274 HD
ATOM     55  H11 UNL     1      13.490 -14.557 -10.963  1.00  0.00     0.274 HD
ENDBRANCH  51  52
ENDBRANCH  50  51
ENDBRANCH  49  50
ENDBRANCH  41  49
BRANCH  42  56
HETATM   56  O10 UNL     1      10.731 -13.224  -5.605  1.00  0.00    -0.391 OA
ATOM     57  H10 UNL     1      10.362 -12.772  -4.855  1.00  0.00     0.210 HD
ENDBRANCH  42  56
BRANCH  43  58
HETATM   58  N6  UNL     1       7.300 -13.246  -6.606  1.00  0.00    -0.068 N 
ATOM     59  H63 UNL     1       7.348 -12.265  -6.331  1.00  0.00     0.275 HD
ATOM     60  H62 UNL     1       7.205 -13.139  -7.616  1.00  0.00     0.275 HD
ATOM     61  H61 UNL     1       6.468 -13.685  -6.214  1.00  0.00     0.275 HD
ENDBRANCH  43  58
ENDBRANCH  37  38
ENDBRANCH   1  37
BRANCH   2  62
HETATM   62  N3  UNL     1       7.597 -18.778  -7.064  1.00  0.00    -0.072 N 
ATOM     63  H33 UNL     1       6.673 -18.361  -7.171  1.00  0.00     0.274 HD
ATOM     64  H32 UNL     1       8.005 -18.476  -7.949  1.00  0.00     0.274 HD
ATOM     65  H31 UNL     1       7.548 -19.794  -6.997  1.00  0.00     0.274 HD
ENDBRANCH   2  62
TORSDOF 21
ENDMDL
