MODEL 1
REMARK VINA RESULT: -6.930554253      0.000      0.000
REMARK  6 active torsions:
REMARK  status: ('A' for Active; 'I' for Inactive)
REMARK    1  A    between atoms: C6_7  and  C7_8 
REMARK    2  A    between atoms: C7_8  and  C8_9 
REMARK    3  A    between atoms: C8_9  and  C9_10 
REMARK    4  A    between atoms: C9_10  and  C10_11 
REMARK    5  A    between atoms: C10_11  and  N2_12 
REMARK    6  A    between atoms: N2_12  and  C11_15 
ROOT
HETATM    1  C9  UNL     1       1.538  -1.754   7.611  1.00  0.00     0.027 C 
ENDROOT
BRANCH   1   2
HETATM    2  C8  UNL     1       0.262  -1.827   8.396  1.00  0.00     0.004 C 
BRANCH   2   3
HETATM    3  C7  UNL     1       0.428  -1.125   9.701  1.00  0.00     0.025 C 
BRANCH   3   4
HETATM    4  C6  UNL     1      -0.496   0.101   9.795  1.00  0.00     0.083 C 
HETATM    5  N1  UNL     1      -0.721   0.733   8.563  1.00  0.00    -0.393 N 
HETATM    6  C1  UNL     1      -2.040   0.557   8.011  1.00  0.00     0.149 C 
HETATM    7  C2  UNL     1      -0.093   1.949   8.279  1.00  0.00     0.058 C 
HETATM    8  C3  UNL     1       0.193   2.843   9.447  1.00  0.00     0.044 C 
HETATM    9  C4  UNL     1       0.959   1.997  10.462  1.00  0.00     0.007 C 
HETATM   10  C5  UNL     1      -0.013   0.936  10.927  1.00  0.00     0.025 C 
ENDBRANCH   3   4
ENDBRANCH   2   3
ENDBRANCH   1   2
BRANCH   1  11
HETATM   11  C10 UNL     1       1.323  -1.834   6.104  1.00  0.00     0.232 C 
BRANCH  11  12
HETATM   12  N2  UNL     1       0.632  -0.628   5.710  1.00  0.00    -0.071 N 
ATOM     13  H22 UNL     1       0.192  -0.183   6.516  1.00  0.00     0.277 HD
ATOM     14  H21 UNL     1       1.295   0.103   5.456  1.00  0.00     0.277 HD
BRANCH  12  15
HETATM   15  C11 UNL     1      -0.317  -0.837   4.666  1.00  0.00     0.185 C 
HETATM   16  C12 UNL     1       0.229  -1.663   3.540  1.00  0.00     0.033 C 
HETATM   17  C13 UNL     1      -0.896  -2.048   2.596  1.00  0.00     0.002 C 
HETATM   18  C14 UNL     1      -2.017  -1.052   2.747  1.00  0.00     0.000 C 
HETATM   19  C15 UNL     1      -1.491   0.346   2.875  1.00  0.00     0.002 C 
HETATM   20  C16 UNL     1      -0.760   0.535   4.172  1.00  0.00     0.033 C 
ENDBRANCH  12  15
ENDBRANCH  11  12
ENDBRANCH   1  11
TORSDOF 6
ENDMDL
MODEL 2
REMARK VINA RESULT: -6.907120454      1.717      3.545
REMARK  6 active torsions:
REMARK  status: ('A' for Active; 'I' for Inactive)
REMARK    1  A    between atoms: C6_7  and  C7_8 
REMARK    2  A    between atoms: C7_8  and  C8_9 
REMARK    3  A    between atoms: C8_9  and  C9_10 
REMARK    4  A    between atoms: C9_10  and  C10_11 
REMARK    5  A    between atoms: C10_11  and  N2_12 
REMARK    6  A    between atoms: N2_12  and  C11_15 
ROOT
HETATM    1  C9  UNL     1      -1.578   1.701   7.546  1.00  0.00     0.027 C 
ENDROOT
BRANCH   1   2
HETATM    2  C8  UNL     1      -0.337   1.877   8.371  1.00  0.00     0.004 C 
BRANCH   2   3
HETATM    3  C7  UNL     1      -0.493   1.176   9.677  1.00  0.00     0.025 C 
BRANCH   3   4
HETATM    4  C6  UNL     1       0.471  -0.018   9.787  1.00  0.00     0.083 C 
HETATM    5  N1  UNL     1       0.736  -0.642   8.559  1.00  0.00    -0.393 N 
HETATM    6  C1  UNL     1       2.057  -0.421   8.027  1.00  0.00     0.149 C 
HETATM    7  C2  UNL     1       0.155  -1.878   8.265  1.00  0.00     0.058 C 
HETATM    8  C3  UNL     1      -0.119  -2.782   9.430  1.00  0.00     0.044 C 
HETATM    9  C4  UNL     1      -0.930  -1.962  10.432  1.00  0.00     0.007 C 
HETATM   10  C5  UNL     1      -0.001  -0.869  10.911  1.00  0.00     0.025 C 
ENDBRANCH   3   4
ENDBRANCH   2   3
ENDBRANCH   1   2
BRANCH   1  11
HETATM   11  C10 UNL     1      -1.323   1.807   6.046  1.00  0.00     0.232 C 
BRANCH  11  12
HETATM   12  N2  UNL     1      -0.618   0.609   5.651  1.00  0.00    -0.071 N 
ATOM     13  H22 UNL     1      -0.183   0.162   6.458  1.00  0.00     0.277 HD
ATOM     14  H21 UNL     1      -1.273  -0.125   5.384  1.00  0.00     0.277 HD
BRANCH  12  15
HETATM   15  C11 UNL     1       0.341   0.834   4.619  1.00  0.00     0.185 C 
HETATM   16  C12 UNL     1      -0.187   1.699   3.513  1.00  0.00     0.033 C 
HETATM   17  C13 UNL     1       0.949   2.094   2.587  1.00  0.00     0.002 C 
HETATM   18  C14 UNL     1       2.055   1.078   2.716  1.00  0.00     0.000 C 
HETATM   19  C15 UNL     1       1.508  -0.315   2.801  1.00  0.00     0.002 C 
HETATM   20  C16 UNL     1       0.766  -0.530   4.088  1.00  0.00     0.033 C 
ENDBRANCH  12  15
ENDBRANCH  11  12
ENDBRANCH   1  11
TORSDOF 6
ENDMDL
MODEL 3
REMARK VINA RESULT: -6.904476062      1.059      1.742
REMARK  6 active torsions:
REMARK  status: ('A' for Active; 'I' for Inactive)
REMARK    1  A    between atoms: C6_7  and  C7_8 
REMARK    2  A    between atoms: C7_8  and  C8_9 
REMARK    3  A    between atoms: C8_9  and  C9_10 
REMARK    4  A    between atoms: C9_10  and  C10_11 
REMARK    5  A    between atoms: C10_11  and  N2_12 
REMARK    6  A    between atoms: N2_12  and  C11_15 
ROOT
HETATM    1  C9  UNL     1       1.557  -1.763   7.672  1.00  0.00     0.027 C 
ENDROOT
BRANCH   1   2
HETATM    2  C8  UNL     1       0.274  -1.824   8.447  1.00  0.00     0.004 C 
BRANCH   2   3
HETATM    3  C7  UNL     1       0.433  -1.114   9.748  1.00  0.00     0.025 C 
BRANCH   3   4
HETATM    4  C6  UNL     1      -0.480   0.121   9.825  1.00  0.00     0.083 C 
HETATM    5  N1  UNL     1      -0.718   0.723   8.580  1.00  0.00    -0.393 N 
HETATM    6  C1  UNL     1      -2.047   0.543   8.052  1.00  0.00     0.149 C 
HETATM    7  C2  UNL     1      -0.086   1.925   8.255  1.00  0.00     0.058 C 
HETATM    8  C3  UNL     1       0.224   2.848   9.396  1.00  0.00     0.044 C 
HETATM    9  C4  UNL     1       1.000   2.022  10.421  1.00  0.00     0.007 C 
HETATM   10  C5  UNL     1       0.026   0.981  10.927  1.00  0.00     0.025 C 
ENDBRANCH   3   4
ENDBRANCH   2   3
ENDBRANCH   1   2
BRANCH   1  11
HETATM   11  C10 UNL     1       1.362  -1.940   6.170  1.00  0.00     0.232 C 
BRANCH  11  12
HETATM   12  N2  UNL     1       0.239  -1.116   5.789  1.00  0.00    -0.071 N 
ATOM     13  H22 UNL     1      -0.552  -1.691   5.500  1.00  0.00     0.277 HD
ATOM     14  H21 UNL     1      -0.172  -0.663   6.605  1.00  0.00     0.277 HD
BRANCH  12  15
HETATM   15  C11 UNL     1       0.560  -0.155   4.784  1.00  0.00     0.185 C 
HETATM   16  C12 UNL     1      -0.628   0.644   4.342  1.00  0.00     0.033 C 
HETATM   17  C13 UNL     1      -0.172   1.797   3.466  1.00  0.00     0.002 C 
HETATM   18  C14 UNL     1       1.167   1.450   2.868  1.00  0.00     0.000 C 
HETATM   19  C15 UNL     1       1.214   0.016   2.433  1.00  0.00     0.002 C 
HETATM   20  C16 UNL     1       1.176  -0.911   3.612  1.00  0.00     0.033 C 
ENDBRANCH  12  15
ENDBRANCH  11  12
ENDBRANCH   1  11
TORSDOF 6
ENDMDL
MODEL 4
REMARK VINA RESULT: -6.865717196      1.303      3.056
REMARK  6 active torsions:
REMARK  status: ('A' for Active; 'I' for Inactive)
REMARK    1  A    between atoms: C6_7  and  C7_8 
REMARK    2  A    between atoms: C7_8  and  C8_9 
REMARK    3  A    between atoms: C8_9  and  C9_10 
REMARK    4  A    between atoms: C9_10  and  C10_11 
REMARK    5  A    between atoms: C10_11  and  N2_12 
REMARK    6  A    between atoms: N2_12  and  C11_15 
ROOT
HETATM    1  C9  UNL     1      -1.607   1.732   7.597  1.00  0.00     0.027 C 
ENDROOT
BRANCH   1   2
HETATM    2  C8  UNL     1      -0.360   1.849   8.424  1.00  0.00     0.004 C 
BRANCH   2   3
HETATM    3  C7  UNL     1      -0.533   1.113   9.709  1.00  0.00     0.025 C 
BRANCH   3   4
HETATM    4  C6  UNL     1       0.422  -0.090   9.796  1.00  0.00     0.083 C 
HETATM    5  N1  UNL     1       0.672  -0.699   8.558  1.00  0.00    -0.393 N 
HETATM    6  C1  UNL     1       1.991  -0.482   8.019  1.00  0.00     0.149 C 
HETATM    7  C2  UNL     1       0.079  -1.926   8.252  1.00  0.00     0.058 C 
HETATM    8  C3  UNL     1      -0.195  -2.844   9.406  1.00  0.00     0.044 C 
HETATM    9  C4  UNL     1      -0.991  -2.031  10.425  1.00  0.00     0.007 C 
HETATM   10  C5  UNL     1      -0.050  -0.952  10.912  1.00  0.00     0.025 C 
ENDBRANCH   3   4
ENDBRANCH   2   3
ENDBRANCH   1   2
BRANCH   1  11
HETATM   11  C10 UNL     1      -1.372   1.999   6.114  1.00  0.00     0.232 C 
BRANCH  11  12
HETATM   12  N2  UNL     1      -0.246   1.190   5.711  1.00  0.00    -0.071 N 
ATOM     13  H22 UNL     1       0.522   1.775   5.383  1.00  0.00     0.277 HD
ATOM     14  H21 UNL     1       0.201   0.762   6.521  1.00  0.00     0.277 HD
BRANCH  12  15
HETATM   15  C11 UNL     1      -0.582   0.202   4.737  1.00  0.00     0.185 C 
HETATM   16  C12 UNL     1       0.603  -0.600   4.289  1.00  0.00     0.033 C 
HETATM   17  C13 UNL     1       0.137  -1.777   3.452  1.00  0.00     0.002 C 
HETATM   18  C14 UNL     1      -1.217  -1.453   2.874  1.00  0.00     0.000 C 
HETATM   19  C15 UNL     1      -1.284  -0.031   2.405  1.00  0.00     0.002 C 
HETATM   20  C16 UNL     1      -1.227   0.925   3.560  1.00  0.00     0.033 C 
ENDBRANCH  12  15
ENDBRANCH  11  12
ENDBRANCH   1  11
TORSDOF 6
ENDMDL
MODEL 5
REMARK VINA RESULT: -6.854678767      1.318      5.740
REMARK  6 active torsions:
REMARK  status: ('A' for Active; 'I' for Inactive)
REMARK    1  A    between atoms: C6_7  and  C7_8 
REMARK    2  A    between atoms: C7_8  and  C8_9 
REMARK    3  A    between atoms: C8_9  and  C9_10 
REMARK    4  A    between atoms: C9_10  and  C10_11 
REMARK    5  A    between atoms: C10_11  and  N2_12 
REMARK    6  A    between atoms: N2_12  and  C11_15 
ROOT
HETATM    1  C9  UNL     1       1.579  -1.746   7.620  1.00  0.00     0.027 C 
ENDROOT
BRANCH   1   2
HETATM    2  C8  UNL     1       1.324  -1.942   6.154  1.00  0.00     0.004 C 
BRANCH   2   3
HETATM    3  C7  UNL     1       0.686  -0.721   5.583  1.00  0.00     0.025 C 
BRANCH   3   4
HETATM    4  C6  UNL     1       0.857  -0.665   4.056  1.00  0.00     0.083 C 
HETATM    5  N1  UNL     1       0.542   0.583   3.500  1.00  0.00    -0.393 N 
HETATM    6  C1  UNL     1       1.667   1.352   3.031  1.00  0.00     0.149 C 
HETATM    7  C2  UNL     1      -0.652   0.750   2.794  1.00  0.00     0.058 C 
HETATM    8  C3  UNL     1      -1.178  -0.456   2.074  1.00  0.00     0.044 C 
HETATM    9  C4  UNL     1      -1.244  -1.581   3.105  1.00  0.00     0.007 C 
HETATM   10  C5  UNL     1       0.190  -1.867   3.489  1.00  0.00     0.025 C 
ENDBRANCH   3   4
ENDBRANCH   2   3
ENDBRANCH   1   2
BRANCH   1  11
HETATM   11  C10 UNL     1       0.463  -2.295   8.503  1.00  0.00     0.232 C 
BRANCH  11  12
HETATM   12  N2  UNL     1       0.147  -1.270   9.471  1.00  0.00    -0.071 N 
ATOM     13  H22 UNL     1      -0.610  -1.572  10.084  1.00  0.00     0.277 HD
ATOM     14  H21 UNL     1       0.894  -1.178  10.159  1.00  0.00     0.277 HD
BRANCH  12  15
HETATM   15  C11 UNL     1      -0.154  -0.008   8.878  1.00  0.00     0.185 C 
HETATM   16  C12 UNL     1      -0.022   1.134   9.841  1.00  0.00     0.033 C 
HETATM   17  C13 UNL     1      -0.114   2.450   9.090  1.00  0.00     0.002 C 
HETATM   18  C14 UNL     1      -0.858   2.219   7.799  1.00  0.00     0.000 C 
HETATM   19  C15 UNL     1      -2.026   1.301   8.000  1.00  0.00     0.002 C 
HETATM   20  C16 UNL     1      -1.573  -0.092   8.324  1.00  0.00     0.033 C 
ENDBRANCH  12  15
ENDBRANCH  11  12
ENDBRANCH   1  11
TORSDOF 6
ENDMDL
