MODEL 1
REMARK VINA RESULT: -6.893649595      0.000      0.000
REMARK  7 active torsions:
REMARK  status: ('A' for Active; 'I' for Inactive)
REMARK    1  A    between atoms: N1_7  and  C7_8 
REMARK    2  A    between atoms: C7_8  and  C8_9 
REMARK    3  A    between atoms: C8_9  and  C9_10 
REMARK    4  A    between atoms: C9_10  and  C10_11 
REMARK    5  A    between atoms: C10_11  and  C11_12 
REMARK    6  A    between atoms: C14_15  and  C15_16 
REMARK    7  A    between atoms: C15_16  and  N2_17 
ROOT
HETATM    1  C10 UNL     1       0.931  -1.603   4.202  1.00  0.00     0.005 C 
ENDROOT
BRANCH   1   2
HETATM    2  C9  UNL     1       0.638  -0.604   5.288  1.00  0.00     0.002 C 
BRANCH   2   3
HETATM    3  C8  UNL     1       0.732  -1.238   6.668  1.00  0.00     0.020 C 
BRANCH   3   4
HETATM    4  C7  UNL     1      -0.450  -0.849   7.497  1.00  0.00     0.122 C 
BRANCH   4   5
HETATM    5  N1  UNL     1      -0.157   0.167   8.472  1.00  0.00    -0.385 N 
HETATM    6  C2  UNL     1      -0.517   1.536   8.317  1.00  0.00    -0.003 C 
HETATM    7  C1  UNL     1      -1.559   1.800   7.531  1.00  0.00     0.038 C 
HETATM    8  C3  UNL     1       0.225   2.635   8.996  1.00  0.00     0.056 C 
HETATM    9  C4  UNL     1       0.727   2.219  10.356  1.00  0.00     0.007 C 
HETATM   10  C5  UNL     1       0.152   0.870  10.730  1.00  0.00     0.020 C 
HETATM   11  C6  UNL     1       0.544  -0.181   9.694  1.00  0.00     0.122 C 
ENDBRANCH   4   5
ENDBRANCH   3   4
ENDBRANCH   2   3
ENDBRANCH   1   2
BRANCH   1  12
HETATM   12  C11 UNL     1       0.199  -1.173   2.948  1.00  0.00    -0.014 C 
HETATM   13  C12 UNL     1      -0.450   0.166   3.149  1.00  0.00     0.005 C 
HETATM   14  C13 UNL     1      -1.911  -0.038   2.719  1.00  0.00     0.007 C 
HETATM   15  C14 UNL     1      -2.153  -1.491   3.045  1.00  0.00     0.011 C 
HETATM   16  C16 UNL     1      -0.874  -2.165   2.639  1.00  0.00     0.011 C 
BRANCH  15  17
HETATM   17  C15 UNL     1      -3.248  -2.077   2.169  1.00  0.00     0.234 C 
BRANCH  17  18
HETATM   18  N2  UNL     1      -4.033  -0.971   1.659  1.00  0.00    -0.079 N 
ATOM     19  H23 UNL     1      -3.816  -0.084   2.113  1.00  0.00     0.274 HD
ATOM     20  H22 UNL     1      -3.771  -0.700   0.711  1.00  0.00     0.274 HD
ATOM     21  H21 UNL     1      -5.016  -1.230   1.742  1.00  0.00     0.274 HD
ENDBRANCH  17  18
ENDBRANCH  15  17
ENDBRANCH   1  12
TORSDOF 7
ENDMDL
MODEL 2
REMARK VINA RESULT: -6.881935007      2.720      4.182
REMARK  7 active torsions:
REMARK  status: ('A' for Active; 'I' for Inactive)
REMARK    1  A    between atoms: N1_7  and  C7_8 
REMARK    2  A    between atoms: C7_8  and  C8_9 
REMARK    3  A    between atoms: C8_9  and  C9_10 
REMARK    4  A    between atoms: C9_10  and  C10_11 
REMARK    5  A    between atoms: C10_11  and  C11_12 
REMARK    6  A    between atoms: C14_15  and  C15_16 
REMARK    7  A    between atoms: C15_16  and  N2_17 
ROOT
HETATM    1  C10 UNL     1      -0.962   1.578   4.171  1.00  0.00     0.005 C 
ENDROOT
BRANCH   1   2
HETATM    2  C9  UNL     1      -0.681   0.576   5.258  1.00  0.00     0.002 C 
BRANCH   2   3
HETATM    3  C8  UNL     1      -0.773   1.211   6.638  1.00  0.00     0.020 C 
BRANCH   3   4
HETATM    4  C7  UNL     1       0.427   0.850   7.453  1.00  0.00     0.122 C 
BRANCH   4   5
HETATM    5  N1  UNL     1       0.169  -0.170   8.434  1.00  0.00    -0.385 N 
HETATM    6  C2  UNL     1       0.578  -1.526   8.288  1.00  0.00    -0.003 C 
HETATM    7  C1  UNL     1       1.630  -1.758   7.505  1.00  0.00     0.038 C 
HETATM    8  C3  UNL     1      -0.126  -2.646   8.972  1.00  0.00     0.056 C 
HETATM    9  C4  UNL     1      -0.645  -2.241  10.329  1.00  0.00     0.007 C 
HETATM   10  C5  UNL     1      -0.120  -0.870  10.695  1.00  0.00     0.020 C 
HETATM   11  C6  UNL     1      -0.547   0.160   9.653  1.00  0.00     0.122 C 
ENDBRANCH   4   5
ENDBRANCH   3   4
ENDBRANCH   2   3
ENDBRANCH   1   2
BRANCH   1  12
HETATM   12  C11 UNL     1      -0.200   1.162   2.931  1.00  0.00    -0.014 C 
HETATM   13  C12 UNL     1       0.445  -0.178   3.132  1.00  0.00     0.005 C 
HETATM   14  C13 UNL     1       1.916   0.032   2.739  1.00  0.00     0.007 C 
HETATM   15  C14 UNL     1       2.149   1.481   3.088  1.00  0.00     0.011 C 
HETATM   16  C16 UNL     1       0.879   2.158   2.659  1.00  0.00     0.011 C 
BRANCH  15  17
HETATM   17  C15 UNL     1       3.264   2.078   2.245  1.00  0.00     0.234 C 
BRANCH  17  18
HETATM   18  N2  UNL     1       4.000   0.976   1.658  1.00  0.00    -0.079 N 
ATOM     19  H23 UNL     1       4.999   1.164   1.575  1.00  0.00     0.274 HD
ATOM     20  H22 UNL     1       4.069   0.169   2.277  1.00  0.00     0.274 HD
ATOM     21  H21 UNL     1       3.561   0.757   0.764  1.00  0.00     0.274 HD
ENDBRANCH  17  18
ENDBRANCH  15  17
ENDBRANCH   1  12
TORSDOF 7
ENDMDL
MODEL 3
REMARK VINA RESULT: -6.822507005      2.097      2.855
REMARK  7 active torsions:
REMARK  status: ('A' for Active; 'I' for Inactive)
REMARK    1  A    between atoms: N1_7  and  C7_8 
REMARK    2  A    between atoms: C7_8  and  C8_9 
REMARK    3  A    between atoms: C8_9  and  C9_10 
REMARK    4  A    between atoms: C9_10  and  C10_11 
REMARK    5  A    between atoms: C10_11  and  C11_12 
REMARK    6  A    between atoms: C14_15  and  C15_16 
REMARK    7  A    between atoms: C15_16  and  N2_17 
ROOT
HETATM    1  C10 UNL     1      -0.301  -0.619   5.033  1.00  0.00     0.005 C 
ENDROOT
BRANCH   1   2
HETATM    2  C9  UNL     1       0.890  -1.359   5.578  1.00  0.00     0.002 C 
BRANCH   2   3
HETATM    3  C8  UNL     1       0.798  -1.530   7.087  1.00  0.00     0.020 C 
BRANCH   3   4
HETATM    4  C7  UNL     1      -0.416  -0.836   7.613  1.00  0.00     0.122 C 
BRANCH   4   5
HETATM    5  N1  UNL     1      -0.117   0.195   8.570  1.00  0.00    -0.385 N 
HETATM    6  C2  UNL     1      -0.440   1.568   8.378  1.00  0.00    -0.003 C 
HETATM    7  C1  UNL     1      -1.459   1.840   7.565  1.00  0.00     0.038 C 
HETATM    8  C3  UNL     1       0.315   2.664   9.046  1.00  0.00     0.056 C 
HETATM    9  C4  UNL     1       0.780   2.268  10.426  1.00  0.00     0.007 C 
HETATM   10  C5  UNL     1       0.164   0.942  10.818  1.00  0.00     0.020 C 
HETATM   11  C6  UNL     1       0.551  -0.142   9.814  1.00  0.00     0.122 C 
ENDBRANCH   4   5
ENDBRANCH   3   4
ENDBRANCH   2   3
ENDBRANCH   1   2
BRANCH   1  12
HETATM   12  C11 UNL     1      -0.053  -0.328   3.568  1.00  0.00    -0.014 C 
HETATM   13  C12 UNL     1       1.311  -0.802   3.160  1.00  0.00     0.005 C 
HETATM   14  C13 UNL     1       1.957   0.411   2.471  1.00  0.00     0.007 C 
HETATM   15  C14 UNL     1       1.311   1.577   3.178  1.00  0.00     0.011 C 
HETATM   16  C16 UNL     1      -0.118   1.146   3.341  1.00  0.00     0.011 C 
BRANCH  15  17
HETATM   17  C15 UNL     1       1.293   2.814   2.296  1.00  0.00     0.234 C 
BRANCH  17  18
HETATM   18  N2  UNL     1       1.645   2.395   0.954  1.00  0.00    -0.079 N 
ATOM     19  H23 UNL     1       1.087   2.853   0.235  1.00  0.00     0.274 HD
ATOM     20  H22 UNL     1       2.556   2.741   0.655  1.00  0.00     0.274 HD
ATOM     21  H21 UNL     1       1.575   1.377   0.924  1.00  0.00     0.274 HD
ENDBRANCH  17  18
ENDBRANCH  15  17
ENDBRANCH   1  12
TORSDOF 7
ENDMDL
MODEL 4
REMARK VINA RESULT: -6.818464641      2.571      3.965
REMARK  7 active torsions:
REMARK  status: ('A' for Active; 'I' for Inactive)
REMARK    1  A    between atoms: N1_7  and  C7_8 
REMARK    2  A    between atoms: C7_8  and  C8_9 
REMARK    3  A    between atoms: C8_9  and  C9_10 
REMARK    4  A    between atoms: C9_10  and  C10_11 
REMARK    5  A    between atoms: C10_11  and  C11_12 
REMARK    6  A    between atoms: C14_15  and  C15_16 
REMARK    7  A    between atoms: C15_16  and  N2_17 
ROOT
HETATM    1  C10 UNL     1      -1.239   1.998   5.196  1.00  0.00     0.005 C 
ENDROOT
BRANCH   1   2
HETATM    2  C9  UNL     1      -1.245   1.229   6.489  1.00  0.00     0.002 C 
BRANCH   2   3
HETATM    3  C8  UNL     1      -0.453   1.948   7.570  1.00  0.00     0.020 C 
BRANCH   3   4
HETATM    4  C7  UNL     1       0.711   1.115   8.000  1.00  0.00     0.122 C 
BRANCH   4   5
HETATM    5  N1  UNL     1       0.336  -0.033   8.781  1.00  0.00    -0.385 N 
HETATM    6  C2  UNL     1       0.618  -1.375   8.397  1.00  0.00    -0.003 C 
HETATM    7  C1  UNL     1       1.661  -1.565   7.590  1.00  0.00     0.038 C 
HETATM    8  C3  UNL     1      -0.203  -2.526   8.866  1.00  0.00     0.056 C 
HETATM    9  C4  UNL     1      -0.710  -2.319  10.271  1.00  0.00     0.007 C 
HETATM   10  C5  UNL     1      -0.066  -1.092  10.880  1.00  0.00     0.020 C 
HETATM   11  C6  UNL     1      -0.372   0.143  10.036  1.00  0.00     0.122 C 
ENDBRANCH   4   5
ENDBRANCH   3   4
ENDBRANCH   2   3
ENDBRANCH   1   2
BRANCH   1  12
HETATM   12  C11 UNL     1      -0.948   1.032   4.067  1.00  0.00    -0.014 C 
HETATM   13  C12 UNL     1      -0.483  -0.288   4.608  1.00  0.00     0.005 C 
HETATM   14  C13 UNL     1       0.821  -0.585   3.850  1.00  0.00     0.007 C 
HETATM   15  C14 UNL     1       1.362   0.795   3.568  1.00  0.00     0.011 C 
HETATM   16  C16 UNL     1       0.140   1.590   3.209  1.00  0.00     0.011 C 
BRANCH  15  17
HETATM   17  C15 UNL     1       2.255   0.795   2.339  1.00  0.00     0.234 C 
BRANCH  17  18
HETATM   18  N2  UNL     1       3.193   1.891   2.484  1.00  0.00    -0.079 N 
ATOM     19  H23 UNL     1       2.740   2.775   2.715  1.00  0.00     0.274 HD
ATOM     20  H22 UNL     1       3.768   1.814   3.323  1.00  0.00     0.274 HD
ATOM     21  H21 UNL     1       3.743   1.938   1.626  1.00  0.00     0.274 HD
ENDBRANCH  17  18
ENDBRANCH  15  17
ENDBRANCH   1  12
TORSDOF 7
ENDMDL
MODEL 5
REMARK VINA RESULT: -6.811779587      1.496      2.726
REMARK  7 active torsions:
REMARK  status: ('A' for Active; 'I' for Inactive)
REMARK    1  A    between atoms: N1_7  and  C7_8 
REMARK    2  A    between atoms: C7_8  and  C8_9 
REMARK    3  A    between atoms: C8_9  and  C9_10 
REMARK    4  A    between atoms: C9_10  and  C10_11 
REMARK    5  A    between atoms: C10_11  and  C11_12 
REMARK    6  A    between atoms: C14_15  and  C15_16 
REMARK    7  A    between atoms: C15_16  and  N2_17 
ROOT
HETATM    1  C10 UNL     1       0.368   0.582   5.083  1.00  0.00     0.005 C 
ENDROOT
BRANCH   1   2
HETATM    2  C9  UNL     1      -0.847   1.273   5.642  1.00  0.00     0.002 C 
BRANCH   2   3
HETATM    3  C8  UNL     1      -0.689   1.564   7.127  1.00  0.00     0.020 C 
BRANCH   3   4
HETATM    4  C7  UNL     1       0.498   0.839   7.673  1.00  0.00     0.122 C 
BRANCH   4   5
HETATM    5  N1  UNL     1       0.156  -0.194   8.614  1.00  0.00    -0.385 N 
HETATM    6  C2  UNL     1       0.429  -1.575   8.403  1.00  0.00    -0.003 C 
HETATM    7  C1  UNL     1       1.441  -1.873   7.591  1.00  0.00     0.038 C 
HETATM    8  C3  UNL     1      -0.370  -2.652   9.053  1.00  0.00     0.056 C 
HETATM    9  C4  UNL     1      -0.826  -2.258  10.436  1.00  0.00     0.007 C 
HETATM   10  C5  UNL     1      -0.164  -0.961  10.850  1.00  0.00     0.020 C 
HETATM   11  C6  UNL     1      -0.505   0.150   9.860  1.00  0.00     0.122 C 
ENDBRANCH   4   5
ENDBRANCH   3   4
ENDBRANCH   2   3
ENDBRANCH   1   2
BRANCH   1  12
HETATM   12  C11 UNL     1       0.127   0.308   3.614  1.00  0.00    -0.014 C 
HETATM   13  C12 UNL     1      -1.218   0.826   3.194  1.00  0.00     0.005 C 
HETATM   14  C13 UNL     1      -1.893  -0.362   2.490  1.00  0.00     0.007 C 
HETATM   15  C14 UNL     1      -1.290  -1.552   3.196  1.00  0.00     0.011 C 
HETATM   16  C16 UNL     1       0.150  -1.166   3.377  1.00  0.00     0.011 C 
BRANCH  15  17
HETATM   17  C15 UNL     1      -1.300  -2.783   2.306  1.00  0.00     0.234 C 
BRANCH  17  18
HETATM   18  N2  UNL     1      -1.689  -2.354   0.977  1.00  0.00    -0.079 N 
ATOM     19  H23 UNL     1      -2.549  -1.807   0.971  1.00  0.00     0.274 HD
ATOM     20  H22 UNL     1      -1.073  -1.638   0.594  1.00  0.00     0.274 HD
ATOM     21  H21 UNL     1      -1.743  -3.188   0.391  1.00  0.00     0.274 HD
ENDBRANCH  17  18
ENDBRANCH  15  17
ENDBRANCH   1  12
TORSDOF 7
ENDMDL
