MODEL 1
REMARK VINA RESULT: -6.819399904      0.000      0.000
REMARK  6 active torsions:
REMARK  status: ('A' for Active; 'I' for Inactive)
REMARK    1  A    between atoms: C4_5  and  N2_6 
REMARK    2  A    between atoms: N2_6  and  C5_9 
REMARK    3  A    between atoms: C5_9  and  C6_10 
REMARK    4  A    between atoms: C6_10  and  C7_11 
REMARK    5  A    between atoms: C7_11  and  C8_12 
REMARK    6  A    between atoms: C8_12  and  C9_13 
ROOT
HETATM    1  N2  UNL     1      -0.170   1.230   5.860  1.00  0.00    -0.071 N 
ATOM      2  H21 UNL     1       0.479   1.881   5.419  1.00  0.00     0.277 HD
ATOM      3  H22 UNL     1       0.449   0.845   6.572  1.00  0.00     0.277 HD
ENDROOT
BRANCH   1   4
HETATM    4  C4  UNL     1      -0.598   0.231   4.951  1.00  0.00     0.189 C 
HETATM    5  C3  UNL     1      -0.909   0.801   3.569  1.00  0.00     0.063 C 
HETATM    6  C2  UNL     1      -1.720  -0.263   2.863  1.00  0.00     0.274 C 
HETATM    7  N1  UNL     1      -1.129  -1.577   3.029  1.00  0.00     0.084 N 
HETATM    8  C1  UNL     1      -1.351  -2.451   1.898  1.00  0.00     0.309 C 
HETATM    9  C16 UNL     1       0.243  -1.466   3.402  1.00  0.00     0.274 C 
HETATM   10  C15 UNL     1       0.277  -0.964   4.861  1.00  0.00     0.063 C 
ENDBRANCH   1   4
BRANCH   1  11
HETATM   11  C5  UNL     1      -1.283   1.920   6.450  1.00  0.00     0.232 C 
BRANCH  11  12
HETATM   12  C6  UNL     1      -1.315   1.760   7.934  1.00  0.00     0.027 C 
BRANCH  12  13
HETATM   13  C7  UNL     1      -0.114   2.428   8.621  1.00  0.00     0.002 C 
BRANCH  13  14
HETATM   14  C8  UNL     1       0.375   1.412   9.617  1.00  0.00     0.005 C 
BRANCH  14  15
HETATM   15  C9  UNL     1      -0.087   0.013   9.263  1.00  0.00    -0.014 C 
HETATM   16  C10 UNL     1       1.023  -0.823   8.683  1.00  0.00     0.004 C 
HETATM   17  C11 UNL     1       0.439  -2.148   8.296  1.00  0.00     0.000 C 
HETATM   18  C12 UNL     1      -0.208  -2.891   9.419  1.00  0.00     0.000 C 
HETATM   19  C13 UNL     1      -0.653  -2.101  10.566  1.00  0.00     0.000 C 
HETATM   20  C14 UNL     1      -0.549  -0.641  10.518  1.00  0.00     0.004 C 
ENDBRANCH  14  15
ENDBRANCH  13  14
ENDBRANCH  12  13
ENDBRANCH  11  12
ENDBRANCH   1  11
TORSDOF 6
ENDMDL
MODEL 2
REMARK VINA RESULT: -6.797551278      1.451      3.484
REMARK  6 active torsions:
REMARK  status: ('A' for Active; 'I' for Inactive)
REMARK    1  A    between atoms: C4_5  and  N2_6 
REMARK    2  A    between atoms: N2_6  and  C5_9 
REMARK    3  A    between atoms: C5_9  and  C6_10 
REMARK    4  A    between atoms: C6_10  and  C7_11 
REMARK    5  A    between atoms: C7_11  and  C8_12 
REMARK    6  A    between atoms: C8_12  and  C9_13 
ROOT
HETATM    1  N2  UNL     1       1.718  -2.330   6.632  1.00  0.00    -0.071 N 
ATOM      2  H21 UNL     1       2.709  -2.258   6.404  1.00  0.00     0.277 HD
ATOM      3  H22 UNL     1       1.627  -3.346   6.627  1.00  0.00     0.277 HD
ENDROOT
BRANCH   1   4
HETATM    4  C4  UNL     1       0.912  -1.734   5.630  1.00  0.00     0.189 C 
HETATM    5  C3  UNL     1       0.699  -0.241   5.872  1.00  0.00     0.063 C 
HETATM    6  C2  UNL     1      -0.473   0.148   4.998  1.00  0.00     0.274 C 
HETATM    7  N1  UNL     1      -0.340  -0.395   3.660  1.00  0.00     0.084 N 
HETATM    8  C1  UNL     1      -0.929   0.446   2.640  1.00  0.00     0.309 C 
HETATM    9  C16 UNL     1       1.016  -0.747   3.395  1.00  0.00     0.274 C 
HETATM   10  C15 UNL     1       1.331  -2.004   4.232  1.00  0.00     0.063 C 
ENDBRANCH   1   4
BRANCH   1  11
HETATM   11  C5  UNL     1       1.438  -1.785   7.931  1.00  0.00     0.232 C 
BRANCH  11  12
HETATM   12  C6  UNL     1       0.371  -2.550   8.639  1.00  0.00     0.027 C 
BRANCH  12  13
HETATM   13  C7  UNL     1      -0.884  -1.703   8.898  1.00  0.00     0.002 C 
BRANCH  13  14
HETATM   14  C8  UNL     1      -0.690  -1.138  10.279  1.00  0.00     0.005 C 
BRANCH  14  15
HETATM   15  C9  UNL     1      -0.516   0.367  10.249  1.00  0.00    -0.014 C 
HETATM   16  C10 UNL     1       0.924   0.776  10.421  1.00  0.00     0.004 C 
HETATM   17  C11 UNL     1       0.968   2.275  10.458  1.00  0.00     0.000 C 
HETATM   18  C12 UNL     1       0.401   2.941   9.247  1.00  0.00     0.000 C 
HETATM   19  C13 UNL     1      -0.548   2.167   8.448  1.00  0.00     0.000 C 
HETATM   20  C14 UNL     1      -0.977   0.848   8.919  1.00  0.00     0.004 C 
ENDBRANCH  14  15
ENDBRANCH  13  14
ENDBRANCH  12  13
ENDBRANCH  11  12
ENDBRANCH   1  11
TORSDOF 6
ENDMDL
MODEL 3
REMARK VINA RESULT: -6.796755674      1.638      3.644
REMARK  6 active torsions:
REMARK  status: ('A' for Active; 'I' for Inactive)
REMARK    1  A    between atoms: C4_5  and  N2_6 
REMARK    2  A    between atoms: N2_6  and  C5_9 
REMARK    3  A    between atoms: C5_9  and  C6_10 
REMARK    4  A    between atoms: C6_10  and  C7_11 
REMARK    5  A    between atoms: C7_11  and  C8_12 
REMARK    6  A    between atoms: C8_12  and  C9_13 
ROOT
HETATM    1  N2  UNL     1       0.220  -1.309   5.803  1.00  0.00    -0.071 N 
ATOM      2  H21 UNL     1      -0.372  -2.000   5.344  1.00  0.00     0.277 HD
ATOM      3  H22 UNL     1      -0.453  -0.944   6.476  1.00  0.00     0.277 HD
ENDROOT
BRANCH   1   4
HETATM    4  C4  UNL     1       0.639  -0.304   4.895  1.00  0.00     0.189 C 
HETATM    5  C3  UNL     1       0.933  -0.867   3.506  1.00  0.00     0.063 C 
HETATM    6  C2  UNL     1       1.738   0.200   2.798  1.00  0.00     0.274 C 
HETATM    7  N1  UNL     1       1.152   1.515   2.979  1.00  0.00     0.084 N 
HETATM    8  C1  UNL     1       1.362   2.396   1.851  1.00  0.00     0.309 C 
HETATM    9  C16 UNL     1      -0.216   1.404   3.368  1.00  0.00     0.274 C 
HETATM   10  C15 UNL     1      -0.234   0.893   4.823  1.00  0.00     0.063 C 
ENDBRANCH   1   4
BRANCH   1  11
HETATM   11  C5  UNL     1       1.336  -1.928   6.460  1.00  0.00     0.232 C 
BRANCH  11  12
HETATM   12  C6  UNL     1       1.315  -1.696   7.934  1.00  0.00     0.027 C 
BRANCH  12  13
HETATM   13  C7  UNL     1       0.161  -2.437   8.627  1.00  0.00     0.002 C 
BRANCH  13  14
HETATM   14  C8  UNL     1      -0.489  -1.401   9.505  1.00  0.00     0.005 C 
BRANCH  14  15
HETATM   15  C9  UNL     1       0.032  -0.010   9.210  1.00  0.00    -0.014 C 
HETATM   16  C10 UNL     1      -1.025   0.875   8.602  1.00  0.00     0.004 C 
HETATM   17  C11 UNL     1      -0.383   2.191   8.277  1.00  0.00     0.000 C 
HETATM   18  C12 UNL     1       0.233   2.884   9.448  1.00  0.00     0.000 C 
HETATM   19  C13 UNL     1       0.599   2.052  10.594  1.00  0.00     0.000 C 
HETATM   20  C14 UNL     1       0.453   0.598  10.502  1.00  0.00     0.004 C 
ENDBRANCH  14  15
ENDBRANCH  13  14
ENDBRANCH  12  13
ENDBRANCH  11  12
ENDBRANCH   1  11
TORSDOF 6
ENDMDL
MODEL 4
REMARK VINA RESULT: -6.737654003      0.409      1.227
REMARK  6 active torsions:
REMARK  status: ('A' for Active; 'I' for Inactive)
REMARK    1  A    between atoms: C4_5  and  N2_6 
REMARK    2  A    between atoms: N2_6  and  C5_9 
REMARK    3  A    between atoms: C5_9  and  C6_10 
REMARK    4  A    between atoms: C6_10  and  C7_11 
REMARK    5  A    between atoms: C7_11  and  C8_12 
REMARK    6  A    between atoms: C8_12  and  C9_13 
ROOT
HETATM    1  N2  UNL     1      -0.188   1.217   5.880  1.00  0.00    -0.071 N 
ATOM      2  H21 UNL     1       0.238   2.003   5.391  1.00  0.00     0.277 HD
ATOM      3  H22 UNL     1       0.614   0.920   6.434  1.00  0.00     0.277 HD
ENDROOT
BRANCH   1   4
HETATM    4  C4  UNL     1      -0.596   0.204   4.976  1.00  0.00     0.189 C 
HETATM    5  C3  UNL     1      -0.864   0.754   3.576  1.00  0.00     0.063 C 
HETATM    6  C2  UNL     1      -1.661  -0.318   2.866  1.00  0.00     0.274 C 
HETATM    7  N1  UNL     1      -1.082  -1.632   3.070  1.00  0.00     0.084 N 
HETATM    8  C1  UNL     1      -1.276  -2.524   1.947  1.00  0.00     0.309 C 
HETATM    9  C16 UNL     1       0.279  -1.522   3.480  1.00  0.00     0.274 C 
HETATM   10  C15 UNL     1       0.275  -0.996   4.931  1.00  0.00     0.063 C 
ENDBRANCH   1   4
BRANCH   1  11
HETATM   11  C5  UNL     1      -1.273   1.646   6.718  1.00  0.00     0.232 C 
BRANCH  11  12
HETATM   12  C6  UNL     1      -0.788   2.232   8.002  1.00  0.00     0.027 C 
BRANCH  12  13
HETATM   13  C7  UNL     1       0.629   1.762   8.362  1.00  0.00     0.002 C 
BRANCH  13  14
HETATM   14  C8  UNL     1       0.541   1.344   9.806  1.00  0.00     0.005 C 
BRANCH  14  15
HETATM   15  C9  UNL     1       0.495  -0.163   9.950  1.00  0.00    -0.014 C 
HETATM   16  C10 UNL     1      -0.900  -0.667  10.213  1.00  0.00     0.004 C 
HETATM   17  C11 UNL     1      -0.816  -2.150  10.419  1.00  0.00     0.000 C 
HETATM   18  C12 UNL     1      -0.222  -2.901   9.273  1.00  0.00     0.000 C 
HETATM   19  C13 UNL     1       0.640  -2.149   8.363  1.00  0.00     0.000 C 
HETATM   20  C14 UNL     1       0.965  -0.754   8.668  1.00  0.00     0.004 C 
ENDBRANCH  14  15
ENDBRANCH  13  14
ENDBRANCH  12  13
ENDBRANCH  11  12
ENDBRANCH   1  11
TORSDOF 6
ENDMDL
MODEL 5
REMARK VINA RESULT: -6.662084571      1.862      6.700
REMARK  6 active torsions:
REMARK  status: ('A' for Active; 'I' for Inactive)
REMARK    1  A    between atoms: C4_5  and  N2_6 
REMARK    2  A    between atoms: N2_6  and  C5_9 
REMARK    3  A    between atoms: C5_9  and  C6_10 
REMARK    4  A    between atoms: C6_10  and  C7_11 
REMARK    5  A    between atoms: C7_11  and  C8_12 
REMARK    6  A    between atoms: C8_12  and  C9_13 
ROOT
HETATM    1  N2  UNL     1       0.948   0.723   6.010  1.00  0.00    -0.071 N 
ATOM      2  H21 UNL     1       1.940   0.595   5.812  1.00  0.00     0.277 HD
ATOM      3  H22 UNL     1       0.940   1.735   6.132  1.00  0.00     0.277 HD
ENDROOT
BRANCH   1   4
HETATM    4  C4  UNL     1       0.568   0.055   7.201  1.00  0.00     0.189 C 
HETATM    5  C3  UNL     1      -0.925  -0.264   7.234  1.00  0.00     0.063 C 
HETATM    6  C2  UNL     1      -1.241  -0.580   8.679  1.00  0.00     0.274 C 
HETATM    7  N1  UNL     1      -0.257  -1.480   9.252  1.00  0.00     0.084 N 
HETATM    8  C1  UNL     1      -0.806  -2.360  10.260  1.00  0.00     0.309 C 
HETATM    9  C16 UNL     1       0.455  -2.164   8.224  1.00  0.00     0.274 C 
HETATM   10  C15 UNL     1       1.386  -1.133   7.552  1.00  0.00     0.063 C 
ENDBRANCH   1   4
BRANCH   1  11
HETATM   11  C5  UNL     1       0.135   0.323   4.896  1.00  0.00     0.232 C 
BRANCH  11  12
HETATM   12  C6  UNL     1       0.897  -0.506   3.917  1.00  0.00     0.027 C 
BRANCH  12  13
HETATM   13  C7  UNL     1       0.090  -1.713   3.417  1.00  0.00     0.002 C 
BRANCH  13  14
HETATM   14  C8  UNL     1      -1.350  -1.330   3.633  1.00  0.00     0.005 C 
BRANCH  14  15
HETATM   15  C9  UNL     1      -2.257  -1.949   2.589  1.00  0.00    -0.014 C 
HETATM   16  C10 UNL     1      -3.302  -0.982   2.099  1.00  0.00     0.004 C 
HETATM   17  C11 UNL     1      -4.188  -1.719   1.139  1.00  0.00     0.000 C 
HETATM   18  C12 UNL     1      -3.472  -2.314  -0.030  1.00  0.00     0.000 C 
HETATM   19  C13 UNL     1      -2.041  -2.568   0.128  1.00  0.00     0.000 C 
HETATM   20  C14 UNL     1      -1.410  -2.339   1.429  1.00  0.00     0.004 C 
ENDBRANCH  14  15
ENDBRANCH  13  14
ENDBRANCH  12  13
ENDBRANCH  11  12
ENDBRANCH   1  11
TORSDOF 6
ENDMDL
