MODEL 1
REMARK VINA RESULT: -6.642210400      0.000      0.000
REMARK  6 active torsions:
REMARK  status: ('A' for Active; 'I' for Inactive)
REMARK    1  A    between atoms: S1_2  and  C2_3 
REMARK    2  A    between atoms: C2_3  and  C3_4 
REMARK    3  A    between atoms: C3_4  and  C4_5 
REMARK    4  A    between atoms: C4_5  and  C5_6 
REMARK    5  A    between atoms: C5_6  and  N1_7 
REMARK    6  A    between atoms: N1_7  and  C6_9 
ROOT
HETATM    1  C6  UNL     1      -0.391   0.400   7.072  1.00  0.00     0.026 C 
HETATM    2  C7  UNL     1       0.461   1.333   7.926  1.00  0.00     0.035 C 
HETATM    3  C8  UNL     1       1.212   0.551   8.994  1.00  0.00    -0.012 C 
HETATM    4  C9  UNL     1       0.209  -0.116   9.890  1.00  0.00     0.009 C 
HETATM    5  C10 UNL     1      -0.652  -1.033   9.045  1.00  0.00    -0.012 C 
HETATM    6  C11 UNL     1       0.235  -2.101   8.470  1.00  0.00     0.009 C 
HETATM    7  C12 UNL     1       1.244  -1.443   7.552  1.00  0.00    -0.012 C 
HETATM    8  C13 UNL     1       2.101  -0.443   8.282  1.00  0.00     0.009 C 
HETATM    9  C14 UNL     1       0.481  -0.718   6.486  1.00  0.00     0.035 C 
HETATM   10  C15 UNL     1      -1.391  -0.250   7.979  1.00  0.00     0.035 C 
ENDROOT
BRANCH   1  11
HETATM   11  N1  UNL     1      -0.917   1.130   5.994  1.00  0.00    -0.412 N 
ATOM     12  H1  UNL     1      -1.751   1.702   6.120  1.00  0.00     0.154 HD
BRANCH  11  13
HETATM   13  C5  UNL     1      -0.283   1.065   4.734  1.00  0.00     0.114 C 
BRANCH  13  14
HETATM   14  C4  UNL     1      -1.328   1.209   3.661  1.00  0.00     0.020 C 
BRANCH  14  15
HETATM   15  C3  UNL     1      -1.293   0.136   2.629  1.00  0.00     0.012 C 
BRANCH  15  16
HETATM   16  C2  UNL     1      -1.253  -1.238   3.262  1.00  0.00     0.073 C 
BRANCH  16  17
HETATM   17  S1  UNL     1      -2.722  -2.208   2.757  1.00  0.00    -0.173 SA
HETATM   18  C1  UNL     1      -3.829  -1.116   1.819  1.00  0.00     0.089 C 
ENDBRANCH  16  17
ENDBRANCH  15  16
ENDBRANCH  14  15
ENDBRANCH  13  14
ENDBRANCH  11  13
ENDBRANCH   1  11
TORSDOF 6
ENDMDL
MODEL 2
REMARK VINA RESULT: -6.623364912      2.612      3.781
REMARK  6 active torsions:
REMARK  status: ('A' for Active; 'I' for Inactive)
REMARK    1  A    between atoms: S1_2  and  C2_3 
REMARK    2  A    between atoms: C2_3  and  C3_4 
REMARK    3  A    between atoms: C3_4  and  C4_5 
REMARK    4  A    between atoms: C4_5  and  C5_6 
REMARK    5  A    between atoms: C5_6  and  N1_7 
REMARK    6  A    between atoms: N1_7  and  C6_9 
ROOT
HETATM    1  C6  UNL     1       0.436  -0.414   7.160  1.00  0.00     0.026 C 
HETATM    2  C7  UNL     1      -0.563  -1.304   7.894  1.00  0.00     0.035 C 
HETATM    3  C8  UNL     1      -1.286  -0.521   8.981  1.00  0.00    -0.012 C 
HETATM    4  C9  UNL     1      -0.270  -0.040   9.977  1.00  0.00     0.009 C 
HETATM    5  C10 UNL     1       0.735   0.832   9.251  1.00  0.00    -0.012 C 
HETATM    6  C11 UNL     1       0.006   2.034   8.719  1.00  0.00     0.009 C 
HETATM    7  C12 UNL     1      -1.013   1.563   7.701  1.00  0.00    -0.012 C 
HETATM    8  C13 UNL     1      -2.016   0.617   8.305  1.00  0.00     0.009 C 
HETATM    9  C14 UNL     1      -0.272   0.836   6.622  1.00  0.00     0.035 C 
HETATM   10  C15 UNL     1       1.446   0.050   8.165  1.00  0.00     0.035 C 
ENDROOT
BRANCH   1  11
HETATM   11  N1  UNL     1       0.941  -1.118   6.056  1.00  0.00    -0.412 N 
ATOM     12  H1  UNL     1       1.759  -1.717   6.161  1.00  0.00     0.154 HD
BRANCH  11  13
HETATM   13  C5  UNL     1       0.309  -0.991   4.800  1.00  0.00     0.114 C 
BRANCH  13  14
HETATM   14  C4  UNL     1       1.321  -1.267   3.722  1.00  0.00     0.020 C 
BRANCH  14  15
HETATM   15  C3  UNL     1       1.415  -0.202   2.686  1.00  0.00     0.012 C 
BRANCH  15  16
HETATM   16  C2  UNL     1       1.348   1.177   3.306  1.00  0.00     0.073 C 
BRANCH  16  17
HETATM   17  S1  UNL     1       2.760   2.195   2.732  1.00  0.00    -0.173 SA
HETATM   18  C1  UNL     1       3.867   1.133   1.758  1.00  0.00     0.089 C 
ENDBRANCH  16  17
ENDBRANCH  15  16
ENDBRANCH  14  15
ENDBRANCH  13  14
ENDBRANCH  11  13
ENDBRANCH   1  11
TORSDOF 6
ENDMDL
MODEL 3
REMARK VINA RESULT: -6.604889400      1.746      3.216
REMARK  6 active torsions:
REMARK  status: ('A' for Active; 'I' for Inactive)
REMARK    1  A    between atoms: S1_2  and  C2_3 
REMARK    2  A    between atoms: C2_3  and  C3_4 
REMARK    3  A    between atoms: C3_4  and  C4_5 
REMARK    4  A    between atoms: C4_5  and  C5_6 
REMARK    5  A    between atoms: C5_6  and  N1_7 
REMARK    6  A    between atoms: N1_7  and  C6_9 
ROOT
HETATM    1  C6  UNL     1       0.626  -0.188   7.399  1.00  0.00     0.026 C 
HETATM    2  C7  UNL     1      -0.273  -1.241   8.038  1.00  0.00     0.035 C 
HETATM    3  C8  UNL     1      -1.246  -0.599   9.017  1.00  0.00    -0.012 C 
HETATM    4  C9  UNL     1      -0.455   0.064  10.108  1.00  0.00     0.009 C 
HETATM    5  C10 UNL     1       0.453   1.102   9.478  1.00  0.00    -0.012 C 
HETATM    6  C11 UNL     1      -0.415   2.148   8.837  1.00  0.00     0.009 C 
HETATM    7  C12 UNL     1      -1.209   1.495   7.723  1.00  0.00    -0.012 C 
HETATM    8  C13 UNL     1      -2.087   0.384   8.234  1.00  0.00     0.009 C 
HETATM    9  C14 UNL     1      -0.229   0.910   6.752  1.00  0.00     0.035 C 
HETATM   10  C15 UNL     1       1.413   0.458   8.499  1.00  0.00     0.035 C 
ENDROOT
BRANCH   1  11
HETATM   11  N1  UNL     1       1.374  -0.793   6.377  1.00  0.00    -0.412 N 
ATOM     12  H1  UNL     1       1.838  -0.220   5.673  1.00  0.00     0.154 HD
BRANCH  11  13
HETATM   13  C5  UNL     1       1.479  -2.200   6.330  1.00  0.00     0.114 C 
BRANCH  13  14
HETATM   14  C4  UNL     1       1.502  -2.633   4.889  1.00  0.00     0.020 C 
BRANCH  14  15
HETATM   15  C3  UNL     1       1.178  -1.550   3.921  1.00  0.00     0.012 C 
BRANCH  15  16
HETATM   16  C2  UNL     1      -0.147  -1.800   3.235  1.00  0.00     0.073 C 
BRANCH  16  17
HETATM   17  S1  UNL     1      -1.119  -0.249   3.156  1.00  0.00    -0.173 SA
HETATM   18  C1  UNL     1       0.041   1.142   3.024  1.00  0.00     0.089 C 
ENDBRANCH  16  17
ENDBRANCH  15  16
ENDBRANCH  14  15
ENDBRANCH  13  14
ENDBRANCH  11  13
ENDBRANCH   1  11
TORSDOF 6
ENDMDL
MODEL 4
REMARK VINA RESULT: -6.602186653      1.603      1.874
REMARK  6 active torsions:
REMARK  status: ('A' for Active; 'I' for Inactive)
REMARK    1  A    between atoms: S1_2  and  C2_3 
REMARK    2  A    between atoms: C2_3  and  C3_4 
REMARK    3  A    between atoms: C3_4  and  C4_5 
REMARK    4  A    between atoms: C4_5  and  C5_6 
REMARK    5  A    between atoms: C5_6  and  N1_7 
REMARK    6  A    between atoms: N1_7  and  C6_9 
ROOT
HETATM    1  C6  UNL     1      -0.657   0.239   7.441  1.00  0.00     0.026 C 
HETATM    2  C7  UNL     1       0.266   1.293   8.046  1.00  0.00     0.035 C 
HETATM    3  C8  UNL     1       1.228   0.660   9.040  1.00  0.00    -0.012 C 
HETATM    4  C9  UNL     1       0.429   0.046  10.153  1.00  0.00     0.009 C 
HETATM    5  C10 UNL     1      -0.502  -0.991   9.557  1.00  0.00    -0.012 C 
HETATM    6  C11 UNL     1       0.342  -2.073   8.945  1.00  0.00     0.009 C 
HETATM    7  C12 UNL     1       1.144  -1.470   7.810  1.00  0.00    -0.012 C 
HETATM    8  C13 UNL     1       2.047  -0.362   8.285  1.00  0.00     0.009 C 
HETATM    9  C14 UNL     1       0.173  -0.894   6.825  1.00  0.00     0.035 C 
HETATM   10  C15 UNL     1      -1.453  -0.357   8.562  1.00  0.00     0.035 C 
ENDROOT
BRANCH   1  11
HETATM   11  N1  UNL     1      -1.396   0.828   6.404  1.00  0.00    -0.412 N 
ATOM     12  H1  UNL     1      -1.909   0.245   5.743  1.00  0.00     0.154 HD
BRANCH  11  13
HETATM   13  C5  UNL     1      -1.425   2.234   6.281  1.00  0.00     0.114 C 
BRANCH  13  14
HETATM   14  C4  UNL     1      -1.526   2.588   4.822  1.00  0.00     0.020 C 
BRANCH  14  15
HETATM   15  C3  UNL     1      -1.170   1.475   3.899  1.00  0.00     0.012 C 
BRANCH  15  16
HETATM   16  C2  UNL     1       0.183   1.699   3.259  1.00  0.00     0.073 C 
BRANCH  16  17
HETATM   17  S1  UNL     1       1.082   0.109   3.115  1.00  0.00    -0.173 SA
HETATM   18  C1  UNL     1      -0.141  -1.231   3.041  1.00  0.00     0.089 C 
ENDBRANCH  16  17
ENDBRANCH  15  16
ENDBRANCH  14  15
ENDBRANCH  13  14
ENDBRANCH  11  13
ENDBRANCH   1  11
TORSDOF 6
ENDMDL
MODEL 5
REMARK VINA RESULT: -6.569702379      0.720      1.080
REMARK  6 active torsions:
REMARK  status: ('A' for Active; 'I' for Inactive)
REMARK    1  A    between atoms: S1_2  and  C2_3 
REMARK    2  A    between atoms: C2_3  and  C3_4 
REMARK    3  A    between atoms: C3_4  and  C4_5 
REMARK    4  A    between atoms: C4_5  and  C5_6 
REMARK    5  A    between atoms: C5_6  and  N1_7 
REMARK    6  A    between atoms: N1_7  and  C6_9 
ROOT
HETATM    1  C6  UNL     1      -0.497   0.681   7.022  1.00  0.00     0.026 C 
HETATM    2  C7  UNL     1       1.025   0.731   7.119  1.00  0.00     0.035 C 
HETATM    3  C8  UNL     1       1.518  -0.101   8.294  1.00  0.00    -0.012 C 
HETATM    4  C9  UNL     1       0.950   0.477   9.558  1.00  0.00     0.009 C 
HETATM    5  C10 UNL     1      -0.563   0.445   9.462  1.00  0.00    -0.012 C 
HETATM    6  C11 UNL     1      -0.991  -0.993   9.379  1.00  0.00     0.009 C 
HETATM    7  C12 UNL     1      -0.436  -1.585   8.099  1.00  0.00    -0.012 C 
HETATM    8  C13 UNL     1       1.068  -1.525   8.056  1.00  0.00     0.009 C 
HETATM    9  C14 UNL     1      -0.971  -0.777   6.957  1.00  0.00     0.035 C 
HETATM   10  C15 UNL     1      -1.047   1.268   8.286  1.00  0.00     0.035 C 
ENDROOT
BRANCH   1  11
HETATM   11  N1  UNL     1      -0.894   1.303   5.828  1.00  0.00    -0.412 N 
ATOM     12  H1  UNL     1      -1.655   1.981   5.830  1.00  0.00     0.154 HD
BRANCH  11  13
HETATM   13  C5  UNL     1      -0.231   0.985   4.622  1.00  0.00     0.114 C 
BRANCH  13  14
HETATM   14  C4  UNL     1      -1.192   1.172   3.480  1.00  0.00     0.020 C 
BRANCH  14  15
HETATM   15  C3  UNL     1      -1.228   0.034   2.521  1.00  0.00     0.012 C 
BRANCH  15  16
HETATM   16  C2  UNL     1      -1.245  -1.296   3.243  1.00  0.00     0.073 C 
BRANCH  16  17
HETATM   17  S1  UNL     1      -2.750  -2.240   2.792  1.00  0.00    -0.173 SA
HETATM   18  C1  UNL     1      -3.826  -1.156   1.808  1.00  0.00     0.089 C 
ENDBRANCH  16  17
ENDBRANCH  15  16
ENDBRANCH  14  15
ENDBRANCH  13  14
ENDBRANCH  11  13
ENDBRANCH   1  11
TORSDOF 6
ENDMDL
