MODEL 1
REMARK VINA RESULT: -6.462807881      0.000      0.000
REMARK  5 active torsions:
REMARK  status: ('A' for Active; 'I' for Inactive)
REMARK       I    between atoms: C1_2  and  N1_3 
REMARK    1  A    between atoms: C1_2  and  C10_14 
REMARK    2  A    between atoms: N1_3  and  C2_5 
REMARK    3  A    between atoms: C2_5  and  C3_6 
REMARK    4  A    between atoms: C3_6  and  S1_7 
REMARK    5  A    between atoms: S1_7  and  C4_8 
ROOT
HETATM    1  O1  UNL     1      -1.684   2.632   4.577  1.00  0.00    -0.273 OA
HETATM    2  C1  UNL     1      -1.013   1.613   4.833  1.00  0.00     0.221 C 
HETATM    3  N1  UNL     1      -0.939   1.128   6.151  1.00  0.00    -0.360 N 
ATOM      4  H1  UNL     1      -0.379   0.297   6.343  1.00  0.00     0.162 HD
ENDROOT
BRANCH   3   5
HETATM    5  C2  UNL     1      -1.629   1.768   7.230  1.00  0.00     0.132 C 
BRANCH   5   6
HETATM    6  C3  UNL     1      -0.681   2.055   8.361  1.00  0.00     0.094 C 
BRANCH   6   7
HETATM    7  S1  UNL     1       1.019   1.555   7.940  1.00  0.00    -0.163 SA
BRANCH   7   8
HETATM    8  C4  UNL     1       1.423   0.068   8.937  1.00  0.00     0.047 C 
HETATM    9  C5  UNL     1       1.826  -1.076   8.058  1.00  0.00     0.015 C 
HETATM   10  C6  UNL     1       0.689  -1.894   7.546  1.00  0.00     0.001 C 
HETATM   11  C7  UNL     1      -0.070  -2.421   8.758  1.00  0.00     0.000 C 
HETATM   12  C8  UNL     1      -0.716  -1.182   9.393  1.00  0.00     0.001 C 
HETATM   13  C9  UNL     1       0.331  -0.249   9.905  1.00  0.00     0.015 C 
ENDBRANCH   7   8
ENDBRANCH   6   7
ENDBRANCH   5   6
ENDBRANCH   3   5
BRANCH   2  14
HETATM   14  C10 UNL     1      -0.304   0.941   3.705  1.00  0.00     0.078 C 
HETATM   15  C11 UNL     1      -1.221   0.186   2.797  1.00  0.00     0.014 C 
HETATM   16  C12 UNL     1      -1.294  -1.182   3.442  1.00  0.00     0.001 C 
HETATM   17  C13 UNL     1       0.190  -1.425   3.746  1.00  0.00     0.001 C 
HETATM   18  C14 UNL     1       0.643  -0.080   4.283  1.00  0.00     0.014 C 
ENDBRANCH   2  14
TORSDOF 5
ENDMDL
MODEL 2
REMARK VINA RESULT: -6.447403703      2.173      3.644
REMARK  5 active torsions:
REMARK  status: ('A' for Active; 'I' for Inactive)
REMARK       I    between atoms: C1_2  and  N1_3 
REMARK    1  A    between atoms: C1_2  and  C10_14 
REMARK    2  A    between atoms: N1_3  and  C2_5 
REMARK    3  A    between atoms: C2_5  and  C3_6 
REMARK    4  A    between atoms: C3_6  and  S1_7 
REMARK    5  A    between atoms: S1_7  and  C4_8 
ROOT
HETATM    1  O1  UNL     1       1.728  -2.682   4.625  1.00  0.00    -0.273 OA
HETATM    2  C1  UNL     1       1.041  -1.667   4.857  1.00  0.00     0.221 C 
HETATM    3  N1  UNL     1       0.948  -1.161   6.167  1.00  0.00    -0.360 N 
ATOM      4  H1  UNL     1       0.376  -0.335   6.339  1.00  0.00     0.162 HD
ENDROOT
BRANCH   3   5
HETATM    5  C2  UNL     1       1.635  -1.775   7.263  1.00  0.00     0.132 C 
BRANCH   5   6
HETATM    6  C3  UNL     1       0.668  -2.115   8.363  1.00  0.00     0.094 C 
BRANCH   6   7
HETATM    7  S1  UNL     1      -1.021  -1.578   7.945  1.00  0.00    -0.163 SA
BRANCH   7   8
HETATM    8  C4  UNL     1      -1.397  -0.093   8.954  1.00  0.00     0.047 C 
HETATM    9  C5  UNL     1      -1.847   1.045   8.090  1.00  0.00     0.015 C 
HETATM   10  C6  UNL     1      -0.740   1.872   7.529  1.00  0.00     0.001 C 
HETATM   11  C7  UNL     1       0.065   2.410   8.708  1.00  0.00     0.000 C 
HETATM   12  C8  UNL     1       0.747   1.178   9.319  1.00  0.00     0.001 C 
HETATM   13  C9  UNL     1      -0.269   0.237   9.875  1.00  0.00     0.015 C 
ENDBRANCH   7   8
ENDBRANCH   6   7
ENDBRANCH   5   6
ENDBRANCH   3   5
BRANCH   2  14
HETATM   14  C10 UNL     1       0.335  -1.023   3.711  1.00  0.00     0.078 C 
HETATM   15  C11 UNL     1       1.245  -0.235   2.825  1.00  0.00     0.014 C 
HETATM   16  C12 UNL     1       1.251   1.136   3.470  1.00  0.00     0.001 C 
HETATM   17  C13 UNL     1      -0.249   1.322   3.737  1.00  0.00     0.001 C 
HETATM   18  C14 UNL     1      -0.663  -0.039   4.265  1.00  0.00     0.014 C 
ENDBRANCH   2  14
TORSDOF 5
ENDMDL
MODEL 3
REMARK VINA RESULT: -6.351803179      0.894      1.616
REMARK  5 active torsions:
REMARK  status: ('A' for Active; 'I' for Inactive)
REMARK       I    between atoms: C1_2  and  N1_3 
REMARK    1  A    between atoms: C1_2  and  C10_14 
REMARK    2  A    between atoms: N1_3  and  C2_5 
REMARK    3  A    between atoms: C2_5  and  C3_6 
REMARK    4  A    between atoms: C3_6  and  S1_7 
REMARK    5  A    between atoms: S1_7  and  C4_8 
ROOT
HETATM    1  O1  UNL     1      -1.686   2.536   4.170  1.00  0.00    -0.273 OA
HETATM    2  C1  UNL     1      -0.953   1.607   4.562  1.00  0.00     0.221 C 
HETATM    3  N1  UNL     1      -0.839   1.327   5.936  1.00  0.00    -0.360 N 
ATOM      4  H1  UNL     1      -0.228   0.568   6.239  1.00  0.00     0.162 HD
ENDROOT
BRANCH   3   5
HETATM    5  C2  UNL     1      -1.557   2.079   6.921  1.00  0.00     0.132 C 
BRANCH   5   6
HETATM    6  C3  UNL     1      -1.165   1.638   8.304  1.00  0.00     0.094 C 
BRANCH   6   7
HETATM    7  S1  UNL     1      -1.612  -0.103   8.593  1.00  0.00    -0.163 SA
BRANCH   7   8
HETATM    8  C4  UNL     1      -0.138  -0.947   9.285  1.00  0.00     0.047 C 
HETATM    9  C5  UNL     1       1.047  -0.031   9.305  1.00  0.00     0.015 C 
HETATM   10  C6  UNL     1       1.828  -0.001   8.034  1.00  0.00     0.001 C 
HETATM   11  C7  UNL     1       2.287  -1.427   7.752  1.00  0.00     0.000 C 
HETATM   12  C8  UNL     1       1.003  -2.200   7.420  1.00  0.00     0.001 C 
HETATM   13  C9  UNL     1       0.104  -2.257   8.610  1.00  0.00     0.015 C 
ENDBRANCH   7   8
ENDBRANCH   6   7
ENDBRANCH   5   6
ENDBRANCH   3   5
BRANCH   2  14
HETATM   14  C10 UNL     1      -0.214   0.817   3.533  1.00  0.00     0.078 C 
HETATM   15  C11 UNL     1      -1.113   0.020   2.643  1.00  0.00     0.014 C 
HETATM   16  C12 UNL     1      -1.271  -1.285   3.396  1.00  0.00     0.001 C 
HETATM   17  C13 UNL     1       0.185  -1.552   3.797  1.00  0.00     0.001 C 
HETATM   18  C14 UNL     1       0.662  -0.182   4.244  1.00  0.00     0.014 C 
ENDBRANCH   2  14
TORSDOF 5
ENDMDL
MODEL 4
REMARK VINA RESULT: -6.343524358      1.935      3.389
REMARK  5 active torsions:
REMARK  status: ('A' for Active; 'I' for Inactive)
REMARK       I    between atoms: C1_2  and  N1_3 
REMARK    1  A    between atoms: C1_2  and  C10_14 
REMARK    2  A    between atoms: N1_3  and  C2_5 
REMARK    3  A    between atoms: C2_5  and  C3_6 
REMARK    4  A    between atoms: C3_6  and  S1_7 
REMARK    5  A    between atoms: S1_7  and  C4_8 
ROOT
HETATM    1  O1  UNL     1       1.771  -1.850   3.834  1.00  0.00    -0.273 OA
HETATM    2  C1  UNL     1       0.796  -1.282   4.365  1.00  0.00     0.221 C 
HETATM    3  N1  UNL     1       0.601  -1.365   5.755  1.00  0.00    -0.360 N 
ATOM      4  H1  UNL     1      -0.206  -0.900   6.171  1.00  0.00     0.162 HD
ENDROOT
BRANCH   3   5
HETATM    5  C2  UNL     1       1.505  -2.082   6.603  1.00  0.00     0.132 C 
BRANCH   5   6
HETATM    6  C3  UNL     1       1.275  -1.716   8.043  1.00  0.00     0.094 C 
BRANCH   6   7
HETATM    7  S1  UNL     1       1.676   0.033   8.351  1.00  0.00    -0.163 SA
BRANCH   7   8
HETATM    8  C4  UNL     1       0.235   0.792   9.198  1.00  0.00     0.047 C 
HETATM    9  C5  UNL     1      -0.941  -0.135   9.192  1.00  0.00     0.015 C 
HETATM   10  C6  UNL     1      -1.789  -0.053   7.968  1.00  0.00     0.001 C 
HETATM   11  C7  UNL     1      -2.270   1.388   7.847  1.00  0.00     0.000 C 
HETATM   12  C8  UNL     1      -1.010   2.203   7.523  1.00  0.00     0.001 C 
HETATM   13  C9  UNL     1      -0.049   2.157   8.664  1.00  0.00     0.015 C 
ENDBRANCH   7   8
ENDBRANCH   6   7
ENDBRANCH   5   6
ENDBRANCH   3   5
BRANCH   2  14
HETATM   14  C10 UNL     1      -0.139  -0.525   3.481  1.00  0.00     0.078 C 
HETATM   15  C11 UNL     1       0.561   0.278   2.432  1.00  0.00     0.014 C 
HETATM   16  C12 UNL     1       0.822   1.598   3.128  1.00  0.00     0.001 C 
HETATM   17  C13 UNL     1      -0.542   1.838   3.788  1.00  0.00     0.001 C 
HETATM   18  C14 UNL     1      -0.894   0.464   4.330  1.00  0.00     0.014 C 
ENDBRANCH   2  14
TORSDOF 5
ENDMDL
MODEL 5
REMARK VINA RESULT: -6.285820915      2.054      3.382
REMARK  5 active torsions:
REMARK  status: ('A' for Active; 'I' for Inactive)
REMARK       I    between atoms: C1_2  and  N1_3 
REMARK    1  A    between atoms: C1_2  and  C10_14 
REMARK    2  A    between atoms: N1_3  and  C2_5 
REMARK    3  A    between atoms: C2_5  and  C3_6 
REMARK    4  A    between atoms: C3_6  and  S1_7 
REMARK    5  A    between atoms: S1_7  and  C4_8 
ROOT
HETATM    1  O1  UNL     1       0.224  -2.158   3.477  1.00  0.00    -0.273 OA
HETATM    2  C1  UNL     1       0.128  -1.099   4.127  1.00  0.00     0.221 C 
HETATM    3  N1  UNL     1       0.694  -1.003   5.411  1.00  0.00    -0.360 N 
ATOM      4  H1  UNL     1       0.599  -0.131   5.931  1.00  0.00     0.162 HD
ENDROOT
BRANCH   3   5
HETATM    5  C2  UNL     1       1.401  -2.097   6.007  1.00  0.00     0.132 C 
BRANCH   5   6
HETATM    6  C3  UNL     1       1.718  -1.793   7.445  1.00  0.00     0.094 C 
BRANCH   6   7
HETATM    7  S1  UNL     1       0.308  -2.182   8.529  1.00  0.00    -0.163 SA
BRANCH   7   8
HETATM    8  C4  UNL     1      -0.196  -0.627   9.364  1.00  0.00     0.047 C 
HETATM    9  C5  UNL     1      -1.548  -0.181   8.900  1.00  0.00     0.015 C 
HETATM   10  C6  UNL     1      -1.535   0.648   7.660  1.00  0.00     0.001 C 
HETATM   11  C7  UNL     1      -0.661   1.865   7.939  1.00  0.00     0.000 C 
HETATM   12  C8  UNL     1       0.764   1.310   8.071  1.00  0.00     0.001 C 
HETATM   13  C9  UNL     1       0.870   0.413   9.259  1.00  0.00     0.015 C 
ENDBRANCH   7   8
ENDBRANCH   6   7
ENDBRANCH   5   6
ENDBRANCH   3   5
BRANCH   2  14
HETATM   14  C10 UNL     1      -0.600   0.044   3.499  1.00  0.00     0.078 C 
HETATM   15  C11 UNL     1      -0.399   0.131   2.020  1.00  0.00     0.014 C 
HETATM   16  C12 UNL     1       0.850   0.978   1.893  1.00  0.00     0.001 C 
HETATM   17  C13 UNL     1       0.532   2.093   2.898  1.00  0.00     0.001 C 
HETATM   18  C14 UNL     1      -0.050   1.325   4.071  1.00  0.00     0.014 C 
ENDBRANCH   2  14
TORSDOF 5
ENDMDL
