MODEL 1
REMARK VINA RESULT: -6.822150346      0.000      0.000
REMARK  6 active torsions:
REMARK  status: ('A' for Active; 'I' for Inactive)
REMARK    1  A    between atoms: C5_5  and  C6_6 
REMARK    2  A    between atoms: C6_6  and  C7_7 
REMARK    3  A    between atoms: C7_7  and  N1_8 
REMARK    4  A    between atoms: N1_8  and  C8_10 
REMARK    5  A    between atoms: C8_10  and  C9_11 
REMARK    6  A    between atoms: C9_11  and  C10_12 
ROOT
HETATM    1  N1  UNL     1      -1.552   2.013   7.624  1.00  0.00    -0.421 N 
ATOM      2  H1  UNL     1      -2.447   1.710   8.009  1.00  0.00     0.153 HD
ENDROOT
BRANCH   1   3
HETATM    3  C7  UNL     1      -0.498   2.510   8.437  1.00  0.00     0.114 C 
BRANCH   3   4
HETATM    4  C6  UNL     1      -0.006   1.667   9.534  1.00  0.00     0.024 C 
BRANCH   4   5
HETATM    5  C5  UNL     1       0.210   0.223   9.318  1.00  0.00    -0.013 C 
HETATM    6  C4  UNL     1       0.201  -0.641  10.554  1.00  0.00     0.005 C 
HETATM    7  C3  UNL     1      -0.733  -1.850  10.386  1.00  0.00     0.000 C 
HETATM    8  C2  UNL     1      -0.205  -2.877   9.452  1.00  0.00     0.000 C 
HETATM    9  C1  UNL     1       0.320  -2.337   8.156  1.00  0.00     0.000 C 
HETATM   10  C16 UNL     1       1.585  -1.572   8.323  1.00  0.00     0.000 C 
HETATM   11  C15 UNL     1       1.418  -0.094   8.462  1.00  0.00     0.005 C 
ENDBRANCH   4   5
ENDBRANCH   3   4
ENDBRANCH   1   3
BRANCH   1  12
HETATM   12  C8  UNL     1      -1.261   1.971   6.222  1.00  0.00     0.114 C 
BRANCH  12  13
HETATM   13  C9  UNL     1      -0.865   0.571   5.806  1.00  0.00     0.024 C 
BRANCH  13  14
HETATM   14  C10 UNL     1       0.398   0.581   4.966  1.00  0.00    -0.009 C 
HETATM   15  C11 UNL     1       0.764  -0.859   4.686  1.00  0.00     0.031 C 
HETATM   16  C12 UNL     1      -0.135  -1.442   3.639  1.00  0.00     0.168 C 
HETATM   17  O1  UNL     1      -0.166  -0.685   2.477  1.00  0.00    -0.391 OA
HETATM   18  C13 UNL     1      -0.760   0.537   2.760  1.00  0.00     0.168 C 
HETATM   19  C14 UNL     1       0.219   1.293   3.649  1.00  0.00     0.031 C 
ENDBRANCH  13  14
ENDBRANCH  12  13
ENDBRANCH   1  12
TORSDOF 6
ENDMDL
MODEL 2
REMARK VINA RESULT: -6.749635492      1.666      3.478
REMARK  6 active torsions:
REMARK  status: ('A' for Active; 'I' for Inactive)
REMARK    1  A    between atoms: C5_5  and  C6_6 
REMARK    2  A    between atoms: C6_6  and  C7_7 
REMARK    3  A    between atoms: C7_7  and  N1_8 
REMARK    4  A    between atoms: N1_8  and  C8_10 
REMARK    5  A    between atoms: C8_10  and  C9_11 
REMARK    6  A    between atoms: C9_11  and  C10_12 
ROOT
HETATM    1  N1  UNL     1       1.490  -1.925   7.702  1.00  0.00    -0.421 N 
ATOM      2  H1  UNL     1       2.347  -1.520   8.080  1.00  0.00     0.153 HD
ENDROOT
BRANCH   1   3
HETATM    3  C7  UNL     1       0.499  -2.525   8.526  1.00  0.00     0.114 C 
BRANCH   3   4
HETATM    4  C6  UNL     1      -0.190  -1.686   9.514  1.00  0.00     0.024 C 
BRANCH   4   5
HETATM    5  C5  UNL     1      -0.333  -0.235   9.282  1.00  0.00    -0.013 C 
HETATM    6  C4  UNL     1      -0.293   0.639  10.510  1.00  0.00     0.005 C 
HETATM    7  C3  UNL     1       0.698   1.800  10.339  1.00  0.00     0.000 C 
HETATM    8  C2  UNL     1       0.228   2.842   9.391  1.00  0.00     0.000 C 
HETATM    9  C1  UNL     1      -0.310   2.315   8.095  1.00  0.00     0.000 C 
HETATM   10  C16 UNL     1      -1.612   1.613   8.258  1.00  0.00     0.000 C 
HETATM   11  C15 UNL     1      -1.518   0.130   8.412  1.00  0.00     0.005 C 
ENDBRANCH   4   5
ENDBRANCH   3   4
ENDBRANCH   1   3
BRANCH   1  12
HETATM   12  C8  UNL     1       1.192  -1.931   6.301  1.00  0.00     0.114 C 
BRANCH  12  13
HETATM   13  C9  UNL     1       0.827  -0.538   5.832  1.00  0.00     0.024 C 
BRANCH  13  14
HETATM   14  C10 UNL     1      -0.410  -0.558   4.955  1.00  0.00    -0.009 C 
HETATM   15  C11 UNL     1      -0.767   0.879   4.649  1.00  0.00     0.031 C 
HETATM   16  C12 UNL     1       0.162   1.451   3.623  1.00  0.00     0.168 C 
HETATM   17  O1  UNL     1       0.227   0.681   2.471  1.00  0.00    -0.391 OA
HETATM   18  C13 UNL     1       0.812  -0.538   2.784  1.00  0.00     0.168 C 
HETATM   19  C14 UNL     1      -0.192  -1.284   3.652  1.00  0.00     0.031 C 
ENDBRANCH  13  14
ENDBRANCH  12  13
ENDBRANCH   1  12
TORSDOF 6
ENDMDL
MODEL 3
REMARK VINA RESULT: -6.747980679      2.017      5.352
REMARK  6 active torsions:
REMARK  status: ('A' for Active; 'I' for Inactive)
REMARK    1  A    between atoms: C5_5  and  C6_6 
REMARK    2  A    between atoms: C6_6  and  C7_7 
REMARK    3  A    between atoms: C7_7  and  N1_8 
REMARK    4  A    between atoms: N1_8  and  C8_10 
REMARK    5  A    between atoms: C8_10  and  C9_11 
REMARK    6  A    between atoms: C9_11  and  C10_12 
ROOT
HETATM    1  N1  UNL     1      -1.954   2.073   7.117  1.00  0.00    -0.421 N 
ATOM      2  H1  UNL     1      -2.938   1.809   7.174  1.00  0.00     0.153 HD
ENDROOT
BRANCH   1   3
HETATM    3  C7  UNL     1      -1.398   2.715   5.978  1.00  0.00     0.114 C 
BRANCH   3   4
HETATM    4  C6  UNL     1      -1.544   2.064   4.670  1.00  0.00     0.024 C 
BRANCH   4   5
HETATM    5  C5  UNL     1      -0.436   1.262   4.114  1.00  0.00    -0.013 C 
HETATM    6  C4  UNL     1       0.400   0.504   5.115  1.00  0.00     0.005 C 
HETATM    7  C3  UNL     1       0.558  -0.970   4.711  1.00  0.00     0.000 C 
HETATM    8  C2  UNL     1       1.452  -1.168   3.542  1.00  0.00     0.000 C 
HETATM    9  C1  UNL     1       1.186  -0.252   2.385  1.00  0.00     0.000 C 
HETATM   10  C16 UNL     1       1.565   1.159   2.671  1.00  0.00     0.000 C 
HETATM   11  C15 UNL     1       0.452   2.028   3.157  1.00  0.00     0.005 C 
ENDBRANCH   4   5
ENDBRANCH   3   4
ENDBRANCH   1   3
BRANCH   1  12
HETATM   12  C8  UNL     1      -1.026   1.826   8.181  1.00  0.00     0.114 C 
BRANCH  12  13
HETATM   13  C9  UNL     1      -1.054   0.366   8.578  1.00  0.00     0.024 C 
BRANCH  13  14
HETATM   14  C10 UNL     1       0.193  -0.019   9.351  1.00  0.00    -0.009 C 
HETATM   15  C11 UNL     1      -0.256  -0.770  10.584  1.00  0.00     0.031 C 
HETATM   16  C12 UNL     1      -0.679  -2.164  10.233  1.00  0.00     0.168 C 
HETATM   17  O1  UNL     1       0.297  -2.860   9.534  1.00  0.00    -0.391 OA
HETATM   18  C13 UNL     1       0.468  -2.260   8.295  1.00  0.00     0.168 C 
HETATM   19  C14 UNL     1       1.119  -0.909   8.561  1.00  0.00     0.031 C 
ENDBRANCH  13  14
ENDBRANCH  12  13
ENDBRANCH   1  12
TORSDOF 6
ENDMDL
MODEL 4
REMARK VINA RESULT: -6.743163225      2.534      6.009
REMARK  6 active torsions:
REMARK  status: ('A' for Active; 'I' for Inactive)
REMARK    1  A    between atoms: C5_5  and  C6_6 
REMARK    2  A    between atoms: C6_6  and  C7_7 
REMARK    3  A    between atoms: C7_7  and  N1_8 
REMARK    4  A    between atoms: N1_8  and  C8_10 
REMARK    5  A    between atoms: C8_10  and  C9_11 
REMARK    6  A    between atoms: C9_11  and  C10_12 
ROOT
HETATM    1  N1  UNL     1       1.974  -2.074   7.096  1.00  0.00    -0.421 N 
ATOM      2  H1  UNL     1       2.956  -1.802   7.161  1.00  0.00     0.153 HD
ENDROOT
BRANCH   1   3
HETATM    3  C7  UNL     1       1.434  -2.721   5.951  1.00  0.00     0.114 C 
BRANCH   3   4
HETATM    4  C6  UNL     1       1.571  -2.060   4.647  1.00  0.00     0.024 C 
BRANCH   4   5
HETATM    5  C5  UNL     1       0.451  -1.271   4.097  1.00  0.00    -0.013 C 
HETATM    6  C4  UNL     1      -0.399  -0.536   5.102  1.00  0.00     0.005 C 
HETATM    7  C3  UNL     1      -0.579   0.939   4.712  1.00  0.00     0.000 C 
HETATM    8  C2  UNL     1      -1.474   1.134   3.543  1.00  0.00     0.000 C 
HETATM    9  C1  UNL     1      -1.191   0.233   2.378  1.00  0.00     0.000 C 
HETATM   10  C16 UNL     1      -1.549  -1.186   2.650  1.00  0.00     0.000 C 
HETATM   11  C15 UNL     1      -0.423  -2.043   3.130  1.00  0.00     0.005 C 
ENDBRANCH   4   5
ENDBRANCH   3   4
ENDBRANCH   1   3
BRANCH   1  12
HETATM   12  C8  UNL     1       1.036  -1.834   8.151  1.00  0.00     0.114 C 
BRANCH  12  13
HETATM   13  C9  UNL     1       1.060  -0.377   8.560  1.00  0.00     0.024 C 
BRANCH  13  14
HETATM   14  C10 UNL     1      -0.209   0.012   9.292  1.00  0.00    -0.009 C 
HETATM   15  C11 UNL     1       0.203   0.729  10.558  1.00  0.00     0.031 C 
HETATM   16  C12 UNL     1       0.662   2.123  10.254  1.00  0.00     0.168 C 
HETATM   17  O1  UNL     1      -0.275   2.850   9.534  1.00  0.00    -0.391 OA
HETATM   18  C13 UNL     1      -0.407   2.280   8.276  1.00  0.00     0.168 C 
HETATM   19  C14 UNL     1      -1.090   0.935   8.487  1.00  0.00     0.031 C 
ENDBRANCH  13  14
ENDBRANCH  12  13
ENDBRANCH   1  12
TORSDOF 6
ENDMDL
MODEL 5
REMARK VINA RESULT: -6.721628057      2.088      3.657
REMARK  6 active torsions:
REMARK  status: ('A' for Active; 'I' for Inactive)
REMARK    1  A    between atoms: C5_5  and  C6_6 
REMARK    2  A    between atoms: C6_6  and  C7_7 
REMARK    3  A    between atoms: C7_7  and  N1_8 
REMARK    4  A    between atoms: N1_8  and  C8_10 
REMARK    5  A    between atoms: C8_10  and  C9_11 
REMARK    6  A    between atoms: C9_11  and  C10_12 
ROOT
HETATM    1  N1  UNL     1       2.055  -2.866   6.026  1.00  0.00    -0.421 N 
ATOM      2  H1  UNL     1       2.885  -3.383   6.321  1.00  0.00     0.153 HD
ENDROOT
BRANCH   1   3
HETATM    3  C7  UNL     1       1.160  -2.264   6.951  1.00  0.00     0.114 C 
BRANCH   3   4
HETATM    4  C6  UNL     1       1.681  -1.231   7.855  1.00  0.00     0.024 C 
BRANCH   4   5
HETATM    5  C5  UNL     1       0.835  -0.080   8.227  1.00  0.00    -0.013 C 
HETATM    6  C4  UNL     1       0.912   0.360   9.668  1.00  0.00     0.005 C 
HETATM    7  C3  UNL     1       1.152   1.873   9.780  1.00  0.00     0.000 C 
HETATM    8  C2  UNL     1      -0.033   2.687   9.406  1.00  0.00     0.000 C 
HETATM    9  C1  UNL     1      -0.699   2.276   8.128  1.00  0.00     0.000 C 
HETATM   10  C16 UNL     1      -1.401   0.969   8.241  1.00  0.00     0.000 C 
HETATM   11  C15 UNL     1      -0.609  -0.217   7.794  1.00  0.00     0.005 C 
ENDBRANCH   4   5
ENDBRANCH   3   4
ENDBRANCH   1   3
BRANCH   1  12
HETATM   12  C8  UNL     1       1.704  -2.692   4.649  1.00  0.00     0.114 C 
BRANCH  12  13
HETATM   13  C9  UNL     1       0.586  -1.680   4.511  1.00  0.00     0.024 C 
BRANCH  13  14
HETATM   14  C10 UNL     1       1.009  -0.504   3.653  1.00  0.00    -0.009 C 
HETATM   15  C11 UNL     1       0.179  -0.548   2.390  1.00  0.00     0.031 C 
HETATM   16  C12 UNL     1      -1.218  -0.075   2.655  1.00  0.00     0.168 C 
HETATM   17  O1  UNL     1      -1.255   1.177   3.251  1.00  0.00    -0.391 OA
HETATM   18  C13 UNL     1      -0.707   1.080   4.523  1.00  0.00     0.168 C 
HETATM   19  C14 UNL     1       0.781   0.825   4.327  1.00  0.00     0.031 C 
ENDBRANCH  13  14
ENDBRANCH  12  13
ENDBRANCH   1  12
TORSDOF 6
ENDMDL
