MODEL 1
REMARK VINA RESULT: -8.035146322      0.000      0.000
REMARK  7 active torsions:
REMARK  status: ('A' for Active; 'I' for Inactive)
REMARK    1  A    between atoms: C2_2  and  O1_3 
REMARK    2  A    between atoms: C2_2  and  C3_5 
REMARK    3  A    between atoms: C3_5  and  C5_7 
REMARK    4  A    between atoms: C3_5  and  C9_19 
REMARK    5  A    between atoms: C8_13  and  N2_14 
REMARK    6  A    between atoms: C10_24  and  S1_25 
REMARK    7  A    between atoms: S1_25  and  N6_26 
ROOT
HETATM    1  C3  UNL     1     -20.531 -11.207  -4.590  1.00  0.00     0.091 C 
HETATM    2  C4  UNL     1     -21.064 -12.564  -5.037  1.00  0.00     0.034 C 
ENDROOT
BRANCH   1   3
HETATM    3  C2  UNL     1     -19.354 -11.381  -3.662  1.00  0.00     0.136 C 
HETATM    4  C1  UNL     1     -19.738 -11.643  -2.251  1.00  0.00     0.041 C 
BRANCH   3   5
HETATM    5  O1  UNL     1     -18.528 -12.396  -4.108  1.00  0.00    -0.394 OA
ATOM      6  H1  UNL     1     -17.661 -12.045  -4.272  1.00  0.00     0.210 HD
ENDBRANCH   3   5
ENDBRANCH   1   3
BRANCH   1   7
HETATM    7  C5  UNL     1     -20.193 -10.420  -5.796  1.00  0.00     0.051 A 
HETATM    8  C6  UNL     1     -21.142 -10.175  -6.776  1.00  0.00     0.101 A 
HETATM    9  C7  UNL     1     -20.858  -9.440  -7.916  1.00  0.00     0.261 A 
HETATM   10  O2  UNL     1     -21.772  -9.255  -8.767  1.00  0.00    -0.268 OA
HETATM   11  N1  UNL     1     -19.624  -8.957  -8.062  1.00  0.00    -0.156 N 
HETATM   12  C8  UNL     1     -18.674  -9.172  -7.137  1.00  0.00     0.679 A 
ATOM     13  H1  UNL     1     -19.396  -8.413  -8.894  1.00  0.00     0.187 HD
HETATM   14  N3  UNL     1     -18.976  -9.897  -6.026  1.00  0.00    -0.194 N 
ATOM     15  H3  UNL     1     -18.243 -10.050  -5.333  1.00  0.00     0.184 HD
BRANCH  12  16
HETATM   16  N2  UNL     1     -17.470  -8.716  -7.258  1.00  0.00    -0.234 N 
ATOM     17  H22 UNL     1     -17.348  -7.781  -7.646  1.00  0.00     0.174 HD
ATOM     18  H21 UNL     1     -16.649  -9.256  -6.981  1.00  0.00     0.174 HD
ENDBRANCH  12  16
ENDBRANCH   1   7
BRANCH   1  19
HETATM   19  C9  UNL     1     -21.676 -10.520  -3.924  1.00  0.00     0.158 A 
HETATM   20  N4  UNL     1     -21.699  -9.253  -3.445  1.00  0.00    -0.280 N 
HETATM   21  N5  UNL     1     -22.892  -9.017  -2.931  1.00  0.00    -0.267 N 
ATOM     22  H4  UNL     1     -20.924  -8.591  -3.477  1.00  0.00     0.189 HD
HETATM   23  C10 UNL     1     -23.625 -10.116  -3.076  1.00  0.00     0.283 A 
ATOM     24  H5  UNL     1     -23.198  -8.145  -2.498  1.00  0.00     0.190 HD
HETATM   25  O5  UNL     1     -22.868 -10.997  -3.675  1.00  0.00    -0.266 OA
BRANCH  23  26
HETATM   26  S1  UNL     1     -25.305 -10.375  -2.570  1.00  0.00     0.297 S 
HETATM   27  O3  UNL     1     -25.913  -9.058  -2.133  1.00  0.00    -0.197 OA
HETATM   28  O4  UNL     1     -26.088 -10.829  -3.770  1.00  0.00    -0.197 OA
BRANCH  26  29
HETATM   29  N6  UNL     1     -25.320 -11.544  -1.321  1.00  0.00    -0.321 N 
ATOM     30  H62 UNL     1     -25.818 -11.449  -0.436  1.00  0.00     0.169 HD
ATOM     31  H61 UNL     1     -24.753 -12.339  -1.616  1.00  0.00     0.169 HD
ENDBRANCH  26  29
ENDBRANCH  23  26
ENDBRANCH   1  19
TORSDOF 7
ENDMDL
MODEL 2
REMARK VINA RESULT: -8.023974680      3.395      5.828
REMARK  7 active torsions:
REMARK  status: ('A' for Active; 'I' for Inactive)
REMARK    1  A    between atoms: C2_2  and  O1_3 
REMARK    2  A    between atoms: C2_2  and  C3_5 
REMARK    3  A    between atoms: C3_5  and  C5_7 
REMARK    4  A    between atoms: C3_5  and  C9_19 
REMARK    5  A    between atoms: C8_13  and  N2_14 
REMARK    6  A    between atoms: C10_24  and  S1_25 
REMARK    7  A    between atoms: S1_25  and  N6_26 
ROOT
HETATM    1  C3  UNL     1     -25.859 -11.233  -3.235  1.00  0.00     0.091 C 
HETATM    2  C4  UNL     1     -26.109 -11.481  -4.718  1.00  0.00     0.034 C 
ENDROOT
BRANCH   1   3
HETATM    3  C2  UNL     1     -26.031 -12.508  -2.448  1.00  0.00     0.136 C 
HETATM    4  C1  UNL     1     -26.017 -12.310  -0.975  1.00  0.00     0.041 C 
BRANCH   3   5
HETATM    5  O1  UNL     1     -27.200 -13.151  -2.811  1.00  0.00    -0.394 OA
ATOM      6  H1  UNL     1     -27.079 -14.090  -2.736  1.00  0.00     0.210 HD
ENDBRANCH   3   5
ENDBRANCH   1   3
BRANCH   1   7
HETATM    7  C5  UNL     1     -24.507 -10.650  -3.083  1.00  0.00     0.051 A 
HETATM    8  C6  UNL     1     -23.486 -10.979  -3.961  1.00  0.00     0.101 A 
HETATM    9  C7  UNL     1     -22.211 -10.448  -3.848  1.00  0.00     0.261 A 
HETATM   10  O2  UNL     1     -21.330 -10.792  -4.683  1.00  0.00    -0.268 OA
HETATM   11  N1  UNL     1     -21.972  -9.592  -2.854  1.00  0.00    -0.156 N 
HETATM   12  C8  UNL     1     -22.933  -9.246  -1.981  1.00  0.00     0.679 A 
ATOM     13  H1  UNL     1     -21.040  -9.190  -2.755  1.00  0.00     0.187 HD
HETATM   14  N3  UNL     1     -24.177  -9.780  -2.112  1.00  0.00    -0.194 N 
ATOM     15  H3  UNL     1     -24.895  -9.507  -1.441  1.00  0.00     0.184 HD
BRANCH  12  16
HETATM   16  N2  UNL     1     -22.724  -8.420  -1.009  1.00  0.00    -0.234 N 
ATOM     17  H22 UNL     1     -22.324  -7.509  -1.231  1.00  0.00     0.174 HD
ATOM     18  H21 UNL     1     -22.943  -8.648  -0.039  1.00  0.00     0.174 HD
ENDBRANCH  12  16
ENDBRANCH   1   7
BRANCH   1  19
HETATM   19  C9  UNL     1     -26.837 -10.183  -2.827  1.00  0.00     0.158 A 
HETATM   20  N4  UNL     1     -28.189 -10.285  -2.825  1.00  0.00    -0.280 N 
HETATM   21  N5  UNL     1     -28.697  -9.144  -2.397  1.00  0.00    -0.267 N 
ATOM     22  H4  UNL     1     -28.724 -11.106  -3.106  1.00  0.00     0.189 HD
HETATM   23  C10 UNL     1     -27.689  -8.320  -2.129  1.00  0.00     0.283 A 
ATOM     24  H5  UNL     1     -29.690  -8.931  -2.291  1.00  0.00     0.190 HD
HETATM   25  O5  UNL     1     -26.589  -8.973  -2.397  1.00  0.00    -0.266 OA
BRANCH  23  26
HETATM   26  S1  UNL     1     -27.779  -6.655  -1.526  1.00  0.00     0.297 S 
HETATM   27  O3  UNL     1     -29.008  -6.495  -0.656  1.00  0.00    -0.197 OA
HETATM   28  O4  UNL     1     -26.592  -6.419  -0.634  1.00  0.00    -0.197 OA
BRANCH  26  29
HETATM   29  N6  UNL     1     -27.787  -5.593  -2.867  1.00  0.00    -0.321 N 
ATOM     30  H62 UNL     1     -27.276  -4.711  -2.919  1.00  0.00     0.169 HD
ATOM     31  H61 UNL     1     -28.384  -5.992  -3.591  1.00  0.00     0.169 HD
ENDBRANCH  26  29
ENDBRANCH  23  26
ENDBRANCH   1  19
TORSDOF 7
ENDMDL
MODEL 3
REMARK VINA RESULT: -7.944347539      3.415      5.222
REMARK  7 active torsions:
REMARK  status: ('A' for Active; 'I' for Inactive)
REMARK    1  A    between atoms: C2_2  and  O1_3 
REMARK    2  A    between atoms: C2_2  and  C3_5 
REMARK    3  A    between atoms: C3_5  and  C5_7 
REMARK    4  A    between atoms: C3_5  and  C9_19 
REMARK    5  A    between atoms: C8_13  and  N2_14 
REMARK    6  A    between atoms: C10_24  and  S1_25 
REMARK    7  A    between atoms: S1_25  and  N6_26 
ROOT
HETATM    1  C3  UNL     1     -25.621 -10.395  -3.035  1.00  0.00     0.091 C 
HETATM    2  C4  UNL     1     -26.615 -10.865  -4.091  1.00  0.00     0.034 C 
ENDROOT
BRANCH   1   3
HETATM    3  C2  UNL     1     -25.376 -11.482  -2.018  1.00  0.00     0.136 C 
HETATM    4  C1  UNL     1     -26.620 -12.066  -1.454  1.00  0.00     0.041 C 
BRANCH   3   5
HETATM    5  O1  UNL     1     -24.602 -12.491  -2.561  1.00  0.00    -0.394 OA
ATOM      6  H1  UNL     1     -23.864 -12.108  -3.021  1.00  0.00     0.210 HD
ENDBRANCH   3   5
ENDBRANCH   1   3
BRANCH   1   7
HETATM    7  C5  UNL     1     -24.382  -9.969  -3.722  1.00  0.00     0.051 A 
HETATM    8  C6  UNL     1     -24.433  -9.290  -4.929  1.00  0.00     0.101 A 
HETATM    9  C7  UNL     1     -23.292  -8.876  -5.596  1.00  0.00     0.261 A 
HETATM   10  O2  UNL     1     -23.413  -8.262  -6.692  1.00  0.00    -0.268 OA
HETATM   11  N1  UNL     1     -22.108  -9.144  -5.044  1.00  0.00    -0.156 N 
HETATM   12  C8  UNL     1     -22.013  -9.800  -3.876  1.00  0.00     0.679 A 
ATOM     13  H1  UNL     1     -21.256  -8.846  -5.520  1.00  0.00     0.187 HD
HETATM   14  N3  UNL     1     -23.148 -10.198  -3.239  1.00  0.00    -0.194 N 
ATOM     15  H3  UNL     1     -23.058 -10.694  -2.353  1.00  0.00     0.184 HD
BRANCH  12  16
HETATM   16  N2  UNL     1     -20.877 -10.074  -3.323  1.00  0.00    -0.234 N 
ATOM     17  H22 UNL     1     -20.156  -9.353  -3.324  1.00  0.00     0.174 HD
ATOM     18  H21 UNL     1     -20.681 -10.977  -2.890  1.00  0.00     0.174 HD
ENDBRANCH  12  16
ENDBRANCH   1   7
BRANCH   1  19
HETATM   19  C9  UNL     1     -26.225  -9.176  -2.422  1.00  0.00     0.158 A 
HETATM   20  N4  UNL     1     -25.620  -8.301  -1.583  1.00  0.00    -0.280 N 
HETATM   21  N5  UNL     1     -26.485  -7.357  -1.262  1.00  0.00    -0.267 N 
ATOM     22  H4  UNL     1     -24.656  -8.361  -1.255  1.00  0.00     0.189 HD
HETATM   23  C10 UNL     1     -27.629  -7.621  -1.884  1.00  0.00     0.283 A 
ATOM     24  H5  UNL     1     -26.307  -6.564  -0.645  1.00  0.00     0.190 HD
HETATM   25  O5  UNL     1     -27.440  -8.717  -2.570  1.00  0.00    -0.266 OA
BRANCH  23  26
HETATM   26  S1  UNL     1     -29.139  -6.693  -1.819  1.00  0.00     0.297 S 
HETATM   27  O3  UNL     1     -30.310  -7.603  -2.131  1.00  0.00    -0.197 OA
HETATM   28  O4  UNL     1     -29.333  -6.219  -0.406  1.00  0.00    -0.197 OA
BRANCH  26  29
HETATM   29  N6  UNL     1     -29.020  -5.387  -2.917  1.00  0.00    -0.321 N 
ATOM     30  H62 UNL     1     -29.531  -5.313  -3.797  1.00  0.00     0.169 HD
ATOM     31  H61 UNL     1     -28.358  -4.709  -2.541  1.00  0.00     0.169 HD
ENDBRANCH  26  29
ENDBRANCH  23  26
ENDBRANCH   1  19
TORSDOF 7
ENDMDL
MODEL 4
REMARK VINA RESULT: -7.898204685      3.156      6.740
REMARK  7 active torsions:
REMARK  status: ('A' for Active; 'I' for Inactive)
REMARK    1  A    between atoms: C2_2  and  O1_3 
REMARK    2  A    between atoms: C2_2  and  C3_5 
REMARK    3  A    between atoms: C3_5  and  C5_7 
REMARK    4  A    between atoms: C3_5  and  C9_19 
REMARK    5  A    between atoms: C8_13  and  N2_14 
REMARK    6  A    between atoms: C10_24  and  S1_25 
REMARK    7  A    between atoms: S1_25  and  N6_26 
ROOT
HETATM    1  C3  UNL     1     -23.911  -9.125  -6.010  1.00  0.00     0.091 C 
HETATM    2  C4  UNL     1     -24.781  -9.998  -6.907  1.00  0.00     0.034 C 
ENDROOT
BRANCH   1   3
HETATM    3  C2  UNL     1     -24.290  -7.672  -6.157  1.00  0.00     0.136 C 
HETATM    4  C1  UNL     1     -24.421  -7.228  -7.569  1.00  0.00     0.041 C 
BRANCH   3   5
HETATM    5  O1  UNL     1     -25.466  -7.404  -5.482  1.00  0.00    -0.394 OA
ATOM      6  H1  UNL     1     -25.511  -7.946  -4.703  1.00  0.00     0.210 HD
ENDBRANCH   3   5
ENDBRANCH   1   3
BRANCH   1   7
HETATM    7  C5  UNL     1     -24.046  -9.609  -4.619  1.00  0.00     0.051 A 
HETATM    8  C6  UNL     1     -24.786 -10.744  -4.327  1.00  0.00     0.101 A 
HETATM    9  C7  UNL     1     -24.929 -11.225  -3.036  1.00  0.00     0.261 A 
HETATM   10  O2  UNL     1     -25.618 -12.265  -2.843  1.00  0.00    -0.268 OA
HETATM   11  N1  UNL     1     -24.328 -10.562  -2.047  1.00  0.00    -0.156 N 
HETATM   12  C8  UNL     1     -23.601  -9.457  -2.286  1.00  0.00     0.679 A 
ATOM     13  H1  UNL     1     -24.421 -10.901  -1.090  1.00  0.00     0.187 HD
HETATM   14  N3  UNL     1     -23.474  -9.004  -3.562  1.00  0.00    -0.194 N 
ATOM     15  H3  UNL     1     -22.919  -8.165  -3.725  1.00  0.00     0.184 HD
BRANCH  12  16
HETATM   16  N2  UNL     1     -23.011  -8.797  -1.344  1.00  0.00    -0.234 N 
ATOM     17  H22 UNL     1     -22.672  -7.859  -1.555  1.00  0.00     0.174 HD
ATOM     18  H21 UNL     1     -22.875  -9.180  -0.408  1.00  0.00     0.174 HD
ENDBRANCH  12  16
ENDBRANCH   1   7
BRANCH   1  19
HETATM   19  C9  UNL     1     -22.503  -9.385  -6.431  1.00  0.00     0.158 A 
HETATM   20  N4  UNL     1     -21.910 -10.593  -6.587  1.00  0.00    -0.280 N 
HETATM   21  N5  UNL     1     -20.660 -10.404  -6.969  1.00  0.00    -0.267 N 
ATOM     22  H4  UNL     1     -22.354 -11.499  -6.434  1.00  0.00     0.189 HD
HETATM   23  C10 UNL     1     -20.453  -9.094  -7.057  1.00  0.00     0.283 A 
ATOM     24  H5  UNL     1     -19.974 -11.134  -7.163  1.00  0.00     0.190 HD
HETATM   25  O5  UNL     1     -21.576  -8.513  -6.729  1.00  0.00    -0.266 OA
BRANCH  23  26
HETATM   26  S1  UNL     1     -18.959  -8.260  -7.524  1.00  0.00     0.297 S 
HETATM   27  O3  UNL     1     -19.297  -7.033  -8.346  1.00  0.00    -0.197 OA
HETATM   28  O4  UNL     1     -18.292  -7.764  -6.272  1.00  0.00    -0.197 OA
BRANCH  26  29
HETATM   29  N6  UNL     1     -17.968  -9.363  -8.378  1.00  0.00    -0.321 N 
ATOM     30  H62 UNL     1     -18.161 -10.359  -8.488  1.00  0.00     0.169 HD
ATOM     31  H61 UNL     1     -17.166  -8.855  -8.749  1.00  0.00     0.169 HD
ENDBRANCH  26  29
ENDBRANCH  23  26
ENDBRANCH   1  19
TORSDOF 7
ENDMDL
MODEL 5
REMARK VINA RESULT: -7.893694697      2.805      4.494
REMARK  7 active torsions:
REMARK  status: ('A' for Active; 'I' for Inactive)
REMARK    1  A    between atoms: C2_2  and  O1_3 
REMARK    2  A    between atoms: C2_2  and  C3_5 
REMARK    3  A    between atoms: C3_5  and  C5_7 
REMARK    4  A    between atoms: C3_5  and  C9_19 
REMARK    5  A    between atoms: C8_13  and  N2_14 
REMARK    6  A    between atoms: C10_24  and  S1_25 
REMARK    7  A    between atoms: S1_25  and  N6_26 
ROOT
HETATM    1  C3  UNL     1     -24.444 -10.555  -4.681  1.00  0.00     0.091 C 
HETATM    2  C4  UNL     1     -24.784  -9.886  -6.008  1.00  0.00     0.034 C 
ENDROOT
BRANCH   1   3
HETATM    3  C2  UNL     1     -24.997 -11.957  -4.637  1.00  0.00     0.136 C 
HETATM    4  C1  UNL     1     -25.837 -12.232  -3.442  1.00  0.00     0.041 C 
BRANCH   3   5
HETATM    5  O1  UNL     1     -25.725 -12.230  -5.780  1.00  0.00    -0.394 OA
ATOM      6  H1  UNL     1     -25.424 -13.049  -6.156  1.00  0.00     0.210 HD
ENDBRANCH   3   5
ENDBRANCH   1   3
BRANCH   1   7
HETATM    7  C5  UNL     1     -22.975 -10.518  -4.506  1.00  0.00     0.051 A 
HETATM    8  C6  UNL     1     -22.211  -9.527  -5.101  1.00  0.00     0.101 A 
HETATM    9  C7  UNL     1     -20.834  -9.463  -4.954  1.00  0.00     0.261 A 
HETATM   10  O2  UNL     1     -20.202  -8.532  -5.525  1.00  0.00    -0.268 OA
HETATM   11  N1  UNL     1     -20.236 -10.395  -4.211  1.00  0.00    -0.156 N 
HETATM   12  C8  UNL     1     -20.940 -11.373  -3.617  1.00  0.00     0.679 A 
ATOM     13  H1  UNL     1     -19.224 -10.364  -4.091  1.00  0.00     0.187 HD
HETATM   14  N3  UNL     1     -22.290 -11.416  -3.775  1.00  0.00    -0.194 N 
ATOM     15  H3  UNL     1     -22.809 -12.165  -3.316  1.00  0.00     0.184 HD
BRANCH  12  16
HETATM   16  N2  UNL     1     -20.382 -12.288  -2.894  1.00  0.00    -0.234 N 
ATOM     17  H22 UNL     1     -19.983 -13.098  -3.368  1.00  0.00     0.174 HD
ATOM     18  H21 UNL     1     -20.330 -12.227  -1.876  1.00  0.00     0.174 HD
ENDBRANCH  12  16
ENDBRANCH   1   7
BRANCH   1  19
HETATM   19  C9  UNL     1     -25.033  -9.683  -3.623  1.00  0.00     0.158 A 
HETATM   20  N4  UNL     1     -24.464  -9.333  -2.444  1.00  0.00    -0.280 N 
HETATM   21  N5  UNL     1     -25.301  -8.552  -1.787  1.00  0.00    -0.267 N 
ATOM     22  H4  UNL     1     -23.543  -9.624  -2.119  1.00  0.00     0.189 HD
HETATM   23  C10 UNL     1     -26.392  -8.402  -2.531  1.00  0.00     0.283 A 
ATOM     24  H5  UNL     1     -25.139  -8.136  -0.869  1.00  0.00     0.190 HD
HETATM   25  O5  UNL     1     -26.200  -9.092  -3.623  1.00  0.00    -0.266 OA
BRANCH  23  26
HETATM   26  S1  UNL     1     -27.845  -7.459  -2.149  1.00  0.00     0.297 S 
HETATM   27  O3  UNL     1     -29.075  -8.329  -2.317  1.00  0.00    -0.197 OA
HETATM   28  O4  UNL     1     -27.786  -7.083  -0.695  1.00  0.00    -0.197 OA
BRANCH  26  29
HETATM   29  N6  UNL     1     -27.879  -6.081  -3.162  1.00  0.00    -0.321 N 
ATOM     30  H62 UNL     1     -27.695  -6.088  -4.165  1.00  0.00     0.169 HD
ATOM     31  H61 UNL     1     -28.111  -5.268  -2.592  1.00  0.00     0.169 HD
ENDBRANCH  26  29
ENDBRANCH  23  26
ENDBRANCH   1  19
TORSDOF 7
ENDMDL
