MODEL 1
REMARK VINA RESULT: -7.949500971      0.000      0.000
REMARK  5 active torsions:
REMARK  status: ('A' for Active; 'I' for Inactive)
REMARK    1  A    between atoms: C3_3  and  O1_4 
REMARK    2  A    between atoms: O1_4  and  C4_5 
REMARK    3  A    between atoms: C4_5  and  C5_6 
REMARK    4  A    between atoms: N3_17  and  C10_18 
REMARK    5  A    between atoms: C12_24  and  N6_25 
ROOT
HETATM    1  C1  UNL     1     -20.104 -11.240  -2.243  1.00  0.00     0.015 C 
HETATM    2  C2  UNL     1     -20.357 -10.792  -3.344  1.00  0.00    -0.079 C 
HETATM    3  C3  UNL     1     -20.672 -10.265  -4.706  1.00  0.00     0.126 C 
HETATM    4  C8  UNL     1     -21.089 -11.474  -5.490  1.00  0.00     0.071 C 
HETATM    5  C9  UNL     1     -22.237 -12.183  -4.745  1.00  0.00     0.128 C 
HETATM    6  N3  UNL     1     -23.290 -11.242  -4.540  1.00  0.00    -0.365 N 
HETATM    7  C14 UNL     1     -23.074  -9.929  -5.211  1.00  0.00     0.128 C 
HETATM    8  C15 UNL     1     -21.861  -9.295  -4.510  1.00  0.00     0.071 C 
ENDROOT
BRANCH   3   9
HETATM    9  O1  UNL     1     -19.683  -9.508  -5.207  1.00  0.00    -0.364 OA
BRANCH   9  10
HETATM   10  C4  UNL     1     -19.729  -8.877  -6.382  1.00  0.00     0.232 C 
BRANCH  10  11
HETATM   11  C5  UNL     1     -18.291  -8.634  -6.911  1.00  0.00     0.406 C 
HETATM   12  N1  UNL     1     -18.050  -7.193  -6.944  1.00  0.00    -0.042 N 
HETATM   13  C6  UNL     1     -17.165  -7.033  -8.097  1.00  0.00     0.262 C 
ATOM     14  H12 UNL     1     -18.894  -6.621  -6.973  1.00  0.00     0.279 HD
ATOM     15  H11 UNL     1     -17.690  -6.802  -6.073  1.00  0.00     0.279 HD
HETATM   16  C7  UNL     1     -17.880  -7.952  -9.094  1.00  0.00     0.262 C 
HETATM   17  N2  UNL     1     -18.154  -9.089  -8.268  1.00  0.00    -0.042 N 
ATOM     18  H22 UNL     1     -17.456  -9.826  -8.368  1.00  0.00     0.279 HD
ATOM     19  H21 UNL     1     -18.963  -9.622  -8.588  1.00  0.00     0.279 HD
ENDBRANCH  10  11
ENDBRANCH   9  10
ENDBRANCH   3   9
BRANCH   6  20
HETATM   20  C10 UNL     1     -24.401 -11.448  -3.754  1.00  0.00     0.132 A 
HETATM   21  N4  UNL     1     -24.406 -11.213  -2.404  1.00  0.00    -0.337 N 
HETATM   22  C11 UNL     1     -25.418 -11.346  -1.606  1.00  0.00     0.183 A 
ATOM     23  H4  UNL     1     -23.528 -10.903  -1.988  1.00  0.00     0.168 HD
HETATM   24  N5  UNL     1     -26.625 -11.757  -2.105  1.00  0.00    -0.337 N 
HETATM   25  C12 UNL     1     -26.692 -12.011  -3.445  1.00  0.00     0.128 A 
ATOM     26  H5  UNL     1     -27.440 -11.868  -1.501  1.00  0.00     0.168 HD
HETATM   27  C13 UNL     1     -25.613 -11.864  -4.252  1.00  0.00     0.133 A 
HETATM   28  N7  UNL     1     -25.769 -12.169  -5.636  1.00  0.00    -0.094 NA
BRANCH  25  29
HETATM   29  N6  UNL     1     -27.840 -12.386  -3.919  1.00  0.00    -0.384 N 
ATOM     30  H62 UNL     1     -28.669 -11.800  -3.822  1.00  0.00     0.157 HD
ATOM     31  H61 UNL     1     -27.879 -13.296  -4.378  1.00  0.00     0.157 HD
ENDBRANCH  25  29
ENDBRANCH   6  20
TORSDOF 5
ENDMDL
MODEL 2
REMARK VINA RESULT: -7.712541623      1.149      2.652
REMARK  5 active torsions:
REMARK  status: ('A' for Active; 'I' for Inactive)
REMARK    1  A    between atoms: C3_3  and  O1_4 
REMARK    2  A    between atoms: O1_4  and  C4_5 
REMARK    3  A    between atoms: C4_5  and  C5_6 
REMARK    4  A    between atoms: N3_17  and  C10_18 
REMARK    5  A    between atoms: C12_24  and  N6_25 
ROOT
HETATM    1  C1  UNL     1     -22.378  -9.686  -8.130  1.00  0.00     0.015 C 
HETATM    2  C2  UNL     1     -21.653  -9.867  -7.171  1.00  0.00    -0.079 C 
HETATM    3  C3  UNL     1     -20.772 -10.070  -5.982  1.00  0.00     0.126 C 
HETATM    4  C8  UNL     1     -21.244  -9.052  -4.986  1.00  0.00     0.071 C 
HETATM    5  C9  UNL     1     -22.757  -9.237  -4.760  1.00  0.00     0.128 C 
HETATM    6  N3  UNL     1     -22.991 -10.585  -4.356  1.00  0.00    -0.365 N 
HETATM    7  C14 UNL     1     -21.750 -11.374  -4.116  1.00  0.00     0.128 C 
HETATM    8  C15 UNL     1     -21.067 -11.506  -5.488  1.00  0.00     0.071 C 
ENDROOT
BRANCH   3   9
HETATM    9  O1  UNL     1     -19.468 -10.071  -6.301  1.00  0.00    -0.364 OA
BRANCH   9  10
HETATM   10  C4  UNL     1     -18.656  -9.019  -6.187  1.00  0.00     0.232 C 
BRANCH  10  11
HETATM   11  C5  UNL     1     -18.649  -8.208  -7.510  1.00  0.00     0.406 C 
HETATM   12  N1  UNL     1     -17.940  -8.986  -8.523  1.00  0.00    -0.042 N 
HETATM   13  C6  UNL     1     -17.301  -7.958  -9.342  1.00  0.00     0.262 C 
ATOM     14  H12 UNL     1     -17.304  -9.690  -8.150  1.00  0.00     0.279 HD
ATOM     15  H11 UNL     1     -18.525  -9.641  -9.043  1.00  0.00     0.279 HD
HETATM   16  C7  UNL     1     -16.772  -7.043  -8.231  1.00  0.00     0.262 C 
HETATM   17  N2  UNL     1     -17.909  -6.983  -7.363  1.00  0.00    -0.042 N 
ATOM     18  H22 UNL     1     -18.483  -6.155  -7.522  1.00  0.00     0.279 HD
ATOM     19  H21 UNL     1     -17.655  -6.790  -6.394  1.00  0.00     0.279 HD
ENDBRANCH  10  11
ENDBRANCH   9  10
ENDBRANCH   3   9
BRANCH   6  20
HETATM   20  C10 UNL     1     -24.228 -11.179  -4.239  1.00  0.00     0.132 A 
HETATM   21  N4  UNL     1     -24.761 -11.975  -5.218  1.00  0.00    -0.337 N 
HETATM   22  C11 UNL     1     -25.898 -12.597  -5.166  1.00  0.00     0.183 A 
ATOM     23  H4  UNL     1     -24.212 -12.088  -6.069  1.00  0.00     0.168 HD
HETATM   24  N5  UNL     1     -26.681 -12.485  -4.049  1.00  0.00    -0.337 N 
HETATM   25  C12 UNL     1     -26.210 -11.704  -3.033  1.00  0.00     0.128 A 
ATOM     26  H5  UNL     1     -27.578 -12.965  -3.979  1.00  0.00     0.168 HD
HETATM   27  C13 UNL     1     -25.018 -11.066  -3.119  1.00  0.00     0.133 A 
HETATM   28  N7  UNL     1     -24.613 -10.257  -2.017  1.00  0.00    -0.094 NA
BRANCH  25  29
HETATM   29  N6  UNL     1     -26.947 -11.612  -1.968  1.00  0.00    -0.384 N 
ATOM     30  H62 UNL     1     -26.682 -12.077  -1.100  1.00  0.00     0.157 HD
ATOM     31  H61 UNL     1     -27.806 -11.068  -2.044  1.00  0.00     0.157 HD
ENDBRANCH  25  29
ENDBRANCH   6  20
TORSDOF 5
ENDMDL
MODEL 3
REMARK VINA RESULT: -7.711384651      2.066      3.034
REMARK  5 active torsions:
REMARK  status: ('A' for Active; 'I' for Inactive)
REMARK    1  A    between atoms: C3_3  and  O1_4 
REMARK    2  A    between atoms: O1_4  and  C4_5 
REMARK    3  A    between atoms: C4_5  and  C5_6 
REMARK    4  A    between atoms: N3_17  and  C10_18 
REMARK    5  A    between atoms: C12_24  and  N6_25 
ROOT
HETATM    1  C1  UNL     1     -23.388  -9.112  -1.690  1.00  0.00     0.015 C 
HETATM    2  C2  UNL     1     -23.229  -9.547  -2.814  1.00  0.00    -0.079 C 
HETATM    3  C3  UNL     1     -23.035 -10.104  -4.186  1.00  0.00     0.126 C 
HETATM    4  C8  UNL     1     -23.153 -11.589  -4.009  1.00  0.00     0.071 C 
HETATM    5  C9  UNL     1     -24.495 -11.907  -3.322  1.00  0.00     0.128 C 
HETATM    6  N3  UNL     1     -25.546 -11.338  -4.101  1.00  0.00    -0.365 N 
HETATM    7  C14 UNL     1     -25.097 -10.754  -5.396  1.00  0.00     0.128 C 
HETATM    8  C15 UNL     1     -24.210  -9.552  -5.028  1.00  0.00     0.071 C 
ENDROOT
BRANCH   3   9
HETATM    9  O1  UNL     1     -21.928  -9.634  -4.782  1.00  0.00    -0.364 OA
BRANCH   9  10
HETATM   10  C4  UNL     1     -20.698 -10.116  -4.590  1.00  0.00     0.232 C 
BRANCH  10  11
HETATM   11  C5  UNL     1     -19.897 -10.072  -5.919  1.00  0.00     0.406 C 
HETATM   12  N1  UNL     1     -19.582  -8.677  -6.220  1.00  0.00    -0.042 N 
HETATM   13  C6  UNL     1     -19.608  -8.643  -7.682  1.00  0.00     0.262 C 
ATOM     14  H12 UNL     1     -20.191  -7.996  -5.767  1.00  0.00     0.279 HD
ATOM     15  H11 UNL     1     -18.716  -8.336  -5.802  1.00  0.00     0.279 HD
HETATM   16  C7  UNL     1     -20.882  -9.458  -7.932  1.00  0.00     0.262 C 
HETATM   17  N2  UNL     1     -20.693 -10.545  -7.019  1.00  0.00    -0.042 N 
ATOM     18  H22 UNL     1     -20.294 -11.370  -7.467  1.00  0.00     0.279 HD
ATOM     19  H21 UNL     1     -21.573 -10.964  -6.718  1.00  0.00     0.279 HD
ENDBRANCH  10  11
ENDBRANCH   9  10
ENDBRANCH   3   9
BRANCH   6  20
HETATM   20  C10 UNL     1     -26.866 -11.252  -3.719  1.00  0.00     0.132 A 
HETATM   21  N4  UNL     1     -27.750 -12.285  -3.877  1.00  0.00    -0.337 N 
HETATM   22  C11 UNL     1     -28.994 -12.294  -3.509  1.00  0.00     0.183 A 
ATOM     23  H4  UNL     1     -27.397 -13.129  -4.327  1.00  0.00     0.168 HD
HETATM   24  N5  UNL     1     -29.527 -11.192  -2.897  1.00  0.00    -0.337 N 
HETATM   25  C12 UNL     1     -28.700 -10.122  -2.709  1.00  0.00     0.128 A 
ATOM     26  H5  UNL     1     -30.501 -11.171  -2.595  1.00  0.00     0.168 HD
HETATM   27  C13 UNL     1     -27.404 -10.144  -3.107  1.00  0.00     0.133 A 
HETATM   28  N7  UNL     1     -26.618  -8.975  -2.886  1.00  0.00    -0.094 NA
BRANCH  25  29
HETATM   29  N6  UNL     1     -29.203  -9.083  -2.115  1.00  0.00    -0.384 N 
ATOM     30  H62 UNL     1     -29.802  -8.426  -2.615  1.00  0.00     0.157 HD
ATOM     31  H61 UNL     1     -28.962  -8.948  -1.133  1.00  0.00     0.157 HD
ENDBRANCH  25  29
ENDBRANCH   6  20
TORSDOF 5
ENDMDL
MODEL 4
REMARK VINA RESULT: -7.535094123      2.729      8.193
REMARK  5 active torsions:
REMARK  status: ('A' for Active; 'I' for Inactive)
REMARK    1  A    between atoms: C3_3  and  O1_4 
REMARK    2  A    between atoms: O1_4  and  C4_5 
REMARK    3  A    between atoms: C4_5  and  C5_6 
REMARK    4  A    between atoms: N3_17  and  C10_18 
REMARK    5  A    between atoms: C12_24  and  N6_25 
ROOT
HETATM    1  C1  UNL     1     -26.030 -12.792  -5.889  1.00  0.00     0.015 C 
HETATM    2  C2  UNL     1     -25.875 -12.092  -4.908  1.00  0.00    -0.079 C 
HETATM    3  C3  UNL     1     -25.667 -11.247  -3.693  1.00  0.00     0.126 C 
HETATM    4  C8  UNL     1     -24.506 -11.883  -2.987  1.00  0.00     0.071 C 
HETATM    5  C9  UNL     1     -23.319 -11.984  -3.965  1.00  0.00     0.128 C 
HETATM    6  N3  UNL     1     -23.038 -10.680  -4.469  1.00  0.00    -0.365 N 
HETATM    7  C14 UNL     1     -23.827  -9.593  -3.823  1.00  0.00     0.128 C 
HETATM    8  C15 UNL     1     -25.290  -9.843  -4.224  1.00  0.00     0.071 C 
ENDROOT
BRANCH   3   9
HETATM    9  O1  UNL     1     -26.797 -11.064  -2.993  1.00  0.00    -0.364 OA
BRANCH   9  10
HETATM   10  C4  UNL     1     -27.256 -11.897  -2.057  1.00  0.00     0.232 C 
BRANCH  10  11
HETATM   11  C5  UNL     1     -28.797 -12.030  -2.173  1.00  0.00     0.406 C 
HETATM   12  N1  UNL     1     -29.098 -13.019  -3.205  1.00  0.00    -0.042 N 
HETATM   13  C6  UNL     1     -30.344 -12.521  -3.786  1.00  0.00     0.262 C 
ATOM     14  H12 UNL     1     -28.346 -13.173  -3.878  1.00  0.00     0.279 HD
ATOM     15  H11 UNL     1     -29.138 -13.983  -2.873  1.00  0.00     0.279 HD
HETATM   16  C7  UNL     1     -29.995 -11.033  -3.896  1.00  0.00     0.262 C 
HETATM   17  N2  UNL     1     -29.392 -10.799  -2.619  1.00  0.00    -0.042 N 
ATOM     18  H22 UNL     1     -30.046 -10.409  -1.940  1.00  0.00     0.279 HD
ATOM     19  H21 UNL     1     -28.729 -10.023  -2.632  1.00  0.00     0.279 HD
ENDBRANCH  10  11
ENDBRANCH   9  10
ENDBRANCH   3   9
BRANCH   6  20
HETATM   20  C10 UNL     1     -22.172 -10.393  -5.500  1.00  0.00     0.132 A 
HETATM   21  N4  UNL     1     -22.601 -10.105  -6.768  1.00  0.00    -0.337 N 
HETATM   22  C11 UNL     1     -21.852  -9.789  -7.779  1.00  0.00     0.183 A 
ATOM     23  H4  UNL     1     -23.606 -10.142  -6.933  1.00  0.00     0.168 HD
HETATM   24  N5  UNL     1     -20.494  -9.721  -7.620  1.00  0.00    -0.337 N 
HETATM   25  C12 UNL     1     -19.996  -9.999  -6.379  1.00  0.00     0.128 A 
ATOM     26  H5  UNL     1     -19.880  -9.473  -8.396  1.00  0.00     0.168 HD
HETATM   27  C13 UNL     1     -20.807 -10.328  -5.344  1.00  0.00     0.133 A 
HETATM   28  N7  UNL     1     -20.199 -10.620  -4.088  1.00  0.00    -0.094 NA
BRANCH  25  29
HETATM   29  N6  UNL     1     -18.710  -9.919  -6.227  1.00  0.00    -0.384 N 
ATOM     30  H62 UNL     1     -18.125 -10.754  -6.224  1.00  0.00     0.157 HD
ATOM     31  H61 UNL     1     -18.315  -8.987  -6.098  1.00  0.00     0.157 HD
ENDBRANCH  25  29
ENDBRANCH   6  20
TORSDOF 5
ENDMDL
MODEL 5
REMARK VINA RESULT: -7.489437695      2.962      8.055
REMARK  5 active torsions:
REMARK  status: ('A' for Active; 'I' for Inactive)
REMARK    1  A    between atoms: C3_3  and  O1_4 
REMARK    2  A    between atoms: O1_4  and  C4_5 
REMARK    3  A    between atoms: C4_5  and  C5_6 
REMARK    4  A    between atoms: N3_17  and  C10_18 
REMARK    5  A    between atoms: C12_24  and  N6_25 
ROOT
HETATM    1  C1  UNL     1     -25.402 -12.289  -1.701  1.00  0.00     0.015 C 
HETATM    2  C2  UNL     1     -25.595 -11.274  -2.340  1.00  0.00    -0.079 C 
HETATM    3  C3  UNL     1     -25.820 -10.012  -3.109  1.00  0.00     0.126 C 
HETATM    4  C8  UNL     1     -24.995  -8.984  -2.393  1.00  0.00     0.071 C 
HETATM    5  C9  UNL     1     -23.540  -9.483  -2.302  1.00  0.00     0.128 C 
HETATM    6  N3  UNL     1     -23.079  -9.770  -3.621  1.00  0.00    -0.365 N 
HETATM    7  C14 UNL     1     -24.030  -9.376  -4.699  1.00  0.00     0.128 C 
HETATM    8  C15 UNL     1     -25.259 -10.284  -4.525  1.00  0.00     0.071 C 
ENDROOT
BRANCH   3   9
HETATM    9  O1  UNL     1     -27.122  -9.747  -3.295  1.00  0.00    -0.364 OA
BRANCH   9  10
HETATM   10  C4  UNL     1     -28.124 -10.393  -2.694  1.00  0.00     0.232 C 
BRANCH  10  11
HETATM   11  C5  UNL     1     -28.747 -11.430  -3.665  1.00  0.00     0.406 C 
HETATM   12  N1  UNL     1     -30.146 -11.071  -3.886  1.00  0.00    -0.042 N 
HETATM   13  C6  UNL     1     -30.795 -12.369  -4.062  1.00  0.00     0.262 C 
ATOM     14  H12 UNL     1     -30.554 -10.487  -3.157  1.00  0.00     0.279 HD
ATOM     15  H11 UNL     1     -30.301 -10.411  -4.648  1.00  0.00     0.279 HD
HETATM   16  C7  UNL     1     -30.127 -13.144  -2.920  1.00  0.00     0.262 C 
HETATM   17  N2  UNL     1     -28.762 -12.744  -3.081  1.00  0.00    -0.042 N 
ATOM     18  H22 UNL     1     -28.215 -13.419  -3.615  1.00  0.00     0.279 HD
ATOM     19  H21 UNL     1     -28.232 -12.795  -2.211  1.00  0.00     0.279 HD
ENDBRANCH  10  11
ENDBRANCH   9  10
ENDBRANCH   3   9
BRANCH   6  20
HETATM   20  C10 UNL     1     -21.899 -10.407  -3.932  1.00  0.00     0.132 A 
HETATM   21  N4  UNL     1     -21.548 -11.618  -3.397  1.00  0.00    -0.337 N 
HETATM   22  C11 UNL     1     -20.477 -12.296  -3.668  1.00  0.00     0.183 A 
ATOM     23  H4  UNL     1     -22.193 -12.026  -2.720  1.00  0.00     0.168 HD
HETATM   24  N5  UNL     1     -19.573 -11.802  -4.570  1.00  0.00    -0.337 N 
HETATM   25  C12 UNL     1     -19.859 -10.596  -5.142  1.00  0.00     0.128 A 
ATOM     26  H5  UNL     1     -18.723 -12.314  -4.805  1.00  0.00     0.168 HD
HETATM   27  C13 UNL     1     -20.988  -9.912  -4.835  1.00  0.00     0.133 A 
HETATM   28  N7  UNL     1     -21.196  -8.651  -5.468  1.00  0.00    -0.094 NA
BRANCH  25  29
HETATM   29  N6  UNL     1     -19.009 -10.137  -6.009  1.00  0.00    -0.384 N 
ATOM     30  H62 UNL     1     -18.286 -10.735  -6.409  1.00  0.00     0.157 HD
ATOM     31  H61 UNL     1     -19.088  -9.152  -6.261  1.00  0.00     0.157 HD
ENDBRANCH  25  29
ENDBRANCH   6  20
TORSDOF 5
ENDMDL
