MODEL 1
REMARK VINA RESULT: -6.667814973      0.000      0.000
REMARK  4 active torsions:
REMARK  status: ('A' for Active; 'I' for Inactive)
REMARK    1  A    between atoms: C2_2  and  N1_3 
REMARK    2  A    between atoms: N1_3  and  N2_5 
REMARK    3  A    between atoms: C3_7  and  C4_8 
REMARK    4  A    between atoms: C5_9  and  N3_10 
ROOT
HETATM    1  C4  UNL     1     -21.283  -9.293  -7.804  1.00  0.00     0.081 C 
HETATM    2  C5  UNL     1     -20.329  -9.578  -6.868  1.00  0.00     0.116 C 
HETATM    3  C10 UNL     1     -18.968  -9.218  -7.012  1.00  0.00     0.275 C 
HETATM    4  O1  UNL     1     -18.362  -9.188  -5.920  1.00  0.00    -0.266 OA
HETATM    5  N5  UNL     1     -18.252  -8.915  -8.105  1.00  0.00    -0.298 N 
ATOM      6  H5  UNL     1     -17.241  -9.033  -8.043  1.00  0.00     0.171 HD
HETATM    7  C11 UNL     1     -18.745  -8.467  -9.281  1.00  0.00     0.181 C 
HETATM    8  S1  UNL     1     -17.658  -8.380 -10.491  1.00  0.00    -0.040 SA
HETATM    9  N6  UNL     1     -20.016  -8.086  -9.580  1.00  0.00    -0.299 N 
ATOM     10  H6  UNL     1     -20.125  -7.447 -10.368  1.00  0.00     0.171 HD
HETATM   11  C12 UNL     1     -21.140  -8.459  -8.952  1.00  0.00     0.261 C 
HETATM   12  O2  UNL     1     -22.226  -8.017  -9.432  1.00  0.00    -0.267 OA
ENDROOT
BRANCH   1  13
HETATM   13  C3  UNL     1     -22.594  -9.864  -7.670  1.00  0.00     0.126 C 
HETATM   14  N2  UNL     1     -23.586  -9.488  -6.999  1.00  0.00    -0.315 N 
ATOM     15  H2  UNL     1     -23.481  -8.639  -6.444  1.00  0.00     0.185 HD
BRANCH  14  16
HETATM   16  N1  UNL     1     -24.816 -10.134  -6.951  1.00  0.00    -0.337 N 
ATOM     17  H1  UNL     1     -25.412 -10.128  -7.780  1.00  0.00     0.180 HD
BRANCH  16  18
HETATM   18  C2  UNL     1     -25.274 -10.813  -5.767  1.00  0.00     0.135 C 
HETATM   19  C1  UNL     1     -24.859 -10.090  -4.493  1.00  0.00     0.028 C 
ENDBRANCH  16  18
ENDBRANCH  14  16
ENDBRANCH   1  13
BRANCH   2  20
HETATM   20  N3  UNL     1     -20.588 -10.261  -5.672  1.00  0.00    -0.372 N 
HETATM   21  C6  UNL     1     -20.484 -11.680  -5.490  1.00  0.00     0.142 C 
HETATM   22  C7  UNL     1     -21.684 -12.133  -4.669  1.00  0.00     0.133 C 
HETATM   23  N4  UNL     1     -21.493 -11.645  -3.338  1.00  0.00    -0.418 N 
HETATM   24  C8  UNL     1     -21.125 -10.273  -3.251  1.00  0.00     0.133 C 
ATOM     25  H4  UNL     1     -21.612 -12.234  -2.515  1.00  0.00     0.153 HD
HETATM   26  C9  UNL     1     -21.106  -9.505  -4.524  1.00  0.00     0.142 C 
ENDBRANCH   2  20
TORSDOF 4
ENDMDL
MODEL 2
REMARK VINA RESULT: -6.661784914      2.817      4.884
REMARK  4 active torsions:
REMARK  status: ('A' for Active; 'I' for Inactive)
REMARK    1  A    between atoms: C2_2  and  N1_3 
REMARK    2  A    between atoms: N1_3  and  N2_5 
REMARK    3  A    between atoms: C3_7  and  C4_8 
REMARK    4  A    between atoms: C5_9  and  N3_10 
ROOT
HETATM    1  C4  UNL     1     -22.119  -8.927  -6.922  1.00  0.00     0.081 C 
HETATM    2  C5  UNL     1     -22.762  -9.318  -5.782  1.00  0.00     0.116 C 
HETATM    3  C10 UNL     1     -24.038  -8.834  -5.405  1.00  0.00     0.275 C 
HETATM    4  O1  UNL     1     -24.617  -9.589  -4.595  1.00  0.00    -0.266 OA
HETATM    5  N5  UNL     1     -24.698  -7.726  -5.771  1.00  0.00    -0.298 N 
ATOM      6  H5  UNL     1     -25.421  -7.387  -5.136  1.00  0.00     0.171 HD
HETATM    7  C11 UNL     1     -24.497  -7.017  -6.904  1.00  0.00     0.181 C 
HETATM    8  S1  UNL     1     -25.305  -5.604  -6.981  1.00  0.00    -0.040 SA
HETATM    9  N6  UNL     1     -23.716  -7.326  -7.973  1.00  0.00    -0.299 N 
ATOM     10  H6  UNL     1     -23.963  -6.886  -8.860  1.00  0.00     0.171 HD
HETATM   11  C12 UNL     1     -22.655  -8.147  -7.989  1.00  0.00     0.261 C 
HETATM   12  O2  UNL     1     -22.042  -8.254  -9.092  1.00  0.00    -0.267 OA
ENDROOT
BRANCH   1  13
HETATM   13  C3  UNL     1     -20.751  -9.315  -7.128  1.00  0.00     0.126 C 
HETATM   14  N2  UNL     1     -19.681  -8.753  -6.791  1.00  0.00    -0.315 N 
ATOM     15  H2  UNL     1     -19.755  -7.870  -6.285  1.00  0.00     0.185 HD
BRANCH  14  16
HETATM   16  N1  UNL     1     -18.403  -9.234  -7.051  1.00  0.00    -0.337 N 
ATOM     17  H1  UNL     1     -18.239 -10.241  -7.029  1.00  0.00     0.180 HD
BRANCH  16  18
HETATM   18  C2  UNL     1     -17.304  -8.354  -7.353  1.00  0.00     0.135 C 
HETATM   19  C1  UNL     1     -17.774  -7.009  -7.887  1.00  0.00     0.028 C 
ENDBRANCH  16  18
ENDBRANCH  14  16
ENDBRANCH   1  13
BRANCH   2  20
HETATM   20  N3  UNL     1     -22.232 -10.231  -4.860  1.00  0.00    -0.372 N 
HETATM   21  C6  UNL     1     -21.549  -9.881  -3.648  1.00  0.00     0.142 C 
HETATM   22  C7  UNL     1     -20.341 -10.799  -3.514  1.00  0.00     0.133 C 
HETATM   23  N4  UNL     1     -20.836 -12.106  -3.213  1.00  0.00    -0.418 N 
HETATM   24  C8  UNL     1     -21.900 -12.550  -4.046  1.00  0.00     0.133 C 
ATOM     25  H4  UNL     1     -20.455 -12.677  -2.458  1.00  0.00     0.153 HD
HETATM   26  C9  UNL     1     -22.274 -11.664  -5.180  1.00  0.00     0.142 C 
ENDBRANCH   2  20
TORSDOF 4
ENDMDL
MODEL 3
REMARK VINA RESULT: -6.652266712      2.483      5.001
REMARK  4 active torsions:
REMARK  status: ('A' for Active; 'I' for Inactive)
REMARK    1  A    between atoms: C2_2  and  N1_3 
REMARK    2  A    between atoms: N1_3  and  N2_5 
REMARK    3  A    between atoms: C3_7  and  C4_8 
REMARK    4  A    between atoms: C5_9  and  N3_10 
ROOT
HETATM    1  C4  UNL     1     -22.042 -10.632  -5.057  1.00  0.00     0.081 C 
HETATM    2  C5  UNL     1     -23.371 -10.432  -5.301  1.00  0.00     0.116 C 
HETATM    3  C10 UNL     1     -23.878 -10.028  -6.559  1.00  0.00     0.275 C 
HETATM    4  O1  UNL     1     -25.090 -10.297  -6.697  1.00  0.00    -0.266 OA
HETATM    5  N5  UNL     1     -23.276  -9.419  -7.592  1.00  0.00    -0.298 N 
ATOM      6  H5  UNL     1     -23.875  -8.906  -8.239  1.00  0.00     0.171 HD
HETATM    7  C11 UNL     1     -21.951  -9.422  -7.856  1.00  0.00     0.181 C 
HETATM    8  S1  UNL     1     -21.489  -8.428  -9.062  1.00  0.00    -0.040 SA
HETATM    9  N6  UNL     1     -20.965 -10.139  -7.252  1.00  0.00    -0.299 N 
ATOM     10  H6  UNL     1     -20.119 -10.299  -7.799  1.00  0.00     0.171 HD
HETATM   11  C12 UNL     1     -20.985 -10.657  -6.015  1.00  0.00     0.261 C 
HETATM   12  O2  UNL     1     -19.932 -11.251  -5.637  1.00  0.00    -0.267 OA
ENDROOT
BRANCH   1  13
HETATM   13  C3  UNL     1     -21.598 -10.850  -3.709  1.00  0.00     0.126 C 
HETATM   14  N2  UNL     1     -20.636 -10.355  -3.073  1.00  0.00    -0.315 N 
ATOM     15  H2  UNL     1     -20.048  -9.682  -3.564  1.00  0.00     0.185 HD
BRANCH  14  16
HETATM   16  N1  UNL     1     -20.305 -10.650  -1.756  1.00  0.00    -0.337 N 
ATOM     17  H1  UNL     1     -20.854 -10.235  -1.002  1.00  0.00     0.180 HD
BRANCH  16  18
HETATM   18  C2  UNL     1     -19.212 -11.525  -1.422  1.00  0.00     0.135 C 
HETATM   19  C1  UNL     1     -18.831 -12.437  -2.580  1.00  0.00     0.028 C 
ENDBRANCH  16  18
ENDBRANCH  14  16
ENDBRANCH   1  13
BRANCH   2  20
HETATM   20  N3  UNL     1     -24.375 -10.597  -4.338  1.00  0.00    -0.372 N 
HETATM   21  C6  UNL     1     -24.938 -11.853  -3.935  1.00  0.00     0.142 C 
HETATM   22  C7  UNL     1     -26.445 -11.668  -3.810  1.00  0.00     0.133 C 
HETATM   23  N4  UNL     1     -26.676 -10.853  -2.658  1.00  0.00    -0.418 N 
HETATM   24  C8  UNL     1     -25.868  -9.684  -2.580  1.00  0.00     0.133 C 
ATOM     25  H4  UNL     1     -27.367 -11.091  -1.946  1.00  0.00     0.153 HD
HETATM   26  C9  UNL     1     -24.990  -9.401  -3.746  1.00  0.00     0.142 C 
ENDBRANCH   2  20
TORSDOF 4
ENDMDL
MODEL 4
REMARK VINA RESULT: -6.576887561      1.891      2.240
REMARK  4 active torsions:
REMARK  status: ('A' for Active; 'I' for Inactive)
REMARK    1  A    between atoms: C2_2  and  N1_3 
REMARK    2  A    between atoms: N1_3  and  N2_5 
REMARK    3  A    between atoms: C3_7  and  C4_8 
REMARK    4  A    between atoms: C5_9  and  N3_10 
ROOT
HETATM    1  C4  UNL     1     -22.805  -9.081  -6.605  1.00  0.00     0.081 C 
HETATM    2  C5  UNL     1     -21.576  -9.670  -6.505  1.00  0.00     0.116 C 
HETATM    3  C10 UNL     1     -20.566  -9.532  -7.487  1.00  0.00     0.275 C 
HETATM    4  O1  UNL     1     -19.426  -9.778  -7.040  1.00  0.00    -0.266 OA
HETATM    5  N5  UNL     1     -20.643  -9.188  -8.781  1.00  0.00    -0.298 N 
ATOM      6  H5  UNL     1     -19.877  -9.487  -9.385  1.00  0.00     0.171 HD
HETATM    7  C11 UNL     1     -21.640  -8.483  -9.360  1.00  0.00     0.181 C 
HETATM    8  S1  UNL     1     -21.563  -8.394 -10.985  1.00  0.00    -0.040 SA
HETATM    9  N6  UNL     1     -22.686  -7.846  -8.768  1.00  0.00    -0.299 N 
ATOM     10  H6  UNL     1     -23.110  -7.081  -9.294  1.00  0.00     0.171 HD
HETATM   11  C12 UNL     1     -23.220  -8.114  -7.567  1.00  0.00     0.261 C 
HETATM   12  O2  UNL     1     -24.226  -7.421  -7.232  1.00  0.00    -0.267 OA
ENDROOT
BRANCH   1  13
HETATM   13  C3  UNL     1     -23.833  -9.431  -5.665  1.00  0.00     0.126 C 
HETATM   14  N2  UNL     1     -24.299  -8.797  -4.688  1.00  0.00    -0.315 N 
ATOM     15  H2  UNL     1     -23.908  -7.874  -4.499  1.00  0.00     0.185 HD
BRANCH  14  16
HETATM   16  N1  UNL     1     -25.306  -9.249  -3.842  1.00  0.00    -0.337 N 
ATOM     17  H1  UNL     1     -26.275  -9.011  -4.054  1.00  0.00     0.180 HD
BRANCH  16  18
HETATM   18  C2  UNL     1     -25.020 -10.044  -2.676  1.00  0.00     0.135 C 
HETATM   19  C1  UNL     1     -25.188 -11.533  -2.940  1.00  0.00     0.028 C 
ENDBRANCH  16  18
ENDBRANCH  14  16
ENDBRANCH   1  13
BRANCH   2  20
HETATM   20  N3  UNL     1     -21.183 -10.477  -5.429  1.00  0.00    -0.372 N 
HETATM   21  C6  UNL     1     -21.066 -11.906  -5.467  1.00  0.00     0.142 C 
HETATM   22  C7  UNL     1     -21.655 -12.455  -4.173  1.00  0.00     0.133 C 
HETATM   23  N4  UNL     1     -20.753 -12.108  -3.119  1.00  0.00    -0.418 N 
HETATM   24  C8  UNL     1     -20.330 -10.750  -3.116  1.00  0.00     0.133 C 
ATOM     25  H4  UNL     1     -20.438 -12.782  -2.422  1.00  0.00     0.153 HD
HETATM   26  C9  UNL     1     -20.962  -9.851  -4.119  1.00  0.00     0.142 C 
ENDBRANCH   2  20
TORSDOF 4
ENDMDL
MODEL 5
REMARK VINA RESULT: -6.503407246      3.047      7.139
REMARK  4 active torsions:
REMARK  status: ('A' for Active; 'I' for Inactive)
REMARK    1  A    between atoms: C2_2  and  N1_3 
REMARK    2  A    between atoms: N1_3  and  N2_5 
REMARK    3  A    between atoms: C3_7  and  C4_8 
REMARK    4  A    between atoms: C5_9  and  N3_10 
ROOT
HETATM    1  C4  UNL     1     -18.540  -8.648  -8.378  1.00  0.00     0.081 C 
HETATM    2  C5  UNL     1     -19.596  -8.642  -9.246  1.00  0.00     0.116 C 
HETATM    3  C10 UNL     1     -20.947  -8.633  -8.825  1.00  0.00     0.275 C 
HETATM    4  O1  UNL     1     -21.723  -8.218  -9.712  1.00  0.00    -0.266 OA
HETATM    5  N5  UNL     1     -21.504  -8.990  -7.658  1.00  0.00    -0.298 N 
ATOM      6  H5  UNL     1     -22.492  -9.243  -7.676  1.00  0.00     0.171 HD
HETATM    7  C11 UNL     1     -20.879  -9.044  -6.461  1.00  0.00     0.181 C 
HETATM    8  S1  UNL     1     -21.756  -9.708  -5.259  1.00  0.00    -0.040 SA
HETATM    9  N6  UNL     1     -19.628  -8.622  -6.135  1.00  0.00    -0.299 N 
ATOM     10  H6  UNL     1     -19.464  -8.401  -5.152  1.00  0.00     0.171 HD
HETATM   11  C12 UNL     1     -18.586  -8.465  -6.965  1.00  0.00     0.261 C 
HETATM   12  O2  UNL     1     -17.494  -8.104  -6.435  1.00  0.00    -0.267 OA
ENDROOT
BRANCH   1  13
HETATM   13  C3  UNL     1     -17.212  -8.855  -8.886  1.00  0.00     0.126 C 
HETATM   14  N2  UNL     1     -16.485  -9.878  -8.886  1.00  0.00    -0.315 N 
ATOM     15  H2  UNL     1     -16.868 -10.723  -8.463  1.00  0.00     0.185 HD
BRANCH  14  16
HETATM   16  N1  UNL     1     -15.202  -9.952  -9.415  1.00  0.00    -0.337 N 
ATOM     17  H1  UNL     1     -15.025 -10.580 -10.199  1.00  0.00     0.180 HD
BRANCH  16  18
HETATM   18  C2  UNL     1     -14.115  -9.168  -8.889  1.00  0.00     0.135 C 
HETATM   19  C1  UNL     1     -13.037 -10.034  -8.252  1.00  0.00     0.028 C 
ENDBRANCH  16  18
ENDBRANCH  14  16
ENDBRANCH   1  13
BRANCH   2  20
HETATM   20  N3  UNL     1     -19.460  -8.651 -10.641  1.00  0.00    -0.372 N 
HETATM   21  C6  UNL     1     -19.518  -9.819 -11.470  1.00  0.00     0.142 C 
HETATM   22  C7  UNL     1     -18.413  -9.705 -12.512  1.00  0.00     0.133 C 
HETATM   23  N4  UNL     1     -18.798  -8.671 -13.423  1.00  0.00    -0.418 N 
HETATM   24  C8  UNL     1     -19.240  -7.467 -12.809  1.00  0.00     0.133 C 
ATOM     25  H4  UNL     1     -18.757  -8.788 -14.435  1.00  0.00     0.153 HD
HETATM   26  C9  UNL     1     -19.132  -7.394 -11.327  1.00  0.00     0.142 C 
ENDBRANCH   2  20
TORSDOF 4
ENDMDL
