MODEL 1
REMARK VINA RESULT: -8.627662165      0.000      0.000
REMARK  7 active torsions:
REMARK  status: ('A' for Active; 'I' for Inactive)
REMARK    1  A    between atoms: C2_3  and  C3_4 
REMARK    2  A    between atoms: C3_4  and  C4_5 
REMARK    3  A    between atoms: C4_5  and  N2_6 
REMARK    4  A    between atoms: N3_9  and  C7_10 
REMARK    5  A    between atoms: C9_16  and  N6_17 
REMARK    6  A    between atoms: N6_17  and  N7_19 
REMARK    7  A    between atoms: C11_27  and  N10_28 
ROOT
HETATM    1  N1  UNL     1     -29.128  -9.049  -2.436  1.00  0.00    -0.197 NA
HETATM    2  C1  UNL     1     -29.417 -10.079  -2.900  1.00  0.00     0.062 C 
HETATM    3  C2  UNL     1     -29.767 -11.341  -3.521  1.00  0.00     0.152 C 
ENDROOT
BRANCH   3   4
HETATM    4  C3  UNL     1     -29.137 -12.512  -2.917  1.00  0.00    -0.001 C 
BRANCH   4   5
HETATM    5  C4  UNL     1     -27.710 -12.787  -2.919  1.00  0.00     0.056 C 
BRANCH   5   6
HETATM    6  N2  UNL     1     -26.742 -11.789  -3.260  1.00  0.00    -0.290 NA
HETATM    7  C5  UNL     1     -26.314 -12.103  -4.658  1.00  0.00     0.114 C 
HETATM    8  C6  UNL     1     -25.380 -11.007  -5.110  1.00  0.00     0.139 C 
HETATM    9  N3  UNL     1     -24.129 -11.294  -4.381  1.00  0.00    -0.362 N 
HETATM   10  C12 UNL     1     -24.287 -12.268  -3.329  1.00  0.00     0.139 C 
HETATM   11  C13 UNL     1     -25.509 -12.008  -2.494  1.00  0.00     0.114 C 
BRANCH   9  12
HETATM   12  C7  UNL     1     -22.970 -10.619  -4.746  1.00  0.00     0.149 A 
HETATM   13  N4  UNL     1     -22.411 -10.788  -5.985  1.00  0.00    -0.322 N 
HETATM   14  C8  UNL     1     -21.345 -10.108  -6.392  1.00  0.00     0.167 A 
ATOM     15  H4  UNL     1     -22.831 -11.464  -6.623  1.00  0.00     0.169 HD
HETATM   16  N5  UNL     1     -20.616 -10.075  -7.541  1.00  0.00    -0.171 N 
HETATM   17  C10 UNL     1     -20.764  -9.194  -5.543  1.00  0.00     0.167 A 
HETATM   18  C9  UNL     1     -19.622  -9.185  -7.429  1.00  0.00     0.699 A 
ATOM     19  H5  UNL     1     -20.801 -10.645  -8.367  1.00  0.00     0.186 HD
HETATM   20  N8  UNL     1     -19.725  -8.657  -6.205  1.00  0.00    -0.171 N 
ATOM     21  H8  UNL     1     -19.102  -7.944  -5.826  1.00  0.00     0.186 HD
HETATM   22  N9  UNL     1     -21.287  -9.004  -4.313  1.00  0.00    -0.322 N 
HETATM   23  C11 UNL     1     -22.380  -9.707  -3.908  1.00  0.00     0.145 A 
ATOM     24  H9  UNL     1     -20.858  -8.328  -3.682  1.00  0.00     0.169 HD
BRANCH  18  25
HETATM   25  N6  UNL     1     -18.729  -8.892  -8.343  1.00  0.00    -0.138 N 
ATOM     26  H6  UNL     1     -18.979  -8.376  -9.186  1.00  0.00     0.205 HD
BRANCH  25  27
HETATM   27  N7  UNL     1     -17.430  -9.314  -8.109  1.00  0.00    -0.331 N 
ATOM     28  H72 UNL     1     -16.915  -8.982  -7.294  1.00  0.00     0.177 HD
ATOM     29  H71 UNL     1     -17.026  -9.962  -8.786  1.00  0.00     0.177 HD
ENDBRANCH  25  27
ENDBRANCH  18  25
BRANCH  23  30
HETATM   30  N10 UNL     1     -22.815  -9.502  -2.729  1.00  0.00    -0.382 N 
ATOM     31 2H10 UNL     1     -23.554 -10.114  -2.380  1.00  0.00     0.157 HD
ATOM     32 1H10 UNL     1     -22.457  -8.743  -2.148  1.00  0.00     0.157 HD
ENDBRANCH  23  30
ENDBRANCH   9  12
ENDBRANCH   5   6
ENDBRANCH   4   5
ENDBRANCH   3   4
TORSDOF 7
ENDMDL
MODEL 2
REMARK VINA RESULT: -8.561598997      1.644      1.974
REMARK  7 active torsions:
REMARK  status: ('A' for Active; 'I' for Inactive)
REMARK    1  A    between atoms: C2_3  and  C3_4 
REMARK    2  A    between atoms: C3_4  and  C4_5 
REMARK    3  A    between atoms: C4_5  and  N2_6 
REMARK    4  A    between atoms: N3_9  and  C7_10 
REMARK    5  A    between atoms: C9_16  and  N6_17 
REMARK    6  A    between atoms: N6_17  and  N7_19 
REMARK    7  A    between atoms: C11_27  and  N10_28 
ROOT
HETATM    1  N1  UNL     1     -30.621 -10.819  -4.417  1.00  0.00    -0.197 NA
HETATM    2  C1  UNL     1     -30.083 -11.539  -3.673  1.00  0.00     0.062 C 
HETATM    3  C2  UNL     1     -29.444 -12.469  -2.764  1.00  0.00     0.152 C 
ENDROOT
BRANCH   3   4
HETATM    4  C3  UNL     1     -27.984 -12.443  -2.793  1.00  0.00    -0.001 C 
BRANCH   4   5
HETATM    5  C4  UNL     1     -27.156 -11.393  -2.224  1.00  0.00     0.056 C 
BRANCH   5   6
HETATM    6  N2  UNL     1     -25.735 -11.364  -2.399  1.00  0.00    -0.290 NA
HETATM    7  C5  UNL     1     -25.422 -10.004  -2.937  1.00  0.00     0.114 C 
HETATM    8  C6  UNL     1     -23.922  -9.878  -3.027  1.00  0.00     0.139 C 
HETATM    9  N3  UNL     1     -23.573 -10.710  -4.196  1.00  0.00    -0.362 N 
HETATM   10  C12 UNL     1     -24.656 -11.547  -4.649  1.00  0.00     0.139 C 
HETATM   11  C13 UNL     1     -25.351 -12.241  -3.512  1.00  0.00     0.114 C 
BRANCH   9  12
HETATM   12  C7  UNL     1     -22.287 -10.627  -4.718  1.00  0.00     0.149 A 
HETATM   13  N4  UNL     1     -21.892  -9.548  -5.463  1.00  0.00    -0.322 N 
HETATM   14  C8  UNL     1     -20.653  -9.404  -5.919  1.00  0.00     0.167 A 
ATOM     15  H4  UNL     1     -22.578  -8.825  -5.677  1.00  0.00     0.169 HD
HETATM   16  N5  UNL     1     -20.011  -8.454  -6.651  1.00  0.00    -0.171 N 
HETATM   17  C10 UNL     1     -19.716 -10.372  -5.642  1.00  0.00     0.167 A 
HETATM   18  C9  UNL     1     -18.730  -8.800  -6.832  1.00  0.00     0.699 A 
ATOM     19  H5  UNL     1     -20.442  -7.602  -7.010  1.00  0.00     0.186 HD
HETATM   20  N8  UNL     1     -18.565  -9.972  -6.210  1.00  0.00    -0.171 N 
ATOM     21  H8  UNL     1     -17.688 -10.492  -6.173  1.00  0.00     0.186 HD
HETATM   22  N9  UNL     1     -20.071 -11.451  -4.913  1.00  0.00    -0.322 N 
HETATM   23  C11 UNL     1     -21.344 -11.588  -4.450  1.00  0.00     0.145 A 
ATOM     24  H9  UNL     1     -19.378 -12.171  -4.706  1.00  0.00     0.169 HD
BRANCH  18  25
HETATM   25  N6  UNL     1     -17.820  -8.119  -7.485  1.00  0.00    -0.138 N 
ATOM     26  H6  UNL     1     -17.145  -8.579  -8.095  1.00  0.00     0.205 HD
BRANCH  25  27
HETATM   27  N7  UNL     1     -17.819  -6.744  -7.310  1.00  0.00    -0.331 N 
ATOM     28  H72 UNL     1     -18.293  -6.135  -7.977  1.00  0.00     0.177 HD
ATOM     29  H71 UNL     1     -17.328  -6.383  -6.492  1.00  0.00     0.177 HD
ENDBRANCH  25  27
ENDBRANCH  18  25
BRANCH  23  30
HETATM   30  N10 UNL     1     -21.627 -12.637  -3.787  1.00  0.00    -0.382 N 
ATOM     31 2H10 UNL     1     -22.559 -13.038  -3.902  1.00  0.00     0.157 HD
ATOM     32 1H10 UNL     1     -20.958 -13.064  -3.146  1.00  0.00     0.157 HD
ENDBRANCH  23  30
ENDBRANCH   9  12
ENDBRANCH   5   6
ENDBRANCH   4   5
ENDBRANCH   3   4
TORSDOF 7
ENDMDL
MODEL 3
REMARK VINA RESULT: -8.539239543      1.906      8.322
REMARK  7 active torsions:
REMARK  status: ('A' for Active; 'I' for Inactive)
REMARK    1  A    between atoms: C2_3  and  C3_4 
REMARK    2  A    between atoms: C3_4  and  C4_5 
REMARK    3  A    between atoms: C4_5  and  N2_6 
REMARK    4  A    between atoms: N3_9  and  C7_10 
REMARK    5  A    between atoms: C9_16  and  N6_17 
REMARK    6  A    between atoms: N6_17  and  N7_19 
REMARK    7  A    between atoms: C11_27  and  N10_28 
ROOT
HETATM    1  N1  UNL     1     -18.635  -6.680  -8.823  1.00  0.00    -0.197 NA
HETATM    2  C1  UNL     1     -18.489  -7.441  -7.951  1.00  0.00     0.062 C 
HETATM    3  C2  UNL     1     -18.292  -8.348  -6.839  1.00  0.00     0.152 C 
ENDROOT
BRANCH   3   4
HETATM    4  C3  UNL     1     -19.435  -9.211  -6.547  1.00  0.00    -0.001 C 
BRANCH   4   5
HETATM    5  C4  UNL     1     -19.450 -10.270  -5.552  1.00  0.00     0.056 C 
BRANCH   5   6
HETATM    6  N2  UNL     1     -20.527 -10.425  -4.621  1.00  0.00    -0.290 NA
HETATM    7  C5  UNL     1     -21.322 -11.592  -5.115  1.00  0.00     0.114 C 
HETATM    8  C6  UNL     1     -22.402 -11.875  -4.101  1.00  0.00     0.139 C 
HETATM    9  N3  UNL     1     -23.374 -10.784  -4.317  1.00  0.00    -0.362 N 
HETATM   10  C12 UNL     1     -22.868  -9.720  -5.148  1.00  0.00     0.139 C 
HETATM   11  C13 UNL     1     -21.474  -9.313  -4.764  1.00  0.00     0.114 C 
BRANCH   9  12
HETATM   12  C7  UNL     1     -24.624 -10.870  -3.713  1.00  0.00     0.149 A 
HETATM   13  N4  UNL     1     -25.648 -11.566  -4.297  1.00  0.00    -0.322 N 
HETATM   14  C8  UNL     1     -26.832 -11.726  -3.717  1.00  0.00     0.167 A 
ATOM     15  H4  UNL     1     -25.495 -11.979  -5.217  1.00  0.00     0.169 HD
HETATM   16  N5  UNL     1     -27.985 -12.361  -4.063  1.00  0.00    -0.171 N 
HETATM   17  C10 UNL     1     -27.055 -11.173  -2.477  1.00  0.00     0.167 A 
HETATM   18  C9  UNL     1     -28.896 -12.219  -3.092  1.00  0.00     0.699 A 
ATOM     19  H5  UNL     1     -28.133 -12.871  -4.934  1.00  0.00     0.186 HD
HETATM   20  N8  UNL     1     -28.314 -11.492  -2.132  1.00  0.00    -0.171 N 
ATOM     21  H8  UNL     1     -28.763 -11.218  -1.258  1.00  0.00     0.186 HD
HETATM   22  N9  UNL     1     -26.069 -10.478  -1.873  1.00  0.00    -0.322 N 
HETATM   23  C11 UNL     1     -24.859 -10.321  -2.477  1.00  0.00     0.145 A 
ATOM     24  H9  UNL     1     -26.232 -10.067  -0.954  1.00  0.00     0.169 HD
BRANCH  18  25
HETATM   25  N6  UNL     1     -30.115 -12.702  -3.086  1.00  0.00    -0.138 N 
ATOM     26  H6  UNL     1     -30.516 -13.127  -2.250  1.00  0.00     0.205 HD
BRANCH  25  27
HETATM   27  N7  UNL     1     -30.832 -12.609  -4.268  1.00  0.00    -0.331 N 
ATOM     28  H72 UNL     1     -30.457 -12.995  -5.135  1.00  0.00     0.177 HD
ATOM     29  H71 UNL     1     -31.738 -12.142  -4.223  1.00  0.00     0.177 HD
ENDBRANCH  25  27
ENDBRANCH  18  25
BRANCH  23  30
HETATM   30  N10 UNL     1     -23.974  -9.636  -1.869  1.00  0.00    -0.382 N 
ATOM     31 2H10 UNL     1     -23.250  -9.186  -2.430  1.00  0.00     0.157 HD
ATOM     32 1H10 UNL     1     -23.969  -9.547  -0.853  1.00  0.00     0.157 HD
ENDBRANCH  23  30
ENDBRANCH   9  12
ENDBRANCH   5   6
ENDBRANCH   4   5
ENDBRANCH   3   4
TORSDOF 7
ENDMDL
MODEL 4
REMARK VINA RESULT: -8.465044270      0.983      1.007
REMARK  7 active torsions:
REMARK  status: ('A' for Active; 'I' for Inactive)
REMARK    1  A    between atoms: C2_3  and  C3_4 
REMARK    2  A    between atoms: C3_4  and  C4_5 
REMARK    3  A    between atoms: C4_5  and  N2_6 
REMARK    4  A    between atoms: N3_9  and  C7_10 
REMARK    5  A    between atoms: C9_16  and  N6_17 
REMARK    6  A    between atoms: N6_17  and  N7_19 
REMARK    7  A    between atoms: C11_27  and  N10_28 
ROOT
HETATM    1  N1  UNL     1     -31.071 -10.824  -4.780  1.00  0.00    -0.197 NA
HETATM    2  C1  UNL     1     -30.563 -11.562  -4.034  1.00  0.00     0.062 C 
HETATM    3  C2  UNL     1     -29.931 -12.514  -3.142  1.00  0.00     0.152 C 
ENDROOT
BRANCH   3   4
HETATM    4  C3  UNL     1     -28.784 -11.988  -2.405  1.00  0.00    -0.001 C 
BRANCH   4   5
HETATM    5  C4  UNL     1     -27.413 -12.447  -2.554  1.00  0.00     0.056 C 
BRANCH   5   6
HETATM    6  N2  UNL     1     -26.328 -11.542  -2.788  1.00  0.00    -0.290 NA
HETATM    7  C5  UNL     1     -26.281 -11.344  -4.270  1.00  0.00     0.114 C 
HETATM    8  C6  UNL     1     -25.229 -10.303  -4.562  1.00  0.00     0.139 C 
HETATM    9  N3  UNL     1     -23.959 -11.025  -4.352  1.00  0.00    -0.362 N 
HETATM   10  C12 UNL     1     -24.123 -12.299  -3.696  1.00  0.00     0.139 C 
HETATM   11  C13 UNL     1     -25.052 -12.214  -2.518  1.00  0.00     0.114 C 
BRANCH   9  12
HETATM   12  C7  UNL     1     -22.773 -10.432  -4.772  1.00  0.00     0.149 A 
HETATM   13  N4  UNL     1     -22.321 -10.582  -6.056  1.00  0.00    -0.322 N 
HETATM   14  C8  UNL     1     -21.230  -9.975  -6.509  1.00  0.00     0.167 A 
ATOM     15  H4  UNL     1     -22.843 -11.186  -6.690  1.00  0.00     0.169 HD
HETATM   16  N5  UNL     1     -20.584  -9.944  -7.707  1.00  0.00    -0.171 N 
HETATM   17  C10 UNL     1     -20.512  -9.160  -5.665  1.00  0.00     0.167 A 
HETATM   18  C9  UNL     1     -19.509  -9.149  -7.629  1.00  0.00     0.699 A 
ATOM     19  H5  UNL     1     -20.877 -10.451  -8.542  1.00  0.00     0.186 HD
HETATM   20  N8  UNL     1     -19.479  -8.678  -6.378  1.00  0.00    -0.171 N 
ATOM     21  H8  UNL     1     -18.770  -8.042  -6.013  1.00  0.00     0.186 HD
HETATM   22  N9  UNL     1     -20.927  -8.992  -4.392  1.00  0.00    -0.322 N 
HETATM   23  C11 UNL     1     -22.047  -9.619  -3.938  1.00  0.00     0.145 A 
ATOM     24  H9  UNL     1     -20.396  -8.388  -3.764  1.00  0.00     0.169 HD
BRANCH  18  25
HETATM   25  N6  UNL     1     -18.661  -8.884  -8.592  1.00  0.00    -0.138 N 
ATOM     26  H6  UNL     1     -18.957  -8.417  -9.450  1.00  0.00     0.205 HD
BRANCH  25  27
HETATM   27  N7  UNL     1     -17.345  -9.267  -8.392  1.00  0.00    -0.331 N 
ATOM     28  H72 UNL     1     -16.578  -8.646  -8.649  1.00  0.00     0.177 HD
ATOM     29  H71 UNL     1     -17.189 -10.188  -7.982  1.00  0.00     0.177 HD
ENDBRANCH  25  27
ENDBRANCH  18  25
BRANCH  23  30
HETATM   30  N10 UNL     1     -22.378  -9.441  -2.722  1.00  0.00    -0.382 N 
ATOM     31 2H10 UNL     1     -22.754 -10.237  -2.208  1.00  0.00     0.157 HD
ATOM     32 1H10 UNL     1     -22.290  -8.530  -2.270  1.00  0.00     0.157 HD
ENDBRANCH  23  30
ENDBRANCH   9  12
ENDBRANCH   5   6
ENDBRANCH   4   5
ENDBRANCH   3   4
TORSDOF 7
ENDMDL
MODEL 5
REMARK VINA RESULT: -8.187268944      2.393      3.189
REMARK  7 active torsions:
REMARK  status: ('A' for Active; 'I' for Inactive)
REMARK    1  A    between atoms: C2_3  and  C3_4 
REMARK    2  A    between atoms: C3_4  and  C4_5 
REMARK    3  A    between atoms: C4_5  and  N2_6 
REMARK    4  A    between atoms: N3_9  and  C7_10 
REMARK    5  A    between atoms: C9_16  and  N6_17 
REMARK    6  A    between atoms: N6_17  and  N7_19 
REMARK    7  A    between atoms: C11_27  and  N10_28 
ROOT
HETATM    1  N1  UNL     1     -31.368 -10.371  -4.932  1.00  0.00    -0.197 NA
HETATM    2  C1  UNL     1     -31.004 -11.391  -4.498  1.00  0.00     0.062 C 
HETATM    3  C2  UNL     1     -30.533 -12.669  -4.005  1.00  0.00     0.152 C 
ENDROOT
BRANCH   3   4
HETATM    4  C3  UNL     1     -29.776 -12.598  -2.757  1.00  0.00    -0.001 C 
BRANCH   4   5
HETATM    5  C4  UNL     1     -29.059 -11.428  -2.280  1.00  0.00     0.056 C 
BRANCH   5   6
HETATM    6  N2  UNL     1     -27.629 -11.362  -2.271  1.00  0.00    -0.290 NA
HETATM    7  C5  UNL     1     -27.273 -10.206  -3.151  1.00  0.00     0.114 C 
HETATM    8  C6  UNL     1     -25.778 -10.017  -3.081  1.00  0.00     0.139 C 
HETATM    9  N3  UNL     1     -25.249 -11.135  -3.888  1.00  0.00    -0.362 N 
HETATM   10  C12 UNL     1     -26.239 -12.136  -4.202  1.00  0.00     0.139 C 
HETATM   11  C13 UNL     1     -27.073 -12.503  -3.007  1.00  0.00     0.114 C 
BRANCH   9  12
HETATM   12  C7  UNL     1     -23.904 -11.129  -4.241  1.00  0.00     0.149 A 
HETATM   13  N4  UNL     1     -22.948 -11.627  -3.397  1.00  0.00    -0.322 N 
HETATM   14  C8  UNL     1     -21.664 -11.701  -3.729  1.00  0.00     0.167 A 
ATOM     15  H4  UNL     1     -23.233 -11.954  -2.474  1.00  0.00     0.169 HD
HETATM   16  N5  UNL     1     -20.541 -12.147  -3.102  1.00  0.00    -0.171 N 
HETATM   17  C10 UNL     1     -21.262 -11.261  -4.968  1.00  0.00     0.167 A 
HETATM   18  C9  UNL     1     -19.478 -11.999  -3.903  1.00  0.00     0.699 A 
ATOM     19  H5  UNL     1     -20.514 -12.538  -2.160  1.00  0.00     0.186 HD
HETATM   20  N8  UNL     1     -19.934 -11.457  -5.037  1.00  0.00    -0.171 N 
ATOM     21  H8  UNL     1     -19.354 -11.225  -5.844  1.00  0.00     0.186 HD
HETATM   22  N9  UNL     1     -22.177 -10.762  -5.825  1.00  0.00    -0.322 N 
HETATM   23  C11 UNL     1     -23.491 -10.692  -5.474  1.00  0.00     0.145 A 
ATOM     24  H9  UNL     1     -21.882 -10.435  -6.745  1.00  0.00     0.169 HD
BRANCH  18  25
HETATM   25  N6  UNL     1     -18.239 -12.326  -3.626  1.00  0.00    -0.138 N 
ATOM     26  H6  UNL     1     -17.478 -12.127  -4.275  1.00  0.00     0.205 HD
BRANCH  25  27
HETATM   27  N7  UNL     1     -18.012 -12.952  -2.411  1.00  0.00    -0.331 N 
ATOM     28  H72 UNL     1     -18.339 -12.532  -1.542  1.00  0.00     0.177 HD
ATOM     29  H71 UNL     1     -17.508 -13.838  -2.436  1.00  0.00     0.177 HD
ENDBRANCH  25  27
ENDBRANCH  18  25
BRANCH  23  30
HETATM   30  N10 UNL     1     -24.306 -10.191  -6.315  1.00  0.00    -0.382 N 
ATOM     31 2H10 UNL     1     -24.832  -9.363  -6.035  1.00  0.00     0.157 HD
ATOM     32 1H10 UNL     1     -24.448 -10.605  -7.236  1.00  0.00     0.157 HD
ENDBRANCH  23  30
ENDBRANCH   9  12
ENDBRANCH   5   6
ENDBRANCH   4   5
ENDBRANCH   3   4
TORSDOF 7
ENDMDL
