MODEL 1
REMARK VINA RESULT: -7.916089108      0.000      0.000
REMARK  16 active torsions:
REMARK  status: ('A' for Active; 'I' for Inactive)
REMARK    1  A    between atoms: C2_2  and  C3_3 
REMARK    2  A    between atoms: C3_3  and  C4_4 
REMARK    3  A    between atoms: C7_7  and  C8_8 
REMARK       I    between atoms: C8_8  and  N1_10 
REMARK    4  A    between atoms: N1_10  and  C9_12 
REMARK    5  A    between atoms: C9_12  and  C10_13 
REMARK    6  A    between atoms: C9_12  and  C17_23 
REMARK    7  A    between atoms: C10_13  and  C11_14 
REMARK    8  A    between atoms: C11_14  and  C12_15 
REMARK       I    between atoms: C12_15  and  N2_17 
REMARK    9  A    between atoms: N2_17  and  C13_19 
REMARK   10  A    between atoms: C17_23  and  O3_24 
REMARK   11  A    between atoms: C17_23  and  C18_26 
REMARK       I    between atoms: C18_26  and  N3_28 
REMARK   12  A    between atoms: N3_28  and  C19_30 
REMARK   13  A    between atoms: C19_30  and  C20_31 
REMARK   14  A    between atoms: C20_31  and  C21_32 
REMARK   15  A    between atoms: C21_32  and  N4_33 
REMARK   16  A    between atoms: N4_33  and  C23_35 
ROOT
HETATM    1  C9  UNL     1      17.687  25.572  17.133  1.00  0.00     0.147 C 
ENDROOT
BRANCH   1   2
HETATM    2  N1  UNL     1      19.163  25.274  17.441  1.00  0.00    -0.348 N 
HETATM    3  C8  UNL     1      20.137  26.251  17.308  1.00  0.00     0.244 C 
HETATM    4  O1  UNL     1      19.724  27.390  16.921  1.00  0.00    -0.271 OA
ATOM      5  H1  UNL     1      19.431  24.339  17.749  1.00  0.00     0.163 HD
BRANCH   3   6
HETATM    6  C7  UNL     1      21.542  25.971  17.597  1.00  0.00     0.222 C 
HETATM    7  C3  UNL     1      21.972  26.382  18.975  1.00  0.00     0.195 C 
HETATM    8  N6  UNL     1      23.269  26.956  18.825  1.00  0.00     0.136 N 
HETATM    9  C26 UNL     1      23.668  26.889  17.485  1.00  0.00     0.284 C 
HETATM   10  C28 UNL     1      24.275  26.436  19.712  1.00  0.00     0.315 C 
HETATM   11  N5  UNL     1      22.519  26.471  16.661  1.00  0.00    -0.291 N 
HETATM   12  S1  UNL     1      23.945  28.533  16.710  1.00  0.00    -0.097 SA
HETATM   13  C27 UNL     1      24.887  26.082  17.164  1.00  0.00     0.087 C 
HETATM   14  C24 UNL     1      22.819  26.697  15.303  1.00  0.00     0.232 C 
HETATM   15  O6  UNL     1      22.606  25.888  14.329  1.00  0.00    -0.272 OA
HETATM   16  C25 UNL     1      23.446  28.015  15.025  1.00  0.00     0.181 C 
BRANCH   7  17
HETATM   17  C2  UNL     1      21.079  27.486  19.529  1.00  0.00     0.040 C 
HETATM   18  C1  UNL     1      21.293  27.749  20.999  1.00  0.00     0.007 C 
ENDBRANCH   7  17
BRANCH   7  19
HETATM   19  C4  UNL     1      21.952  25.226  19.938  1.00  0.00     0.027 A 
HETATM   20  C5  UNL     1      21.871  23.824  19.459  1.00  0.00     0.008 A 
HETATM   21  C6  UNL     1      20.780  24.461  20.325  1.00  0.00     0.008 A 
ENDBRANCH   7  19
ENDBRANCH   3   6
ENDBRANCH   1   2
BRANCH   1  22
HETATM   22  C10 UNL     1      17.599  25.450  15.679  1.00  0.00     0.041 C 
BRANCH  22  23
HETATM   23  C11 UNL     1      17.981  24.208  15.000  1.00  0.00     0.105 C 
BRANCH  23  24
HETATM   24  C12 UNL     1      16.982  23.121  15.002  1.00  0.00     0.218 C 
HETATM   25  O2  UNL     1      17.289  21.953  15.328  1.00  0.00    -0.274 OA
HETATM   26  N2  UNL     1      15.623  23.338  14.636  1.00  0.00    -0.353 N 
ATOM     27  H2  UNL     1      15.328  24.277  14.368  1.00  0.00     0.163 HD
BRANCH  26  28
HETATM   28  C13 UNL     1      14.652  22.270  14.634  1.00  0.00     0.022 C 
HETATM   29  C14 UNL     1      13.263  22.925  14.575  1.00  0.00     0.037 C 
HETATM   30  C15 UNL     1      14.764  21.371  13.428  1.00  0.00     0.037 C 
HETATM   31  C16 UNL     1      14.714  21.444  15.896  1.00  0.00     0.037 C 
ENDBRANCH  26  28
ENDBRANCH  23  24
ENDBRANCH  22  23
ENDBRANCH   1  22
BRANCH   1  32
HETATM   32  C17 UNL     1      16.976  24.814  18.099  1.00  0.00     0.134 C 
BRANCH  32  33
HETATM   33  O3  UNL     1      15.934  25.470  18.638  1.00  0.00    -0.358 OA
ATOM     34  H3  UNL     1      15.145  24.944  18.702  1.00  0.00     0.217 HD
ENDBRANCH  32  33
BRANCH  32  35
HETATM   35  C18 UNL     1      17.086  23.498  18.663  1.00  0.00     0.272 C 
HETATM   36  O4  UNL     1      18.146  22.874  18.896  1.00  0.00    -0.266 OA
HETATM   37  N3  UNL     1      15.886  22.766  19.025  1.00  0.00    -0.355 N 
ATOM     38  H3  UNL     1      14.967  23.176  18.860  1.00  0.00     0.162 HD
BRANCH  37  39
HETATM   39  C19 UNL     1      15.997  21.466  19.615  1.00  0.00     0.124 C 
BRANCH  39  40
HETATM   40  C20 UNL     1      14.602  20.913  19.889  1.00  0.00     0.039 C 
BRANCH  40  41
HETATM   41  C21 UNL     1      14.371  19.753  18.956  1.00  0.00     0.126 C 
BRANCH  41  42
HETATM   42  N4  UNL     1      12.960  19.355  18.978  1.00  0.00    -0.364 N 
HETATM   43  C22 UNL     1      12.126  19.528  17.805  1.00  0.00     0.152 C 
BRANCH  42  44
HETATM   44  C23 UNL     1      12.459  18.785  20.170  1.00  0.00     0.350 C 
HETATM   45  O5  UNL     1      11.213  18.794  20.374  1.00  0.00    -0.284 OA
ENDBRANCH  42  44
ENDBRANCH  41  42
ENDBRANCH  40  41
ENDBRANCH  39  40
ENDBRANCH  37  39
ENDBRANCH  32  35
ENDBRANCH   1  32
TORSDOF 16
ENDMDL
MODEL 2
REMARK VINA RESULT: -7.890810566      3.344      9.539
REMARK  16 active torsions:
REMARK  status: ('A' for Active; 'I' for Inactive)
REMARK    1  A    between atoms: C2_2  and  C3_3 
REMARK    2  A    between atoms: C3_3  and  C4_4 
REMARK    3  A    between atoms: C7_7  and  C8_8 
REMARK       I    between atoms: C8_8  and  N1_10 
REMARK    4  A    between atoms: N1_10  and  C9_12 
REMARK    5  A    between atoms: C9_12  and  C10_13 
REMARK    6  A    between atoms: C9_12  and  C17_23 
REMARK    7  A    between atoms: C10_13  and  C11_14 
REMARK    8  A    between atoms: C11_14  and  C12_15 
REMARK       I    between atoms: C12_15  and  N2_17 
REMARK    9  A    between atoms: N2_17  and  C13_19 
REMARK   10  A    between atoms: C17_23  and  O3_24 
REMARK   11  A    between atoms: C17_23  and  C18_26 
REMARK       I    between atoms: C18_26  and  N3_28 
REMARK   12  A    between atoms: N3_28  and  C19_30 
REMARK   13  A    between atoms: C19_30  and  C20_31 
REMARK   14  A    between atoms: C20_31  and  C21_32 
REMARK   15  A    between atoms: C21_32  and  N4_33 
REMARK   16  A    between atoms: N4_33  and  C23_35 
ROOT
HETATM    1  C9  UNL     1      16.962  22.959  16.328  1.00  0.00     0.147 C 
ENDROOT
BRANCH   1   2
HETATM    2  N1  UNL     1      15.629  22.516  16.954  1.00  0.00    -0.348 N 
HETATM    3  C8  UNL     1      14.854  21.527  16.370  1.00  0.00     0.244 C 
HETATM    4  O1  UNL     1      15.320  21.024  15.298  1.00  0.00    -0.271 OA
ATOM      5  H1  UNL     1      15.310  22.958  17.816  1.00  0.00     0.163 HD
BRANCH   3   6
HETATM    6  C7  UNL     1      13.585  21.105  16.960  1.00  0.00     0.222 C 
HETATM    7  C3  UNL     1      13.726  20.022  17.990  1.00  0.00     0.195 C 
HETATM    8  N6  UNL     1      12.643  19.122  17.760  1.00  0.00     0.136 N 
HETATM    9  C26 UNL     1      11.847  19.592  16.710  1.00  0.00     0.284 C 
HETATM   10  C28 UNL     1      11.862  18.796  18.924  1.00  0.00     0.315 C 
HETATM   11  N5  UNL     1      12.533  20.718  16.052  1.00  0.00    -0.291 N 
HETATM   12  S1  UNL     1      11.783  18.460  15.263  1.00  0.00    -0.097 SA
HETATM   13  C27 UNL     1      10.422  19.932  17.019  1.00  0.00     0.087 C 
HETATM   14  C24 UNL     1      11.898  20.992  14.824  1.00  0.00     0.232 C 
HETATM   15  O6  UNL     1      11.581  22.150  14.371  1.00  0.00    -0.272 OA
HETATM   16  C25 UNL     1      11.582  19.786  14.016  1.00  0.00     0.181 C 
BRANCH   7  17
HETATM   17  C2  UNL     1      15.002  19.216  17.777  1.00  0.00     0.040 C 
HETATM   18  C1  UNL     1      14.859  17.760  18.144  1.00  0.00     0.007 C 
ENDBRANCH   7  17
BRANCH   7  19
HETATM   19  C4  UNL     1      13.741  20.575  19.389  1.00  0.00     0.027 A 
HETATM   20  C5  UNL     1      14.960  21.200  19.959  1.00  0.00     0.008 A 
HETATM   21  C6  UNL     1      14.331  19.935  20.551  1.00  0.00     0.008 A 
ENDBRANCH   7  19
ENDBRANCH   3   6
ENDBRANCH   1   2
BRANCH   1  22
HETATM   22  C10 UNL     1      16.883  24.419  16.329  1.00  0.00     0.041 C 
BRANCH  22  23
HETATM   23  C11 UNL     1      17.474  25.209  15.245  1.00  0.00     0.105 C 
BRANCH  23  24
HETATM   24  C12 UNL     1      18.875  25.636  15.428  1.00  0.00     0.218 C 
HETATM   25  O2  UNL     1      19.632  25.062  16.239  1.00  0.00    -0.274 OA
HETATM   26  N2  UNL     1      19.439  26.720  14.695  1.00  0.00    -0.353 N 
ATOM     27  H2  UNL     1      18.858  27.215  14.019  1.00  0.00     0.163 HD
BRANCH  26  28
HETATM   28  C13 UNL     1      20.808  27.138  14.882  1.00  0.00     0.022 C 
HETATM   29  C14 UNL     1      21.037  28.352  13.968  1.00  0.00     0.037 C 
HETATM   30  C15 UNL     1      21.103  27.589  16.291  1.00  0.00     0.037 C 
HETATM   31  C16 UNL     1      21.789  26.066  14.471  1.00  0.00     0.037 C 
ENDBRANCH  26  28
ENDBRANCH  23  24
ENDBRANCH  22  23
ENDBRANCH   1  22
BRANCH   1  32
HETATM   32  C17 UNL     1      17.931  22.155  16.982  1.00  0.00     0.134 C 
BRANCH  32  33
HETATM   33  O3  UNL     1      18.316  21.086  16.265  1.00  0.00    -0.358 OA
ATOM     34  H3  UNL     1      19.016  20.587  16.671  1.00  0.00     0.217 HD
ENDBRANCH  32  33
BRANCH  32  35
HETATM   35  C18 UNL     1      18.620  22.189  18.241  1.00  0.00     0.272 C 
HETATM   36  O4  UNL     1      18.580  21.313  19.136  1.00  0.00    -0.266 OA
HETATM   37  N3  UNL     1      19.466  23.320  18.571  1.00  0.00    -0.355 N 
ATOM     38  H3  UNL     1      19.555  24.100  17.918  1.00  0.00     0.162 HD
BRANCH  37  39
HETATM   39  C19 UNL     1      20.177  23.340  19.813  1.00  0.00     0.124 C 
BRANCH  39  40
HETATM   40  C20 UNL     1      20.120  24.743  20.409  1.00  0.00     0.039 C 
BRANCH  40  41
HETATM   41  C21 UNL     1      20.856  25.672  19.480  1.00  0.00     0.126 C 
BRANCH  41  42
HETATM   42  N4  UNL     1      21.905  26.394  20.208  1.00  0.00    -0.364 N 
HETATM   43  C22 UNL     1      23.226  26.551  19.633  1.00  0.00     0.152 C 
BRANCH  42  44
HETATM   44  C23 UNL     1      21.572  26.939  21.468  1.00  0.00     0.350 C 
HETATM   45  O5  UNL     1      21.144  28.126  21.526  1.00  0.00    -0.284 OA
ENDBRANCH  42  44
ENDBRANCH  41  42
ENDBRANCH  40  41
ENDBRANCH  39  40
ENDBRANCH  37  39
ENDBRANCH  32  35
ENDBRANCH   1  32
TORSDOF 16
ENDMDL
MODEL 3
REMARK VINA RESULT: -7.717089260      2.249      3.044
REMARK  16 active torsions:
REMARK  status: ('A' for Active; 'I' for Inactive)
REMARK    1  A    between atoms: C2_2  and  C3_3 
REMARK    2  A    between atoms: C3_3  and  C4_4 
REMARK    3  A    between atoms: C7_7  and  C8_8 
REMARK       I    between atoms: C8_8  and  N1_10 
REMARK    4  A    between atoms: N1_10  and  C9_12 
REMARK    5  A    between atoms: C9_12  and  C10_13 
REMARK    6  A    between atoms: C9_12  and  C17_23 
REMARK    7  A    between atoms: C10_13  and  C11_14 
REMARK    8  A    between atoms: C11_14  and  C12_15 
REMARK       I    between atoms: C12_15  and  N2_17 
REMARK    9  A    between atoms: N2_17  and  C13_19 
REMARK   10  A    between atoms: C17_23  and  O3_24 
REMARK   11  A    between atoms: C17_23  and  C18_26 
REMARK       I    between atoms: C18_26  and  N3_28 
REMARK   12  A    between atoms: N3_28  and  C19_30 
REMARK   13  A    between atoms: C19_30  and  C20_31 
REMARK   14  A    between atoms: C20_31  and  C21_32 
REMARK   15  A    between atoms: C21_32  and  N4_33 
REMARK   16  A    between atoms: N4_33  and  C23_35 
ROOT
HETATM    1  C9  UNL     1      15.892  23.771  16.586  1.00  0.00     0.147 C 
ENDROOT
BRANCH   1   2
HETATM    2  N1  UNL     1      17.341  23.517  17.034  1.00  0.00    -0.348 N 
HETATM    3  C8  UNL     1      18.163  24.560  17.431  1.00  0.00     0.244 C 
HETATM    4  O1  UNL     1      17.638  25.718  17.398  1.00  0.00    -0.271 OA
ATOM      5  H1  UNL     1      17.703  22.564  17.039  1.00  0.00     0.163 HD
BRANCH   3   6
HETATM    6  C7  UNL     1      19.542  24.324  17.855  1.00  0.00     0.222 C 
HETATM    7  C3  UNL     1      19.664  23.798  19.256  1.00  0.00     0.195 C 
HETATM    8  N6  UNL     1      20.777  24.479  19.833  1.00  0.00     0.136 N 
HETATM    9  C26 UNL     1      21.354  25.335  18.888  1.00  0.00     0.284 C 
HETATM   10  C28 UNL     1      21.756  23.629  20.458  1.00  0.00     0.315 C 
HETATM   11  N5  UNL     1      20.472  25.416  17.710  1.00  0.00    -0.291 N 
HETATM   12  S1  UNL     1      21.298  27.110  19.364  1.00  0.00    -0.097 SA
HETATM   13  C27 UNL     1      22.771  25.071  18.486  1.00  0.00     0.087 C 
HETATM   14  C24 UNL     1      20.881  26.496  16.901  1.00  0.00     0.232 C 
HETATM   15  O6  UNL     1      21.014  26.485  15.624  1.00  0.00    -0.272 OA
HETATM   16  C25 UNL     1      21.178  27.744  17.650  1.00  0.00     0.181 C 
BRANCH   7  17
HETATM   17  C2  UNL     1      18.451  24.175  20.098  1.00  0.00     0.040 C 
HETATM   18  C1  UNL     1      18.812  24.775  21.434  1.00  0.00     0.007 C 
ENDBRANCH   7  17
BRANCH   7  19
HETATM   19  C4  UNL     1      19.815  22.302  19.283  1.00  0.00     0.027 A 
HETATM   20  C5  UNL     1      18.633  21.408  19.360  1.00  0.00     0.008 A 
HETATM   21  C6  UNL     1      19.700  21.456  20.458  1.00  0.00     0.008 A 
ENDBRANCH   7  19
ENDBRANCH   3   6
ENDBRANCH   1   2
BRANCH   1  22
HETATM   22  C10 UNL     1      15.816  23.144  15.268  1.00  0.00     0.041 C 
BRANCH  22  23
HETATM   23  C11 UNL     1      14.578  23.176  14.485  1.00  0.00     0.105 C 
BRANCH  23  24
HETATM   24  C12 UNL     1      13.707  21.988  14.579  1.00  0.00     0.218 C 
HETATM   25  O2  UNL     1      14.170  20.859  14.851  1.00  0.00    -0.274 OA
HETATM   26  N2  UNL     1      12.300  22.059  14.366  1.00  0.00    -0.353 N 
ATOM     27  H2  UNL     1      11.879  22.961  14.146  1.00  0.00     0.163 HD
BRANCH  26  28
HETATM   28  C13 UNL     1      11.454  20.892  14.453  1.00  0.00     0.022 C 
HETATM   29  C14 UNL     1      10.002  21.381  14.337  1.00  0.00     0.037 C 
HETATM   30  C15 UNL     1      11.678  19.913  13.328  1.00  0.00     0.037 C 
HETATM   31  C16 UNL     1      11.594  20.188  15.781  1.00  0.00     0.037 C 
ENDBRANCH  26  28
ENDBRANCH  23  24
ENDBRANCH  22  23
ENDBRANCH   1  22
BRANCH   1  32
HETATM   32  C17 UNL     1      15.119  23.449  17.731  1.00  0.00     0.134 C 
BRANCH  32  33
HETATM   33  O3  UNL     1      14.402  24.483  18.205  1.00  0.00    -0.358 OA
ATOM     34  H3  UNL     1      13.603  24.647  17.718  1.00  0.00     0.217 HD
ENDBRANCH  32  33
BRANCH  32  35
HETATM   35  C18 UNL     1      14.900  22.279  18.533  1.00  0.00     0.272 C 
HETATM   36  O4  UNL     1      15.159  22.151  19.752  1.00  0.00    -0.266 OA
HETATM   37  N3  UNL     1      14.320  21.091  17.933  1.00  0.00    -0.355 N 
ATOM     38  H3  UNL     1      14.088  21.081  16.940  1.00  0.00     0.162 HD
BRANCH  37  39
HETATM   39  C19 UNL     1      14.075  19.934  18.740  1.00  0.00     0.124 C 
BRANCH  39  40
HETATM   40  C20 UNL     1      14.522  18.685  17.986  1.00  0.00     0.039 C 
BRANCH  40  41
HETATM   41  C21 UNL     1      14.110  17.483  18.794  1.00  0.00     0.126 C 
BRANCH  41  42
HETATM   42  N4  UNL     1      12.655  17.471  18.983  1.00  0.00    -0.364 N 
HETATM   43  C22 UNL     1      11.779  17.000  17.929  1.00  0.00     0.152 C 
BRANCH  42  44
HETATM   44  C23 UNL     1      12.152  17.915  20.227  1.00  0.00     0.350 C 
HETATM   45  O5  UNL     1      11.232  18.780  20.239  1.00  0.00    -0.284 OA
ENDBRANCH  42  44
ENDBRANCH  41  42
ENDBRANCH  40  41
ENDBRANCH  39  40
ENDBRANCH  37  39
ENDBRANCH  32  35
ENDBRANCH   1  32
TORSDOF 16
ENDMDL
MODEL 4
REMARK VINA RESULT: -7.616130248      2.489      5.315
REMARK  16 active torsions:
REMARK  status: ('A' for Active; 'I' for Inactive)
REMARK    1  A    between atoms: C2_2  and  C3_3 
REMARK    2  A    between atoms: C3_3  and  C4_4 
REMARK    3  A    between atoms: C7_7  and  C8_8 
REMARK       I    between atoms: C8_8  and  N1_10 
REMARK    4  A    between atoms: N1_10  and  C9_12 
REMARK    5  A    between atoms: C9_12  and  C10_13 
REMARK    6  A    between atoms: C9_12  and  C17_23 
REMARK    7  A    between atoms: C10_13  and  C11_14 
REMARK    8  A    between atoms: C11_14  and  C12_15 
REMARK       I    between atoms: C12_15  and  N2_17 
REMARK    9  A    between atoms: N2_17  and  C13_19 
REMARK   10  A    between atoms: C17_23  and  O3_24 
REMARK   11  A    between atoms: C17_23  and  C18_26 
REMARK       I    between atoms: C18_26  and  N3_28 
REMARK   12  A    between atoms: N3_28  and  C19_30 
REMARK   13  A    between atoms: C19_30  and  C20_31 
REMARK   14  A    between atoms: C20_31  and  C21_32 
REMARK   15  A    between atoms: C21_32  and  N4_33 
REMARK   16  A    between atoms: N4_33  and  C23_35 
ROOT
HETATM    1  C9  UNL     1      16.418  22.450  16.688  1.00  0.00     0.147 C 
ENDROOT
BRANCH   1   2
HETATM    2  N1  UNL     1      17.103  23.798  16.962  1.00  0.00    -0.348 N 
HETATM    3  C8  UNL     1      18.467  23.876  17.198  1.00  0.00     0.244 C 
HETATM    4  O1  UNL     1      19.094  22.769  17.171  1.00  0.00    -0.271 OA
ATOM      5  H1  UNL     1      16.544  24.652  16.970  1.00  0.00     0.163 HD
BRANCH   3   6
HETATM    6  C7  UNL     1      19.123  25.156  17.462  1.00  0.00     0.222 C 
HETATM    7  C3  UNL     1      19.882  25.701  16.288  1.00  0.00     0.195 C 
HETATM    8  N6  UNL     1      21.093  26.236  16.821  1.00  0.00     0.136 N 
HETATM    9  C26 UNL     1      21.105  26.092  18.212  1.00  0.00     0.284 C 
HETATM   10  C28 UNL     1      21.397  27.583  16.415  1.00  0.00     0.315 C 
HETATM   11  N5  UNL     1      19.982  25.229  18.618  1.00  0.00    -0.291 N 
HETATM   12  S1  UNL     1      22.472  25.033  18.837  1.00  0.00    -0.097 SA
HETATM   13  C27 UNL     1      21.155  27.340  19.038  1.00  0.00     0.087 C 
HETATM   14  C24 UNL     1      20.166  24.832  19.958  1.00  0.00     0.232 C 
HETATM   15  O6  UNL     1      19.273  24.822  20.880  1.00  0.00    -0.272 OA
HETATM   16  C25 UNL     1      21.548  24.394  20.283  1.00  0.00     0.181 C 
BRANCH   7  17
HETATM   17  C2  UNL     1      20.292  24.591  15.328  1.00  0.00     0.040 C 
HETATM   18  C1  UNL     1      21.418  24.985  14.403  1.00  0.00     0.007 C 
ENDBRANCH   7  17
BRANCH   7  19
HETATM   19  C4  UNL     1      19.080  26.719  15.524  1.00  0.00     0.027 A 
HETATM   20  C5  UNL     1      17.922  26.317  14.687  1.00  0.00     0.008 A 
HETATM   21  C6  UNL     1      19.172  26.979  14.098  1.00  0.00     0.008 A 
ENDBRANCH   7  19
ENDBRANCH   3   6
ENDBRANCH   1   2
BRANCH   1  22
HETATM   22  C10 UNL     1      15.916  22.037  17.997  1.00  0.00     0.041 C 
BRANCH  22  23
HETATM   23  C11 UNL     1      14.480  22.046  18.294  1.00  0.00     0.105 C 
BRANCH  23  24
HETATM   24  C12 UNL     1      13.783  20.747  18.215  1.00  0.00     0.218 C 
HETATM   25  O2  UNL     1      13.370  20.293  17.126  1.00  0.00    -0.274 OA
HETATM   26  N2  UNL     1      13.542  19.944  19.367  1.00  0.00    -0.353 N 
ATOM     27  H2  UNL     1      13.866  20.274  20.276  1.00  0.00     0.163 HD
BRANCH  26  28
HETATM   28  C13 UNL     1      12.854  18.677  19.285  1.00  0.00     0.022 C 
HETATM   29  C14 UNL     1      12.418  18.309  20.712  1.00  0.00     0.037 C 
HETATM   30  C15 UNL     1      11.602  18.737  18.446  1.00  0.00     0.037 C 
HETATM   31  C16 UNL     1      13.755  17.574  18.784  1.00  0.00     0.037 C 
ENDBRANCH  26  28
ENDBRANCH  23  24
ENDBRANCH  22  23
ENDBRANCH   1  22
BRANCH   1  32
HETATM   32  C17 UNL     1      15.653  22.687  15.516  1.00  0.00     0.134 C 
BRANCH  32  33
HETATM   33  O3  UNL     1      15.209  23.952  15.410  1.00  0.00    -0.358 OA
ATOM     34  H3  UNL     1      15.141  24.257  14.513  1.00  0.00     0.217 HD
ENDBRANCH  32  33
BRANCH  32  35
HETATM   35  C18 UNL     1      15.220  21.908  14.391  1.00  0.00     0.272 C 
HETATM   36  O4  UNL     1      15.793  21.822  13.280  1.00  0.00    -0.266 OA
HETATM   37  N3  UNL     1      14.008  21.116  14.484  1.00  0.00    -0.355 N 
ATOM     38  H3  UNL     1      13.453  21.129  15.341  1.00  0.00     0.162 HD
BRANCH  37  39
HETATM   39  C19 UNL     1      13.592  20.316  13.372  1.00  0.00     0.124 C 
BRANCH  39  40
HETATM   40  C20 UNL     1      12.069  20.289  13.307  1.00  0.00     0.039 C 
BRANCH  40  41
HETATM   41  C21 UNL     1      11.546  21.383  14.202  1.00  0.00     0.126 C 
BRANCH  41  42
HETATM   42  N4  UNL     1      10.086  21.295  14.314  1.00  0.00    -0.364 N 
HETATM   43  C22 UNL     1       9.234  21.822  13.266  1.00  0.00     0.152 C 
BRANCH  42  44
HETATM   44  C23 UNL     1       9.553  20.667  15.461  1.00  0.00     0.350 C 
HETATM   45  O5  UNL     1       9.418  19.411  15.462  1.00  0.00    -0.284 OA
ENDBRANCH  42  44
ENDBRANCH  41  42
ENDBRANCH  40  41
ENDBRANCH  39  40
ENDBRANCH  37  39
ENDBRANCH  32  35
ENDBRANCH   1  32
TORSDOF 16
ENDMDL
MODEL 5
REMARK VINA RESULT: -7.611457910      2.620      4.835
REMARK  16 active torsions:
REMARK  status: ('A' for Active; 'I' for Inactive)
REMARK    1  A    between atoms: C2_2  and  C3_3 
REMARK    2  A    between atoms: C3_3  and  C4_4 
REMARK    3  A    between atoms: C7_7  and  C8_8 
REMARK       I    between atoms: C8_8  and  N1_10 
REMARK    4  A    between atoms: N1_10  and  C9_12 
REMARK    5  A    between atoms: C9_12  and  C10_13 
REMARK    6  A    between atoms: C9_12  and  C17_23 
REMARK    7  A    between atoms: C10_13  and  C11_14 
REMARK    8  A    between atoms: C11_14  and  C12_15 
REMARK       I    between atoms: C12_15  and  N2_17 
REMARK    9  A    between atoms: N2_17  and  C13_19 
REMARK   10  A    between atoms: C17_23  and  O3_24 
REMARK   11  A    between atoms: C17_23  and  C18_26 
REMARK       I    between atoms: C18_26  and  N3_28 
REMARK   12  A    between atoms: N3_28  and  C19_30 
REMARK   13  A    between atoms: C19_30  and  C20_31 
REMARK   14  A    between atoms: C20_31  and  C21_32 
REMARK   15  A    between atoms: C21_32  and  N4_33 
REMARK   16  A    between atoms: N4_33  and  C23_35 
ROOT
HETATM    1  C9  UNL     1      16.105  22.440  16.489  1.00  0.00     0.147 C 
ENDROOT
BRANCH   1   2
HETATM    2  N1  UNL     1      17.340  23.269  16.878  1.00  0.00    -0.348 N 
HETATM    3  C8  UNL     1      18.407  22.696  17.551  1.00  0.00     0.244 C 
HETATM    4  O1  UNL     1      18.289  21.458  17.817  1.00  0.00    -0.271 OA
ATOM      5  H1  UNL     1      17.375  24.259  16.635  1.00  0.00     0.163 HD
BRANCH   3   6
HETATM    6  C7  UNL     1      19.582  23.481  17.925  1.00  0.00     0.222 C 
HETATM    7  C3  UNL     1      19.484  24.110  19.285  1.00  0.00     0.195 C 
HETATM    8  N6  UNL     1      20.029  25.421  19.148  1.00  0.00     0.136 N 
HETATM    9  C26 UNL     1      20.480  25.616  17.838  1.00  0.00     0.284 C 
HETATM   10  C28 UNL     1      21.032  25.770  20.120  1.00  0.00     0.315 C 
HETATM   11  N5  UNL     1      20.018  24.496  16.999  1.00  0.00    -0.291 N 
HETATM   12  S1  UNL     1      19.609  26.969  16.948  1.00  0.00    -0.097 SA
HETATM   13  C27 UNL     1      21.940  25.878  17.638  1.00  0.00     0.087 C 
HETATM   14  C24 UNL     1      20.197  24.833  15.642  1.00  0.00     0.232 C 
HETATM   15  O6  UNL     1      20.689  24.079  14.727  1.00  0.00    -0.272 OA
HETATM   16  C25 UNL     1      19.758  26.208  15.289  1.00  0.00     0.181 C 
BRANCH   7  17
HETATM   17  C2  UNL     1      18.032  24.294  19.707  1.00  0.00     0.040 C 
HETATM   18  C1  UNL     1      17.865  24.545  21.186  1.00  0.00     0.007 C 
ENDBRANCH   7  17
BRANCH   7  19
HETATM   19  C4  UNL     1      20.184  23.291  20.335  1.00  0.00     0.027 A 
HETATM   20  C5  UNL     1      21.385  22.482  20.008  1.00  0.00     0.008 A 
HETATM   21  C6  UNL     1      20.079  21.852  20.503  1.00  0.00     0.008 A 
ENDBRANCH   7  19
ENDBRANCH   3   6
ENDBRANCH   1   2
BRANCH   1  22
HETATM   22  C10 UNL     1      15.047  22.959  17.354  1.00  0.00     0.041 C 
BRANCH  22  23
HETATM   23  C11 UNL     1      14.643  22.243  18.569  1.00  0.00     0.105 C 
BRANCH  23  24
HETATM   24  C12 UNL     1      13.934  20.963  18.375  1.00  0.00     0.218 C 
HETATM   25  O2  UNL     1      13.495  20.623  17.255  1.00  0.00    -0.274 OA
HETATM   26  N2  UNL     1      13.711  20.050  19.445  1.00  0.00    -0.353 N 
ATOM     27  H2  UNL     1      14.056  20.286  20.376  1.00  0.00     0.163 HD
BRANCH  26  28
HETATM   28  C13 UNL     1      13.011  18.802  19.253  1.00  0.00     0.022 C 
HETATM   29  C14 UNL     1      12.564  18.318  20.641  1.00  0.00     0.037 C 
HETATM   30  C15 UNL     1      11.765  18.945  18.415  1.00  0.00     0.037 C 
HETATM   31  C16 UNL     1      13.905  17.737  18.664  1.00  0.00     0.037 C 
ENDBRANCH  26  28
ENDBRANCH  23  24
ENDBRANCH  22  23
ENDBRANCH   1  22
BRANCH   1  32
HETATM   32  C17 UNL     1      16.125  22.441  15.070  1.00  0.00     0.134 C 
BRANCH  32  33
HETATM   33  O3  UNL     1      17.003  23.313  14.545  1.00  0.00    -0.358 OA
ATOM     34  H3  UNL     1      17.570  22.932  13.885  1.00  0.00     0.217 HD
ENDBRANCH  32  33
BRANCH  32  35
HETATM   35  C18 UNL     1      15.434  21.736  14.028  1.00  0.00     0.272 C 
HETATM   36  O4  UNL     1      15.737  21.719  12.813  1.00  0.00    -0.266 OA
HETATM   37  N3  UNL     1      14.261  20.944  14.347  1.00  0.00    -0.355 N 
ATOM     38  H3  UNL     1      13.916  20.905  15.307  1.00  0.00     0.162 HD
BRANCH  37  39
HETATM   39  C19 UNL     1      13.589  20.218  13.312  1.00  0.00     0.124 C 
BRANCH  39  40
HETATM   40  C20 UNL     1      12.145  19.957  13.730  1.00  0.00     0.039 C 
BRANCH  40  41
HETATM   41  C21 UNL     1      11.572  21.249  14.250  1.00  0.00     0.126 C 
BRANCH  41  42
HETATM   42  N4  UNL     1      10.108  21.235  14.146  1.00  0.00    -0.364 N 
HETATM   43  C22 UNL     1       9.463  21.224  12.848  1.00  0.00     0.152 C 
BRANCH  42  44
HETATM   44  C23 UNL     1       9.366  21.214  15.347  1.00  0.00     0.350 C 
HETATM   45  O5  UNL     1       8.587  22.175  15.601  1.00  0.00    -0.284 OA
ENDBRANCH  42  44
ENDBRANCH  41  42
ENDBRANCH  40  41
ENDBRANCH  39  40
ENDBRANCH  37  39
ENDBRANCH  32  35
ENDBRANCH   1  32
TORSDOF 16
ENDMDL
