MODEL 1
REMARK VINA RESULT: -8.032412897      0.000      0.000
REMARK  15 active torsions:
REMARK  status: ('A' for Active; 'I' for Inactive)
REMARK    1  A    between atoms: C2_2  and  O1_5 
REMARK    2  A    between atoms: O1_5  and  C5_6 
REMARK       I    between atoms: C5_6  and  N1_8 
REMARK    3  A    between atoms: C7_10  and  C8_11 
REMARK       I    between atoms: C8_11  and  N2_13 
REMARK    4  A    between atoms: C13_19  and  C14_20 
REMARK       I    between atoms: C14_20  and  N3_22 
REMARK    5  A    between atoms: N3_22  and  C15_24 
REMARK    6  A    between atoms: C15_24  and  C16_25 
REMARK    7  A    between atoms: C15_24  and  C17_27 
REMARK    8  A    between atoms: C17_27  and  C18_28 
REMARK    9  A    between atoms: C18_28  and  C19_29 
REMARK       I    between atoms: C19_29  and  N4_31 
REMARK   10  A    between atoms: N4_31  and  C20_33 
REMARK   11  A    between atoms: C20_33  and  C21_34 
REMARK   12  A    between atoms: C21_34  and  C22_35 
REMARK   13  A    between atoms: C22_35  and  C23_36 
REMARK   14  A    between atoms: C23_36  and  C24_37 
REMARK   15  A    between atoms: C24_37  and  N5_38 
ROOT
HETATM    1  C14 UNL     1      18.626  22.453  16.970  1.00  0.00     0.232 C 
HETATM    2  O5  UNL     1      18.411  21.385  16.346  1.00  0.00    -0.273 OA
HETATM    3  N3  UNL     1      18.330  22.502  18.346  1.00  0.00    -0.355 N 
ATOM      4  H3  UNL     1      18.502  23.373  18.848  1.00  0.00     0.162 HD
ENDROOT
BRANCH   1   5
HETATM    5  C13 UNL     1      19.169  23.613  16.295  1.00  0.00     0.185 C 
HETATM    6  C7  UNL     1      18.257  24.447  15.485  1.00  0.00     0.118 C 
HETATM    7  C6  UNL     1      18.901  25.782  15.382  1.00  0.00     0.152 C 
HETATM    8  N1  UNL     1      19.876  25.845  16.438  1.00  0.00    -0.262 N 
HETATM    9  C5  UNL     1      20.809  26.912  16.637  1.00  0.00     0.370 C 
HETATM   10  C28 UNL     1      19.735  24.663  17.211  1.00  0.00     0.242 C 
HETATM   11  O2  UNL     1      21.615  26.818  17.614  1.00  0.00    -0.238 OA
HETATM   12  O7  UNL     1      20.019  24.516  18.399  1.00  0.00    -0.272 OA
BRANCH   6  13
HETATM   13  C8  UNL     1      16.852  24.511  15.959  1.00  0.00     0.227 C 
HETATM   14  O3  UNL     1      16.457  25.257  16.875  1.00  0.00    -0.273 OA
HETATM   15  N2  UNL     1      15.906  23.675  15.331  1.00  0.00    -0.348 N 
HETATM   16  C9  UNL     1      16.235  22.751  14.262  1.00  0.00     0.152 C 
HETATM   17  C12 UNL     1      14.509  23.692  15.730  1.00  0.00     0.152 C 
HETATM   18  C10 UNL     1      15.227  21.597  14.389  1.00  0.00     0.187 C 
HETATM   19  O4  UNL     1      14.002  22.061  13.999  1.00  0.00    -0.388 OA
HETATM   20  C11 UNL     1      13.622  23.238  14.583  1.00  0.00     0.187 C 
ENDBRANCH   6  13
BRANCH   9  21
HETATM   21  O1  UNL     1      20.899  28.031  15.848  1.00  0.00    -0.293 OA
BRANCH  21  22
HETATM   22  C2  UNL     1      21.929  28.191  14.863  1.00  0.00     0.061 C 
HETATM   23  C1  UNL     1      21.232  28.593  13.579  1.00  0.00     0.046 C 
HETATM   24  C3  UNL     1      22.956  29.196  15.248  1.00  0.00     0.046 C 
HETATM   25  C4  UNL     1      22.565  26.822  14.596  1.00  0.00     0.046 C 
ENDBRANCH  21  22
ENDBRANCH   9  21
ENDBRANCH   1   5
BRANCH   3  26
HETATM   26  C15 UNL     1      17.785  21.358  19.096  1.00  0.00     0.095 C 
BRANCH  26  27
HETATM   27  C16 UNL     1      18.672  21.158  20.278  1.00  0.00     0.111 C 
HETATM   28  S1  UNL     1      20.240  22.028  20.209  1.00  0.00    -0.096 SA
ENDBRANCH  26  27
BRANCH  26  29
HETATM   29  C17 UNL     1      16.369  21.711  19.375  1.00  0.00     0.035 C 
BRANCH  29  30
HETATM   30  C18 UNL     1      15.323  21.359  18.411  1.00  0.00     0.105 C 
BRANCH  30  31
HETATM   31  C19 UNL     1      14.599  20.068  18.676  1.00  0.00     0.221 C 
HETATM   32  O6  UNL     1      14.596  19.256  17.756  1.00  0.00    -0.273 OA
HETATM   33  N4  UNL     1      13.983  19.846  19.908  1.00  0.00    -0.341 N 
ATOM     34  H4  UNL     1      14.095  20.632  20.548  1.00  0.00     0.167 HD
BRANCH  33  35
HETATM   35  C20 UNL     1      13.248  18.801  20.472  1.00  0.00     0.064 C 
BRANCH  35  36
HETATM   36  C21 UNL     1      11.943  18.340  19.958  1.00  0.00     0.044 C 
BRANCH  36  37
HETATM   37  C22 UNL     1      11.841  17.345  18.876  1.00  0.00     0.007 C 
BRANCH  37  38
HETATM   38  C23 UNL     1      10.816  17.711  17.807  1.00  0.00     0.028 C 
BRANCH  38  39
HETATM   39  C24 UNL     1      10.844  19.168  17.462  1.00  0.00     0.236 C 
BRANCH  39  40
HETATM   40  N5  UNL     1      10.644  19.329  16.049  1.00  0.00    -0.079 N 
HETATM   41  C25 UNL     1      10.111  18.102  15.461  1.00  0.00     0.271 C 
HETATM   42  C26 UNL     1      11.895  19.672  15.406  1.00  0.00     0.271 C 
HETATM   43  C27 UNL     1       9.711  20.414  15.753  1.00  0.00     0.271 C 
ENDBRANCH  39  40
ENDBRANCH  38  39
ENDBRANCH  37  38
ENDBRANCH  36  37
ENDBRANCH  35  36
ENDBRANCH  33  35
ENDBRANCH  30  31
ENDBRANCH  29  30
ENDBRANCH  26  29
ENDBRANCH   3  26
TORSDOF 15
ENDMDL
MODEL 2
REMARK VINA RESULT: -7.832248365      1.401      1.819
REMARK  15 active torsions:
REMARK  status: ('A' for Active; 'I' for Inactive)
REMARK    1  A    between atoms: C2_2  and  O1_5 
REMARK    2  A    between atoms: O1_5  and  C5_6 
REMARK       I    between atoms: C5_6  and  N1_8 
REMARK    3  A    between atoms: C7_10  and  C8_11 
REMARK       I    between atoms: C8_11  and  N2_13 
REMARK    4  A    between atoms: C13_19  and  C14_20 
REMARK       I    between atoms: C14_20  and  N3_22 
REMARK    5  A    between atoms: N3_22  and  C15_24 
REMARK    6  A    between atoms: C15_24  and  C16_25 
REMARK    7  A    between atoms: C15_24  and  C17_27 
REMARK    8  A    between atoms: C17_27  and  C18_28 
REMARK    9  A    between atoms: C18_28  and  C19_29 
REMARK       I    between atoms: C19_29  and  N4_31 
REMARK   10  A    between atoms: N4_31  and  C20_33 
REMARK   11  A    between atoms: C20_33  and  C21_34 
REMARK   12  A    between atoms: C21_34  and  C22_35 
REMARK   13  A    between atoms: C22_35  and  C23_36 
REMARK   14  A    between atoms: C23_36  and  C24_37 
REMARK   15  A    between atoms: C24_37  and  N5_38 
ROOT
HETATM    1  C14 UNL     1      18.494  22.335  16.778  1.00  0.00     0.232 C 
HETATM    2  O5  UNL     1      18.551  21.217  16.208  1.00  0.00    -0.273 OA
HETATM    3  N3  UNL     1      17.881  22.417  18.043  1.00  0.00    -0.355 N 
ATOM      4  H3  UNL     1      17.832  23.327  18.500  1.00  0.00     0.162 HD
ENDROOT
BRANCH   1   5
HETATM    5  C13 UNL     1      19.046  23.517  16.152  1.00  0.00     0.185 C 
HETATM    6  C7  UNL     1      18.136  24.406  15.400  1.00  0.00     0.118 C 
HETATM    7  C6  UNL     1      18.801  25.733  15.352  1.00  0.00     0.152 C 
HETATM    8  N1  UNL     1      19.794  25.728  16.395  1.00  0.00    -0.262 N 
HETATM    9  C5  UNL     1      20.748  26.768  16.631  1.00  0.00     0.370 C 
HETATM   10  C28 UNL     1      19.644  24.511  17.110  1.00  0.00     0.242 C 
HETATM   11  O2  UNL     1      21.567  26.612  17.590  1.00  0.00    -0.238 OA
HETATM   12  O7  UNL     1      19.943  24.300  18.285  1.00  0.00    -0.272 OA
BRANCH   6  13
HETATM   13  C8  UNL     1      16.740  24.469  15.898  1.00  0.00     0.227 C 
HETATM   14  O3  UNL     1      16.359  25.220  16.817  1.00  0.00    -0.273 OA
HETATM   15  N2  UNL     1      15.785  23.627  15.293  1.00  0.00    -0.348 N 
HETATM   16  C9  UNL     1      16.096  22.697  14.224  1.00  0.00     0.152 C 
HETATM   17  C12 UNL     1      14.395  23.642  15.717  1.00  0.00     0.152 C 
HETATM   18  C10 UNL     1      15.094  21.541  14.376  1.00  0.00     0.187 C 
HETATM   19  O4  UNL     1      13.861  22.000  14.006  1.00  0.00    -0.388 OA
HETATM   20  C11 UNL     1      13.489  23.179  14.590  1.00  0.00     0.187 C 
ENDBRANCH   6  13
BRANCH   9  21
HETATM   21  O1  UNL     1      20.844  27.923  15.897  1.00  0.00    -0.293 OA
BRANCH  21  22
HETATM   22  C2  UNL     1      21.857  28.112  14.899  1.00  0.00     0.061 C 
HETATM   23  C1  UNL     1      21.131  28.476  13.619  1.00  0.00     0.046 C 
HETATM   24  C3  UNL     1      22.850  29.158  15.263  1.00  0.00     0.046 C 
HETATM   25  C4  UNL     1      22.541  26.765  14.637  1.00  0.00     0.046 C 
ENDBRANCH  21  22
ENDBRANCH   9  21
ENDBRANCH   1   5
BRANCH   3  26
HETATM   26  C15 UNL     1      17.307  21.253  18.739  1.00  0.00     0.095 C 
BRANCH  26  27
HETATM   27  C16 UNL     1      17.867  21.260  20.121  1.00  0.00     0.111 C 
HETATM   28  S1  UNL     1      19.644  21.494  20.222  1.00  0.00    -0.096 SA
ENDBRANCH  26  27
BRANCH  26  29
HETATM   29  C17 UNL     1      15.835  21.407  18.614  1.00  0.00     0.035 C 
BRANCH  29  30
HETATM   30  C18 UNL     1      14.981  21.261  19.795  1.00  0.00     0.105 C 
BRANCH  30  31
HETATM   31  C19 UNL     1      14.381  19.897  20.002  1.00  0.00     0.221 C 
HETATM   32  O6  UNL     1      13.958  19.662  21.129  1.00  0.00    -0.273 OA
HETATM   33  N4  UNL     1      14.327  18.984  18.947  1.00  0.00    -0.341 N 
ATOM     34  H4  UNL     1      14.722  19.360  18.085  1.00  0.00     0.167 HD
BRANCH  33  35
HETATM   35  C20 UNL     1      13.858  17.677  18.794  1.00  0.00     0.064 C 
BRANCH  35  36
HETATM   36  C21 UNL     1      12.463  17.268  19.047  1.00  0.00     0.044 C 
BRANCH  36  37
HETATM   37  C22 UNL     1      11.320  18.031  18.515  1.00  0.00     0.007 C 
BRANCH  37  38
HETATM   38  C23 UNL     1      10.493  17.255  17.494  1.00  0.00     0.028 C 
BRANCH  38  39
HETATM   39  C24 UNL     1      10.913  15.822  17.386  1.00  0.00     0.236 C 
BRANCH  39  40
HETATM   40  N5  UNL     1      10.316  15.234  16.221  1.00  0.00    -0.079 N 
HETATM   41  C25 UNL     1      10.890  15.804  15.004  1.00  0.00     0.271 C 
HETATM   42  C26 UNL     1       8.885  15.452  16.230  1.00  0.00     0.271 C 
HETATM   43  C27 UNL     1      10.518  13.787  16.179  1.00  0.00     0.271 C 
ENDBRANCH  39  40
ENDBRANCH  38  39
ENDBRANCH  37  38
ENDBRANCH  36  37
ENDBRANCH  35  36
ENDBRANCH  33  35
ENDBRANCH  30  31
ENDBRANCH  29  30
ENDBRANCH  26  29
ENDBRANCH   3  26
TORSDOF 15
ENDMDL
MODEL 3
REMARK VINA RESULT: -7.770476635      2.041      3.059
REMARK  15 active torsions:
REMARK  status: ('A' for Active; 'I' for Inactive)
REMARK    1  A    between atoms: C2_2  and  O1_5 
REMARK    2  A    between atoms: O1_5  and  C5_6 
REMARK       I    between atoms: C5_6  and  N1_8 
REMARK    3  A    between atoms: C7_10  and  C8_11 
REMARK       I    between atoms: C8_11  and  N2_13 
REMARK    4  A    between atoms: C13_19  and  C14_20 
REMARK       I    between atoms: C14_20  and  N3_22 
REMARK    5  A    between atoms: N3_22  and  C15_24 
REMARK    6  A    between atoms: C15_24  and  C16_25 
REMARK    7  A    between atoms: C15_24  and  C17_27 
REMARK    8  A    between atoms: C17_27  and  C18_28 
REMARK    9  A    between atoms: C18_28  and  C19_29 
REMARK       I    between atoms: C19_29  and  N4_31 
REMARK   10  A    between atoms: N4_31  and  C20_33 
REMARK   11  A    between atoms: C20_33  and  C21_34 
REMARK   12  A    between atoms: C21_34  and  C22_35 
REMARK   13  A    between atoms: C22_35  and  C23_36 
REMARK   14  A    between atoms: C23_36  and  C24_37 
REMARK   15  A    between atoms: C24_37  and  N5_38 
ROOT
HETATM    1  C14 UNL     1      17.888  21.897  16.952  1.00  0.00     0.232 C 
HETATM    2  O5  UNL     1      18.205  20.744  16.568  1.00  0.00    -0.273 OA
HETATM    3  N3  UNL     1      16.915  22.028  17.961  1.00  0.00    -0.355 N 
ATOM      4  H3  UNL     1      16.657  22.966  18.266  1.00  0.00     0.162 HD
ENDROOT
BRANCH   1   5
HETATM    5  C13 UNL     1      18.508  23.070  16.374  1.00  0.00     0.185 C 
HETATM    6  C7  UNL     1      17.680  23.964  15.539  1.00  0.00     0.118 C 
HETATM    7  C6  UNL     1      18.363  25.284  15.546  1.00  0.00     0.152 C 
HETATM    8  N1  UNL     1      19.257  25.273  16.674  1.00  0.00    -0.262 N 
HETATM    9  C5  UNL     1      20.198  26.303  16.990  1.00  0.00     0.370 C 
HETATM   10  C28 UNL     1      19.030  24.062  17.378  1.00  0.00     0.242 C 
HETATM   11  O2  UNL     1      20.926  26.143  18.020  1.00  0.00    -0.238 OA
HETATM   12  O7  UNL     1      19.219  23.853  18.575  1.00  0.00    -0.272 OA
BRANCH   6  13
HETATM   13  C8  UNL     1      16.246  24.046  15.909  1.00  0.00     0.227 C 
HETATM   14  O3  UNL     1      15.800  24.766  16.824  1.00  0.00    -0.273 OA
HETATM   15  N2  UNL     1      15.331  23.261  15.179  1.00  0.00    -0.348 N 
HETATM   16  C9  UNL     1      15.717  22.371  14.100  1.00  0.00     0.152 C 
HETATM   17  C12 UNL     1      13.908  23.298  15.474  1.00  0.00     0.152 C 
HETATM   18  C10 UNL     1      14.676  21.240  14.104  1.00  0.00     0.187 C 
HETATM   19  O4  UNL     1      13.495  21.751  13.644  1.00  0.00    -0.388 OA
HETATM   20  C11 UNL     1      13.100  22.913  14.247  1.00  0.00     0.187 C 
ENDBRANCH   6  13
BRANCH   9  21
HETATM   21  O1  UNL     1      20.375  27.453  16.264  1.00  0.00    -0.293 OA
BRANCH  21  22
HETATM   22  C2  UNL     1      21.342  27.551  15.210  1.00  0.00     0.061 C 
HETATM   23  C1  UNL     1      22.446  28.452  15.726  1.00  0.00     0.046 C 
HETATM   24  C3  UNL     1      21.885  26.231  14.789  1.00  0.00     0.046 C 
HETATM   25  C4  UNL     1      20.702  28.289  14.028  1.00  0.00     0.046 C 
ENDBRANCH  21  22
ENDBRANCH   9  21
ENDBRANCH   1   5
BRANCH   3  26
HETATM   26  C15 UNL     1      16.251  20.878  18.597  1.00  0.00     0.095 C 
BRANCH  26  27
HETATM   27  C16 UNL     1      15.712  21.361  19.901  1.00  0.00     0.111 C 
HETATM   28  S1  UNL     1      14.658  20.196  20.768  1.00  0.00    -0.096 SA
ENDBRANCH  26  27
BRANCH  26  29
HETATM   29  C17 UNL     1      15.260  20.396  17.601  1.00  0.00     0.035 C 
BRANCH  29  30
HETATM   30  C18 UNL     1      13.895  20.928  17.610  1.00  0.00     0.105 C 
BRANCH  30  31
HETATM   31  C19 UNL     1      12.818  19.971  17.178  1.00  0.00     0.221 C 
HETATM   32  O6  UNL     1      12.853  18.857  17.690  1.00  0.00    -0.273 OA
HETATM   33  N4  UNL     1      11.855  20.367  16.248  1.00  0.00    -0.341 N 
ATOM     34  H4  UNL     1      11.985  21.330  15.938  1.00  0.00     0.167 HD
BRANCH  33  35
HETATM   35  C20 UNL     1      10.755  19.756  15.643  1.00  0.00     0.064 C 
BRANCH  35  36
HETATM   36  C21 UNL     1       9.468  20.436  15.397  1.00  0.00     0.044 C 
BRANCH  36  37
HETATM   37  C22 UNL     1       9.381  21.671  14.597  1.00  0.00     0.007 C 
BRANCH  37  38
HETATM   38  C23 UNL     1       9.875  21.503  13.163  1.00  0.00     0.028 C 
BRANCH  38  39
HETATM   39  C24 UNL     1       8.904  20.750  12.308  1.00  0.00     0.236 C 
BRANCH  39  40
HETATM   40  N5  UNL     1       9.584  19.668  11.652  1.00  0.00    -0.079 N 
HETATM   41  C25 UNL     1       9.352  19.715  10.209  1.00  0.00     0.271 C 
HETATM   42  C26 UNL     1       9.123  18.399  12.175  1.00  0.00     0.271 C 
HETATM   43  C27 UNL     1      11.026  19.715  11.879  1.00  0.00     0.271 C 
ENDBRANCH  39  40
ENDBRANCH  38  39
ENDBRANCH  37  38
ENDBRANCH  36  37
ENDBRANCH  35  36
ENDBRANCH  33  35
ENDBRANCH  30  31
ENDBRANCH  29  30
ENDBRANCH  26  29
ENDBRANCH   3  26
TORSDOF 15
ENDMDL
MODEL 4
REMARK VINA RESULT: -7.750946454      0.925      2.300
REMARK  15 active torsions:
REMARK  status: ('A' for Active; 'I' for Inactive)
REMARK    1  A    between atoms: C2_2  and  O1_5 
REMARK    2  A    between atoms: O1_5  and  C5_6 
REMARK       I    between atoms: C5_6  and  N1_8 
REMARK    3  A    between atoms: C7_10  and  C8_11 
REMARK       I    between atoms: C8_11  and  N2_13 
REMARK    4  A    between atoms: C13_19  and  C14_20 
REMARK       I    between atoms: C14_20  and  N3_22 
REMARK    5  A    between atoms: N3_22  and  C15_24 
REMARK    6  A    between atoms: C15_24  and  C16_25 
REMARK    7  A    between atoms: C15_24  and  C17_27 
REMARK    8  A    between atoms: C17_27  and  C18_28 
REMARK    9  A    between atoms: C18_28  and  C19_29 
REMARK       I    between atoms: C19_29  and  N4_31 
REMARK   10  A    between atoms: N4_31  and  C20_33 
REMARK   11  A    between atoms: C20_33  and  C21_34 
REMARK   12  A    between atoms: C21_34  and  C22_35 
REMARK   13  A    between atoms: C22_35  and  C23_36 
REMARK   14  A    between atoms: C23_36  and  C24_37 
REMARK   15  A    between atoms: C24_37  and  N5_38 
ROOT
HETATM    1  C14 UNL     1      18.687  22.394  16.744  1.00  0.00     0.232 C 
HETATM    2  O5  UNL     1      18.678  21.306  16.116  1.00  0.00    -0.273 OA
HETATM    3  N3  UNL     1      18.163  22.423  18.050  1.00  0.00    -0.355 N 
ATOM      4  H3  UNL     1      18.167  23.309  18.554  1.00  0.00     0.162 HD
ENDROOT
BRANCH   1   5
HETATM    5  C13 UNL     1      19.224  23.595  16.142  1.00  0.00     0.185 C 
HETATM    6  C7  UNL     1      18.303  24.488  15.408  1.00  0.00     0.118 C 
HETATM    7  C6  UNL     1      18.952  25.824  15.388  1.00  0.00     0.152 C 
HETATM    8  N1  UNL     1      19.946  25.809  16.429  1.00  0.00    -0.262 N 
HETATM    9  C5  UNL     1      20.887  26.856  16.685  1.00  0.00     0.370 C 
HETATM   10  C28 UNL     1      19.812  24.576  17.120  1.00  0.00     0.242 C 
HETATM   11  O2  UNL     1      21.709  26.690  17.640  1.00  0.00    -0.238 OA
HETATM   12  O7  UNL     1      20.114  24.345  18.289  1.00  0.00    -0.272 OA
BRANCH   6  13
HETATM   13  C8  UNL     1      16.907  24.524  15.909  1.00  0.00     0.227 C 
HETATM   14  O3  UNL     1      16.527  25.219  16.871  1.00  0.00    -0.273 OA
HETATM   15  N2  UNL     1      15.951  23.722  15.254  1.00  0.00    -0.348 N 
HETATM   16  C9  UNL     1      16.260  22.858  14.130  1.00  0.00     0.152 C 
HETATM   17  C12 UNL     1      14.560  23.715  15.677  1.00  0.00     0.152 C 
HETATM   18  C10 UNL     1      15.255  21.697  14.212  1.00  0.00     0.187 C 
HETATM   19  O4  UNL     1      14.023  22.181  13.869  1.00  0.00    -0.388 OA
HETATM   20  C11 UNL     1      13.654  23.323  14.523  1.00  0.00     0.187 C 
ENDBRANCH   6  13
BRANCH   9  21
HETATM   21  O1  UNL     1      20.970  28.026  15.976  1.00  0.00    -0.293 OA
BRANCH  21  22
HETATM   22  C2  UNL     1      21.858  28.184  14.861  1.00  0.00     0.061 C 
HETATM   23  C1  UNL     1      22.563  26.853  14.686  1.00  0.00     0.046 C 
HETATM   24  C3  UNL     1      21.162  28.585  13.609  1.00  0.00     0.046 C 
HETATM   25  C4  UNL     1      22.943  29.197  15.241  1.00  0.00     0.046 C 
ENDBRANCH  21  22
ENDBRANCH   9  21
ENDBRANCH   1   5
BRANCH   3  26
HETATM   26  C15 UNL     1      17.609  21.236  18.725  1.00  0.00     0.095 C 
BRANCH  26  27
HETATM   27  C16 UNL     1      18.078  21.289  20.139  1.00  0.00     0.111 C 
HETATM   28  S1  UNL     1      19.831  21.610  20.348  1.00  0.00    -0.096 SA
ENDBRANCH  26  27
BRANCH  26  29
HETATM   29  C17 UNL     1      16.142  21.309  18.504  1.00  0.00     0.035 C 
BRANCH  29  30
HETATM   30  C18 UNL     1      15.509  20.451  17.499  1.00  0.00     0.105 C 
BRANCH  30  31
HETATM   31  C19 UNL     1      14.032  20.655  17.304  1.00  0.00     0.221 C 
HETATM   32  O6  UNL     1      13.493  21.445  18.073  1.00  0.00    -0.273 OA
HETATM   33  N4  UNL     1      13.353  19.969  16.295  1.00  0.00    -0.341 N 
ATOM     34  H4  UNL     1      13.968  19.361  15.755  1.00  0.00     0.167 HD
BRANCH  33  35
HETATM   35  C20 UNL     1      12.030  19.920  15.851  1.00  0.00     0.064 C 
BRANCH  35  36
HETATM   36  C21 UNL     1      10.887  19.555  16.710  1.00  0.00     0.044 C 
BRANCH  36  37
HETATM   37  C22 UNL     1      10.505  18.151  16.943  1.00  0.00     0.007 C 
BRANCH  37  38
HETATM   38  C23 UNL     1      11.268  17.496  18.091  1.00  0.00     0.028 C 
BRANCH  38  39
HETATM   39  C24 UNL     1      11.674  18.480  19.143  1.00  0.00     0.236 C 
BRANCH  39  40
HETATM   40  N5  UNL     1      12.868  18.018  19.795  1.00  0.00    -0.079 N 
HETATM   41  C25 UNL     1      13.514  19.111  20.520  1.00  0.00     0.271 C 
HETATM   42  C26 UNL     1      13.788  17.472  18.820  1.00  0.00     0.271 C 
HETATM   43  C27 UNL     1      12.586  16.948  20.750  1.00  0.00     0.271 C 
ENDBRANCH  39  40
ENDBRANCH  38  39
ENDBRANCH  37  38
ENDBRANCH  36  37
ENDBRANCH  35  36
ENDBRANCH  33  35
ENDBRANCH  30  31
ENDBRANCH  29  30
ENDBRANCH  26  29
ENDBRANCH   3  26
TORSDOF 15
ENDMDL
MODEL 5
REMARK VINA RESULT: -7.667988623      2.883     10.500
REMARK  15 active torsions:
REMARK  status: ('A' for Active; 'I' for Inactive)
REMARK    1  A    between atoms: C2_2  and  O1_5 
REMARK    2  A    between atoms: O1_5  and  C5_6 
REMARK       I    between atoms: C5_6  and  N1_8 
REMARK    3  A    between atoms: C7_10  and  C8_11 
REMARK       I    between atoms: C8_11  and  N2_13 
REMARK    4  A    between atoms: C13_19  and  C14_20 
REMARK       I    between atoms: C14_20  and  N3_22 
REMARK    5  A    between atoms: N3_22  and  C15_24 
REMARK    6  A    between atoms: C15_24  and  C16_25 
REMARK    7  A    between atoms: C15_24  and  C17_27 
REMARK    8  A    between atoms: C17_27  and  C18_28 
REMARK    9  A    between atoms: C18_28  and  C19_29 
REMARK       I    between atoms: C19_29  and  N4_31 
REMARK   10  A    between atoms: N4_31  and  C20_33 
REMARK   11  A    between atoms: C20_33  and  C21_34 
REMARK   12  A    between atoms: C21_34  and  C22_35 
REMARK   13  A    between atoms: C22_35  and  C23_36 
REMARK   14  A    between atoms: C23_36  and  C24_37 
REMARK   15  A    between atoms: C24_37  and  N5_38 
ROOT
HETATM    1  C14 UNL     1      17.762  21.977  16.353  1.00  0.00     0.232 C 
HETATM    2  O5  UNL     1      18.770  21.483  15.791  1.00  0.00    -0.273 OA
HETATM    3  N3  UNL     1      17.531  23.360  16.228  1.00  0.00    -0.355 N 
ATOM      4  H3  UNL     1      16.714  23.759  16.691  1.00  0.00     0.162 HD
ENDROOT
BRANCH   1   5
HETATM    5  C13 UNL     1      16.853  21.148  17.115  1.00  0.00     0.185 C 
HETATM    6  C7  UNL     1      16.748  21.371  18.572  1.00  0.00     0.118 C 
HETATM    7  C6  UNL     1      15.431  20.819  18.980  1.00  0.00     0.152 C 
HETATM    8  N1  UNL     1      14.646  20.710  17.779  1.00  0.00    -0.262 N 
HETATM    9  C5  UNL     1      13.347  20.115  17.693  1.00  0.00     0.370 C 
HETATM   10  C28 UNL     1      15.406  21.285  16.727  1.00  0.00     0.242 C 
HETATM   11  O2  UNL     1      12.783  20.089  16.554  1.00  0.00    -0.238 OA
HETATM   12  O7  UNL     1      14.975  21.798  15.696  1.00  0.00    -0.272 OA
BRANCH   6  13
HETATM   13  C8  UNL     1      16.963  22.767  19.026  1.00  0.00     0.227 C 
HETATM   14  O3  UNL     1      16.098  23.662  18.967  1.00  0.00    -0.273 OA
HETATM   15  N2  UNL     1      18.225  23.100  19.559  1.00  0.00    -0.348 N 
HETATM   16  C9  UNL     1      19.323  22.158  19.674  1.00  0.00     0.152 C 
HETATM   17  C12 UNL     1      18.506  24.442  20.039  1.00  0.00     0.152 C 
HETATM   18  C10 UNL     1      20.604  23.001  19.564  1.00  0.00     0.187 C 
HETATM   19  O4  UNL     1      20.730  23.729  20.715  1.00  0.00    -0.388 OA
HETATM   20  C11 UNL     1      19.607  24.415  21.085  1.00  0.00     0.187 C 
ENDBRANCH   6  13
BRANCH   9  21
HETATM   21  O1  UNL     1      12.664  19.570  18.750  1.00  0.00    -0.293 OA
BRANCH  21  22
HETATM   22  C2  UNL     1      12.717  18.169  19.053  1.00  0.00     0.061 C 
HETATM   23  C1  UNL     1      11.516  17.541  18.374  1.00  0.00     0.046 C 
HETATM   24  C3  UNL     1      13.979  17.520  18.608  1.00  0.00     0.046 C 
HETATM   25  C4  UNL     1      12.500  17.987  20.560  1.00  0.00     0.046 C 
ENDBRANCH  21  22
ENDBRANCH   9  21
ENDBRANCH   1   5
BRANCH   3  26
HETATM   26  C15 UNL     1      18.410  24.261  15.463  1.00  0.00     0.095 C 
BRANCH  26  27
HETATM   27  C16 UNL     1      17.615  25.486  15.165  1.00  0.00     0.111 C 
HETATM   28  S1  UNL     1      18.381  26.631  14.015  1.00  0.00    -0.096 SA
ENDBRANCH  26  27
BRANCH  26  29
HETATM   29  C17 UNL     1      19.621  24.438  16.305  1.00  0.00     0.035 C 
BRANCH  29  30
HETATM   30  C18 UNL     1      19.755  25.625  17.153  1.00  0.00     0.105 C 
BRANCH  30  31
HETATM   31  C19 UNL     1      20.819  26.604  16.739  1.00  0.00     0.221 C 
HETATM   32  O6  UNL     1      20.805  27.687  17.316  1.00  0.00    -0.273 OA
HETATM   33  N4  UNL     1      21.749  26.262  15.755  1.00  0.00    -0.341 N 
ATOM     34  H4  UNL     1      21.605  25.318  15.395  1.00  0.00     0.167 HD
BRANCH  33  35
HETATM   35  C20 UNL     1      22.829  26.905  15.148  1.00  0.00     0.064 C 
BRANCH  35  36
HETATM   36  C21 UNL     1      24.172  27.006  15.753  1.00  0.00     0.044 C 
BRANCH  36  37
HETATM   37  C22 UNL     1      24.369  27.453  17.143  1.00  0.00     0.007 C 
BRANCH  37  38
HETATM   38  C23 UNL     1      24.683  26.316  18.110  1.00  0.00     0.028 C 
BRANCH  38  39
HETATM   39  C24 UNL     1      23.593  26.100  19.113  1.00  0.00     0.236 C 
BRANCH  39  40
HETATM   40  N5  UNL     1      24.160  25.605  20.336  1.00  0.00    -0.079 N 
HETATM   41  C25 UNL     1      23.365  26.039  21.484  1.00  0.00     0.271 C 
HETATM   42  C26 UNL     1      25.520  26.078  20.483  1.00  0.00     0.271 C 
HETATM   43  C27 UNL     1      24.220  24.145  20.355  1.00  0.00     0.271 C 
ENDBRANCH  39  40
ENDBRANCH  38  39
ENDBRANCH  37  38
ENDBRANCH  36  37
ENDBRANCH  35  36
ENDBRANCH  33  35
ENDBRANCH  30  31
ENDBRANCH  29  30
ENDBRANCH  26  29
ENDBRANCH   3  26
TORSDOF 15
ENDMDL
