MODEL 1
REMARK VINA RESULT: -8.833522748      0.000      0.000
REMARK  13 active torsions:
REMARK  status: ('A' for Active; 'I' for Inactive)
REMARK    1  A    between atoms: C2_2  and  C3_3 
REMARK    2  A    between atoms: C3_3  and  C4_4 
REMARK    3  A    between atoms: C4_4  and  C5_5 
REMARK    4  A    between atoms: N2_11  and  C8_12 
REMARK    5  A    between atoms: C8_12  and  C9_13 
REMARK       I    between atoms: C9_13  and  N3_15 
REMARK    6  A    between atoms: N3_15  and  C10_17 
REMARK    7  A    between atoms: C10_17  and  C11_18 
REMARK    8  A    between atoms: C11_18  and  S1_19 
REMARK    9  A    between atoms: S1_19  and  N4_22 
REMARK   10  A    between atoms: N4_22  and  C12_24 
REMARK   11  A    between atoms: N5_26  and  C14_27 
REMARK   12  A    between atoms: C14_27  and  C15_28 
REMARK       I    between atoms: C15_28  and  N6_30 
REMARK   13  A    between atoms: C26_41  and  N7_42 
ROOT
HETATM    1  C10 UNL     1      14.762  20.965  13.112  1.00  0.00     0.139 C 
ENDROOT
BRANCH   1   2
HETATM    2  N3  UNL     1      13.433  20.992  13.665  1.00  0.00    -0.355 N 
HETATM    3  C9  UNL     1      12.557  19.882  13.585  1.00  0.00     0.257 C 
HETATM    4  O2  UNL     1      12.854  18.797  13.043  1.00  0.00    -0.267 OA
ATOM      5  H3  UNL     1      13.110  21.841  14.130  1.00  0.00     0.162 HD
BRANCH   3   6
HETATM    6  C8  UNL     1      11.179  19.956  14.172  1.00  0.00     0.169 C 
BRANCH   6   7
HETATM    7  N2  UNL     1      11.181  19.602  15.527  1.00  0.00    -0.302 N 
HETATM    8  C7  UNL     1      10.233  18.646  16.046  1.00  0.00     0.323 C 
HETATM    9  N1  UNL     1      10.339  18.282  17.410  1.00  0.00    -0.331 N 
HETATM   10  O1  UNL     1       9.355  18.167  15.299  1.00  0.00    -0.247 OA
HETATM   11  C4  UNL     1      11.681  18.052  17.989  1.00  0.00     0.062 C 
ATOM     12  H1  UNL     1       9.503  18.180  17.985  1.00  0.00     0.165 HD
HETATM   13  C26 UNL     1      12.665  18.936  17.295  1.00  0.00     0.202 C 
HETATM   14  C25 UNL     1      12.100  20.118  16.539  1.00  0.00     0.167 C 
BRANCH  11  15
HETATM   15  C3  UNL     1      11.980  16.632  17.641  1.00  0.00     0.033 C 
BRANCH  15  16
HETATM   16  C2  UNL     1      10.926  15.635  17.546  1.00  0.00    -0.002 C 
HETATM   17  C1  UNL     1      10.761  14.876  16.278  1.00  0.00     0.005 C 
ENDBRANCH  15  16
ENDBRANCH  11  15
BRANCH  11  18
HETATM   18  C5  UNL     1      11.508  18.384  19.433  1.00  0.00     0.029 C 
HETATM   19  C6  UNL     1      12.398  17.521  20.310  1.00  0.00     0.007 C 
ENDBRANCH  11  18
BRANCH  13  20
HETATM   20  N7  UNL     1      13.755  19.412  18.106  1.00  0.00    -0.146 N 
HETATM   21  O6  UNL     1      14.835  18.799  18.214  1.00  0.00    -0.536 OA
HETATM   22  O7  UNL     1      13.642  20.589  18.802  1.00  0.00    -0.536 OA
ENDBRANCH  13  20
ENDBRANCH   6   7
ENDBRANCH   3   6
ENDBRANCH   1   2
BRANCH   1  23
HETATM   23  C11 UNL     1      15.496  22.203  13.502  1.00  0.00     0.182 C 
BRANCH  23  24
HETATM   24  S1  UNL     1      14.847  23.004  14.942  1.00  0.00     0.228 S 
HETATM   25  O3  UNL     1      13.497  23.604  14.640  1.00  0.00    -0.206 OA
HETATM   26  O4  UNL     1      14.692  21.915  15.995  1.00  0.00    -0.206 OA
BRANCH  24  27
HETATM   27  N4  UNL     1      15.921  24.216  15.468  1.00  0.00    -0.313 N 
ATOM     28  H4  UNL     1      15.620  25.159  15.713  1.00  0.00     0.172 HD
BRANCH  27  29
HETATM   29  C12 UNL     1      17.286  23.789  15.534  1.00  0.00     0.114 C 
HETATM   30  C13 UNL     1      17.517  22.938  16.738  1.00  0.00     0.143 C 
HETATM   31  N5  UNL     1      17.045  23.590  17.903  1.00  0.00    -0.402 N 
HETATM   32  C21 UNL     1      17.227  24.997  17.968  1.00  0.00     0.118 C 
HETATM   33  C22 UNL     1      18.251  25.563  17.047  1.00  0.00     0.026 C 
HETATM   34  C23 UNL     1      18.228  24.998  15.669  1.00  0.00     0.008 C 
HETATM   35  C24 UNL     1      19.608  24.505  15.310  1.00  0.00     0.012 C 
BRANCH  31  36
HETATM   36  C14 UNL     1      17.181  22.896  19.136  1.00  0.00     0.220 C 
BRANCH  36  37
HETATM   37  C15 UNL     1      18.499  22.348  19.441  1.00  0.00     0.237 C 
HETATM   38  O5  UNL     1      18.830  21.215  19.044  1.00  0.00    -0.272 OA
HETATM   39  N6  UNL     1      19.424  23.103  20.197  1.00  0.00    -0.351 N 
HETATM   40  C16 UNL     1      20.757  22.566  20.516  1.00  0.00     0.126 C 
HETATM   41  C20 UNL     1      19.155  24.432  20.711  1.00  0.00     0.126 C 
HETATM   42  C17 UNL     1      21.728  23.280  19.601  1.00  0.00     0.020 C 
HETATM   43  C18 UNL     1      21.199  24.659  19.307  1.00  0.00     0.003 C 
HETATM   44  C19 UNL     1      20.438  25.241  20.501  1.00  0.00     0.020 C 
ENDBRANCH  36  37
ENDBRANCH  31  36
ENDBRANCH  27  29
ENDBRANCH  24  27
ENDBRANCH  23  24
ENDBRANCH   1  23
TORSDOF 13
ENDMDL
MODEL 2
REMARK VINA RESULT: -8.685084273      2.482      9.591
REMARK  13 active torsions:
REMARK  status: ('A' for Active; 'I' for Inactive)
REMARK    1  A    between atoms: C2_2  and  C3_3 
REMARK    2  A    between atoms: C3_3  and  C4_4 
REMARK    3  A    between atoms: C4_4  and  C5_5 
REMARK    4  A    between atoms: N2_11  and  C8_12 
REMARK    5  A    between atoms: C8_12  and  C9_13 
REMARK       I    between atoms: C9_13  and  N3_15 
REMARK    6  A    between atoms: N3_15  and  C10_17 
REMARK    7  A    between atoms: C10_17  and  C11_18 
REMARK    8  A    between atoms: C11_18  and  S1_19 
REMARK    9  A    between atoms: S1_19  and  N4_22 
REMARK   10  A    between atoms: N4_22  and  C12_24 
REMARK   11  A    between atoms: N5_26  and  C14_27 
REMARK   12  A    between atoms: C14_27  and  C15_28 
REMARK       I    between atoms: C15_28  and  N6_30 
REMARK   13  A    between atoms: C26_41  and  N7_42 
ROOT
HETATM    1  C10 UNL     1      14.779  23.322  17.234  1.00  0.00     0.139 C 
ENDROOT
BRANCH   1   2
HETATM    2  N3  UNL     1      16.183  23.097  17.463  1.00  0.00    -0.355 N 
HETATM    3  C9  UNL     1      17.187  23.809  16.762  1.00  0.00     0.257 C 
HETATM    4  O2  UNL     1      16.952  24.682  15.903  1.00  0.00    -0.267 OA
ATOM      5  H3  UNL     1      16.464  22.401  18.154  1.00  0.00     0.162 HD
BRANCH   3   6
HETATM    6  C8  UNL     1      18.638  23.538  17.030  1.00  0.00     0.169 C 
BRANCH   6   7
HETATM    7  N2  UNL     1      19.145  24.400  18.010  1.00  0.00    -0.302 N 
HETATM    8  C7  UNL     1      19.007  24.092  19.414  1.00  0.00     0.323 C 
HETATM    9  N1  UNL     1      19.606  24.972  20.347  1.00  0.00    -0.331 N 
HETATM   10  O1  UNL     1      18.375  23.076  19.772  1.00  0.00    -0.247 OA
HETATM   11  C4  UNL     1      20.954  25.511  20.062  1.00  0.00     0.062 C 
ATOM     12  H1  UNL     1      19.115  25.231  21.203  1.00  0.00     0.165 HD
HETATM   13  C26 UNL     1      21.119  25.643  18.584  1.00  0.00     0.202 C 
HETATM   14  C25 UNL     1      19.852  25.653  17.758  1.00  0.00     0.167 C 
BRANCH  11  15
HETATM   15  C3  UNL     1      21.874  24.445  20.556  1.00  0.00     0.033 C 
BRANCH  15  16
HETATM   16  C2  UNL     1      22.596  23.577  19.640  1.00  0.00    -0.002 C 
HETATM   17  C1  UNL     1      24.083  23.582  19.658  1.00  0.00     0.005 C 
ENDBRANCH  15  16
ENDBRANCH  11  15
BRANCH  11  18
HETATM   18  C5  UNL     1      20.973  26.820  20.776  1.00  0.00     0.029 C 
HETATM   19  C6  UNL     1      21.902  26.783  21.977  1.00  0.00     0.007 C 
ENDBRANCH  11  18
BRANCH  13  20
HETATM   20  N7  UNL     1      21.939  26.742  18.145  1.00  0.00    -0.146 N 
HETATM   21  O6  UNL     1      23.183  26.730  18.221  1.00  0.00    -0.536 OA
HETATM   22  O7  UNL     1      21.367  27.868  17.610  1.00  0.00    -0.536 OA
ENDBRANCH  13  20
ENDBRANCH   6   7
ENDBRANCH   3   6
ENDBRANCH   1   2
BRANCH   1  23
HETATM   23  C11 UNL     1      14.145  22.072  16.726  1.00  0.00     0.182 C 
BRANCH  23  24
HETATM   24  S1  UNL     1      14.130  21.935  14.960  1.00  0.00     0.228 S 
HETATM   25  O3  UNL     1      13.768  23.260  14.338  1.00  0.00    -0.206 OA
HETATM   26  O4  UNL     1      15.549  21.558  14.556  1.00  0.00    -0.206 OA
BRANCH  24  27
HETATM   27  N4  UNL     1      13.018  20.739  14.478  1.00  0.00    -0.313 N 
ATOM     28  H4  UNL     1      13.301  19.809  14.169  1.00  0.00     0.172 HD
BRANCH  27  29
HETATM   29  C12 UNL     1      11.651  21.159  14.547  1.00  0.00     0.114 C 
HETATM   30  C13 UNL     1      10.909  20.379  15.580  1.00  0.00     0.143 C 
HETATM   31  N5  UNL     1      11.092  18.989  15.377  1.00  0.00    -0.402 N 
HETATM   32  C21 UNL     1      11.140  18.539  14.031  1.00  0.00     0.118 C 
HETATM   33  C22 UNL     1      10.573  19.468  13.015  1.00  0.00     0.026 C 
HETATM   34  C23 UNL     1      10.935  20.900  13.209  1.00  0.00     0.008 C 
HETATM   35  C24 UNL     1       9.677  21.732  13.232  1.00  0.00     0.012 C 
BRANCH  31  36
HETATM   36  C14 UNL     1      10.455  18.110  16.296  1.00  0.00     0.220 C 
BRANCH  36  37
HETATM   37  C15 UNL     1      11.323  17.257  17.101  1.00  0.00     0.237 C 
HETATM   38  O5  UNL     1      11.530  16.071  16.784  1.00  0.00    -0.272 OA
HETATM   39  N6  UNL     1      11.947  17.771  18.260  1.00  0.00    -0.351 N 
HETATM   40  C16 UNL     1      12.824  16.926  19.085  1.00  0.00     0.126 C 
HETATM   41  C20 UNL     1      11.786  19.135  18.728  1.00  0.00     0.126 C 
HETATM   42  C17 UNL     1      14.240  17.360  18.775  1.00  0.00     0.020 C 
HETATM   43  C18 UNL     1      14.235  18.822  18.413  1.00  0.00     0.003 C 
HETATM   44  C19 UNL     1      13.169  19.595  19.193  1.00  0.00     0.020 C 
ENDBRANCH  36  37
ENDBRANCH  31  36
ENDBRANCH  27  29
ENDBRANCH  24  27
ENDBRANCH  23  24
ENDBRANCH   1  23
TORSDOF 13
ENDMDL
MODEL 3
REMARK VINA RESULT: -8.667863433      2.419      5.576
REMARK  13 active torsions:
REMARK  status: ('A' for Active; 'I' for Inactive)
REMARK    1  A    between atoms: C2_2  and  C3_3 
REMARK    2  A    between atoms: C3_3  and  C4_4 
REMARK    3  A    between atoms: C4_4  and  C5_5 
REMARK    4  A    between atoms: N2_11  and  C8_12 
REMARK    5  A    between atoms: C8_12  and  C9_13 
REMARK       I    between atoms: C9_13  and  N3_15 
REMARK    6  A    between atoms: N3_15  and  C10_17 
REMARK    7  A    between atoms: C10_17  and  C11_18 
REMARK    8  A    between atoms: C11_18  and  S1_19 
REMARK    9  A    between atoms: S1_19  and  N4_22 
REMARK   10  A    between atoms: N4_22  and  C12_24 
REMARK   11  A    between atoms: N5_26  and  C14_27 
REMARK   12  A    between atoms: C14_27  and  C15_28 
REMARK       I    between atoms: C15_28  and  N6_30 
REMARK   13  A    between atoms: C26_41  and  N7_42 
ROOT
HETATM    1  C10 UNL     1      16.836  24.235  15.765  1.00  0.00     0.139 C 
ENDROOT
BRANCH   1   2
HETATM    2  N3  UNL     1      16.016  23.719  14.700  1.00  0.00    -0.355 N 
HETATM    3  C9  UNL     1      15.839  22.330  14.486  1.00  0.00     0.257 C 
HETATM    4  O2  UNL     1      16.364  21.444  15.191  1.00  0.00    -0.267 OA
ATOM      5  H3  UNL     1      15.546  24.377  14.077  1.00  0.00     0.162 HD
BRANCH   3   6
HETATM    6  C8  UNL     1      14.978  21.838  13.361  1.00  0.00     0.169 C 
BRANCH   6   7
HETATM    7  N2  UNL     1      13.762  21.330  13.833  1.00  0.00    -0.302 N 
HETATM    8  C7  UNL     1      12.867  22.151  14.613  1.00  0.00     0.323 C 
HETATM    9  N1  UNL     1      11.623  21.595  14.997  1.00  0.00    -0.331 N 
HETATM   10  O1  UNL     1      13.199  23.313  14.928  1.00  0.00    -0.247 OA
HETATM   11  C4  UNL     1      10.866  20.785  14.017  1.00  0.00     0.062 C 
ATOM     12  H1  UNL     1      11.254  21.750  15.935  1.00  0.00     0.165 HD
HETATM   13  C26 UNL     1      11.832  20.093  13.113  1.00  0.00     0.202 C 
HETATM   14  C25 UNL     1      13.258  19.978  13.605  1.00  0.00     0.167 C 
BRANCH  11  15
HETATM   15  C3  UNL     1      10.109  21.800  13.227  1.00  0.00     0.033 C 
BRANCH  15  16
HETATM   16  C2  UNL     1       8.718  21.593  12.858  1.00  0.00    -0.002 C 
HETATM   17  C1  UNL     1       7.880  22.771  12.508  1.00  0.00     0.005 C 
ENDBRANCH  15  16
ENDBRANCH  11  15
BRANCH  11  18
HETATM   18  C5  UNL     1      10.076  19.846  14.866  1.00  0.00     0.029 C 
HETATM   19  C6  UNL     1      10.160  20.223  16.335  1.00  0.00     0.007 C 
ENDBRANCH  11  18
BRANCH  13  20
HETATM   20  N7  UNL     1      11.423  18.795  12.641  1.00  0.00    -0.146 N 
HETATM   21  O6  UNL     1      10.551  18.639  11.765  1.00  0.00    -0.536 OA
HETATM   22  O7  UNL     1      11.997  17.657  13.149  1.00  0.00    -0.536 OA
ENDBRANCH  13  20
ENDBRANCH   6   7
ENDBRANCH   3   6
ENDBRANCH   1   2
BRANCH   1  23
HETATM   23  C11 UNL     1      17.742  25.294  15.236  1.00  0.00     0.182 C 
BRANCH  23  24
HETATM   24  S1  UNL     1      19.263  25.457  16.127  1.00  0.00     0.228 S 
HETATM   25  O3  UNL     1      20.281  24.476  15.604  1.00  0.00    -0.206 OA
HETATM   26  O4  UNL     1      19.751  26.877  15.869  1.00  0.00    -0.206 OA
BRANCH  24  27
HETATM   27  N4  UNL     1      18.996  25.195  17.788  1.00  0.00    -0.313 N 
ATOM     28  H4  UNL     1      18.364  25.767  18.347  1.00  0.00     0.172 HD
BRANCH  27  29
HETATM   29  C12 UNL     1      19.741  24.098  18.327  1.00  0.00     0.114 C 
HETATM   30  C13 UNL     1      18.850  22.930  18.590  1.00  0.00     0.143 C 
HETATM   31  N5  UNL     1      17.732  23.325  19.366  1.00  0.00    -0.402 N 
HETATM   32  C21 UNL     1      17.966  24.297  20.376  1.00  0.00     0.118 C 
HETATM   33  C22 UNL     1      19.383  24.468  20.798  1.00  0.00     0.026 C 
HETATM   34  C23 UNL     1      20.368  24.479  19.680  1.00  0.00     0.008 C 
HETATM   35  C24 UNL     1      21.443  23.456  19.954  1.00  0.00     0.012 C 
BRANCH  31  36
HETATM   36  C14 UNL     1      16.778  22.322  19.688  1.00  0.00     0.220 C 
BRANCH  36  37
HETATM   37  C15 UNL     1      15.626  22.200  18.802  1.00  0.00     0.237 C 
HETATM   38  O5  UNL     1      15.503  22.935  17.804  1.00  0.00    -0.272 OA
HETATM   39  N6  UNL     1      14.626  21.237  19.066  1.00  0.00    -0.351 N 
HETATM   40  C16 UNL     1      13.455  21.101  18.185  1.00  0.00     0.126 C 
HETATM   41  C20 UNL     1      14.659  20.324  20.193  1.00  0.00     0.126 C 
HETATM   42  C17 UNL     1      13.691  19.854  17.361  1.00  0.00     0.020 C 
HETATM   43  C18 UNL     1      14.511  18.882  18.170  1.00  0.00     0.003 C 
HETATM   44  C19 UNL     1      14.184  18.970  19.662  1.00  0.00     0.020 C 
ENDBRANCH  36  37
ENDBRANCH  31  36
ENDBRANCH  27  29
ENDBRANCH  24  27
ENDBRANCH  23  24
ENDBRANCH   1  23
TORSDOF 13
ENDMDL
MODEL 4
REMARK VINA RESULT: -8.667732989      2.975      9.226
REMARK  13 active torsions:
REMARK  status: ('A' for Active; 'I' for Inactive)
REMARK    1  A    between atoms: C2_2  and  C3_3 
REMARK    2  A    between atoms: C3_3  and  C4_4 
REMARK    3  A    between atoms: C4_4  and  C5_5 
REMARK    4  A    between atoms: N2_11  and  C8_12 
REMARK    5  A    between atoms: C8_12  and  C9_13 
REMARK       I    between atoms: C9_13  and  N3_15 
REMARK    6  A    between atoms: N3_15  and  C10_17 
REMARK    7  A    between atoms: C10_17  and  C11_18 
REMARK    8  A    between atoms: C11_18  and  S1_19 
REMARK    9  A    between atoms: S1_19  and  N4_22 
REMARK   10  A    between atoms: N4_22  and  C12_24 
REMARK   11  A    between atoms: N5_26  and  C14_27 
REMARK   12  A    between atoms: C14_27  and  C15_28 
REMARK       I    between atoms: C15_28  and  N6_30 
REMARK   13  A    between atoms: C26_41  and  N7_42 
ROOT
HETATM    1  C10 UNL     1      16.001  22.062  18.835  1.00  0.00     0.139 C 
ENDROOT
BRANCH   1   2
HETATM    2  N3  UNL     1      17.081  22.300  19.758  1.00  0.00    -0.355 N 
HETATM    3  C9  UNL     1      18.415  21.919  19.475  1.00  0.00     0.257 C 
HETATM    4  O2  UNL     1      18.771  21.357  18.419  1.00  0.00    -0.267 OA
ATOM      5  H3  UNL     1      16.878  22.760  20.646  1.00  0.00     0.162 HD
BRANCH   3   6
HETATM    6  C8  UNL     1      19.508  22.183  20.468  1.00  0.00     0.169 C 
BRANCH   6   7
HETATM    7  N2  UNL     1      20.133  23.412  20.224  1.00  0.00    -0.302 N 
HETATM    8  C7  UNL     1      19.422  24.655  20.407  1.00  0.00     0.323 C 
HETATM    9  N1  UNL     1      20.137  25.861  20.211  1.00  0.00    -0.331 N 
HETATM   10  O1  UNL     1      18.215  24.644  20.728  1.00  0.00    -0.247 OA
HETATM   11  C4  UNL     1      21.518  25.969  20.731  1.00  0.00     0.062 C 
ATOM     12  H1  UNL     1      19.706  26.644  19.720  1.00  0.00     0.165 HD
HETATM   13  C26 UNL     1      22.156  24.620  20.692  1.00  0.00     0.202 C 
HETATM   14  C25 UNL     1      21.514  23.592  19.786  1.00  0.00     0.167 C 
BRANCH  11  15
HETATM   15  C3  UNL     1      21.330  26.373  22.156  1.00  0.00     0.033 C 
BRANCH  15  16
HETATM   16  C2  UNL     1      22.396  27.011  22.912  1.00  0.00    -0.002 C 
HETATM   17  C1  UNL     1      22.159  27.366  24.336  1.00  0.00     0.005 C 
ENDBRANCH  15  16
ENDBRANCH  11  15
BRANCH  11  18
HETATM   18  C5  UNL     1      22.166  26.955  19.818  1.00  0.00     0.029 C 
HETATM   19  C6  UNL     1      21.341  27.171  18.561  1.00  0.00     0.007 C 
ENDBRANCH  11  18
BRANCH  13  20
HETATM   20  N7  UNL     1      23.573  24.609  20.436  1.00  0.00    -0.146 N 
HETATM   21  O6  UNL     1      24.423  24.781  21.332  1.00  0.00    -0.536 OA
HETATM   22  O7  UNL     1      24.050  24.399  19.167  1.00  0.00    -0.536 OA
ENDBRANCH  13  20
ENDBRANCH   6   7
ENDBRANCH   3   6
ENDBRANCH   1   2
BRANCH   1  23
HETATM   23  C11 UNL     1      14.979  21.183  19.472  1.00  0.00     0.182 C 
BRANCH  23  24
HETATM   24  S1  UNL     1      13.991  20.271  18.320  1.00  0.00     0.228 S 
HETATM   25  O3  UNL     1      14.799  19.156  17.708  1.00  0.00    -0.206 OA
HETATM   26  O4  UNL     1      12.843  19.679  19.128  1.00  0.00    -0.206 OA
BRANCH  24  27
HETATM   27  N4  UNL     1      13.409  21.309  17.102  1.00  0.00    -0.313 N 
ATOM     28  H4  UNL     1      13.079  22.255  17.288  1.00  0.00     0.172 HD
BRANCH  27  29
HETATM   29  C12 UNL     1      13.426  20.730  15.792  1.00  0.00     0.114 C 
HETATM   30  C13 UNL     1      14.720  21.014  15.104  1.00  0.00     0.143 C 
HETATM   31  N5  UNL     1      15.007  22.401  15.142  1.00  0.00    -0.402 N 
HETATM   32  C21 UNL     1      13.905  23.286  15.002  1.00  0.00     0.118 C 
HETATM   33  C22 UNL     1      12.672  22.701  14.408  1.00  0.00     0.026 C 
HETATM   34  C23 UNL     1      12.323  21.343  14.912  1.00  0.00     0.008 C 
HETATM   35  C24 UNL     1      12.143  20.408  13.742  1.00  0.00     0.012 C 
BRANCH  31  36
HETATM   36  C14 UNL     1      16.220  22.829  14.538  1.00  0.00     0.220 C 
BRANCH  36  37
HETATM   37  C15 UNL     1      17.401  22.878  15.394  1.00  0.00     0.237 C 
HETATM   38  O5  UNL     1      17.977  21.834  15.752  1.00  0.00    -0.272 OA
HETATM   39  N6  UNL     1      17.910  24.122  15.830  1.00  0.00    -0.351 N 
HETATM   40  C16 UNL     1      19.099  24.191  16.695  1.00  0.00     0.126 C 
HETATM   41  C20 UNL     1      17.328  25.403  15.477  1.00  0.00     0.126 C 
HETATM   42  C17 UNL     1      20.241  24.636  15.807  1.00  0.00     0.020 C 
HETATM   43  C18 UNL     1      19.694  25.509  14.708  1.00  0.00     0.003 C 
HETATM   44  C19 UNL     1      18.502  26.342  15.187  1.00  0.00     0.020 C 
ENDBRANCH  36  37
ENDBRANCH  31  36
ENDBRANCH  27  29
ENDBRANCH  24  27
ENDBRANCH  23  24
ENDBRANCH   1  23
TORSDOF 13
ENDMDL
MODEL 5
REMARK VINA RESULT: -8.648860425      2.074      3.639
REMARK  13 active torsions:
REMARK  status: ('A' for Active; 'I' for Inactive)
REMARK    1  A    between atoms: C2_2  and  C3_3 
REMARK    2  A    between atoms: C3_3  and  C4_4 
REMARK    3  A    between atoms: C4_4  and  C5_5 
REMARK    4  A    between atoms: N2_11  and  C8_12 
REMARK    5  A    between atoms: C8_12  and  C9_13 
REMARK       I    between atoms: C9_13  and  N3_15 
REMARK    6  A    between atoms: N3_15  and  C10_17 
REMARK    7  A    between atoms: C10_17  and  C11_18 
REMARK    8  A    between atoms: C11_18  and  S1_19 
REMARK    9  A    between atoms: S1_19  and  N4_22 
REMARK   10  A    between atoms: N4_22  and  C12_24 
REMARK   11  A    between atoms: N5_26  and  C14_27 
REMARK   12  A    between atoms: C14_27  and  C15_28 
REMARK       I    between atoms: C15_28  and  N6_30 
REMARK   13  A    between atoms: C26_41  and  N7_42 
ROOT
HETATM    1  C10 UNL     1      14.184  21.176  17.168  1.00  0.00     0.139 C 
ENDROOT
BRANCH   1   2
HETATM    2  N3  UNL     1      12.759  21.016  17.029  1.00  0.00    -0.355 N 
HETATM    3  C9  UNL     1      12.101  19.799  17.332  1.00  0.00     0.257 C 
HETATM    4  O2  UNL     1      12.684  18.775  17.743  1.00  0.00    -0.267 OA
ATOM      5  H3  UNL     1      12.204  21.807  16.701  1.00  0.00     0.162 HD
BRANCH   3   6
HETATM    6  C8  UNL     1      10.615  19.677  17.168  1.00  0.00     0.169 C 
BRANCH   6   7
HETATM    7  N2  UNL     1      10.286  18.987  15.995  1.00  0.00    -0.302 N 
HETATM    8  C7  UNL     1      10.270  19.659  14.718  1.00  0.00     0.323 C 
HETATM    9  N1  UNL     1       9.999  18.884  13.565  1.00  0.00    -0.331 N 
HETATM   10  O1  UNL     1      10.492  20.886  14.654  1.00  0.00    -0.247 OA
HETATM   11  C4  UNL     1      10.613  17.544  13.441  1.00  0.00     0.062 C 
ATOM     12  H1  UNL     1       9.389  19.244  12.831  1.00  0.00     0.165 HD
HETATM   13  C26 UNL     1      10.776  16.958  14.804  1.00  0.00     0.202 C 
HETATM   14  C25 UNL     1       9.943  17.570  15.909  1.00  0.00     0.167 C 
BRANCH  11  15
HETATM   15  C3  UNL     1      11.963  17.823  12.870  1.00  0.00     0.033 C 
BRANCH  15  16
HETATM   16  C2  UNL     1      12.416  17.190  11.642  1.00  0.00    -0.002 C 
HETATM   17  C1  UNL     1      13.360  16.044  11.724  1.00  0.00     0.005 C 
ENDBRANCH  15  16
ENDBRANCH  11  15
BRANCH  11  18
HETATM   18  C5  UNL     1       9.649  16.789  12.588  1.00  0.00     0.029 C 
HETATM   19  C6  UNL     1       8.696  17.725  11.866  1.00  0.00     0.007 C 
ENDBRANCH  11  18
BRANCH  13  20
HETATM   20  N7  UNL     1      10.639  15.528  14.889  1.00  0.00    -0.146 N 
HETATM   21  O6  UNL     1      11.503  14.739  14.459  1.00  0.00    -0.536 OA
HETATM   22  O7  UNL     1       9.526  14.968  15.464  1.00  0.00    -0.536 OA
ENDBRANCH  13  20
ENDBRANCH   6   7
ENDBRANCH   3   6
ENDBRANCH   1   2
BRANCH   1  23
HETATM   23  C11 UNL     1      14.855  20.849  15.878  1.00  0.00     0.182 C 
BRANCH  23  24
HETATM   24  S1  UNL     1      14.972  22.214  14.756  1.00  0.00     0.228 S 
HETATM   25  O3  UNL     1      15.830  21.845  13.573  1.00  0.00    -0.206 OA
HETATM   26  O4  UNL     1      13.551  22.492  14.283  1.00  0.00    -0.206 OA
BRANCH  24  27
HETATM   27  N4  UNL     1      15.627  23.568  15.554  1.00  0.00    -0.313 N 
ATOM     28  H4  UNL     1      15.054  24.320  15.936  1.00  0.00     0.172 HD
BRANCH  27  29
HETATM   29  C12 UNL     1      17.056  23.554  15.638  1.00  0.00     0.114 C 
HETATM   30  C13 UNL     1      17.507  22.836  16.866  1.00  0.00     0.143 C 
HETATM   31  N5  UNL     1      16.852  23.352  18.011  1.00  0.00    -0.402 N 
HETATM   32  C21 UNL     1      16.621  24.753  18.038  1.00  0.00     0.118 C 
HETATM   33  C22 UNL     1      17.450  25.567  17.108  1.00  0.00     0.026 C 
HETATM   34  C23 UNL     1      17.608  24.987  15.745  1.00  0.00     0.008 C 
HETATM   35  C24 UNL     1      19.076  24.904  15.407  1.00  0.00     0.012 C 
BRANCH  31  36
HETATM   36  C14 UNL     1      17.167  22.756  19.262  1.00  0.00     0.220 C 
BRANCH  36  37
HETATM   37  C15 UNL     1      18.547  22.324  19.457  1.00  0.00     0.237 C 
HETATM   38  O5  UNL     1      18.944  21.228  19.018  1.00  0.00    -0.272 OA
HETATM   39  N6  UNL     1      19.459  23.151  20.151  1.00  0.00    -0.351 N 
HETATM   40  C16 UNL     1      20.854  22.730  20.359  1.00  0.00     0.126 C 
HETATM   41  C20 UNL     1      19.116  24.447  20.705  1.00  0.00     0.126 C 
HETATM   42  C17 UNL     1      21.686  23.535  19.385  1.00  0.00     0.020 C 
HETATM   43  C18 UNL     1      21.017  24.865  19.153  1.00  0.00     0.003 C 
HETATM   44  C19 UNL     1      20.304  25.367  20.410  1.00  0.00     0.020 C 
ENDBRANCH  36  37
ENDBRANCH  31  36
ENDBRANCH  27  29
ENDBRANCH  24  27
ENDBRANCH  23  24
ENDBRANCH   1  23
TORSDOF 13
ENDMDL
