MODEL 1
REMARK VINA RESULT: -9.205920239      0.000      0.000
REMARK  13 active torsions:
REMARK  status: ('A' for Active; 'I' for Inactive)
REMARK    1  A    between atoms: C1_2  and  C2_3 
REMARK       I    between atoms: C1_2  and  N5_35 
REMARK    2  A    between atoms: C2_3  and  N1_4 
REMARK    3  A    between atoms: C6_8  and  C7_9 
REMARK       I    between atoms: C7_9  and  N2_11 
REMARK    4  A    between atoms: N2_11  and  C8_13 
REMARK    5  A    between atoms: C8_13  and  C9_14 
REMARK    6  A    between atoms: C8_13  and  C18_28 
REMARK       I    between atoms: C9_14  and  N3_16 
REMARK    7  A    between atoms: N3_16  and  C10_18 
REMARK    8  A    between atoms: C10_18  and  C11_19 
REMARK    9  A    between atoms: C11_19  and  C12_20 
REMARK   10  A    between atoms: C12_20  and  C13_21 
REMARK   11  A    between atoms: C13_21  and  N4_22 
REMARK   12  A    between atoms: N5_35  and  S1_37 
REMARK   13  A    between atoms: S1_37  and  C25_40 
ROOT
HETATM    1  C7  UNL     1      19.041  24.741  15.397  1.00  0.00     0.223 C 
HETATM    2  O2  UNL     1      19.903  23.788  15.476  1.00  0.00    -0.273 OA
HETATM    3  N2  UNL     1      17.692  24.381  15.454  1.00  0.00    -0.347 N 
ATOM      4  H2  UNL     1      16.965  25.094  15.381  1.00  0.00     0.163 HD
ENDROOT
BRANCH   3   5
HETATM    5  C8  UNL     1      17.334  22.987  15.617  1.00  0.00     0.180 C 
BRANCH   5   6
HETATM    6  C9  UNL     1      16.124  22.769  14.755  1.00  0.00     0.240 C 
HETATM    7  O3  UNL     1      16.202  22.288  13.613  1.00  0.00    -0.271 OA
HETATM    8  N3  UNL     1      14.826  23.120  15.257  1.00  0.00    -0.359 N 
ATOM      9  H3  UNL     1      14.729  23.519  16.190  1.00  0.00     0.162 HD
BRANCH   8  10
HETATM   10  C10 UNL     1      13.665  22.906  14.439  1.00  0.00     0.122 C 
BRANCH  10  11
HETATM   11  C11 UNL     1      12.960  21.631  15.003  1.00  0.00     0.021 C 
BRANCH  11  12
HETATM   12  C12 UNL     1      13.583  21.336  16.321  1.00  0.00     0.032 C 
BRANCH  12  13
HETATM   13  C13 UNL     1      13.364  20.004  16.897  1.00  0.00     0.272 C 
BRANCH  13  14
HETATM   14  N4  UNL     1      12.588  19.872  18.054  1.00  0.00     0.092 N 
HETATM   15  C14 UNL     1      11.441  19.058  18.030  1.00  0.00     0.298 C 
HETATM   16  C15 UNL     1      11.805  17.573  17.840  1.00  0.00     0.198 C 
HETATM   17  O4  UNL     1      12.614  17.193  18.893  1.00  0.00    -0.388 OA
HETATM   18  C16 UNL     1      13.774  17.936  18.953  1.00  0.00     0.198 C 
HETATM   19  C17 UNL     1      13.437  19.419  19.162  1.00  0.00     0.298 C 
ENDBRANCH  13  14
ENDBRANCH  12  13
ENDBRANCH  11  12
ENDBRANCH  10  11
ENDBRANCH   8  10
ENDBRANCH   5   6
BRANCH   5  20
HETATM   20  C18 UNL     1      17.099  22.616  17.035  1.00  0.00     0.018 C 
HETATM   21  C19 UNL     1      17.993  21.477  17.425  1.00  0.00     0.007 C 
HETATM   22  C20 UNL     1      18.317  21.493  18.908  1.00  0.00     0.000 C 
HETATM   23  C21 UNL     1      17.146  21.968  19.718  1.00  0.00     0.000 C 
HETATM   24  C22 UNL     1      16.846  23.405  19.371  1.00  0.00     0.000 C 
HETATM   25  C23 UNL     1      17.305  23.773  17.974  1.00  0.00     0.007 C 
ENDBRANCH   5  20
ENDBRANCH   3   5
BRANCH   1  26
HETATM   26  C6  UNL     1      19.633  26.074  15.265  1.00  0.00     0.091 C 
HETATM   27  C5  UNL     1      20.854  26.020  14.322  1.00  0.00     0.016 C 
HETATM   28  C4  UNL     1      21.084  27.445  13.874  1.00  0.00     0.016 C 
HETATM   29  C3  UNL     1      20.584  28.417  14.937  1.00  0.00     0.095 C 
HETATM   30  N1  UNL     1      20.835  27.901  16.265  1.00  0.00    -0.287 NA
HETATM   31  C24 UNL     1      20.164  26.665  16.545  1.00  0.00     0.109 C 
BRANCH  30  32
HETATM   32  C2  UNL     1      22.208  27.946  16.582  1.00  0.00     0.135 C 
BRANCH  32  33
HETATM   33  C1  UNL     1      22.523  27.255  17.864  1.00  0.00     0.265 C 
HETATM   34  O1  UNL     1      23.376  26.352  17.913  1.00  0.00    -0.267 OA
HETATM   35  N5  UNL     1      21.838  27.629  19.053  1.00  0.00    -0.250 N 
ATOM     36  H5  UNL     1      21.151  28.376  18.950  1.00  0.00     0.181 HD
BRANCH  35  37
HETATM   37  S1  UNL     1      22.009  27.007  20.608  1.00  0.00     0.237 S 
HETATM   38  O5  UNL     1      23.494  26.990  20.957  1.00  0.00    -0.205 OA
HETATM   39  O6  UNL     1      21.380  27.884  21.666  1.00  0.00    -0.205 OA
BRANCH  37  40
HETATM   40  C25 UNL     1      21.423  25.363  20.873  1.00  0.00     0.130 C 
HETATM   41  C26 UNL     1      20.287  25.144  19.865  1.00  0.00     0.022 C 
HETATM   42  C27 UNL     1      20.847  24.141  18.882  1.00  0.00     0.001 C 
HETATM   43  C28 UNL     1      21.711  23.252  19.773  1.00  0.00     0.001 C 
HETATM   44  C29 UNL     1      22.392  24.283  20.635  1.00  0.00     0.022 C 
ENDBRANCH  37  40
ENDBRANCH  35  37
ENDBRANCH  32  33
ENDBRANCH  30  32
ENDBRANCH   1  26
TORSDOF 13
ENDMDL
MODEL 2
REMARK VINA RESULT: -9.086137350      2.487      4.794
REMARK  13 active torsions:
REMARK  status: ('A' for Active; 'I' for Inactive)
REMARK    1  A    between atoms: C1_2  and  C2_3 
REMARK       I    between atoms: C1_2  and  N5_35 
REMARK    2  A    between atoms: C2_3  and  N1_4 
REMARK    3  A    between atoms: C6_8  and  C7_9 
REMARK       I    between atoms: C7_9  and  N2_11 
REMARK    4  A    between atoms: N2_11  and  C8_13 
REMARK    5  A    between atoms: C8_13  and  C9_14 
REMARK    6  A    between atoms: C8_13  and  C18_28 
REMARK       I    between atoms: C9_14  and  N3_16 
REMARK    7  A    between atoms: N3_16  and  C10_18 
REMARK    8  A    between atoms: C10_18  and  C11_19 
REMARK    9  A    between atoms: C11_19  and  C12_20 
REMARK   10  A    between atoms: C12_20  and  C13_21 
REMARK   11  A    between atoms: C13_21  and  N4_22 
REMARK   12  A    between atoms: N5_35  and  S1_37 
REMARK   13  A    between atoms: S1_37  and  C25_40 
ROOT
HETATM    1  C7  UNL     1      18.053  22.177  18.281  1.00  0.00     0.223 C 
HETATM    2  O2  UNL     1      18.213  21.777  17.067  1.00  0.00    -0.273 OA
HETATM    3  N2  UNL     1      16.780  22.023  18.836  1.00  0.00    -0.347 N 
ATOM      4  H2  UNL     1      16.592  22.337  19.788  1.00  0.00     0.163 HD
ENDROOT
BRANCH   3   5
HETATM    5  C8  UNL     1      15.729  21.414  18.046  1.00  0.00     0.180 C 
BRANCH   5   6
HETATM    6  C9  UNL     1      15.110  22.530  17.254  1.00  0.00     0.240 C 
HETATM    7  O3  UNL     1      14.448  23.434  17.788  1.00  0.00    -0.271 OA
HETATM    8  N3  UNL     1      15.286  22.567  15.830  1.00  0.00    -0.359 N 
ATOM      9  H3  UNL     1      15.823  21.838  15.361  1.00  0.00     0.162 HD
BRANCH   8  10
HETATM   10  C10 UNL     1      14.704  23.636  15.069  1.00  0.00     0.122 C 
BRANCH  10  11
HETATM   11  C11 UNL     1      13.266  23.165  14.680  1.00  0.00     0.021 C 
BRANCH  11  12
HETATM   12  C12 UNL     1      13.376  21.751  14.234  1.00  0.00     0.032 C 
BRANCH  12  13
HETATM   13  C13 UNL     1      12.508  20.760  14.880  1.00  0.00     0.272 C 
BRANCH  13  14
HETATM   14  N4  UNL     1      11.609  20.020  14.102  1.00  0.00     0.092 N 
HETATM   15  C14 UNL     1      10.953  18.911  14.668  1.00  0.00     0.298 C 
HETATM   16  C15 UNL     1       9.979  19.338  15.782  1.00  0.00     0.198 C 
HETATM   17  O4  UNL     1       9.043  20.190  15.229  1.00  0.00    -0.388 OA
HETATM   18  C16 UNL     1       9.622  21.316  14.683  1.00  0.00     0.198 C 
HETATM   19  C17 UNL     1      10.584  20.917  13.555  1.00  0.00     0.298 C 
ENDBRANCH  13  14
ENDBRANCH  12  13
ENDBRANCH  11  12
ENDBRANCH  10  11
ENDBRANCH   8  10
ENDBRANCH   5   6
BRANCH   5  20
HETATM   20  C18 UNL     1      14.737  20.684  18.874  1.00  0.00     0.018 C 
HETATM   21  C19 UNL     1      14.357  19.395  18.207  1.00  0.00     0.007 C 
HETATM   22  C20 UNL     1      13.938  18.339  19.213  1.00  0.00     0.000 C 
HETATM   23  C21 UNL     1      13.197  18.947  20.368  1.00  0.00     0.000 C 
HETATM   24  C22 UNL     1      14.121  19.863  21.130  1.00  0.00     0.000 C 
HETATM   25  C23 UNL     1      15.239  20.410  20.266  1.00  0.00     0.007 C 
ENDBRANCH   5  20
ENDBRANCH   3   5
BRANCH   1  26
HETATM   26  C6  UNL     1      19.263  22.733  18.892  1.00  0.00     0.091 C 
HETATM   27  C5  UNL     1      18.918  23.390  20.245  1.00  0.00     0.016 C 
HETATM   28  C4  UNL     1      20.227  23.487  20.995  1.00  0.00     0.016 C 
HETATM   29  C3  UNL     1      21.388  23.585  20.012  1.00  0.00     0.095 C 
HETATM   30  N1  UNL     1      21.020  24.374  18.857  1.00  0.00    -0.287 NA
HETATM   31  C24 UNL     1      19.935  23.821  18.097  1.00  0.00     0.109 C 
BRANCH  30  32
HETATM   32  C2  UNL     1      20.915  25.742  19.180  1.00  0.00     0.135 C 
BRANCH  32  33
HETATM   33  C1  UNL     1      21.328  26.630  18.057  1.00  0.00     0.265 C 
HETATM   34  O1  UNL     1      20.705  27.677  17.805  1.00  0.00    -0.267 OA
HETATM   35  N5  UNL     1      22.449  26.279  17.257  1.00  0.00    -0.250 N 
ATOM     36  H5  UNL     1      22.919  25.410  17.512  1.00  0.00     0.181 HD
BRANCH  35  37
HETATM   37  S1  UNL     1      23.107  27.103  15.944  1.00  0.00     0.237 S 
HETATM   38  O5  UNL     1      23.438  28.525  16.388  1.00  0.00    -0.205 OA
HETATM   39  O6  UNL     1      24.430  26.529  15.491  1.00  0.00    -0.205 OA
BRANCH  37  40
HETATM   40  C25 UNL     1      22.085  27.259  14.514  1.00  0.00     0.130 C 
HETATM   41  C26 UNL     1      21.305  25.944  14.396  1.00  0.00     0.022 C 
HETATM   42  C27 UNL     1      19.878  26.325  14.716  1.00  0.00     0.001 C 
HETATM   43  C28 UNL     1      19.766  27.724  14.116  1.00  0.00     0.001 C 
HETATM   44  C29 UNL     1      21.076  28.328  14.552  1.00  0.00     0.022 C 
ENDBRANCH  37  40
ENDBRANCH  35  37
ENDBRANCH  32  33
ENDBRANCH  30  32
ENDBRANCH   1  26
TORSDOF 13
ENDMDL
MODEL 3
REMARK VINA RESULT: -9.051696236      4.964     10.593
REMARK  13 active torsions:
REMARK  status: ('A' for Active; 'I' for Inactive)
REMARK    1  A    between atoms: C1_2  and  C2_3 
REMARK       I    between atoms: C1_2  and  N5_35 
REMARK    2  A    between atoms: C2_3  and  N1_4 
REMARK    3  A    between atoms: C6_8  and  C7_9 
REMARK       I    between atoms: C7_9  and  N2_11 
REMARK    4  A    between atoms: N2_11  and  C8_13 
REMARK    5  A    between atoms: C8_13  and  C9_14 
REMARK    6  A    between atoms: C8_13  and  C18_28 
REMARK       I    between atoms: C9_14  and  N3_16 
REMARK    7  A    between atoms: N3_16  and  C10_18 
REMARK    8  A    between atoms: C10_18  and  C11_19 
REMARK    9  A    between atoms: C11_19  and  C12_20 
REMARK   10  A    between atoms: C12_20  and  C13_21 
REMARK   11  A    between atoms: C13_21  and  N4_22 
REMARK   12  A    between atoms: N5_35  and  S1_37 
REMARK   13  A    between atoms: S1_37  and  C25_40 
ROOT
HETATM    1  C7  UNL     1      14.513  21.308  18.539  1.00  0.00     0.223 C 
HETATM    2  O2  UNL     1      13.940  22.401  18.171  1.00  0.00    -0.273 OA
HETATM    3  N2  UNL     1      15.900  21.238  18.390  1.00  0.00    -0.347 N 
ATOM      4  H2  UNL     1      16.404  20.390  18.651  1.00  0.00     0.163 HD
ENDROOT
BRANCH   3   5
HETATM    5  C8  UNL     1      16.617  22.380  17.861  1.00  0.00     0.180 C 
BRANCH   5   6
HETATM    6  C9  UNL     1      16.770  22.125  16.389  1.00  0.00     0.240 C 
HETATM    7  O3  UNL     1      17.799  21.624  15.907  1.00  0.00    -0.271 OA
HETATM    8  N3  UNL     1      15.697  22.462  15.499  1.00  0.00    -0.359 N 
ATOM      9  H3  UNL     1      14.840  22.877  15.864  1.00  0.00     0.162 HD
BRANCH   8  10
HETATM   10  C10 UNL     1      15.835  22.212  14.092  1.00  0.00     0.122 C 
BRANCH  10  11
HETATM   11  C11 UNL     1      14.570  21.401  13.664  1.00  0.00     0.021 C 
BRANCH  11  12
HETATM   12  C12 UNL     1      13.598  21.487  14.785  1.00  0.00     0.032 C 
BRANCH  12  13
HETATM   13  C13 UNL     1      12.197  21.771  14.455  1.00  0.00     0.272 C 
BRANCH  13  14
HETATM   14  N4  UNL     1      11.427  20.793  13.813  1.00  0.00     0.092 N 
HETATM   15  C14 UNL     1      11.065  19.627  14.512  1.00  0.00     0.298 C 
HETATM   16  C15 UNL     1      10.100  19.939  15.671  1.00  0.00     0.198 C 
HETATM   17  O4  UNL     1       8.968  20.524  15.139  1.00  0.00    -0.388 OA
HETATM   18  C16 UNL     1       9.253  21.692  14.466  1.00  0.00     0.198 C 
HETATM   19  C17 UNL     1      10.199  21.404  13.292  1.00  0.00     0.298 C 
ENDBRANCH  13  14
ENDBRANCH  12  13
ENDBRANCH  11  12
ENDBRANCH  10  11
ENDBRANCH   8  10
ENDBRANCH   5   6
BRANCH   5  20
HETATM   20  C18 UNL     1      17.918  22.608  18.540  1.00  0.00     0.018 C 
HETATM   21  C19 UNL     1      17.876  23.889  19.318  1.00  0.00     0.007 C 
HETATM   22  C20 UNL     1      18.812  23.857  20.513  1.00  0.00     0.000 C 
HETATM   23  C21 UNL     1      20.066  23.092  20.203  1.00  0.00     0.000 C 
HETATM   24  C22 UNL     1      19.721  21.648  19.943  1.00  0.00     0.000 C 
HETATM   25  C23 UNL     1      18.299  21.471  19.448  1.00  0.00     0.007 C 
ENDBRANCH   5  20
ENDBRANCH   3   5
BRANCH   1  26
HETATM   26  C6  UNL     1      13.592  20.301  19.071  1.00  0.00     0.091 C 
HETATM   27  C5  UNL     1      14.386  19.137  19.702  1.00  0.00     0.016 C 
HETATM   28  C4  UNL     1      13.414  18.430  20.617  1.00  0.00     0.016 C 
HETATM   29  C3  UNL     1      11.988  18.613  20.109  1.00  0.00     0.095 C 
HETATM   30  N1  UNL     1      11.950  18.592  18.663  1.00  0.00    -0.287 NA
HETATM   31  C24 UNL     1      12.702  19.646  18.047  1.00  0.00     0.109 C 
BRANCH  30  32
HETATM   32  C2  UNL     1      12.177  17.294  18.162  1.00  0.00     0.135 C 
BRANCH  32  33
HETATM   33  C1  UNL     1      11.070  16.817  17.285  1.00  0.00     0.265 C 
HETATM   34  O1  UNL     1       9.890  16.836  17.676  1.00  0.00    -0.267 OA
HETATM   35  N5  UNL     1      11.364  16.330  15.982  1.00  0.00    -0.250 N 
ATOM     36  H5  UNL     1      12.349  16.340  15.719  1.00  0.00     0.181 HD
BRANCH  35  37
HETATM   37  S1  UNL     1      10.304  15.738  14.814  1.00  0.00     0.237 S 
HETATM   38  O5  UNL     1       9.152  16.728  14.667  1.00  0.00    -0.205 OA
HETATM   39  O6  UNL     1      10.924  15.670  13.438  1.00  0.00    -0.205 OA
BRANCH  37  40
HETATM   40  C25 UNL     1       9.566  14.168  15.136  1.00  0.00     0.130 C 
HETATM   41  C26 UNL     1      10.540  13.415  16.052  1.00  0.00     0.022 C 
HETATM   42  C27 UNL     1       9.826  13.347  17.383  1.00  0.00     0.001 C 
HETATM   43  C28 UNL     1       8.366  13.190  16.968  1.00  0.00     0.001 C 
HETATM   44  C29 UNL     1       8.277  14.191  15.844  1.00  0.00     0.022 C 
ENDBRANCH  37  40
ENDBRANCH  35  37
ENDBRANCH  32  33
ENDBRANCH  30  32
ENDBRANCH   1  26
TORSDOF 13
ENDMDL
MODEL 4
REMARK VINA RESULT: -9.033316058      3.432     10.571
REMARK  13 active torsions:
REMARK  status: ('A' for Active; 'I' for Inactive)
REMARK    1  A    between atoms: C1_2  and  C2_3 
REMARK       I    between atoms: C1_2  and  N5_35 
REMARK    2  A    between atoms: C2_3  and  N1_4 
REMARK    3  A    between atoms: C6_8  and  C7_9 
REMARK       I    between atoms: C7_9  and  N2_11 
REMARK    4  A    between atoms: N2_11  and  C8_13 
REMARK    5  A    between atoms: C8_13  and  C9_14 
REMARK    6  A    between atoms: C8_13  and  C18_28 
REMARK       I    between atoms: C9_14  and  N3_16 
REMARK    7  A    between atoms: N3_16  and  C10_18 
REMARK    8  A    between atoms: C10_18  and  C11_19 
REMARK    9  A    between atoms: C11_19  and  C12_20 
REMARK   10  A    between atoms: C12_20  and  C13_21 
REMARK   11  A    between atoms: C13_21  and  N4_22 
REMARK   12  A    between atoms: N5_35  and  S1_37 
REMARK   13  A    between atoms: S1_37  and  C25_40 
ROOT
HETATM    1  C7  UNL     1      15.136  19.983  18.515  1.00  0.00     0.223 C 
HETATM    2  O2  UNL     1      15.600  19.273  17.545  1.00  0.00    -0.273 OA
HETATM    3  N2  UNL     1      15.866  21.118  18.876  1.00  0.00    -0.347 N 
ATOM      4  H2  UNL     1      15.553  21.708  19.647  1.00  0.00     0.163 HD
ENDROOT
BRANCH   3   5
HETATM    5  C8  UNL     1      17.072  21.450  18.145  1.00  0.00     0.180 C 
BRANCH   5   6
HETATM    6  C9  UNL     1      18.078  21.867  19.179  1.00  0.00     0.240 C 
HETATM    7  O3  UNL     1      18.976  21.106  19.575  1.00  0.00    -0.271 OA
HETATM    8  N3  UNL     1      18.015  23.189  19.733  1.00  0.00    -0.359 N 
ATOM      9  H3  UNL     1      17.288  23.837  19.430  1.00  0.00     0.162 HD
BRANCH   8  10
HETATM   10  C10 UNL     1      18.979  23.595  20.716  1.00  0.00     0.122 C 
BRANCH  10  11
HETATM   11  C11 UNL     1      19.718  24.835  20.119  1.00  0.00     0.021 C 
BRANCH  11  12
HETATM   12  C12 UNL     1      20.683  24.324  19.111  1.00  0.00     0.032 C 
BRANCH  12  13
HETATM   13  C13 UNL     1      20.552  24.807  17.732  1.00  0.00     0.272 C 
BRANCH  13  14
HETATM   14  N4  UNL     1      19.992  26.067  17.492  1.00  0.00     0.092 N 
HETATM   15  C14 UNL     1      20.829  27.143  17.143  1.00  0.00     0.298 C 
HETATM   16  C15 UNL     1      21.481  26.927  15.764  1.00  0.00     0.198 C 
HETATM   17  O4  UNL     1      20.472  26.809  14.828  1.00  0.00    -0.388 OA
HETATM   18  C16 UNL     1      19.632  25.750  15.098  1.00  0.00     0.198 C 
HETATM   19  C17 UNL     1      18.955  25.952  16.461  1.00  0.00     0.298 C 
ENDBRANCH  13  14
ENDBRANCH  12  13
ENDBRANCH  11  12
ENDBRANCH  10  11
ENDBRANCH   8  10
ENDBRANCH   5   6
BRANCH   5  20
HETATM   20  C18 UNL     1      16.850  22.492  17.111  1.00  0.00     0.018 C 
HETATM   21  C19 UNL     1      17.297  21.992  15.770  1.00  0.00     0.007 C 
HETATM   22  C20 UNL     1      16.525  22.641  14.636  1.00  0.00     0.000 C 
HETATM   23  C21 UNL     1      16.206  24.075  14.944  1.00  0.00     0.000 C 
HETATM   24  C22 UNL     1      15.279  24.139  16.132  1.00  0.00     0.000 C 
HETATM   25  C23 UNL     1      15.413  22.933  17.038  1.00  0.00     0.007 C 
ENDBRANCH   5  20
ENDBRANCH   3   5
BRANCH   1  26
HETATM   26  C6  UNL     1      13.887  19.471  19.085  1.00  0.00     0.091 C 
HETATM   27  C5  UNL     1      13.926  17.930  19.149  1.00  0.00     0.016 C 
HETATM   28  C4  UNL     1      12.868  17.538  20.154  1.00  0.00     0.016 C 
HETATM   29  C3  UNL     1      11.768  18.592  20.196  1.00  0.00     0.095 C 
HETATM   30  N1  UNL     1      11.517  19.126  18.875  1.00  0.00    -0.287 NA
HETATM   31  C24 UNL     1      12.647  19.791  18.293  1.00  0.00     0.109 C 
BRANCH  30  32
HETATM   32  C2  UNL     1      10.862  18.185  18.055  1.00  0.00     0.135 C 
BRANCH  32  33
HETATM   33  C1  UNL     1      10.714  18.654  16.649  1.00  0.00     0.265 C 
HETATM   34  O1  UNL     1      11.079  17.945  15.694  1.00  0.00    -0.267 OA
HETATM   35  N5  UNL     1      10.147  19.932  16.388  1.00  0.00    -0.250 N 
ATOM     36  H5  UNL     1       9.866  20.466  17.210  1.00  0.00     0.181 HD
BRANCH  35  37
HETATM   37  S1  UNL     1       9.878  20.684  14.905  1.00  0.00     0.237 S 
HETATM   38  O5  UNL     1       9.130  19.707  14.002  1.00  0.00    -0.205 OA
HETATM   39  O6  UNL     1       8.962  21.881  15.010  1.00  0.00    -0.205 OA
BRANCH  37  40
HETATM   40  C25 UNL     1      11.307  21.193  14.004  1.00  0.00     0.130 C 
HETATM   41  C26 UNL     1      12.367  21.560  15.050  1.00  0.00     0.022 C 
HETATM   42  C27 UNL     1      13.413  20.477  14.919  1.00  0.00     0.001 C 
HETATM   43  C28 UNL     1      13.404  20.187  13.420  1.00  0.00     0.001 C 
HETATM   44  C29 UNL     1      11.924  20.176  13.139  1.00  0.00     0.022 C 
ENDBRANCH  37  40
ENDBRANCH  35  37
ENDBRANCH  32  33
ENDBRANCH  30  32
ENDBRANCH   1  26
TORSDOF 13
ENDMDL
MODEL 5
REMARK VINA RESULT: -9.002821595      4.932     10.251
REMARK  13 active torsions:
REMARK  status: ('A' for Active; 'I' for Inactive)
REMARK    1  A    between atoms: C1_2  and  C2_3 
REMARK       I    between atoms: C1_2  and  N5_35 
REMARK    2  A    between atoms: C2_3  and  N1_4 
REMARK    3  A    between atoms: C6_8  and  C7_9 
REMARK       I    between atoms: C7_9  and  N2_11 
REMARK    4  A    between atoms: N2_11  and  C8_13 
REMARK    5  A    between atoms: C8_13  and  C9_14 
REMARK    6  A    between atoms: C8_13  and  C18_28 
REMARK       I    between atoms: C9_14  and  N3_16 
REMARK    7  A    between atoms: N3_16  and  C10_18 
REMARK    8  A    between atoms: C10_18  and  C11_19 
REMARK    9  A    between atoms: C11_19  and  C12_20 
REMARK   10  A    between atoms: C12_20  and  C13_21 
REMARK   11  A    between atoms: C13_21  and  N4_22 
REMARK   12  A    between atoms: N5_35  and  S1_37 
REMARK   13  A    between atoms: S1_37  and  C25_40 
ROOT
HETATM    1  C7  UNL     1      14.539  21.337  18.444  1.00  0.00     0.223 C 
HETATM    2  O2  UNL     1      13.981  22.451  18.119  1.00  0.00    -0.273 OA
HETATM    3  N2  UNL     1      15.925  21.253  18.285  1.00  0.00    -0.347 N 
ATOM      4  H2  UNL     1      16.418  20.390  18.513  1.00  0.00     0.163 HD
ENDROOT
BRANCH   3   5
HETATM    5  C8  UNL     1      16.656  22.404  17.795  1.00  0.00     0.180 C 
BRANCH   5   6
HETATM    6  C9  UNL     1      16.837  22.178  16.321  1.00  0.00     0.240 C 
HETATM    7  O3  UNL     1      17.901  21.756  15.841  1.00  0.00    -0.271 OA
HETATM    8  N3  UNL     1      15.749  22.452  15.426  1.00  0.00    -0.359 N 
ATOM      9  H3  UNL     1      14.862  22.803  15.789  1.00  0.00     0.162 HD
BRANCH   8  10
HETATM   10  C10 UNL     1      15.914  22.231  14.017  1.00  0.00     0.122 C 
BRANCH  10  11
HETATM   11  C11 UNL     1      14.669  21.407  13.554  1.00  0.00     0.021 C 
BRANCH  11  12
HETATM   12  C12 UNL     1      13.706  21.400  14.686  1.00  0.00     0.032 C 
BRANCH  12  13
HETATM   13  C13 UNL     1      12.289  21.623  14.379  1.00  0.00     0.272 C 
BRANCH  13  14
HETATM   14  N4  UNL     1      11.466  20.530  14.084  1.00  0.00     0.092 N 
HETATM   15  C14 UNL     1      10.646  19.987  15.090  1.00  0.00     0.298 C 
HETATM   16  C15 UNL     1       9.548  20.978  15.520  1.00  0.00     0.198 C 
HETATM   17  O4  UNL     1       8.778  21.270  14.412  1.00  0.00    -0.388 OA
HETATM   18  C16 UNL     1       9.520  21.835  13.397  1.00  0.00     0.198 C 
HETATM   19  C17 UNL     1      10.611  20.858  12.937  1.00  0.00     0.298 C 
ENDBRANCH  13  14
ENDBRANCH  12  13
ENDBRANCH  11  12
ENDBRANCH  10  11
ENDBRANCH   8  10
ENDBRANCH   5   6
BRANCH   5  20
HETATM   20  C18 UNL     1      17.943  22.612  18.503  1.00  0.00     0.018 C 
HETATM   21  C19 UNL     1      17.914  23.909  19.256  1.00  0.00     0.007 C 
HETATM   22  C20 UNL     1      18.817  23.877  20.475  1.00  0.00     0.000 C 
HETATM   23  C21 UNL     1      20.059  23.076  20.213  1.00  0.00     0.000 C 
HETATM   24  C22 UNL     1      19.685  21.636  19.970  1.00  0.00     0.000 C 
HETATM   25  C23 UNL     1      18.274  21.484  19.441  1.00  0.00     0.007 C 
ENDBRANCH   5  20
ENDBRANCH   3   5
BRANCH   1  26
HETATM   26  C6  UNL     1      13.607  20.324  18.944  1.00  0.00     0.091 C 
HETATM   27  C5  UNL     1      14.387  19.150  19.573  1.00  0.00     0.016 C 
HETATM   28  C4  UNL     1      13.396  18.432  20.459  1.00  0.00     0.016 C 
HETATM   29  C3  UNL     1      11.980  18.625  19.928  1.00  0.00     0.095 C 
HETATM   30  N1  UNL     1      11.969  18.625  18.481  1.00  0.00    -0.287 NA
HETATM   31  C24 UNL     1      12.735  19.687  17.894  1.00  0.00     0.109 C 
BRANCH  30  32
HETATM   32  C2  UNL     1      12.203  17.335  17.965  1.00  0.00     0.135 C 
BRANCH  32  33
HETATM   33  C1  UNL     1      11.079  16.843  17.119  1.00  0.00     0.265 C 
HETATM   34  O1  UNL     1       9.941  16.683  17.595  1.00  0.00    -0.267 OA
HETATM   35  N5  UNL     1      11.306  16.551  15.746  1.00  0.00    -0.250 N 
ATOM     36  H5  UNL     1      12.258  16.703  15.414  1.00  0.00     0.181 HD
BRANCH  35  37
HETATM   37  S1  UNL     1      10.214  15.987  14.594  1.00  0.00     0.237 S 
HETATM   38  O5  UNL     1       9.792  14.574  14.986  1.00  0.00    -0.205 OA
HETATM   39  O6  UNL     1       8.925  16.775  14.569  1.00  0.00    -0.205 OA
BRANCH  37  40
HETATM   40  C25 UNL     1      10.799  15.883  12.933  1.00  0.00     0.130 C 
HETATM   41  C26 UNL     1      10.983  17.328  12.450  1.00  0.00     0.022 C 
HETATM   42  C27 UNL     1      12.480  17.495  12.328  1.00  0.00     0.001 C 
HETATM   43  C28 UNL     1      12.930  16.114  11.856  1.00  0.00     0.001 C 
HETATM   44  C29 UNL     1      12.100  15.223  12.743  1.00  0.00     0.022 C 
ENDBRANCH  37  40
ENDBRANCH  35  37
ENDBRANCH  32  33
ENDBRANCH  30  32
ENDBRANCH   1  26
TORSDOF 13
ENDMDL
