MODEL 1
REMARK VINA RESULT: -9.185750981      0.000      0.000
REMARK  12 active torsions:
REMARK  status: ('A' for Active; 'I' for Inactive)
REMARK    1  A    between atoms: N1_2  and  C2_5 
REMARK    2  A    between atoms: C2_5  and  C3_6 
REMARK       I    between atoms: C3_6  and  N2_8 
REMARK       I    between atoms: N2_8  and  C4_10 
REMARK    3  A    between atoms: C4_10  and  C5_12 
REMARK    4  A    between atoms: C5_12  and  C6_13 
REMARK    5  A    between atoms: C5_12  and  C12_21 
REMARK    6  A    between atoms: C6_13  and  C7_14 
REMARK       I    between atoms: C12_21  and  N4_23 
REMARK    7  A    between atoms: C16_27  and  C17_28 
REMARK       I    between atoms: C17_28  and  N5_30 
REMARK    8  A    between atoms: N5_30  and  C18_32 
REMARK    9  A    between atoms: C18_32  and  C19_33 
REMARK   10  A    between atoms: C18_32  and  C23_37 
REMARK   11  A    between atoms: C19_33  and  C20_34 
REMARK   12  A    between atoms: C23_37  and  C24_39 
ROOT
HETATM    1  C12 UNL     1      14.789  21.702  18.804  1.00  0.00     0.233 C 
HETATM    2  O3  UNL     1      13.983  22.649  18.835  1.00  0.00    -0.272 OA
HETATM    3  N4  UNL     1      14.350  20.376  18.933  1.00  0.00    -0.337 N 
HETATM    4  C13 UNL     1      15.055  19.140  18.966  1.00  0.00     0.132 C 
HETATM    5  C14 UNL     1      14.153  18.139  19.613  1.00  0.00     0.019 A 
HETATM    6  C15 UNL     1      12.826  18.823  19.901  1.00  0.00     0.032 A 
HETATM    7  C16 UNL     1      12.916  20.023  19.044  1.00  0.00     0.184 C 
HETATM    8  C25 UNL     1      13.720  18.441  20.988  1.00  0.00    -0.036 A 
HETATM    9  C26 UNL     1      13.299  17.201  21.792  1.00  0.00     0.016 C 
HETATM   10  C27 UNL     1      14.483  19.427  21.827  1.00  0.00     0.016 C 
ENDROOT
BRANCH   1  11
HETATM   11  C5  UNL     1      16.259  22.099  18.613  1.00  0.00     0.170 C 
BRANCH  11  12
HETATM   12  C4  UNL     1      16.551  22.136  17.179  1.00  0.00     0.237 C 
HETATM   13  N2  UNL     1      15.566  21.675  16.222  1.00  0.00    -0.295 N 
HETATM   14  C3  UNL     1      15.803  21.661  14.836  1.00  0.00     0.260 C 
ATOM     15  H2  UNL     1      14.664  21.348  16.568  1.00  0.00     0.171 HD
HETATM   16  O1  UNL     1      16.896  22.066  14.386  1.00  0.00    -0.270 OA
HETATM   17  O2  UNL     1      17.619  22.551  16.671  1.00  0.00    -0.272 OA
BRANCH  14  18
HETATM   18  C2  UNL     1      14.759  21.165  13.905  1.00  0.00     0.205 A 
HETATM   19  C28 UNL     1      13.826  22.176  13.376  1.00  0.00     0.052 A 
HETATM   20  C29 UNL     1      14.873  21.546  12.465  1.00  0.00     0.052 A 
BRANCH  18  21
HETATM   21  N1  UNL     1      14.325  19.802  14.122  1.00  0.00    -0.061 N 
HETATM   22  C1  UNL     1      13.458  19.291  13.105  1.00  0.00     0.268 C 
ATOM     23  H12 UNL     1      13.891  19.708  15.041  1.00  0.00     0.278 HD
ATOM     24  H11 UNL     1      15.129  19.188  14.245  1.00  0.00     0.278 HD
ENDBRANCH  18  21
ENDBRANCH  14  18
ENDBRANCH  11  12
BRANCH  11  25
HETATM   25  C6  UNL     1      17.081  21.237  19.487  1.00  0.00     0.030 C 
BRANCH  25  26
HETATM   26  C7  UNL     1      18.240  21.742  20.218  1.00  0.00     0.004 C 
HETATM   27  C8  UNL     1      19.606  21.264  19.940  1.00  0.00     0.008 C 
HETATM   28  C9  UNL     1      20.644  22.137  20.702  1.00  0.00     0.020 C 
HETATM   29  C10 UNL     1      20.680  23.456  19.952  1.00  0.00     0.113 C 
HETATM   30  N3  UNL     1      19.434  23.664  19.266  1.00  0.00    -0.421 N 
HETATM   31  C11 UNL     1      18.269  23.279  20.006  1.00  0.00     0.118 C 
ATOM     32  H3  UNL     1      19.383  24.056  18.325  1.00  0.00     0.153 HD
ENDBRANCH  25  26
ENDBRANCH  11  25
ENDBRANCH   1  11
BRANCH   7  33
HETATM   33  C17 UNL     1      12.480  19.625  17.661  1.00  0.00     0.241 C 
HETATM   34  O4  UNL     1      13.070  19.995  16.620  1.00  0.00    -0.271 OA
HETATM   35  N5  UNL     1      11.331  18.786  17.484  1.00  0.00    -0.347 N 
ATOM     36  H5  UNL     1      10.820  18.474  18.310  1.00  0.00     0.163 HD
BRANCH  35  37
HETATM   37  C18 UNL     1      10.864  18.360  16.169  1.00  0.00     0.164 C 
BRANCH  37  38
HETATM   38  C19 UNL     1       9.826  19.360  15.662  1.00  0.00     0.038 C 
BRANCH  38  39
HETATM   39  C20 UNL     1      10.235  20.107  14.444  1.00  0.00    -0.012 A 
HETATM   40  C21 UNL     1       9.292  21.298  14.161  1.00  0.00     0.005 A 
HETATM   41  C22 UNL     1      10.748  21.498  14.458  1.00  0.00     0.005 A 
ENDBRANCH  38  39
ENDBRANCH  37  38
BRANCH  37  42
HETATM   42  C23 UNL     1      10.450  16.974  16.089  1.00  0.00     0.236 C 
HETATM   43  O5  UNL     1       9.333  16.657  15.559  1.00  0.00    -0.285 OA
BRANCH  42  44
HETATM   44  C24 UNL     1      11.247  15.884  16.590  1.00  0.00     0.302 C 
HETATM   45  N6  UNL     1      11.331  14.615  15.944  1.00  0.00    -0.054 NA
HETATM   46  O6  UNL     1      11.914  16.043  17.659  1.00  0.00    -0.268 OA
ENDBRANCH  42  44
ENDBRANCH  37  42
ENDBRANCH  35  37
ENDBRANCH   7  33
TORSDOF 12
ENDMDL
MODEL 2
REMARK VINA RESULT: -8.827331080      3.304      9.622
REMARK  12 active torsions:
REMARK  status: ('A' for Active; 'I' for Inactive)
REMARK    1  A    between atoms: N1_2  and  C2_5 
REMARK    2  A    between atoms: C2_5  and  C3_6 
REMARK       I    between atoms: C3_6  and  N2_8 
REMARK       I    between atoms: N2_8  and  C4_10 
REMARK    3  A    between atoms: C4_10  and  C5_12 
REMARK    4  A    between atoms: C5_12  and  C6_13 
REMARK    5  A    between atoms: C5_12  and  C12_21 
REMARK    6  A    between atoms: C6_13  and  C7_14 
REMARK       I    between atoms: C12_21  and  N4_23 
REMARK    7  A    between atoms: C16_27  and  C17_28 
REMARK       I    between atoms: C17_28  and  N5_30 
REMARK    8  A    between atoms: N5_30  and  C18_32 
REMARK    9  A    between atoms: C18_32  and  C19_33 
REMARK   10  A    between atoms: C18_32  and  C23_37 
REMARK   11  A    between atoms: C19_33  and  C20_34 
REMARK   12  A    between atoms: C23_37  and  C24_39 
ROOT
HETATM    1  C12 UNL     1      17.280  22.671  17.979  1.00  0.00     0.233 C 
HETATM    2  O3  UNL     1      16.755  23.087  19.027  1.00  0.00    -0.272 OA
HETATM    3  N4  UNL     1      18.360  23.349  17.396  1.00  0.00    -0.337 N 
HETATM    4  C13 UNL     1      19.104  23.107  16.207  1.00  0.00     0.132 C 
HETATM    5  C14 UNL     1      19.770  24.393  15.838  1.00  0.00     0.019 A 
HETATM    6  C15 UNL     1      19.450  25.412  16.920  1.00  0.00     0.032 A 
HETATM    7  C16 UNL     1      18.976  24.543  18.017  1.00  0.00     0.184 C 
HETATM    8  C25 UNL     1      18.882  25.540  15.583  1.00  0.00    -0.036 A 
HETATM    9  C26 UNL     1      19.511  26.625  14.694  1.00  0.00     0.016 C 
HETATM   10  C27 UNL     1      17.429  25.324  15.269  1.00  0.00     0.016 C 
ENDROOT
BRANCH   1  11
HETATM   11  C5  UNL     1      16.666  21.388  17.403  1.00  0.00     0.170 C 
BRANCH  11  12
HETATM   12  C4  UNL     1      15.511  21.751  16.580  1.00  0.00     0.237 C 
HETATM   13  N2  UNL     1      14.685  20.720  15.988  1.00  0.00    -0.295 N 
HETATM   14  C3  UNL     1      13.581  21.010  15.166  1.00  0.00     0.260 C 
ATOM     15  H2  UNL     1      14.913  19.743  16.175  1.00  0.00     0.171 HD
HETATM   16  O1  UNL     1      13.275  22.198  14.929  1.00  0.00    -0.270 OA
HETATM   17  O2  UNL     1      15.145  22.924  16.327  1.00  0.00    -0.272 OA
BRANCH  14  18
HETATM   18  C2  UNL     1      12.779  19.908  14.577  1.00  0.00     0.205 A 
HETATM   19  C28 UNL     1      11.746  19.319  15.447  1.00  0.00     0.052 A 
HETATM   20  C29 UNL     1      11.345  20.185  14.259  1.00  0.00     0.052 A 
BRANCH  18  21
HETATM   21  N1  UNL     1      13.458  19.102  13.587  1.00  0.00    -0.061 N 
HETATM   22  C1  UNL     1      12.592  18.265  12.815  1.00  0.00     0.268 C 
ATOM     23  H12 UNL     1      14.194  18.546  14.023  1.00  0.00     0.278 HD
ATOM     24  H11 UNL     1      14.023  19.690  12.974  1.00  0.00     0.278 HD
ENDBRANCH  18  21
ENDBRANCH  14  18
ENDBRANCH  11  12
BRANCH  11  25
HETATM   25  C6  UNL     1      16.478  20.434  18.516  1.00  0.00     0.030 C 
BRANCH  25  26
HETATM   26  C7  UNL     1      15.172  19.880  18.860  1.00  0.00     0.004 C 
HETATM   27  C8  UNL     1      14.938  18.427  18.941  1.00  0.00     0.008 C 
HETATM   28  C9  UNL     1      13.533  18.143  19.546  1.00  0.00     0.020 C 
HETATM   29  C10 UNL     1      13.667  18.460  21.025  1.00  0.00     0.113 C 
HETATM   30  N3  UNL     1      14.727  19.410  21.228  1.00  0.00    -0.421 N 
HETATM   31  C11 UNL     1      14.794  20.455  20.251  1.00  0.00     0.118 C 
ATOM     32  H3  UNL     1      15.381  19.344  22.009  1.00  0.00     0.153 HD
ENDBRANCH  25  26
ENDBRANCH  11  25
ENDBRANCH   1  11
BRANCH   7  33
HETATM   33  C17 UNL     1      20.188  24.048  18.757  1.00  0.00     0.241 C 
HETATM   34  O4  UNL     1      20.314  22.868  19.158  1.00  0.00    -0.271 OA
HETATM   35  N5  UNL     1      21.270  24.942  19.044  1.00  0.00    -0.347 N 
ATOM     36  H5  UNL     1      21.197  25.914  18.741  1.00  0.00     0.163 HD
BRANCH  35  37
HETATM   37  C18 UNL     1      22.474  24.518  19.750  1.00  0.00     0.164 C 
BRANCH  37  38
HETATM   38  C19 UNL     1      22.283  24.760  21.247  1.00  0.00     0.038 C 
BRANCH  38  39
HETATM   39  C20 UNL     1      21.356  25.873  21.578  1.00  0.00    -0.012 A 
HETATM   40  C21 UNL     1      21.854  26.691  22.790  1.00  0.00     0.005 A 
HETATM   41  C22 UNL     1      21.696  27.308  21.432  1.00  0.00     0.005 A 
ENDBRANCH  38  39
ENDBRANCH  37  38
BRANCH  37  42
HETATM   42  C23 UNL     1      23.714  25.042  19.213  1.00  0.00     0.236 C 
HETATM   43  O5  UNL     1      24.761  24.314  19.163  1.00  0.00    -0.285 OA
BRANCH  42  44
HETATM   44  C24 UNL     1      23.848  26.386  18.712  1.00  0.00     0.302 C 
HETATM   45  N6  UNL     1      23.157  26.864  17.560  1.00  0.00    -0.054 NA
HETATM   46  O6  UNL     1      24.618  27.199  19.314  1.00  0.00    -0.268 OA
ENDBRANCH  42  44
ENDBRANCH  37  42
ENDBRANCH  35  37
ENDBRANCH   7  33
TORSDOF 12
ENDMDL
MODEL 3
REMARK VINA RESULT: -8.779071688      2.870      5.280
REMARK  12 active torsions:
REMARK  status: ('A' for Active; 'I' for Inactive)
REMARK    1  A    between atoms: N1_2  and  C2_5 
REMARK    2  A    between atoms: C2_5  and  C3_6 
REMARK       I    between atoms: C3_6  and  N2_8 
REMARK       I    between atoms: N2_8  and  C4_10 
REMARK    3  A    between atoms: C4_10  and  C5_12 
REMARK    4  A    between atoms: C5_12  and  C6_13 
REMARK    5  A    between atoms: C5_12  and  C12_21 
REMARK    6  A    between atoms: C6_13  and  C7_14 
REMARK       I    between atoms: C12_21  and  N4_23 
REMARK    7  A    between atoms: C16_27  and  C17_28 
REMARK       I    between atoms: C17_28  and  N5_30 
REMARK    8  A    between atoms: N5_30  and  C18_32 
REMARK    9  A    between atoms: C18_32  and  C19_33 
REMARK   10  A    between atoms: C18_32  and  C23_37 
REMARK   11  A    between atoms: C19_33  and  C20_34 
REMARK   12  A    between atoms: C23_37  and  C24_39 
ROOT
HETATM    1  C12 UNL     1      16.628  23.887  18.497  1.00  0.00     0.233 C 
HETATM    2  O3  UNL     1      15.925  24.879  18.759  1.00  0.00    -0.272 OA
HETATM    3  N4  UNL     1      16.043  22.659  18.158  1.00  0.00    -0.337 N 
HETATM    4  C13 UNL     1      16.609  21.388  17.854  1.00  0.00     0.132 C 
HETATM    5  C14 UNL     1      15.536  20.369  18.067  1.00  0.00     0.019 A 
HETATM    6  C15 UNL     1      14.261  21.106  18.445  1.00  0.00     0.032 A 
HETATM    7  C16 UNL     1      14.579  22.486  18.026  1.00  0.00     0.184 C 
HETATM    8  C25 UNL     1      14.970  20.291  19.424  1.00  0.00    -0.036 A 
HETATM    9  C26 UNL     1      14.328  18.933  19.750  1.00  0.00     0.016 C 
HETATM   10  C27 UNL     1      15.719  20.858  20.596  1.00  0.00     0.016 C 
ENDROOT
BRANCH   1  11
HETATM   11  C5  UNL     1      18.143  24.120  18.569  1.00  0.00     0.170 C 
BRANCH  11  12
HETATM   12  C4  UNL     1      18.617  24.531  17.246  1.00  0.00     0.237 C 
HETATM   13  N2  UNL     1      19.627  25.560  17.121  1.00  0.00    -0.295 N 
HETATM   14  C3  UNL     1      20.099  26.014  15.876  1.00  0.00     0.260 C 
ATOM     15  H2  UNL     1      20.012  25.973  17.971  1.00  0.00     0.171 HD
HETATM   16  O1  UNL     1      19.649  25.519  14.821  1.00  0.00    -0.270 OA
HETATM   17  O2  UNL     1      18.219  24.054  16.157  1.00  0.00    -0.272 OA
BRANCH  14  18
HETATM   18  C2  UNL     1      21.128  27.083  15.812  1.00  0.00     0.205 A 
HETATM   19  C28 UNL     1      21.999  27.075  14.623  1.00  0.00     0.052 A 
HETATM   20  C29 UNL     1      20.945  28.163  14.796  1.00  0.00     0.052 A 
BRANCH  18  21
HETATM   21  N1  UNL     1      21.624  27.550  17.087  1.00  0.00    -0.061 N 
HETATM   22  C1  UNL     1      23.041  27.439  17.244  1.00  0.00     0.268 C 
ATOM     23  H12 UNL     1      21.142  27.076  17.852  1.00  0.00     0.278 HD
ATOM     24  H11 UNL     1      21.321  28.509  17.258  1.00  0.00     0.278 HD
ENDBRANCH  18  21
ENDBRANCH  14  18
ENDBRANCH  11  12
BRANCH  11  25
HETATM   25  C6  UNL     1      18.755  22.939  19.212  1.00  0.00     0.030 C 
BRANCH  25  26
HETATM   26  C7  UNL     1      19.866  23.048  20.154  1.00  0.00     0.004 C 
HETATM   27  C8  UNL     1      21.263  23.173  19.702  1.00  0.00     0.008 C 
HETATM   28  C9  UNL     1      22.190  23.499  20.908  1.00  0.00     0.020 C 
HETATM   29  C10 UNL     1      21.902  24.951  21.248  1.00  0.00     0.113 C 
HETATM   30  N3  UNL     1      20.577  25.303  20.815  1.00  0.00    -0.421 N 
HETATM   31  C11 UNL     1      19.585  24.294  21.036  1.00  0.00     0.118 C 
ATOM     32  H3  UNL     1      20.361  26.202  20.383  1.00  0.00     0.153 HD
ENDBRANCH  25  26
ENDBRANCH  11  25
ENDBRANCH   1  11
BRANCH   7  33
HETATM   33  C17 UNL     1      14.279  22.595  16.557  1.00  0.00     0.241 C 
HETATM   34  O4  UNL     1      14.794  23.459  15.812  1.00  0.00    -0.271 OA
HETATM   35  N5  UNL     1      13.357  21.685  15.943  1.00  0.00    -0.347 N 
ATOM     36  H5  UNL     1      12.910  20.975  16.522  1.00  0.00     0.163 HD
BRANCH  35  37
HETATM   37  C18 UNL     1      13.032  21.736  14.522  1.00  0.00     0.164 C 
BRANCH  37  38
HETATM   38  C19 UNL     1      11.542  21.450  14.341  1.00  0.00     0.038 C 
BRANCH  38  39
HETATM   39  C20 UNL     1      10.923  20.682  15.453  1.00  0.00    -0.012 A 
HETATM   40  C21 UNL     1       9.420  21.008  15.605  1.00  0.00     0.005 A 
HETATM   41  C22 UNL     1       9.898  19.627  15.264  1.00  0.00     0.005 A 
ENDBRANCH  38  39
ENDBRANCH  37  38
BRANCH  37  42
HETATM   42  C23 UNL     1      13.900  20.948  13.669  1.00  0.00     0.236 C 
HETATM   43  O5  UNL     1      13.682  19.704  13.489  1.00  0.00    -0.285 OA
BRANCH  42  44
HETATM   44  C24 UNL     1      15.041  21.499  12.985  1.00  0.00     0.302 C 
HETATM   45  N6  UNL     1      14.981  22.023  11.660  1.00  0.00    -0.054 NA
HETATM   46  O6  UNL     1      16.166  21.528  13.576  1.00  0.00    -0.268 OA
ENDBRANCH  42  44
ENDBRANCH  37  42
ENDBRANCH  35  37
ENDBRANCH   7  33
TORSDOF 12
ENDMDL
MODEL 4
REMARK VINA RESULT: -8.763638118      3.294      9.979
REMARK  12 active torsions:
REMARK  status: ('A' for Active; 'I' for Inactive)
REMARK    1  A    between atoms: N1_2  and  C2_5 
REMARK    2  A    between atoms: C2_5  and  C3_6 
REMARK       I    between atoms: C3_6  and  N2_8 
REMARK       I    between atoms: N2_8  and  C4_10 
REMARK    3  A    between atoms: C4_10  and  C5_12 
REMARK    4  A    between atoms: C5_12  and  C6_13 
REMARK    5  A    between atoms: C5_12  and  C12_21 
REMARK    6  A    between atoms: C6_13  and  C7_14 
REMARK       I    between atoms: C12_21  and  N4_23 
REMARK    7  A    between atoms: C16_27  and  C17_28 
REMARK       I    between atoms: C17_28  and  N5_30 
REMARK    8  A    between atoms: N5_30  and  C18_32 
REMARK    9  A    between atoms: C18_32  and  C19_33 
REMARK   10  A    between atoms: C18_32  and  C23_37 
REMARK   11  A    between atoms: C19_33  and  C20_34 
REMARK   12  A    between atoms: C23_37  and  C24_39 
ROOT
HETATM    1  C12 UNL     1      16.760  24.057  17.750  1.00  0.00     0.233 C 
HETATM    2  O3  UNL     1      16.355  24.827  18.639  1.00  0.00    -0.272 OA
HETATM    3  N4  UNL     1      18.078  24.129  17.278  1.00  0.00    -0.337 N 
HETATM    4  C13 UNL     1      18.766  23.402  16.266  1.00  0.00     0.132 C 
HETATM    5  C14 UNL     1      19.946  24.226  15.862  1.00  0.00     0.019 A 
HETATM    6  C15 UNL     1      19.978  25.462  16.746  1.00  0.00     0.032 A 
HETATM    7  C16 UNL     1      19.074  25.066  17.845  1.00  0.00     0.184 C 
HETATM    8  C25 UNL     1      19.656  25.567  15.328  1.00  0.00    -0.036 A 
HETATM    9  C26 UNL     1      20.771  26.132  14.433  1.00  0.00     0.016 C 
HETATM   10  C27 UNL     1      18.288  25.899  14.805  1.00  0.00     0.016 C 
ENDROOT
BRANCH   1  11
HETATM   11  C5  UNL     1      15.723  23.048  17.237  1.00  0.00     0.170 C 
BRANCH  11  12
HETATM   12  C4  UNL     1      15.579  21.980  18.229  1.00  0.00     0.237 C 
HETATM   13  N2  UNL     1      14.416  21.118  18.207  1.00  0.00    -0.295 N 
HETATM   14  C3  UNL     1      14.212  20.096  19.151  1.00  0.00     0.260 C 
ATOM     15  H2  UNL     1      13.717  21.258  17.477  1.00  0.00     0.171 HD
HETATM   16  O1  UNL     1      15.057  19.898  20.049  1.00  0.00    -0.270 OA
HETATM   17  O2  UNL     1      16.404  21.723  19.137  1.00  0.00    -0.272 OA
BRANCH  14  18
HETATM   18  C2  UNL     1      12.992  19.251  19.085  1.00  0.00     0.205 A 
HETATM   19  C28 UNL     1      13.194  17.803  19.267  1.00  0.00     0.052 A 
HETATM   20  C29 UNL     1      12.509  18.626  20.353  1.00  0.00     0.052 A 
BRANCH  18  21
HETATM   21  N1  UNL     1      11.934  19.747  18.232  1.00  0.00    -0.061 N 
HETATM   22  C1  UNL     1      11.577  18.865  17.164  1.00  0.00     0.268 C 
ATOM     23  H12 UNL     1      12.174  20.670  17.867  1.00  0.00     0.278 HD
ATOM     24  H11 UNL     1      11.112  19.986  18.786  1.00  0.00     0.278 HD
ENDBRANCH  18  21
ENDBRANCH  14  18
ENDBRANCH  11  12
BRANCH  11  25
HETATM   25  C6  UNL     1      16.084  22.690  15.850  1.00  0.00     0.030 C 
BRANCH  25  26
HETATM   26  C7  UNL     1      15.081  22.376  14.836  1.00  0.00     0.004 C 
HETATM   27  C8  UNL     1      14.655  20.992  14.562  1.00  0.00     0.008 C 
HETATM   28  C9  UNL     1      13.426  20.988  13.609  1.00  0.00     0.020 C 
HETATM   29  C10 UNL     1      12.259  21.448  14.464  1.00  0.00     0.113 C 
HETATM   30  N3  UNL     1      12.738  22.248  15.558  1.00  0.00    -0.421 N 
HETATM   31  C11 UNL     1      13.795  23.155  15.222  1.00  0.00     0.118 C 
ATOM     32  H3  UNL     1      12.355  22.176  16.501  1.00  0.00     0.153 HD
ENDBRANCH  25  26
ENDBRANCH  11  25
ENDBRANCH   1  11
BRANCH   7  33
HETATM   33  C17 UNL     1      19.881  24.266  18.830  1.00  0.00     0.241 C 
HETATM   34  O4  UNL     1      19.451  23.233  19.393  1.00  0.00    -0.271 OA
HETATM   35  N5  UNL     1      21.210  24.679  19.172  1.00  0.00    -0.347 N 
ATOM     36  H5  UNL     1      21.588  25.522  18.741  1.00  0.00     0.163 HD
BRANCH  35  37
HETATM   37  C18 UNL     1      22.044  23.941  20.114  1.00  0.00     0.164 C 
BRANCH  37  38
HETATM   38  C19 UNL     1      22.041  24.668  21.458  1.00  0.00     0.038 C 
BRANCH  38  39
HETATM   39  C20 UNL     1      21.299  25.956  21.460  1.00  0.00    -0.012 A 
HETATM   40  C21 UNL     1      21.775  26.887  22.597  1.00  0.00     0.005 A 
HETATM   41  C22 UNL     1      21.916  27.269  21.153  1.00  0.00     0.005 A 
ENDBRANCH  38  39
ENDBRANCH  37  38
BRANCH  37  42
HETATM   42  C23 UNL     1      23.363  23.598  19.622  1.00  0.00     0.236 C 
HETATM   43  O5  UNL     1      23.664  22.388  19.351  1.00  0.00    -0.285 OA
BRANCH  42  44
HETATM   44  C24 UNL     1      24.403  24.573  19.413  1.00  0.00     0.302 C 
HETATM   45  N6  UNL     1      24.192  25.806  18.727  1.00  0.00    -0.054 NA
HETATM   46  O6  UNL     1      25.571  24.340  19.854  1.00  0.00    -0.268 OA
ENDBRANCH  42  44
ENDBRANCH  37  42
ENDBRANCH  35  37
ENDBRANCH   7  33
TORSDOF 12
ENDMDL
MODEL 5
REMARK VINA RESULT: -8.697926608      2.719      8.564
REMARK  12 active torsions:
REMARK  status: ('A' for Active; 'I' for Inactive)
REMARK    1  A    between atoms: N1_2  and  C2_5 
REMARK    2  A    between atoms: C2_5  and  C3_6 
REMARK       I    between atoms: C3_6  and  N2_8 
REMARK       I    between atoms: N2_8  and  C4_10 
REMARK    3  A    between atoms: C4_10  and  C5_12 
REMARK    4  A    between atoms: C5_12  and  C6_13 
REMARK    5  A    between atoms: C5_12  and  C12_21 
REMARK    6  A    between atoms: C6_13  and  C7_14 
REMARK       I    between atoms: C12_21  and  N4_23 
REMARK    7  A    between atoms: C16_27  and  C17_28 
REMARK       I    between atoms: C17_28  and  N5_30 
REMARK    8  A    between atoms: N5_30  and  C18_32 
REMARK    9  A    between atoms: C18_32  and  C19_33 
REMARK   10  A    between atoms: C18_32  and  C23_37 
REMARK   11  A    between atoms: C19_33  and  C20_34 
REMARK   12  A    between atoms: C23_37  and  C24_39 
ROOT
HETATM    1  C12 UNL     1      15.355  23.086  17.903  1.00  0.00     0.233 C 
HETATM    2  O3  UNL     1      14.593  23.866  18.501  1.00  0.00    -0.272 OA
HETATM    3  N4  UNL     1      16.702  23.411  17.693  1.00  0.00    -0.337 N 
HETATM    4  C13 UNL     1      17.753  22.724  17.023  1.00  0.00     0.132 C 
HETATM    5  C14 UNL     1      18.795  23.741  16.685  1.00  0.00     0.019 A 
HETATM    6  C15 UNL     1      18.349  25.076  17.260  1.00  0.00     0.032 A 
HETATM    7  C16 UNL     1      17.309  24.655  18.221  1.00  0.00     0.184 C 
HETATM    8  C25 UNL     1      18.367  24.853  15.819  1.00  0.00    -0.036 A 
HETATM    9  C26 UNL     1      19.520  25.524  15.056  1.00  0.00     0.016 C 
HETATM   10  C27 UNL     1      17.129  24.730  14.978  1.00  0.00     0.016 C 
ENDROOT
BRANCH   1  11
HETATM   11  C5  UNL     1      14.711  21.773  17.436  1.00  0.00     0.170 C 
BRANCH  11  12
HETATM   12  C4  UNL     1      13.975  22.028  16.196  1.00  0.00     0.237 C 
HETATM   13  N2  UNL     1      12.731  21.335  15.932  1.00  0.00    -0.295 N 
HETATM   14  C3  UNL     1      11.997  21.519  14.746  1.00  0.00     0.260 C 
ATOM     15  H2  UNL     1      12.374  20.687  16.634  1.00  0.00     0.171 HD
HETATM   16  O1  UNL     1      12.409  22.313  13.874  1.00  0.00    -0.270 OA
HETATM   17  O2  UNL     1      14.329  22.828  15.299  1.00  0.00    -0.272 OA
BRANCH  14  18
HETATM   18  C2  UNL     1      10.734  20.770  14.526  1.00  0.00     0.205 A 
HETATM   19  C28 UNL     1       9.635  21.060  15.463  1.00  0.00     0.052 A 
HETATM   20  C29 UNL     1       9.554  21.531  14.016  1.00  0.00     0.052 A 
BRANCH  18  21
HETATM   21  N1  UNL     1      10.882  19.453  13.947  1.00  0.00    -0.061 N 
HETATM   22  C1  UNL     1      10.830  18.384  14.897  1.00  0.00     0.268 C 
ATOM     23  H12 UNL     1      11.740  19.400  13.397  1.00  0.00     0.278 HD
ATOM     24  H11 UNL     1      10.193  19.308  13.210  1.00  0.00     0.278 HD
ENDBRANCH  18  21
ENDBRANCH  14  18
ENDBRANCH  11  12
BRANCH  11  25
HETATM   25  C6  UNL     1      13.993  21.184  18.585  1.00  0.00     0.030 C 
BRANCH  25  26
HETATM   26  C7  UNL     1      14.059  19.760  18.904  1.00  0.00     0.004 C 
HETATM   27  C8  UNL     1      14.329  19.279  20.270  1.00  0.00     0.008 C 
HETATM   28  C9  UNL     1      14.112  17.741  20.349  1.00  0.00     0.020 C 
HETATM   29  C10 UNL     1      12.606  17.549  20.306  1.00  0.00     0.113 C 
HETATM   30  N3  UNL     1      11.989  18.665  19.641  1.00  0.00    -0.421 N 
HETATM   31  C11 UNL     1      12.695  19.145  18.491  1.00  0.00     0.118 C 
ATOM     32  H3  UNL     1      11.116  19.083  19.964  1.00  0.00     0.153 HD
ENDBRANCH  25  26
ENDBRANCH  11  25
ENDBRANCH   1  11
BRANCH   7  33
HETATM   33  C17 UNL     1      18.003  24.268  19.497  1.00  0.00     0.241 C 
HETATM   34  O4  UNL     1      17.415  23.728  20.463  1.00  0.00    -0.271 OA
HETATM   35  N5  UNL     1      19.405  24.520  19.658  1.00  0.00    -0.347 N 
ATOM     36  H5  UNL     1      19.913  24.968  18.896  1.00  0.00     0.163 HD
BRANCH  35  37
HETATM   37  C18 UNL     1      20.134  24.160  20.869  1.00  0.00     0.164 C 
BRANCH  37  38
HETATM   38  C19 UNL     1      20.978  25.354  21.315  1.00  0.00     0.038 C 
BRANCH  38  39
HETATM   39  C20 UNL     1      21.391  26.261  20.214  1.00  0.00    -0.012 A 
HETATM   40  C21 UNL     1      21.680  27.689  20.728  1.00  0.00     0.005 A 
HETATM   41  C22 UNL     1      22.746  26.850  20.088  1.00  0.00     0.005 A 
ENDBRANCH  38  39
ENDBRANCH  37  38
BRANCH  37  42
HETATM   42  C23 UNL     1      20.860  22.909  20.795  1.00  0.00     0.236 C 
HETATM   43  O5  UNL     1      22.133  22.898  20.699  1.00  0.00    -0.285 OA
BRANCH  42  44
HETATM   44  C24 UNL     1      20.214  21.621  20.821  1.00  0.00     0.302 C 
HETATM   45  N6  UNL     1      19.421  21.123  19.746  1.00  0.00    -0.054 NA
HETATM   46  O6  UNL     1      20.347  20.881  21.845  1.00  0.00    -0.268 OA
ENDBRANCH  42  44
ENDBRANCH  37  42
ENDBRANCH  35  37
ENDBRANCH   7  33
TORSDOF 12
ENDMDL
