MODEL 1
REMARK VINA RESULT: -8.927580258      0.000      0.000
REMARK  13 active torsions:
REMARK  status: ('A' for Active; 'I' for Inactive)
REMARK    1  A    between atoms: C2_2  and  C3_3 
REMARK    2  A    between atoms: C3_3  and  N1_4 
REMARK       I    between atoms: C4_6  and  N2_7 
REMARK       I    between atoms: C4_6  and  N8_44 
REMARK    3  A    between atoms: N2_7  and  C5_9 
REMARK    4  A    between atoms: N3_13  and  C9_14 
REMARK    5  A    between atoms: C9_14  and  C10_15 
REMARK    6  A    between atoms: C10_15  and  C11_16 
REMARK    7  A    between atoms: C10_15  and  N6_30 
REMARK    8  A    between atoms: C11_16  and  C12_17 
REMARK       I    between atoms: C12_17  and  N4_19 
REMARK    9  A    between atoms: N4_19  and  S1_21 
REMARK   10  A    between atoms: S1_21  and  N5_24 
REMARK   11  A    between atoms: N6_30  and  C17_32 
REMARK   12  A    between atoms: C17_32  and  C18_33 
REMARK   13  A    between atoms: C23_41  and  C24_42 
ROOT
HETATM    1  C10 UNL     1      15.644  21.424  16.796  1.00  0.00     0.028 C 
ENDROOT
BRANCH   1   2
HETATM    2  C9  UNL     1      16.870  22.084  17.216  1.00  0.00     0.085 C 
BRANCH   2   3
HETATM    3  N3  UNL     1      16.947  23.047  18.252  1.00  0.00    -0.284 NA
HETATM    4  C8  UNL     1      17.124  22.515  19.604  1.00  0.00     0.095 C 
HETATM    5  C7  UNL     1      18.304  21.613  19.703  1.00  0.00     0.017 C 
HETATM    6  C6  UNL     1      19.534  22.309  19.196  1.00  0.00     0.028 C 
HETATM    7  C5  UNL     1      19.338  23.266  18.069  1.00  0.00     0.117 C 
HETATM    8  C23 UNL     1      18.066  23.991  18.126  1.00  0.00     0.085 C 
BRANCH   7   9
HETATM    9  N2  UNL     1      20.554  24.037  17.976  1.00  0.00    -0.220 N 
HETATM   10  C4  UNL     1      21.483  24.263  19.036  1.00  0.00     0.675 C 
HETATM   11  N1  UNL     1      22.445  23.488  19.190  1.00  0.00    -0.202 N 
HETATM   12  N8  UNL     1      21.294  25.371  19.871  1.00  0.00    -0.227 N 
ATOM     13  H1  UNL     1      22.402  22.765  18.472  1.00  0.00     0.183 HD
HETATM   14  C26 UNL     1      20.672  25.392  21.166  1.00  0.00     0.168 C 
HETATM   15  C27 UNL     1      21.777  26.664  19.378  1.00  0.00     0.168 C 
ATOM     16  H2  UNL     1      20.769  24.458  17.072  1.00  0.00     0.178 HD
BRANCH  11  17
HETATM   17  C3  UNL     1      23.545  23.260  19.984  1.00  0.00     0.105 C 
BRANCH  17  18
HETATM   18  C2  UNL     1      24.884  23.231  19.364  1.00  0.00     0.007 C 
HETATM   19  C1  UNL     1      25.501  22.091  19.041  1.00  0.00     0.012 C 
ENDBRANCH  17  18
ENDBRANCH  11  17
ENDBRANCH   7   9
BRANCH   8  20
HETATM   20  C24 UNL     1      17.865  25.177  17.279  1.00  0.00     0.017 C 
HETATM   21  C25 UNL     1      17.850  25.090  15.825  1.00  0.00     0.007 C 
ENDBRANCH   8  20
ENDBRANCH   2   3
ENDBRANCH   1   2
BRANCH   1  22
HETATM   22  C11 UNL     1      15.355  20.051  17.429  1.00  0.00     0.161 C 
BRANCH  22  23
HETATM   23  C12 UNL     1      13.967  19.991  18.001  1.00  0.00     0.237 C 
HETATM   24  O1  UNL     1      13.481  20.793  18.813  1.00  0.00    -0.272 OA
HETATM   25  N4  UNL     1      13.168  18.905  17.555  1.00  0.00    -0.241 N 
ATOM     26  H4  UNL     1      13.549  18.238  16.885  1.00  0.00     0.182 HD
BRANCH  25  27
HETATM   27  S1  UNL     1      11.558  18.708  18.140  1.00  0.00     0.305 S 
HETATM   28  O2  UNL     1      11.665  18.592  19.666  1.00  0.00    -0.188 OA
HETATM   29  O3  UNL     1      10.727  19.900  17.827  1.00  0.00    -0.188 OA
BRANCH  27  30
HETATM   30  N5  UNL     1      10.834  17.273  17.587  1.00  0.00    -0.189 NA
HETATM   31  C13 UNL     1      10.420  17.358  16.210  1.00  0.00     0.135 C 
HETATM   32  C14 UNL     1      11.175  16.309  15.407  1.00  0.00     0.183 C 
HETATM   33  O4  UNL     1      10.715  15.065  15.785  1.00  0.00    -0.389 OA
HETATM   34  C15 UNL     1      10.846  14.911  17.157  1.00  0.00     0.183 C 
HETATM   35  C16 UNL     1      11.570  16.077  17.812  1.00  0.00     0.135 C 
ENDBRANCH  27  30
ENDBRANCH  25  27
ENDBRANCH  22  23
ENDBRANCH   1  22
BRANCH   1  36
HETATM   36  N6  UNL     1      14.452  22.063  16.452  1.00  0.00    -0.371 N 
ATOM     37  H6  UNL     1      13.680  21.956  17.110  1.00  0.00     0.164 HD
BRANCH  36  38
HETATM   38  C17 UNL     1      14.192  22.822  15.326  1.00  0.00     0.065 C 
BRANCH  38  39
HETATM   39  C18 UNL     1      13.202  22.350  14.332  1.00  0.00     0.027 C 
HETATM   40  C19 UNL     1      12.275  21.382  15.041  1.00  0.00     0.037 C 
HETATM   41  C20 UNL     1      12.161  20.126  14.208  1.00  0.00     0.233 C 
HETATM   42  N7  UNL     1      13.433  19.457  14.135  1.00  0.00    -0.075 N 
HETATM   43  C21 UNL     1      14.472  20.320  13.597  1.00  0.00     0.233 C 
ATOM     44  H72 UNL     1      13.702  19.075  15.041  1.00  0.00     0.277 HD
ATOM     45  H71 UNL     1      13.363  18.587  13.608  1.00  0.00     0.277 HD
HETATM   46  C22 UNL     1      13.901  21.642  13.157  1.00  0.00     0.037 C 
ENDBRANCH  38  39
ENDBRANCH  36  38
ENDBRANCH   1  36
TORSDOF 13
ENDMDL
MODEL 2
REMARK VINA RESULT: -8.926085964      2.304      4.057
REMARK  13 active torsions:
REMARK  status: ('A' for Active; 'I' for Inactive)
REMARK    1  A    between atoms: C2_2  and  C3_3 
REMARK    2  A    between atoms: C3_3  and  N1_4 
REMARK       I    between atoms: C4_6  and  N2_7 
REMARK       I    between atoms: C4_6  and  N8_44 
REMARK    3  A    between atoms: N2_7  and  C5_9 
REMARK    4  A    between atoms: N3_13  and  C9_14 
REMARK    5  A    between atoms: C9_14  and  C10_15 
REMARK    6  A    between atoms: C10_15  and  C11_16 
REMARK    7  A    between atoms: C10_15  and  N6_30 
REMARK    8  A    between atoms: C11_16  and  C12_17 
REMARK       I    between atoms: C12_17  and  N4_19 
REMARK    9  A    between atoms: N4_19  and  S1_21 
REMARK   10  A    between atoms: S1_21  and  N5_24 
REMARK   11  A    between atoms: N6_30  and  C17_32 
REMARK   12  A    between atoms: C17_32  and  C18_33 
REMARK   13  A    between atoms: C23_41  and  C24_42 
ROOT
HETATM    1  C10 UNL     1      14.513  22.645  16.875  1.00  0.00     0.028 C 
ENDROOT
BRANCH   1   2
HETATM    2  C9  UNL     1      15.852  23.207  16.801  1.00  0.00     0.085 C 
BRANCH   2   3
HETATM    3  N3  UNL     1      16.976  22.695  17.494  1.00  0.00    -0.284 NA
HETATM    4  C8  UNL     1      17.986  22.032  16.668  1.00  0.00     0.095 C 
HETATM    5  C7  UNL     1      18.466  22.903  15.560  1.00  0.00     0.017 C 
HETATM    6  C6  UNL     1      18.943  24.219  16.103  1.00  0.00     0.028 C 
HETATM    7  C5  UNL     1      18.218  24.748  17.293  1.00  0.00     0.117 C 
HETATM    8  C23 UNL     1      17.761  23.706  18.216  1.00  0.00     0.085 C 
BRANCH   7   9
HETATM    9  N2  UNL     1      19.034  25.813  17.825  1.00  0.00    -0.220 N 
HETATM   10  C4  UNL     1      20.462  25.846  17.837  1.00  0.00     0.675 C 
HETATM   11  N1  UNL     1      21.075  26.372  16.889  1.00  0.00    -0.202 N 
HETATM   12  N8  UNL     1      21.137  25.294  18.931  1.00  0.00    -0.227 N 
ATOM     13  H1  UNL     1      20.397  26.719  16.212  1.00  0.00     0.183 HD
HETATM   14  C26 UNL     1      21.726  23.987  19.026  1.00  0.00     0.168 C 
HETATM   15  C27 UNL     1      21.262  26.134  20.126  1.00  0.00     0.168 C 
ATOM     16  H2  UNL     1      18.548  26.614  18.228  1.00  0.00     0.178 HD
BRANCH  11  17
HETATM   17  C3  UNL     1      22.342  26.651  16.433  1.00  0.00     0.105 C 
BRANCH  17  18
HETATM   18  C2  UNL     1      22.517  27.126  15.047  1.00  0.00     0.007 C 
HETATM   19  C1  UNL     1      21.497  27.566  14.304  1.00  0.00     0.012 C 
ENDBRANCH  17  18
ENDBRANCH  11  17
ENDBRANCH   7   9
BRANCH   8  20
HETATM   20  C24 UNL     1      17.316  24.075  19.569  1.00  0.00     0.017 C 
HETATM   21  C25 UNL     1      18.211  24.006  20.718  1.00  0.00     0.007 C 
ENDBRANCH   8  20
ENDBRANCH   2   3
ENDBRANCH   1   2
BRANCH   1  22
HETATM   22  C11 UNL     1      13.677  22.697  15.583  1.00  0.00     0.161 C 
BRANCH  22  23
HETATM   23  C12 UNL     1      13.034  21.371  15.291  1.00  0.00     0.237 C 
HETATM   24  O1  UNL     1      13.615  20.358  14.873  1.00  0.00    -0.272 OA
HETATM   25  N4  UNL     1      11.634  21.306  15.522  1.00  0.00    -0.241 N 
ATOM     26  H4  UNL     1      11.140  22.127  15.869  1.00  0.00     0.182 HD
BRANCH  25  27
HETATM   27  S1  UNL     1      10.766  19.848  15.218  1.00  0.00     0.305 S 
HETATM   28  O2  UNL     1       9.330  20.092  15.701  1.00  0.00    -0.188 OA
HETATM   29  O3  UNL     1      10.716  19.550  13.762  1.00  0.00    -0.188 OA
BRANCH  27  30
HETATM   30  N5  UNL     1      11.368  18.531  16.109  1.00  0.00    -0.189 NA
HETATM   31  C13 UNL     1      11.666  18.879  17.474  1.00  0.00     0.135 C 
HETATM   32  C14 UNL     1      10.793  18.038  18.394  1.00  0.00     0.183 C 
HETATM   33  O4  UNL     1      11.221  16.728  18.314  1.00  0.00    -0.389 OA
HETATM   34  C15 UNL     1      11.200  16.305  16.994  1.00  0.00     0.183 C 
HETATM   35  C16 UNL     1      10.595  17.339  16.056  1.00  0.00     0.135 C 
ENDBRANCH  27  30
ENDBRANCH  25  27
ENDBRANCH  22  23
ENDBRANCH   1  22
BRANCH   1  36
HETATM   36  N6  UNL     1      14.128  21.559  17.661  1.00  0.00    -0.371 N 
ATOM     37  H6  UNL     1      13.579  20.838  17.192  1.00  0.00     0.164 HD
BRANCH  36  38
HETATM   38  C17 UNL     1      14.400  21.341  18.998  1.00  0.00     0.065 C 
BRANCH  38  39
HETATM   39  C18 UNL     1      15.343  20.272  19.395  1.00  0.00     0.027 C 
HETATM   40  C19 UNL     1      15.251  19.178  18.348  1.00  0.00     0.037 C 
HETATM   41  C20 UNL     1      15.078  17.852  19.052  1.00  0.00     0.233 C 
HETATM   42  N7  UNL     1      13.822  17.819  19.754  1.00  0.00    -0.075 N 
HETATM   43  C21 UNL     1      13.704  18.909  20.709  1.00  0.00     0.233 C 
ATOM     44  H72 UNL     1      13.035  17.808  19.106  1.00  0.00     0.277 HD
ATOM     45  H71 UNL     1      13.673  16.916  20.204  1.00  0.00     0.277 HD
HETATM   46  C22 UNL     1      14.979  19.706  20.779  1.00  0.00     0.037 C 
ENDBRANCH  38  39
ENDBRANCH  36  38
ENDBRANCH   1  36
TORSDOF 13
ENDMDL
MODEL 3
REMARK VINA RESULT: -8.885633602      1.340      2.703
REMARK  13 active torsions:
REMARK  status: ('A' for Active; 'I' for Inactive)
REMARK    1  A    between atoms: C2_2  and  C3_3 
REMARK    2  A    between atoms: C3_3  and  N1_4 
REMARK       I    between atoms: C4_6  and  N2_7 
REMARK       I    between atoms: C4_6  and  N8_44 
REMARK    3  A    between atoms: N2_7  and  C5_9 
REMARK    4  A    between atoms: N3_13  and  C9_14 
REMARK    5  A    between atoms: C9_14  and  C10_15 
REMARK    6  A    between atoms: C10_15  and  C11_16 
REMARK    7  A    between atoms: C10_15  and  N6_30 
REMARK    8  A    between atoms: C11_16  and  C12_17 
REMARK       I    between atoms: C12_17  and  N4_19 
REMARK    9  A    between atoms: N4_19  and  S1_21 
REMARK   10  A    between atoms: S1_21  and  N5_24 
REMARK   11  A    between atoms: N6_30  and  C17_32 
REMARK   12  A    between atoms: C17_32  and  C18_33 
REMARK   13  A    between atoms: C23_41  and  C24_42 
ROOT
HETATM    1  C10 UNL     1      15.865  20.788  17.108  1.00  0.00     0.028 C 
ENDROOT
BRANCH   1   2
HETATM    2  C9  UNL     1      16.760  21.635  17.880  1.00  0.00     0.085 C 
BRANCH   2   3
HETATM    3  N3  UNL     1      18.174  21.573  17.819  1.00  0.00    -0.284 NA
HETATM    4  C8  UNL     1      18.770  21.881  16.518  1.00  0.00     0.095 C 
HETATM    5  C7  UNL     1      18.328  23.205  15.998  1.00  0.00     0.017 C 
HETATM    6  C6  UNL     1      18.588  24.277  17.017  1.00  0.00     0.028 C 
HETATM    7  C5  UNL     1      18.448  23.881  18.448  1.00  0.00     0.117 C 
HETATM    8  C23 UNL     1      18.866  22.503  18.722  1.00  0.00     0.085 C 
BRANCH   7   9
HETATM    9  N2  UNL     1      19.052  24.938  19.222  1.00  0.00    -0.220 N 
HETATM   10  C4  UNL     1      20.380  25.437  19.062  1.00  0.00     0.675 C 
HETATM   11  N1  UNL     1      20.590  26.401  18.302  1.00  0.00    -0.202 N 
HETATM   12  N8  UNL     1      21.415  24.834  19.785  1.00  0.00    -0.227 N 
ATOM     13  H1  UNL     1      19.704  26.694  17.890  1.00  0.00     0.183 HD
HETATM   14  C26 UNL     1      22.337  23.834  19.320  1.00  0.00     0.168 C 
HETATM   15  C27 UNL     1      21.589  25.258  21.177  1.00  0.00     0.168 C 
ATOM     16  H2  UNL     1      18.478  25.368  19.948  1.00  0.00     0.178 HD
BRANCH  11  17
HETATM   17  C3  UNL     1      21.593  27.211  17.821  1.00  0.00     0.105 C 
BRANCH  17  18
HETATM   18  C2  UNL     1      21.566  27.622  16.404  1.00  0.00     0.007 C 
HETATM   19  C1  UNL     1      20.520  27.384  15.607  1.00  0.00     0.012 C 
ENDBRANCH  17  18
ENDBRANCH  11  17
ENDBRANCH   7   9
BRANCH   8  20
HETATM   20  C24 UNL     1      19.083  22.070  20.110  1.00  0.00     0.017 C 
HETATM   21  C25 UNL     1      20.182  21.187  20.477  1.00  0.00     0.007 C 
ENDBRANCH   8  20
ENDBRANCH   2   3
ENDBRANCH   1   2
BRANCH   1  22
HETATM   22  C11 UNL     1      15.338  19.526  17.815  1.00  0.00     0.161 C 
BRANCH  22  23
HETATM   23  C12 UNL     1      13.875  19.645  18.132  1.00  0.00     0.237 C 
HETATM   24  O1  UNL     1      13.308  20.652  18.583  1.00  0.00    -0.272 OA
HETATM   25  N4  UNL     1      13.100  18.480  17.887  1.00  0.00    -0.241 N 
ATOM     26  H4  UNL     1      13.547  17.644  17.513  1.00  0.00     0.182 HD
BRANCH  25  27
HETATM   27  S1  UNL     1      11.408  18.472  18.217  1.00  0.00     0.305 S 
HETATM   28  O2  UNL     1      11.267  18.457  19.745  1.00  0.00    -0.188 OA
HETATM   29  O3  UNL     1      10.758  19.709  17.709  1.00  0.00    -0.188 OA
BRANCH  27  30
HETATM   30  N5  UNL     1      10.635  17.073  17.638  1.00  0.00    -0.189 NA
HETATM   31  C13 UNL     1      10.370  17.134  16.224  1.00  0.00     0.135 C 
HETATM   32  C14 UNL     1      11.121  16.002  15.537  1.00  0.00     0.183 C 
HETATM   33  O4  UNL     1      10.531  14.810  15.905  1.00  0.00    -0.389 OA
HETATM   34  C15 UNL     1      10.512  14.701  17.287  1.00  0.00     0.183 C 
HETATM   35  C16 UNL     1      11.252  15.837  17.977  1.00  0.00     0.135 C 
ENDBRANCH  27  30
ENDBRANCH  25  27
ENDBRANCH  22  23
ENDBRANCH   1  22
BRANCH   1  36
HETATM   36  N6  UNL     1      14.949  21.229  16.152  1.00  0.00    -0.371 N 
ATOM     37  H6  UNL     1      14.007  21.425  16.490  1.00  0.00     0.164 HD
BRANCH  36  38
HETATM   38  C17 UNL     1      15.165  21.432  14.802  1.00  0.00     0.065 C 
BRANCH  38  39
HETATM   39  C18 UNL     1      14.018  21.683  13.902  1.00  0.00     0.027 C 
HETATM   40  C19 UNL     1      12.916  22.305  14.738  1.00  0.00     0.037 C 
HETATM   41  C20 UNL     1      11.628  21.561  14.467  1.00  0.00     0.233 C 
HETATM   42  N7  UNL     1      11.733  20.200  14.921  1.00  0.00    -0.075 N 
HETATM   43  C21 UNL     1      12.850  19.504  14.302  1.00  0.00     0.233 C 
ATOM     44  H72 UNL     1      11.784  20.151  15.938  1.00  0.00     0.277 HD
ATOM     45  H71 UNL     1      10.858  19.694  14.780  1.00  0.00     0.277 HD
HETATM   46  C22 UNL     1      13.520  20.371  13.270  1.00  0.00     0.037 C 
ENDBRANCH  38  39
ENDBRANCH  36  38
ENDBRANCH   1  36
TORSDOF 13
ENDMDL
MODEL 4
REMARK VINA RESULT: -8.876407569      1.957      2.888
REMARK  13 active torsions:
REMARK  status: ('A' for Active; 'I' for Inactive)
REMARK    1  A    between atoms: C2_2  and  C3_3 
REMARK    2  A    between atoms: C3_3  and  N1_4 
REMARK       I    between atoms: C4_6  and  N2_7 
REMARK       I    between atoms: C4_6  and  N8_44 
REMARK    3  A    between atoms: N2_7  and  C5_9 
REMARK    4  A    between atoms: N3_13  and  C9_14 
REMARK    5  A    between atoms: C9_14  and  C10_15 
REMARK    6  A    between atoms: C10_15  and  C11_16 
REMARK    7  A    between atoms: C10_15  and  N6_30 
REMARK    8  A    between atoms: C11_16  and  C12_17 
REMARK       I    between atoms: C12_17  and  N4_19 
REMARK    9  A    between atoms: N4_19  and  S1_21 
REMARK   10  A    between atoms: S1_21  and  N5_24 
REMARK   11  A    between atoms: N6_30  and  C17_32 
REMARK   12  A    between atoms: C17_32  and  C18_33 
REMARK   13  A    between atoms: C23_41  and  C24_42 
ROOT
HETATM    1  C10 UNL     1      14.856  22.439  17.314  1.00  0.00     0.028 C 
ENDROOT
BRANCH   1   2
HETATM    2  C9  UNL     1      16.178  22.963  17.007  1.00  0.00     0.085 C 
BRANCH   2   3
HETATM    3  N3  UNL     1      17.371  22.559  17.656  1.00  0.00    -0.284 NA
HETATM    4  C8  UNL     1      18.400  21.979  16.792  1.00  0.00     0.095 C 
HETATM    5  C7  UNL     1      18.755  22.878  15.659  1.00  0.00     0.017 C 
HETATM    6  C6  UNL     1      19.136  24.236  16.173  1.00  0.00     0.028 C 
HETATM    7  C5  UNL     1      18.417  24.711  17.390  1.00  0.00     0.117 C 
HETATM    8  C23 UNL     1      18.092  23.642  18.338  1.00  0.00     0.085 C 
BRANCH   7   9
HETATM    9  N2  UNL     1      19.157  25.849  17.879  1.00  0.00    -0.220 N 
HETATM   10  C4  UNL     1      20.578  25.989  17.867  1.00  0.00     0.675 C 
HETATM   11  N1  UNL     1      21.137  26.534  16.897  1.00  0.00    -0.202 N 
HETATM   12  N8  UNL     1      21.308  25.522  18.966  1.00  0.00    -0.227 N 
ATOM     13  H1  UNL     1      20.425  26.810  16.221  1.00  0.00     0.183 HD
HETATM   14  C26 UNL     1      21.997  24.266  19.086  1.00  0.00     0.168 C 
HETATM   15  C27 UNL     1      21.386  26.402  20.136  1.00  0.00     0.168 C 
ATOM     16  H2  UNL     1      18.617  26.622  18.268  1.00  0.00     0.178 HD
BRANCH  11  17
HETATM   17  C3  UNL     1      22.372  26.895  16.413  1.00  0.00     0.105 C 
BRANCH  17  18
HETATM   18  C2  UNL     1      22.554  27.057  14.958  1.00  0.00     0.007 C 
HETATM   19  C1  UNL     1      21.624  27.610  14.175  1.00  0.00     0.012 C 
ENDBRANCH  17  18
ENDBRANCH  11  17
ENDBRANCH   7   9
BRANCH   8  20
HETATM   20  C24 UNL     1      17.674  23.984  19.706  1.00  0.00     0.017 C 
HETATM   21  C25 UNL     1      18.600  23.929  20.829  1.00  0.00     0.007 C 
ENDBRANCH   8  20
ENDBRANCH   2   3
ENDBRANCH   1   2
BRANCH   1  22
HETATM   22  C11 UNL     1      14.480  22.363  18.805  1.00  0.00     0.161 C 
BRANCH  22  23
HETATM   23  C12 UNL     1      14.560  20.954  19.320  1.00  0.00     0.237 C 
HETATM   24  O1  UNL     1      15.484  20.479  19.996  1.00  0.00    -0.272 OA
HETATM   25  N4  UNL     1      13.463  20.117  18.982  1.00  0.00    -0.241 N 
ATOM     26  H4  UNL     1      12.691  20.491  18.431  1.00  0.00     0.182 HD
BRANCH  25  27
HETATM   27  S1  UNL     1      13.429  18.473  19.499  1.00  0.00     0.305 S 
HETATM   28  O2  UNL     1      14.622  17.783  18.824  1.00  0.00    -0.188 OA
HETATM   29  O3  UNL     1      13.614  18.371  20.971  1.00  0.00    -0.188 OA
BRANCH  27  30
HETATM   30  N5  UNL     1      12.031  17.654  18.983  1.00  0.00    -0.189 NA
HETATM   31  C13 UNL     1      11.128  18.508  18.257  1.00  0.00     0.135 C 
HETATM   32  C14 UNL     1      10.966  17.961  16.846  1.00  0.00     0.183 C 
HETATM   33  O4  UNL     1      10.265  16.775  16.923  1.00  0.00    -0.389 OA
HETATM   34  C15 UNL     1      10.912  15.901  17.784  1.00  0.00     0.183 C 
HETATM   35  C16 UNL     1      12.247  16.440  18.275  1.00  0.00     0.135 C 
ENDBRANCH  27  30
ENDBRANCH  25  27
ENDBRANCH  22  23
ENDBRANCH   1  22
BRANCH   1  36
HETATM   36  N6  UNL     1      13.713  22.604  16.531  1.00  0.00    -0.371 N 
ATOM     37  H6  UNL     1      12.840  22.264  16.935  1.00  0.00     0.164 HD
BRANCH  36  38
HETATM   38  C17 UNL     1      13.621  23.173  15.275  1.00  0.00     0.065 C 
BRANCH  38  39
HETATM   39  C18 UNL     1      12.947  22.439  14.181  1.00  0.00     0.027 C 
HETATM   40  C19 UNL     1      12.009  21.434  14.822  1.00  0.00     0.037 C 
HETATM   41  C20 UNL     1      12.240  20.084  14.183  1.00  0.00     0.233 C 
HETATM   42  N7  UNL     1      13.567  19.612  14.478  1.00  0.00    -0.075 N 
HETATM   43  C21 UNL     1      14.588  20.552  14.041  1.00  0.00     0.233 C 
ATOM     44  H72 UNL     1      13.670  19.388  15.467  1.00  0.00     0.277 HD
ATOM     45  H71 UNL     1      13.726  18.685  14.085  1.00  0.00     0.277 HD
HETATM   46  C22 UNL     1      13.974  21.708  13.297  1.00  0.00     0.037 C 
ENDBRANCH  38  39
ENDBRANCH  36  38
ENDBRANCH   1  36
TORSDOF 13
ENDMDL
MODEL 5
REMARK VINA RESULT: -8.873175418      1.848      2.624
REMARK  13 active torsions:
REMARK  status: ('A' for Active; 'I' for Inactive)
REMARK    1  A    between atoms: C2_2  and  C3_3 
REMARK    2  A    between atoms: C3_3  and  N1_4 
REMARK       I    between atoms: C4_6  and  N2_7 
REMARK       I    between atoms: C4_6  and  N8_44 
REMARK    3  A    between atoms: N2_7  and  C5_9 
REMARK    4  A    between atoms: N3_13  and  C9_14 
REMARK    5  A    between atoms: C9_14  and  C10_15 
REMARK    6  A    between atoms: C10_15  and  C11_16 
REMARK    7  A    between atoms: C10_15  and  N6_30 
REMARK    8  A    between atoms: C11_16  and  C12_17 
REMARK       I    between atoms: C12_17  and  N4_19 
REMARK    9  A    between atoms: N4_19  and  S1_21 
REMARK   10  A    between atoms: S1_21  and  N5_24 
REMARK   11  A    between atoms: N6_30  and  C17_32 
REMARK   12  A    between atoms: C17_32  and  C18_33 
REMARK   13  A    between atoms: C23_41  and  C24_42 
ROOT
HETATM    1  C10 UNL     1      16.804  21.263  18.475  1.00  0.00     0.028 C 
ENDROOT
BRANCH   1   2
HETATM    2  C9  UNL     1      17.979  22.079  18.733  1.00  0.00     0.085 C 
BRANCH   2   3
HETATM    3  N3  UNL     1      18.033  23.484  18.559  1.00  0.00    -0.284 NA
HETATM    4  C8  UNL     1      17.799  24.284  19.762  1.00  0.00     0.095 C 
HETATM    5  C7  UNL     1      18.714  23.905  20.875  1.00  0.00     0.017 C 
HETATM    6  C6  UNL     1      20.142  23.964  20.417  1.00  0.00     0.028 C 
HETATM    7  C5  UNL     1      20.399  23.593  18.995  1.00  0.00     0.117 C 
HETATM    8  C23 UNL     1      19.327  23.991  18.079  1.00  0.00     0.085 C 
BRANCH   7   9
HETATM    9  N2  UNL     1      21.741  24.032  18.698  1.00  0.00    -0.220 N 
HETATM   10  C4  UNL     1      22.383  25.186  19.242  1.00  0.00     0.675 C 
HETATM   11  N1  UNL     1      23.062  25.082  20.281  1.00  0.00    -0.202 N 
HETATM   12  N8  UNL     1      22.242  26.409  18.577  1.00  0.00    -0.227 N 
ATOM     13  H1  UNL     1      23.043  24.111  20.590  1.00  0.00     0.183 HD
HETATM   14  C26 UNL     1      21.322  27.469  18.883  1.00  0.00     0.168 C 
HETATM   15  C27 UNL     1      23.127  26.647  17.432  1.00  0.00     0.168 C 
ATOM     16  H2  UNL     1      22.279  23.467  18.042  1.00  0.00     0.178 HD
BRANCH  11  17
HETATM   17  C3  UNL     1      23.828  25.813  21.159  1.00  0.00     0.105 C 
BRANCH  17  18
HETATM   18  C2  UNL     1      23.227  26.275  22.424  1.00  0.00     0.007 C 
HETATM   19  C1  UNL     1      21.956  26.675  22.512  1.00  0.00     0.012 C 
ENDBRANCH  17  18
ENDBRANCH  11  17
ENDBRANCH   7   9
BRANCH   8  20
HETATM   20  C24 UNL     1      19.567  23.980  16.628  1.00  0.00     0.017 C 
HETATM   21  C25 UNL     1      18.604  24.534  15.686  1.00  0.00     0.007 C 
ENDBRANCH   8  20
ENDBRANCH   2   3
ENDBRANCH   1   2
BRANCH   1  22
HETATM   22  C11 UNL     1      15.940  20.902  19.697  1.00  0.00     0.161 C 
BRANCH  22  23
HETATM   23  C12 UNL     1      15.023  19.750  19.402  1.00  0.00     0.237 C 
HETATM   24  O1  UNL     1      15.226  18.855  18.568  1.00  0.00    -0.272 OA
HETATM   25  N4  UNL     1      13.824  19.713  20.161  1.00  0.00    -0.241 N 
ATOM     26  H4  UNL     1      13.641  20.437  20.855  1.00  0.00     0.182 HD
BRANCH  25  27
HETATM   27  S1  UNL     1      12.675  18.451  19.918  1.00  0.00     0.305 S 
HETATM   28  O2  UNL     1      13.356  17.154  20.374  1.00  0.00    -0.188 OA
HETATM   29  O3  UNL     1      11.468  18.657  20.761  1.00  0.00    -0.188 OA
BRANCH  27  30
HETATM   30  N5  UNL     1      12.269  18.244  18.280  1.00  0.00    -0.189 NA
HETATM   31  C13 UNL     1      11.986  16.871  17.950  1.00  0.00     0.135 C 
HETATM   32  C14 UNL     1      10.547  16.772  17.463  1.00  0.00     0.183 C 
HETATM   33  O4  UNL     1      10.465  17.401  16.237  1.00  0.00    -0.389 OA
HETATM   34  C15 UNL     1      10.924  18.705  16.345  1.00  0.00     0.183 C 
HETATM   35  C16 UNL     1      11.248  19.097  17.778  1.00  0.00     0.135 C 
ENDBRANCH  27  30
ENDBRANCH  25  27
ENDBRANCH  22  23
ENDBRANCH   1  22
BRANCH   1  36
HETATM   36  N6  UNL     1      16.021  21.303  17.321  1.00  0.00    -0.371 N 
ATOM     37  H6  UNL     1      15.011  21.291  17.463  1.00  0.00     0.164 HD
BRANCH  36  38
HETATM   38  C17 UNL     1      16.450  21.356  16.008  1.00  0.00     0.065 C 
BRANCH  38  39
HETATM   39  C18 UNL     1      15.735  22.210  15.033  1.00  0.00     0.027 C 
HETATM   40  C19 UNL     1      14.826  23.133  15.823  1.00  0.00     0.037 C 
HETATM   41  C20 UNL     1      13.442  23.079  15.216  1.00  0.00     0.233 C 
HETATM   42  N7  UNL     1      12.881  21.764  15.368  1.00  0.00    -0.075 N 
HETATM   43  C21 UNL     1      13.725  20.739  14.775  1.00  0.00     0.233 C 
ATOM     44  H72 UNL     1      12.681  21.557  16.346  1.00  0.00     0.277 HD
ATOM     45  H71 UNL     1      11.932  21.721  14.997  1.00  0.00     0.277 HD
HETATM   46  C22 UNL     1      14.900  21.355  14.064  1.00  0.00     0.037 C 
ENDBRANCH  38  39
ENDBRANCH  36  38
ENDBRANCH   1  36
TORSDOF 13
ENDMDL
