MODEL 1
REMARK VINA RESULT: -8.506485372      0.000      0.000
REMARK  14 active torsions:
REMARK  status: ('A' for Active; 'I' for Inactive)
REMARK    1  A    between atoms: C2_2  and  O1_3 
REMARK    2  A    between atoms: O1_3  and  C3_4 
REMARK       I    between atoms: C3_4  and  N1_6 
REMARK       I    between atoms: N2_9  and  C6_10 
REMARK    3  A    between atoms: C6_10  and  C7_12 
REMARK    4  A    between atoms: C7_12  and  C8_13 
REMARK    5  A    between atoms: C7_12  and  N4_18 
REMARK    6  A    between atoms: C8_13  and  N3_14 
REMARK       I    between atoms: N4_18  and  C9_20 
REMARK    7  A    between atoms: C9_20  and  C10_22 
REMARK    8  A    between atoms: C10_22  and  C11_23 
REMARK    9  A    between atoms: C10_22  and  N6_32 
REMARK   10  A    between atoms: C11_23  and  C12_24 
REMARK   11  A    between atoms: C12_24  and  C13_25 
REMARK       I    between atoms: N6_32  and  C17_34 
REMARK   12  A    between atoms: C17_34  and  C18_36 
REMARK   13  A    between atoms: C18_36  and  N7_37 
REMARK   14  A    between atoms: C18_36  and  C24_43 
ROOT
HETATM    1  C10 UNL     1      13.935  21.309  17.691  1.00  0.00     0.177 C 
ENDROOT
BRANCH   1   2
HETATM    2  C9  UNL     1      13.358  20.838  16.418  1.00  0.00     0.241 C 
HETATM    3  N4  UNL     1      11.972  20.665  16.238  1.00  0.00    -0.344 N 
ATOM      4  H4  UNL     1      11.353  20.868  17.023  1.00  0.00     0.163 HD
HETATM    5  O4  UNL     1      14.128  20.591  15.467  1.00  0.00    -0.271 OA
BRANCH   3   6
HETATM    6  C7  UNL     1      11.368  20.205  14.970  1.00  0.00     0.202 C 
BRANCH   6   7
HETATM    7  C6  UNL     1      11.098  18.772  15.133  1.00  0.00     0.244 C 
HETATM    8  N2  UNL     1      11.524  17.817  14.202  1.00  0.00    -0.347 N 
HETATM    9  C5  UNL     1      11.163  16.409  14.443  1.00  0.00     0.146 C 
HETATM   10  C28 UNL     1      12.320  18.123  13.060  1.00  0.00     0.146 C 
HETATM   11  C4  UNL     1      10.360  15.994  13.227  1.00  0.00     0.148 C 
HETATM   12  N1  UNL     1      11.123  16.311  12.044  1.00  0.00    -0.325 N 
HETATM   13  C3  UNL     1      11.470  15.331  11.098  1.00  0.00     0.362 C 
HETATM   14  C29 UNL     1      11.533  17.679  11.818  1.00  0.00     0.148 C 
HETATM   15  O2  UNL     1      11.125  14.130  11.274  1.00  0.00    -0.238 OA
HETATM   16  O3  UNL     1      10.447  18.412  16.182  1.00  0.00    -0.271 OA
BRANCH  13  17
HETATM   17  O1  UNL     1      12.191  15.633   9.953  1.00  0.00    -0.304 OA
BRANCH  17  18
HETATM   18  C2  UNL     1      13.390  14.901   9.664  1.00  0.00     0.176 C 
HETATM   19  C1  UNL     1      14.448  15.341  10.636  1.00  0.00     0.034 C 
ENDBRANCH  17  18
ENDBRANCH  13  17
ENDBRANCH   6   7
BRANCH   6  20
HETATM   20  C8  UNL     1      10.104  21.020  14.749  1.00  0.00     0.264 C 
BRANCH  20  21
HETATM   21  N3  UNL     1       9.439  21.245  16.026  1.00  0.00    -0.077 N 
ATOM     22  H33 UNL     1      10.090  21.214  16.810  1.00  0.00     0.274 HD
ATOM     23  H32 UNL     1       9.126  22.210  16.133  1.00  0.00     0.274 HD
ATOM     24  H31 UNL     1       8.674  20.578  16.136  1.00  0.00     0.274 HD
ENDBRANCH  20  21
ENDBRANCH   6  20
ENDBRANCH   3   6
ENDBRANCH   1   2
BRANCH   1  25
HETATM   25  C11 UNL     1      13.641  20.354  18.836  1.00  0.00     0.035 C 
BRANCH  25  26
HETATM   26  C12 UNL     1      14.452  19.119  18.630  1.00  0.00     0.009 C 
BRANCH  26  27
HETATM   27  C13 UNL     1      13.996  17.880  19.281  1.00  0.00     0.013 C 
HETATM   28  C14 UNL     1      13.866  17.929  20.768  1.00  0.00     0.034 C 
HETATM   29  C15 UNL     1      12.383  17.857  20.999  1.00  0.00     0.232 C 
HETATM   30  N5  UNL     1      11.919  16.994  19.903  1.00  0.00    -0.075 N 
HETATM   31  C16 UNL     1      12.684  17.354  18.749  1.00  0.00     0.237 C 
ATOM     32  H52 UNL     1      11.968  16.000  20.125  1.00  0.00     0.277 HD
ATOM     33  H51 UNL     1      10.912  17.042  19.751  1.00  0.00     0.277 HD
ENDBRANCH  26  27
ENDBRANCH  25  26
ENDBRANCH   1  25
BRANCH   1  34
HETATM   34  N6  UNL     1      15.322  21.643  17.593  1.00  0.00    -0.343 N 
HETATM   35  C17 UNL     1      15.889  22.921  17.926  1.00  0.00     0.265 C 
HETATM   36  O5  UNL     1      15.031  23.763  18.305  1.00  0.00    -0.266 OA
ATOM     37  H6  UNL     1      15.959  20.918  17.261  1.00  0.00     0.163 HD
BRANCH  35  38
HETATM   38  C18 UNL     1      17.291  23.285  17.861  1.00  0.00     0.087 C 
BRANCH  38  39
HETATM   39  N7  UNL     1      18.131  22.986  18.963  1.00  0.00    -0.359 N 
HETATM   40  C19 UNL     1      18.225  21.741  19.555  1.00  0.00     0.064 C 
HETATM   41  C20 UNL     1      19.633  21.529  20.115  1.00  0.00     0.045 C 
HETATM   42  C21 UNL     1      20.179  22.786  20.686  1.00  0.00     0.007 C 
HETATM   43  C22 UNL     1      19.170  23.837  20.981  1.00  0.00     0.021 C 
HETATM   44  C23 UNL     1      18.121  24.042  19.962  1.00  0.00     0.128 C 
ENDBRANCH  38  39
BRANCH  38  45
HETATM   45  C24 UNL     1      17.995  23.030  16.557  1.00  0.00    -0.003 C 
HETATM   46  C25 UNL     1      19.296  23.813  16.578  1.00  0.00     0.021 C 
HETATM   47  C26 UNL     1      17.212  23.684  15.393  1.00  0.00     0.021 C 
HETATM   48  C27 UNL     1      18.311  21.612  16.241  1.00  0.00     0.021 C 
ENDBRANCH  38  45
ENDBRANCH  35  38
ENDBRANCH   1  34
TORSDOF 14
ENDMDL
MODEL 2
REMARK VINA RESULT: -8.404172858      5.176     12.365
REMARK  14 active torsions:
REMARK  status: ('A' for Active; 'I' for Inactive)
REMARK    1  A    between atoms: C2_2  and  O1_3 
REMARK    2  A    between atoms: O1_3  and  C3_4 
REMARK       I    between atoms: C3_4  and  N1_6 
REMARK       I    between atoms: N2_9  and  C6_10 
REMARK    3  A    between atoms: C6_10  and  C7_12 
REMARK    4  A    between atoms: C7_12  and  C8_13 
REMARK    5  A    between atoms: C7_12  and  N4_18 
REMARK    6  A    between atoms: C8_13  and  N3_14 
REMARK       I    between atoms: N4_18  and  C9_20 
REMARK    7  A    between atoms: C9_20  and  C10_22 
REMARK    8  A    between atoms: C10_22  and  C11_23 
REMARK    9  A    between atoms: C10_22  and  N6_32 
REMARK   10  A    between atoms: C11_23  and  C12_24 
REMARK   11  A    between atoms: C12_24  and  C13_25 
REMARK       I    between atoms: N6_32  and  C17_34 
REMARK   12  A    between atoms: C17_34  and  C18_36 
REMARK   13  A    between atoms: C18_36  and  N7_37 
REMARK   14  A    between atoms: C18_36  and  C24_43 
ROOT
HETATM    1  C10 UNL     1      18.677  25.004  17.712  1.00  0.00     0.177 C 
ENDROOT
BRANCH   1   2
HETATM    2  C9  UNL     1      19.811  24.804  18.635  1.00  0.00     0.241 C 
HETATM    3  N4  UNL     1      20.510  25.881  19.213  1.00  0.00    -0.344 N 
ATOM      4  H4  UNL     1      20.220  26.830  18.976  1.00  0.00     0.163 HD
HETATM    5  O4  UNL     1      20.157  23.637  18.913  1.00  0.00    -0.271 OA
BRANCH   3   6
HETATM    6  C7  UNL     1      21.642  25.707  20.148  1.00  0.00     0.202 C 
BRANCH   6   7
HETATM    7  C6  UNL     1      22.862  25.973  19.377  1.00  0.00     0.244 C 
HETATM    8  N2  UNL     1      23.885  25.027  19.239  1.00  0.00    -0.347 N 
HETATM    9  C5  UNL     1      25.086  25.413  18.478  1.00  0.00     0.146 C 
HETATM   10  C28 UNL     1      23.813  23.701  19.757  1.00  0.00     0.146 C 
HETATM   11  C4  UNL     1      26.236  25.261  19.452  1.00  0.00     0.148 C 
HETATM   12  N1  UNL     1      26.185  23.936  20.020  1.00  0.00    -0.325 N 
HETATM   13  C3  UNL     1      27.264  23.041  19.918  1.00  0.00     0.362 C 
HETATM   14  C29 UNL     1      24.993  23.519  20.724  1.00  0.00     0.148 C 
HETATM   15  O2  UNL     1      28.314  23.380  19.307  1.00  0.00    -0.238 OA
HETATM   16  O3  UNL     1      22.965  27.125  18.817  1.00  0.00    -0.271 OA
BRANCH  13  17
HETATM   17  O1  UNL     1      27.224  21.771  20.474  1.00  0.00    -0.304 OA
BRANCH  17  18
HETATM   18  C2  UNL     1      27.368  20.626  19.622  1.00  0.00     0.176 C 
HETATM   19  C1  UNL     1      26.237  20.639  18.633  1.00  0.00     0.034 C 
ENDBRANCH  17  18
ENDBRANCH  13  17
ENDBRANCH   6   7
BRANCH   6  20
HETATM   20  C8  UNL     1      21.442  26.690  21.290  1.00  0.00     0.264 C 
BRANCH  20  21
HETATM   21  N3  UNL     1      20.987  27.969  20.758  1.00  0.00    -0.077 N 
ATOM     22  H33 UNL     1      20.840  27.936  19.749  1.00  0.00     0.274 HD
ATOM     23  H32 UNL     1      20.030  28.185  21.039  1.00  0.00     0.274 HD
ATOM     24  H31 UNL     1      21.642  28.703  21.027  1.00  0.00     0.274 HD
ENDBRANCH  20  21
ENDBRANCH   6  20
ENDBRANCH   3   6
ENDBRANCH   1   2
BRANCH   1  25
HETATM   25  C11 UNL     1      19.087  25.769  16.466  1.00  0.00     0.035 C 
BRANCH  25  26
HETATM   26  C12 UNL     1      20.237  25.055  15.840  1.00  0.00     0.009 C 
BRANCH  26  27
HETATM   27  C13 UNL     1      20.993  25.755  14.789  1.00  0.00     0.013 C 
HETATM   28  C14 UNL     1      20.274  26.863  14.090  1.00  0.00     0.034 C 
HETATM   29  C15 UNL     1      20.987  28.100  14.557  1.00  0.00     0.232 C 
HETATM   30  N5  UNL     1      22.376  27.644  14.711  1.00  0.00    -0.075 N 
HETATM   31  C16 UNL     1      22.312  26.323  15.256  1.00  0.00     0.237 C 
ATOM     32  H52 UNL     1      22.916  27.699  13.848  1.00  0.00     0.277 HD
ATOM     33  H51 UNL     1      22.951  28.281  15.263  1.00  0.00     0.277 HD
ENDBRANCH  26  27
ENDBRANCH  25  26
ENDBRANCH   1  25
BRANCH   1  34
HETATM   34  N6  UNL     1      17.973  23.796  17.413  1.00  0.00    -0.343 N 
HETATM   35  C17 UNL     1      16.583  23.561  17.690  1.00  0.00     0.265 C 
HETATM   36  O5  UNL     1      16.017  24.532  18.260  1.00  0.00    -0.266 OA
ATOM     37  H6  UNL     1      18.498  23.043  16.968  1.00  0.00     0.163 HD
BRANCH  35  38
HETATM   38  C18 UNL     1      15.832  22.359  17.378  1.00  0.00     0.087 C 
BRANCH  38  39
HETATM   39  N7  UNL     1      15.264  22.219  16.088  1.00  0.00    -0.359 N 
HETATM   40  C19 UNL     1      15.959  22.394  14.907  1.00  0.00     0.064 C 
HETATM   41  C20 UNL     1      15.381  21.490  13.816  1.00  0.00     0.045 C 
HETATM   42  C21 UNL     1      13.905  21.391  13.927  1.00  0.00     0.007 C 
HETATM   43  C22 UNL     1      13.259  22.452  14.744  1.00  0.00     0.021 C 
HETATM   44  C23 UNL     1      13.937  22.809  16.007  1.00  0.00     0.128 C 
ENDBRANCH  38  39
BRANCH  38  45
HETATM   45  C24 UNL     1      16.412  21.058  17.860  1.00  0.00    -0.003 C 
HETATM   46  C25 UNL     1      15.323  20.005  17.756  1.00  0.00     0.021 C 
HETATM   47  C26 UNL     1      16.685  21.129  19.382  1.00  0.00     0.021 C 
HETATM   48  C27 UNL     1      17.612  20.559  17.137  1.00  0.00     0.021 C 
ENDBRANCH  38  45
ENDBRANCH  35  38
ENDBRANCH   1  34
TORSDOF 14
ENDMDL
MODEL 3
REMARK VINA RESULT: -8.152375900      4.884     12.033
REMARK  14 active torsions:
REMARK  status: ('A' for Active; 'I' for Inactive)
REMARK    1  A    between atoms: C2_2  and  O1_3 
REMARK    2  A    between atoms: O1_3  and  C3_4 
REMARK       I    between atoms: C3_4  and  N1_6 
REMARK       I    between atoms: N2_9  and  C6_10 
REMARK    3  A    between atoms: C6_10  and  C7_12 
REMARK    4  A    between atoms: C7_12  and  C8_13 
REMARK    5  A    between atoms: C7_12  and  N4_18 
REMARK    6  A    between atoms: C8_13  and  N3_14 
REMARK       I    between atoms: N4_18  and  C9_20 
REMARK    7  A    between atoms: C9_20  and  C10_22 
REMARK    8  A    between atoms: C10_22  and  C11_23 
REMARK    9  A    between atoms: C10_22  and  N6_32 
REMARK   10  A    between atoms: C11_23  and  C12_24 
REMARK   11  A    between atoms: C12_24  and  C13_25 
REMARK       I    between atoms: N6_32  and  C17_34 
REMARK   12  A    between atoms: C17_34  and  C18_36 
REMARK   13  A    between atoms: C18_36  and  N7_37 
REMARK   14  A    between atoms: C18_36  and  C24_43 
ROOT
HETATM    1  C10 UNL     1      18.188  24.733  16.337  1.00  0.00     0.177 C 
ENDROOT
BRANCH   1   2
HETATM    2  C9  UNL     1      19.221  24.386  17.332  1.00  0.00     0.241 C 
HETATM    3  N4  UNL     1      19.148  24.813  18.672  1.00  0.00    -0.344 N 
ATOM      4  H4  UNL     1      18.354  25.388  18.955  1.00  0.00     0.163 HD
HETATM    5  O4  UNL     1      20.189  23.686  16.970  1.00  0.00    -0.271 OA
BRANCH   3   6
HETATM    6  C7  UNL     1      20.164  24.471  19.690  1.00  0.00     0.202 C 
BRANCH   6   7
HETATM    7  C6  UNL     1      21.267  25.423  19.514  1.00  0.00     0.244 C 
HETATM    8  N2  UNL     1      22.608  25.023  19.488  1.00  0.00    -0.347 N 
HETATM    9  C5  UNL     1      23.639  26.067  19.347  1.00  0.00     0.146 C 
HETATM   10  C28 UNL     1      23.031  23.663  19.548  1.00  0.00     0.146 C 
HETATM   11  C4  UNL     1      24.507  25.933  20.581  1.00  0.00     0.148 C 
HETATM   12  N1  UNL     1      24.936  24.560  20.694  1.00  0.00    -0.325 N 
HETATM   13  C3  UNL     1      26.297  24.208  20.734  1.00  0.00     0.362 C 
HETATM   14  C29 UNL     1      23.939  23.517  20.778  1.00  0.00     0.148 C 
HETATM   15  O2  UNL     1      27.185  25.100  20.660  1.00  0.00    -0.238 OA
HETATM   16  O3  UNL     1      20.957  26.664  19.378  1.00  0.00    -0.271 OA
BRANCH  13  17
HETATM   17  O1  UNL     1      26.714  22.891  20.855  1.00  0.00    -0.304 OA
BRANCH  17  18
HETATM   18  C2  UNL     1      27.412  22.272  19.766  1.00  0.00     0.176 C 
HETATM   19  C1  UNL     1      26.391  21.675  18.840  1.00  0.00     0.034 C 
ENDBRANCH  17  18
ENDBRANCH  13  17
ENDBRANCH   6   7
BRANCH   6  20
HETATM   20  C8  UNL     1      19.499  24.588  21.052  1.00  0.00     0.264 C 
BRANCH  20  21
HETATM   21  N3  UNL     1      18.050  24.543  20.892  1.00  0.00    -0.077 N 
ATOM     22  H33 UNL     1      17.601  23.970  21.606  1.00  0.00     0.274 HD
ATOM     23  H32 UNL     1      17.609  25.434  21.120  1.00  0.00     0.274 HD
ATOM     24  H31 UNL     1      17.820  24.231  19.948  1.00  0.00     0.274 HD
ENDBRANCH  20  21
ENDBRANCH   6  20
ENDBRANCH   3   6
ENDBRANCH   1   2
BRANCH   1  25
HETATM   25  C11 UNL     1      18.795  25.153  15.010  1.00  0.00     0.035 C 
BRANCH  25  26
HETATM   26  C12 UNL     1      19.180  26.590  15.109  1.00  0.00     0.009 C 
BRANCH  26  27
HETATM   27  C13 UNL     1      20.524  26.977  14.650  1.00  0.00     0.013 C 
HETATM   28  C14 UNL     1      21.192  28.068  15.421  1.00  0.00     0.034 C 
HETATM   29  C15 UNL     1      22.316  27.367  16.130  1.00  0.00     0.232 C 
HETATM   30  N5  UNL     1      22.712  26.324  15.173  1.00  0.00    -0.075 N 
HETATM   31  C16 UNL     1      21.504  25.829  14.587  1.00  0.00     0.237 C 
ATOM     32  H52 UNL     1      23.392  26.646  14.485  1.00  0.00     0.277 HD
ATOM     33  H51 UNL     1      23.288  25.592  15.589  1.00  0.00     0.277 HD
ENDBRANCH  26  27
ENDBRANCH  25  26
ENDBRANCH   1  25
BRANCH   1  34
HETATM   34  N6  UNL     1      17.184  23.726  16.192  1.00  0.00    -0.343 N 
HETATM   35  C17 UNL     1      16.157  23.439  17.155  1.00  0.00     0.265 C 
HETATM   36  O5  UNL     1      16.227  24.158  18.188  1.00  0.00    -0.266 OA
ATOM     37  H6  UNL     1      17.197  23.168  15.338  1.00  0.00     0.163 HD
BRANCH  35  38
HETATM   38  C18 UNL     1      15.110  22.442  17.029  1.00  0.00     0.087 C 
BRANCH  38  39
HETATM   39  N7  UNL     1      14.621  22.119  15.739  1.00  0.00    -0.359 N 
HETATM   40  C19 UNL     1      15.418  21.739  14.676  1.00  0.00     0.064 C 
HETATM   41  C20 UNL     1      14.656  20.778  13.763  1.00  0.00     0.045 C 
HETATM   42  C21 UNL     1      13.224  21.156  13.659  1.00  0.00     0.007 C 
HETATM   43  C22 UNL     1      12.906  22.546  14.079  1.00  0.00     0.021 C 
HETATM   44  C23 UNL     1      13.571  23.028  15.307  1.00  0.00     0.128 C 
ENDBRANCH  38  39
BRANCH  38  45
HETATM   45  C24 UNL     1      15.243  21.212  17.883  1.00  0.00    -0.003 C 
HETATM   46  C25 UNL     1      14.172  20.230  17.442  1.00  0.00     0.021 C 
HETATM   47  C26 UNL     1      14.843  21.533  19.343  1.00  0.00     0.021 C 
HETATM   48  C27 UNL     1      16.557  20.516  17.843  1.00  0.00     0.021 C 
ENDBRANCH  38  45
ENDBRANCH  35  38
ENDBRANCH   1  34
TORSDOF 14
ENDMDL
MODEL 4
REMARK VINA RESULT: -8.071991369      3.259     10.142
REMARK  14 active torsions:
REMARK  status: ('A' for Active; 'I' for Inactive)
REMARK    1  A    between atoms: C2_2  and  O1_3 
REMARK    2  A    between atoms: O1_3  and  C3_4 
REMARK       I    between atoms: C3_4  and  N1_6 
REMARK       I    between atoms: N2_9  and  C6_10 
REMARK    3  A    between atoms: C6_10  and  C7_12 
REMARK    4  A    between atoms: C7_12  and  C8_13 
REMARK    5  A    between atoms: C7_12  and  N4_18 
REMARK    6  A    between atoms: C8_13  and  N3_14 
REMARK       I    between atoms: N4_18  and  C9_20 
REMARK    7  A    between atoms: C9_20  and  C10_22 
REMARK    8  A    between atoms: C10_22  and  C11_23 
REMARK    9  A    between atoms: C10_22  and  N6_32 
REMARK   10  A    between atoms: C11_23  and  C12_24 
REMARK   11  A    between atoms: C12_24  and  C13_25 
REMARK       I    between atoms: N6_32  and  C17_34 
REMARK   12  A    between atoms: C17_34  and  C18_36 
REMARK   13  A    between atoms: C18_36  and  N7_37 
REMARK   14  A    between atoms: C18_36  and  C24_43 
ROOT
HETATM    1  C10 UNL     1      15.535  19.621  18.607  1.00  0.00     0.177 C 
ENDROOT
BRANCH   1   2
HETATM    2  C9  UNL     1      15.950  20.973  19.025  1.00  0.00     0.241 C 
HETATM    3  N4  UNL     1      16.787  21.783  18.232  1.00  0.00    -0.344 N 
ATOM      4  H4  UNL     1      17.118  21.411  17.342  1.00  0.00     0.163 HD
HETATM    5  O4  UNL     1      15.539  21.414  20.119  1.00  0.00    -0.271 OA
BRANCH   3   6
HETATM    6  C7  UNL     1      17.208  23.144  18.624  1.00  0.00     0.202 C 
BRANCH   6   7
HETATM    7  C6  UNL     1      18.615  23.275  18.227  1.00  0.00     0.244 C 
HETATM    8  N2  UNL     1      19.631  23.563  19.146  1.00  0.00    -0.347 N 
HETATM    9  C5  UNL     1      21.004  23.713  18.634  1.00  0.00     0.146 C 
HETATM   10  C28 UNL     1      19.420  23.678  20.551  1.00  0.00     0.146 C 
HETATM   11  C4  UNL     1      21.420  25.116  19.025  1.00  0.00     0.148 C 
HETATM   12  N1  UNL     1      21.197  25.283  20.440  1.00  0.00    -0.325 N 
HETATM   13  C3  UNL     1      22.235  25.642  21.319  1.00  0.00     0.362 C 
HETATM   14  C29 UNL     1      19.867  25.086  20.970  1.00  0.00     0.148 C 
HETATM   15  O2  UNL     1      23.405  25.817  20.881  1.00  0.00    -0.238 OA
HETATM   16  O3  UNL     1      18.893  23.109  16.983  1.00  0.00    -0.271 OA
BRANCH  13  17
HETATM   17  O1  UNL     1      22.023  25.816  22.678  1.00  0.00    -0.304 OA
BRANCH  17  18
HETATM   18  C2  UNL     1      21.812  27.138  23.192  1.00  0.00     0.176 C 
HETATM   19  C1  UNL     1      21.811  27.059  24.692  1.00  0.00     0.034 C 
ENDBRANCH  17  18
ENDBRANCH  13  17
ENDBRANCH   6   7
BRANCH   6  20
HETATM   20  C8  UNL     1      16.300  24.125  17.900  1.00  0.00     0.264 C 
BRANCH  20  21
HETATM   21  N3  UNL     1      14.994  24.151  18.549  1.00  0.00    -0.077 N 
ATOM     22  H33 UNL     1      14.829  23.318  19.114  1.00  0.00     0.274 HD
ATOM     23  H32 UNL     1      14.948  24.845  19.295  1.00  0.00     0.274 HD
ATOM     24  H31 UNL     1      14.267  24.290  17.847  1.00  0.00     0.274 HD
ENDBRANCH  20  21
ENDBRANCH   6  20
ENDBRANCH   3   6
ENDBRANCH   1   2
BRANCH   1  25
HETATM   25  C11 UNL     1      14.566  18.992  19.594  1.00  0.00     0.035 C 
BRANCH  25  26
HETATM   26  C12 UNL     1      14.175  17.652  19.072  1.00  0.00     0.009 C 
BRANCH  26  27
HETATM   27  C13 UNL     1      12.858  17.120  19.457  1.00  0.00     0.013 C 
HETATM   28  C14 UNL     1      11.985  18.039  20.249  1.00  0.00     0.034 C 
HETATM   29  C15 UNL     1      10.874  18.383  19.297  1.00  0.00     0.232 C 
HETATM   30  N5  UNL     1      10.713  17.149  18.516  1.00  0.00    -0.075 N 
HETATM   31  C16 UNL     1      12.028  16.633  18.292  1.00  0.00     0.237 C 
ATOM     32  H52 UNL     1      10.084  16.475  18.953  1.00  0.00     0.277 HD
ATOM     33  H51 UNL     1      10.180  17.282  17.657  1.00  0.00     0.277 HD
ENDBRANCH  26  27
ENDBRANCH  25  26
ENDBRANCH   1  25
BRANCH   1  34
HETATM   34  N6  UNL     1      15.062  19.567  17.259  1.00  0.00    -0.343 N 
HETATM   35  C17 UNL     1      14.142  20.500  16.669  1.00  0.00     0.265 C 
HETATM   36  O5  UNL     1      13.753  21.391  17.472  1.00  0.00    -0.266 OA
ATOM     37  H6  UNL     1      15.404  18.808  16.669  1.00  0.00     0.163 HD
BRANCH  35  38
HETATM   38  C18 UNL     1      13.660  20.490  15.301  1.00  0.00     0.087 C 
BRANCH  38  39
HETATM   39  N7  UNL     1      12.317  20.115  15.048  1.00  0.00    -0.359 N 
HETATM   40  C19 UNL     1      11.344  20.000  16.021  1.00  0.00     0.064 C 
HETATM   41  C20 UNL     1       9.972  20.342  15.438  1.00  0.00     0.045 C 
HETATM   42  C21 UNL     1       9.843  19.850  14.044  1.00  0.00     0.007 C 
HETATM   43  C22 UNL     1      10.829  18.812  13.645  1.00  0.00     0.021 C 
HETATM   44  C23 UNL     1      12.223  19.032  14.082  1.00  0.00     0.128 C 
ENDBRANCH  38  39
BRANCH  38  45
HETATM   45  C24 UNL     1      14.075  21.644  14.431  1.00  0.00    -0.003 C 
HETATM   46  C25 UNL     1      14.412  21.085  13.060  1.00  0.00     0.021 C 
HETATM   47  C26 UNL     1      15.430  22.215  14.917  1.00  0.00     0.021 C 
HETATM   48  C27 UNL     1      13.080  22.734  14.257  1.00  0.00     0.021 C 
ENDBRANCH  38  45
ENDBRANCH  35  38
ENDBRANCH   1  34
TORSDOF 14
ENDMDL
MODEL 5
REMARK VINA RESULT: -8.064876719      3.373      9.488
REMARK  14 active torsions:
REMARK  status: ('A' for Active; 'I' for Inactive)
REMARK    1  A    between atoms: C2_2  and  O1_3 
REMARK    2  A    between atoms: O1_3  and  C3_4 
REMARK       I    between atoms: C3_4  and  N1_6 
REMARK       I    between atoms: N2_9  and  C6_10 
REMARK    3  A    between atoms: C6_10  and  C7_12 
REMARK    4  A    between atoms: C7_12  and  C8_13 
REMARK    5  A    between atoms: C7_12  and  N4_18 
REMARK    6  A    between atoms: C8_13  and  N3_14 
REMARK       I    between atoms: N4_18  and  C9_20 
REMARK    7  A    between atoms: C9_20  and  C10_22 
REMARK    8  A    between atoms: C10_22  and  C11_23 
REMARK    9  A    between atoms: C10_22  and  N6_32 
REMARK   10  A    between atoms: C11_23  and  C12_24 
REMARK   11  A    between atoms: C12_24  and  C13_25 
REMARK       I    between atoms: N6_32  and  C17_34 
REMARK   12  A    between atoms: C17_34  and  C18_36 
REMARK   13  A    between atoms: C18_36  and  N7_37 
REMARK   14  A    between atoms: C18_36  and  C24_43 
ROOT
HETATM    1  C10 UNL     1      15.709  20.125  18.743  1.00  0.00     0.177 C 
ENDROOT
BRANCH   1   2
HETATM    2  C9  UNL     1      16.716  21.196  18.865  1.00  0.00     0.241 C 
HETATM    3  N4  UNL     1      16.587  22.430  18.198  1.00  0.00    -0.344 N 
ATOM      4  H4  UNL     1      15.768  22.578  17.608  1.00  0.00     0.163 HD
HETATM    5  O4  UNL     1      17.714  20.999  19.588  1.00  0.00    -0.271 OA
BRANCH   3   6
HETATM    6  C7  UNL     1      17.576  23.523  18.312  1.00  0.00     0.202 C 
BRANCH   6   7
HETATM    7  C6  UNL     1      18.336  23.528  17.057  1.00  0.00     0.244 C 
HETATM    8  N2  UNL     1      19.562  24.192  16.924  1.00  0.00    -0.347 N 
HETATM    9  C5  UNL     1      20.221  24.168  15.606  1.00  0.00     0.146 C 
HETATM   10  C28 UNL     1      20.225  24.854  17.997  1.00  0.00     0.146 C 
HETATM   11  C4  UNL     1      20.357  25.623  15.206  1.00  0.00     0.148 C 
HETATM   12  N1  UNL     1      21.004  26.336  16.281  1.00  0.00    -0.325 N 
HETATM   13  C3  UNL     1      22.199  27.049  16.086  1.00  0.00     0.362 C 
HETATM   14  C29 UNL     1      20.400  26.326  17.594  1.00  0.00     0.148 C 
HETATM   15  O2  UNL     1      22.747  27.071  14.950  1.00  0.00    -0.238 OA
HETATM   16  O3  UNL     1      17.835  22.886  16.062  1.00  0.00    -0.271 OA
BRANCH  13  17
HETATM   17  O1  UNL     1      22.817  27.747  17.113  1.00  0.00    -0.304 OA
BRANCH  17  18
HETATM   18  C2  UNL     1      24.128  27.353  17.540  1.00  0.00     0.176 C 
HETATM   19  C1  UNL     1      23.974  26.330  18.629  1.00  0.00     0.034 C 
ENDBRANCH  17  18
ENDBRANCH  13  17
ENDBRANCH   6   7
BRANCH   6  20
HETATM   20  C8  UNL     1      16.803  24.812  18.536  1.00  0.00     0.264 C 
BRANCH  20  21
HETATM   21  N3  UNL     1      15.372  24.533  18.517  1.00  0.00    -0.077 N 
ATOM     22  H33 UNL     1      15.079  23.975  19.319  1.00  0.00     0.274 HD
ATOM     23  H32 UNL     1      14.814  25.366  18.705  1.00  0.00     0.274 HD
ATOM     24  H31 UNL     1      15.122  24.093  17.631  1.00  0.00     0.274 HD
ENDBRANCH  20  21
ENDBRANCH   6  20
ENDBRANCH   3   6
ENDBRANCH   1   2
BRANCH   1  25
HETATM   25  C11 UNL     1      14.600  20.268  19.771  1.00  0.00     0.035 C 
BRANCH  25  26
HETATM   26  C12 UNL     1      14.714  19.138  20.738  1.00  0.00     0.009 C 
BRANCH  26  27
HETATM   27  C13 UNL     1      13.796  17.999  20.577  1.00  0.00     0.013 C 
HETATM   28  C14 UNL     1      12.376  18.238  20.978  1.00  0.00     0.034 C 
HETATM   29  C15 UNL     1      11.630  18.221  19.674  1.00  0.00     0.232 C 
HETATM   30  N5  UNL     1      12.375  17.234  18.879  1.00  0.00    -0.075 N 
HETATM   31  C16 UNL     1      13.760  17.433  19.177  1.00  0.00     0.237 C 
ATOM     32  H52 UNL     1      12.063  16.275  19.032  1.00  0.00     0.277 HD
ATOM     33  H51 UNL     1      12.167  17.279  17.881  1.00  0.00     0.277 HD
ENDBRANCH  26  27
ENDBRANCH  25  26
ENDBRANCH   1  25
BRANCH   1  34
HETATM   34  N6  UNL     1      15.212  19.967  17.412  1.00  0.00    -0.343 N 
HETATM   35  C17 UNL     1      14.248  20.828  16.783  1.00  0.00     0.265 C 
HETATM   36  O5  UNL     1      13.844  21.756  17.534  1.00  0.00    -0.266 OA
ATOM     37  H6  UNL     1      15.569  19.182  16.866  1.00  0.00     0.163 HD
BRANCH  35  38
HETATM   38  C18 UNL     1      13.741  20.710  15.429  1.00  0.00     0.087 C 
BRANCH  38  39
HETATM   39  N7  UNL     1      12.454  20.155  15.223  1.00  0.00    -0.359 N 
HETATM   40  C19 UNL     1      11.563  19.855  16.236  1.00  0.00     0.064 C 
HETATM   41  C20 UNL     1      10.126  20.019  15.740  1.00  0.00     0.045 C 
HETATM   42  C21 UNL     1       9.990  19.576  14.330  1.00  0.00     0.007 C 
HETATM   43  C22 UNL     1      11.091  18.712  13.829  1.00  0.00     0.021 C 
HETATM   44  C23 UNL     1      12.462  19.114  14.207  1.00  0.00     0.128 C 
ENDBRANCH  38  39
BRANCH  38  45
HETATM   45  C24 UNL     1      13.980  21.881  14.515  1.00  0.00    -0.003 C 
HETATM   46  C25 UNL     1      14.864  21.401  13.378  1.00  0.00     0.021 C 
HETATM   47  C26 UNL     1      14.864  22.935  15.224  1.00  0.00     0.021 C 
HETATM   48  C27 UNL     1      12.773  22.520  13.928  1.00  0.00     0.021 C 
ENDBRANCH  38  45
ENDBRANCH  35  38
ENDBRANCH   1  34
TORSDOF 14
ENDMDL
