MODEL 1
REMARK VINA RESULT: -6.957410082      0.000      0.000
REMARK  5 active torsions:
REMARK  status: ('A' for Active; 'I' for Inactive)
REMARK    1  A    between atoms: S1_2  and  C2_3 
REMARK    2  A    between atoms: C5_10  and  N3_11 
REMARK    3  A    between atoms: N3_11  and  C6_13 
REMARK    4  A    between atoms: C7_16  and  N5_17 
REMARK    5  A    between atoms: N8_27  and  O1_28 
ROOT
HETATM    1  C6  UNL     1      24.003  19.953  52.393  1.00  0.00     0.714 A 
HETATM    2  N4  UNL     1      23.140  20.120  51.373  1.00  0.00    -0.174 N 
ATOM      3  H4  UNL     1      22.200  20.468  51.565  1.00  0.00     0.186 HD
HETATM    4  C7  UNL     1      23.495  19.835  50.091  1.00  0.00     0.130 A 
HETATM    5  C8  UNL     1      24.780  19.370  49.914  1.00  0.00     0.073 A 
HETATM    6  C9  UNL     1      25.496  18.978  48.782  1.00  0.00     0.126 A 
HETATM    7  N6  UNL     1      26.722  18.609  49.197  1.00  0.00    -0.307 N 
ATOM      8  H6  UNL     1      27.463  18.275  48.581  1.00  0.00     0.186 HD
HETATM    9  N7  UNL     1      26.840  18.734  50.499  1.00  0.00    -0.278 N 
HETATM   10  C10 UNL     1      28.021  18.423  51.247  1.00  0.00     0.179 C 
HETATM   11  C11 UNL     1      25.659  19.200  50.958  1.00  0.00     0.183 A 
HETATM   12  N8  UNL     1      25.256  19.495  52.185  1.00  0.00    -0.033 N 
ENDROOT
BRANCH   1  13
HETATM   13  N3  UNL     1      23.702  20.213  53.617  1.00  0.00    -0.169 N 
ATOM     14  H3  UNL     1      23.665  19.418  54.256  1.00  0.00     0.186 HD
BRANCH  13  15
HETATM   15  C5  UNL     1      23.420  21.472  54.168  1.00  0.00     0.183 C 
HETATM   16  N2  UNL     1      24.411  22.193  54.613  1.00  0.00    -0.286 N 
HETATM   17  N1  UNL     1      24.148  23.450  55.165  1.00  0.00    -0.333 N 
ATOM     18  H2  UNL     1      25.367  21.844  54.559  1.00  0.00     0.188 HD
HETATM   19  C4  UNL     1      22.952  23.591  55.975  1.00  0.00     0.168 C 
ATOM     20  H1  UNL     1      24.774  24.239  55.005  1.00  0.00     0.180 HD
HETATM   21  C2  UNL     1      21.739  23.122  55.238  1.00  0.00     0.089 C 
HETATM   22  C3  UNL     1      21.061  24.275  54.492  1.00  0.00     0.037 C 
HETATM   23  C12 UNL     1      22.080  22.061  54.289  1.00  0.00     0.214 C 
HETATM   24  O2  UNL     1      21.189  21.606  53.517  1.00  0.00    -0.287 OA
BRANCH  21  25
HETATM   25  S1  UNL     1      20.582  22.444  56.480  1.00  0.00    -0.154 SA
HETATM   26  C1  UNL     1      21.311  20.910  57.117  1.00  0.00     0.091 C 
ENDBRANCH  21  25
ENDBRANCH  13  15
ENDBRANCH   1  13
BRANCH  12  27
HETATM   27  O1  UNL     1      26.148  19.321  53.223  1.00  0.00    -0.268 OA
ATOM     28  H1  UNL     1      26.407  20.040  53.786  1.00  0.00     0.246 HD
ENDBRANCH  12  27
BRANCH   4  29
HETATM   29  N5  UNL     1      22.697  19.983  49.089  1.00  0.00    -0.384 N 
ATOM     30  H52 UNL     1      21.810  19.480  49.044  1.00  0.00     0.157 HD
ATOM     31  H51 UNL     1      22.901  20.596  48.299  1.00  0.00     0.157 HD
ENDBRANCH   4  29
TORSDOF 5
ENDMDL
MODEL 2
REMARK VINA RESULT: -6.692650303      2.090      2.615
REMARK  5 active torsions:
REMARK  status: ('A' for Active; 'I' for Inactive)
REMARK    1  A    between atoms: S1_2  and  C2_3 
REMARK    2  A    between atoms: C5_10  and  N3_11 
REMARK    3  A    between atoms: N3_11  and  C6_13 
REMARK    4  A    between atoms: C7_16  and  N5_17 
REMARK    5  A    between atoms: N8_27  and  O1_28 
ROOT
HETATM    1  C6  UNL     1      23.229  20.422  53.436  1.00  0.00     0.714 A 
HETATM    2  N4  UNL     1      22.798  20.428  52.159  1.00  0.00    -0.174 N 
ATOM      3  H4  UNL     1      21.857  20.763  51.951  1.00  0.00     0.186 HD
HETATM    4  C7  UNL     1      23.592  19.999  51.142  1.00  0.00     0.130 A 
HETATM    5  C8  UNL     1      24.848  19.563  51.505  1.00  0.00     0.073 A 
HETATM    6  C9  UNL     1      25.922  19.059  50.770  1.00  0.00     0.126 A 
HETATM    7  N6  UNL     1      26.909  18.789  51.645  1.00  0.00    -0.307 N 
ATOM      8  H6  UNL     1      27.820  18.408  51.388  1.00  0.00     0.186 HD
HETATM    9  N7  UNL     1      26.546  19.080  52.873  1.00  0.00    -0.278 N 
HETATM   10  C10 UNL     1      27.370  18.907  54.032  1.00  0.00     0.179 C 
HETATM   11  C11 UNL     1      25.285  19.556  52.808  1.00  0.00     0.183 A 
HETATM   12  N8  UNL     1      24.467  19.987  53.757  1.00  0.00    -0.033 N 
ENDROOT
BRANCH   1  13
HETATM   13  N3  UNL     1      22.506  20.821  54.423  1.00  0.00    -0.169 N 
ATOM     14  H3  UNL     1      22.510  20.234  55.257  1.00  0.00     0.186 HD
BRANCH  13  15
HETATM   15  C5  UNL     1      21.713  21.977  54.475  1.00  0.00     0.183 C 
HETATM   16  N2  UNL     1      20.898  22.218  53.486  1.00  0.00    -0.286 N 
HETATM   17  N1  UNL     1      20.100  23.364  53.522  1.00  0.00    -0.333 N 
ATOM     18  H2  UNL     1      20.844  21.576  52.696  1.00  0.00     0.188 HD
HETATM   19  C4  UNL     1      20.688  24.575  54.064  1.00  0.00     0.168 C 
ATOM     20  H1  UNL     1      19.139  23.351  53.180  1.00  0.00     0.180 HD
HETATM   21  C2  UNL     1      21.258  24.340  55.426  1.00  0.00     0.089 C 
HETATM   22  C3  UNL     1      20.234  24.652  56.520  1.00  0.00     0.037 C 
HETATM   23  C12 UNL     1      21.719  22.958  55.568  1.00  0.00     0.214 C 
HETATM   24  O2  UNL     1      22.151  22.558  56.686  1.00  0.00    -0.287 OA
BRANCH  21  25
HETATM   25  S1  UNL     1      22.695  25.455  55.608  1.00  0.00    -0.154 SA
HETATM   26  C1  UNL     1      22.608  26.180  57.269  1.00  0.00     0.091 C 
ENDBRANCH  21  25
ENDBRANCH  13  15
ENDBRANCH   1  13
BRANCH  12  27
HETATM   27  O1  UNL     1      24.917  19.976  55.061  1.00  0.00    -0.268 OA
ATOM     28  H1  UNL     1      25.824  20.152  55.278  1.00  0.00     0.246 HD
ENDBRANCH  12  27
BRANCH   4  29
HETATM   29  N5  UNL     1      23.216  19.991  49.908  1.00  0.00    -0.384 N 
ATOM     30  H52 UNL     1      22.227  20.018  49.660  1.00  0.00     0.157 HD
ATOM     31  H51 UNL     1      23.870  19.958  49.126  1.00  0.00     0.157 HD
ENDBRANCH   4  29
TORSDOF 5
ENDMDL
MODEL 3
REMARK VINA RESULT: -6.691189584      1.629      2.013
REMARK  5 active torsions:
REMARK  status: ('A' for Active; 'I' for Inactive)
REMARK    1  A    between atoms: S1_2  and  C2_3 
REMARK    2  A    between atoms: C5_10  and  N3_11 
REMARK    3  A    between atoms: N3_11  and  C6_13 
REMARK    4  A    between atoms: C7_16  and  N5_17 
REMARK    5  A    between atoms: N8_27  and  O1_28 
ROOT
HETATM    1  C6  UNL     1      23.845  20.144  52.377  1.00  0.00     0.714 A 
HETATM    2  N4  UNL     1      23.026  20.200  51.309  1.00  0.00    -0.174 N 
ATOM      3  H4  UNL     1      22.068  20.531  51.430  1.00  0.00     0.186 HD
HETATM    4  C7  UNL     1      23.449  19.824  50.073  1.00  0.00     0.130 A 
HETATM    5  C8  UNL     1      24.754  19.389  49.991  1.00  0.00     0.073 A 
HETATM    6  C9  UNL     1      25.533  18.932  48.928  1.00  0.00     0.126 A 
HETATM    7  N6  UNL     1      26.750  18.637  49.426  1.00  0.00    -0.307 N 
ATOM      8  H6  UNL     1      27.528  18.279  48.873  1.00  0.00     0.186 HD
HETATM    9  N7  UNL     1      26.802  18.870  50.717  1.00  0.00    -0.278 N 
HETATM   10  C10 UNL     1      27.955  18.659  51.540  1.00  0.00     0.179 C 
HETATM   11  C11 UNL     1      25.588  19.333  51.083  1.00  0.00     0.183 A 
HETATM   12  N8  UNL     1      25.120  19.712  52.263  1.00  0.00    -0.033 N 
ENDROOT
BRANCH   1  13
HETATM   13  N3  UNL     1      23.480  20.492  53.562  1.00  0.00    -0.169 N 
ATOM     14  H3  UNL     1      24.206  20.497  54.279  1.00  0.00     0.186 HD
BRANCH  13  15
HETATM   15  C5  UNL     1      22.192  20.863  53.973  1.00  0.00     0.183 C 
HETATM   16  N2  UNL     1      21.649  21.922  53.440  1.00  0.00    -0.286 N 
HETATM   17  N1  UNL     1      20.366  22.307  53.838  1.00  0.00    -0.333 N 
ATOM     18  H2  UNL     1      22.156  22.464  52.741  1.00  0.00     0.188 HD
HETATM   19  C4  UNL     1      20.022  22.153  55.239  1.00  0.00     0.168 C 
ATOM     20  H1  UNL     1      19.694  22.682  53.167  1.00  0.00     0.180 HD
HETATM   21  C2  UNL     1      20.278  20.757  55.711  1.00  0.00     0.089 C 
HETATM   22  C3  UNL     1      19.027  19.885  55.572  1.00  0.00     0.037 C 
HETATM   23  C12 UNL     1      21.383  20.148  54.969  1.00  0.00     0.214 C 
HETATM   24  O2  UNL     1      21.680  18.938  55.177  1.00  0.00    -0.287 OA
BRANCH  21  25
HETATM   25  S1  UNL     1      20.748  20.862  57.474  1.00  0.00    -0.154 SA
HETATM   26  C1  UNL     1      22.174  21.977  57.588  1.00  0.00     0.091 C 
ENDBRANCH  21  25
ENDBRANCH  13  15
ENDBRANCH   1  13
BRANCH  12  27
HETATM   27  O1  UNL     1      25.966  19.651  53.351  1.00  0.00    -0.268 OA
ATOM     28  H1  UNL     1      26.857  19.977  53.310  1.00  0.00     0.246 HD
ENDBRANCH  12  27
BRANCH   4  29
HETATM   29  N5  UNL     1      22.695  19.865  49.027  1.00  0.00    -0.384 N 
ATOM     30  H52 UNL     1      21.761  20.271  49.068  1.00  0.00     0.157 HD
ATOM     31  H51 UNL     1      22.982  19.501  48.118  1.00  0.00     0.157 HD
ENDBRANCH   4  29
TORSDOF 5
ENDMDL
MODEL 4
REMARK VINA RESULT: -6.662813137      1.508      1.997
REMARK  5 active torsions:
REMARK  status: ('A' for Active; 'I' for Inactive)
REMARK    1  A    between atoms: S1_2  and  C2_3 
REMARK    2  A    between atoms: C5_10  and  N3_11 
REMARK    3  A    between atoms: N3_11  and  C6_13 
REMARK    4  A    between atoms: C7_16  and  N5_17 
REMARK    5  A    between atoms: N8_27  and  O1_28 
ROOT
HETATM    1  C6  UNL     1      24.044  20.065  52.360  1.00  0.00     0.714 A 
HETATM    2  N4  UNL     1      23.164  20.166  51.346  1.00  0.00    -0.174 N 
ATOM      3  H4  UNL     1      22.222  20.511  51.534  1.00  0.00     0.186 HD
HETATM    4  C7  UNL     1      23.504  19.817  50.076  1.00  0.00     0.130 A 
HETATM    5  C8  UNL     1      24.792  19.360  49.904  1.00  0.00     0.073 A 
HETATM    6  C9  UNL     1      25.496  18.918  48.783  1.00  0.00     0.126 A 
HETATM    7  N6  UNL     1      26.734  18.587  49.198  1.00  0.00    -0.307 N 
ATOM      8  H6  UNL     1      27.470  18.231  48.589  1.00  0.00     0.186 HD
HETATM    9  N7  UNL     1      26.869  18.783  50.489  1.00  0.00    -0.278 N 
HETATM   10  C10 UNL     1      28.065  18.528  51.234  1.00  0.00     0.179 C 
HETATM   11  C11 UNL     1      25.689  19.258  50.941  1.00  0.00     0.183 A 
HETATM   12  N8  UNL     1      25.301  19.612  52.157  1.00  0.00    -0.033 N 
ENDROOT
BRANCH   1  13
HETATM   13  N3  UNL     1      23.758  20.386  53.573  1.00  0.00    -0.169 N 
ATOM     14  H3  UNL     1      24.398  20.052  54.295  1.00  0.00     0.186 HD
BRANCH  13  15
HETATM   15  C5  UNL     1      22.663  21.144  54.010  1.00  0.00     0.183 C 
HETATM   16  N2  UNL     1      21.544  21.062  53.345  1.00  0.00    -0.286 N 
HETATM   17  N1  UNL     1      20.441  21.810  53.766  1.00  0.00    -0.333 N 
ATOM     18  H2  UNL     1      21.474  20.457  52.527  1.00  0.00     0.188 HD
HETATM   19  C4  UNL     1      20.691  23.149  54.268  1.00  0.00     0.168 C 
ATOM     20  H1  UNL     1      19.496  21.430  53.722  1.00  0.00     0.180 HD
HETATM   21  C2  UNL     1      21.714  23.139  55.358  1.00  0.00     0.089 C 
HETATM   22  C3  UNL     1      21.058  23.020  56.736  1.00  0.00     0.037 C 
HETATM   23  C12 UNL     1      22.664  22.040  55.173  1.00  0.00     0.214 C 
HETATM   24  O2  UNL     1      23.548  21.828  56.051  1.00  0.00    -0.287 OA
BRANCH  21  25
HETATM   25  S1  UNL     1      22.625  24.720  55.257  1.00  0.00    -0.154 SA
HETATM   26  C1  UNL     1      22.570  25.481  56.903  1.00  0.00     0.091 C 
ENDBRANCH  21  25
ENDBRANCH  13  15
ENDBRANCH   1  13
BRANCH  12  27
HETATM   27  O1  UNL     1      26.210  19.505  53.189  1.00  0.00    -0.268 OA
ATOM     28  H1  UNL     1      26.685  20.259  53.517  1.00  0.00     0.246 HD
ENDBRANCH  12  27
BRANCH   4  29
HETATM   29  N5  UNL     1      22.689  19.901  49.079  1.00  0.00    -0.384 N 
ATOM     30  H52 UNL     1      21.933  20.586  49.074  1.00  0.00     0.157 HD
ATOM     31  H51 UNL     1      22.750  19.300  48.257  1.00  0.00     0.157 HD
ENDBRANCH   4  29
TORSDOF 5
ENDMDL
MODEL 5
REMARK VINA RESULT: -6.589646026      1.552      2.588
REMARK  5 active torsions:
REMARK  status: ('A' for Active; 'I' for Inactive)
REMARK    1  A    between atoms: S1_2  and  C2_3 
REMARK    2  A    between atoms: C5_10  and  N3_11 
REMARK    3  A    between atoms: N3_11  and  C6_13 
REMARK    4  A    between atoms: C7_16  and  N5_17 
REMARK    5  A    between atoms: N8_27  and  O1_28 
ROOT
HETATM    1  C6  UNL     1      24.809  20.000  53.271  1.00  0.00     0.714 A 
HETATM    2  N4  UNL     1      26.073  19.552  53.397  1.00  0.00    -0.174 N 
ATOM      3  H4  UNL     1      26.521  19.571  54.313  1.00  0.00     0.186 HD
HETATM    4  C7  UNL     1      26.764  19.076  52.327  1.00  0.00     0.130 A 
HETATM    5  C8  UNL     1      26.091  19.084  51.125  1.00  0.00     0.073 A 
HETATM    6  C9  UNL     1      26.452  18.688  49.837  1.00  0.00     0.126 A 
HETATM    7  N6  UNL     1      25.393  18.922  49.038  1.00  0.00    -0.307 N 
ATOM      8  H6  UNL     1      25.371  18.727  48.038  1.00  0.00     0.186 HD
HETATM    9  N7  UNL     1      24.393  19.435  49.717  1.00  0.00    -0.278 N 
HETATM   10  C10 UNL     1      23.125  19.797  49.157  1.00  0.00     0.179 C 
HETATM   11  C11 UNL     1      24.801  19.542  51.000  1.00  0.00     0.183 A 
HETATM   12  N8  UNL     1      24.177  19.994  52.077  1.00  0.00    -0.033 N 
ENDROOT
BRANCH   1  13
HETATM   13  N3  UNL     1      24.124  20.457  54.260  1.00  0.00    -0.169 N 
ATOM     14  H3  UNL     1      23.599  19.772  54.806  1.00  0.00     0.186 HD
BRANCH  13  15
HETATM   15  C5  UNL     1      24.020  21.794  54.669  1.00  0.00     0.183 C 
HETATM   16  N2  UNL     1      25.117  22.464  54.891  1.00  0.00    -0.286 N 
HETATM   17  N1  UNL     1      25.033  23.798  55.299  1.00  0.00    -0.333 N 
ATOM     18  H2  UNL     1      26.026  22.019  54.769  1.00  0.00     0.188 HD
HETATM   19  C4  UNL     1      23.970  24.153  56.221  1.00  0.00     0.168 C 
ATOM     20  H1  UNL     1      25.695  24.497  54.961  1.00  0.00     0.180 HD
HETATM   21  C2  UNL     1      22.636  23.719  55.705  1.00  0.00     0.089 C 
HETATM   22  C3  UNL     1      21.962  24.833  54.899  1.00  0.00     0.037 C 
HETATM   23  C12 UNL     1      22.761  22.522  54.872  1.00  0.00     0.214 C 
HETATM   24  O2  UNL     1      21.742  22.066  54.280  1.00  0.00    -0.287 OA
BRANCH  21  25
HETATM   25  S1  UNL     1      21.602  23.314  57.156  1.00  0.00    -0.154 SA
HETATM   26  C1  UNL     1      19.915  23.875  56.792  1.00  0.00     0.091 C 
ENDBRANCH  21  25
ENDBRANCH  13  15
ENDBRANCH   1  13
BRANCH  12  27
HETATM   27  O1  UNL     1      22.883  20.451  51.938  1.00  0.00    -0.268 OA
ATOM     28  H1  UNL     1      22.604  20.940  51.173  1.00  0.00     0.246 HD
ENDBRANCH  12  27
BRANCH   4  29
HETATM   29  N5  UNL     1      27.975  18.637  52.408  1.00  0.00    -0.384 N 
ATOM     30  H52 UNL     1      28.390  18.404  53.310  1.00  0.00     0.157 HD
ATOM     31  H51 UNL     1      28.575  18.503  51.595  1.00  0.00     0.157 HD
ENDBRANCH   4  29
TORSDOF 5
ENDMDL
