MODEL 1
REMARK VINA RESULT: -6.747039955      0.000      0.000
REMARK  6 active torsions:
REMARK  status: ('A' for Active; 'I' for Inactive)
REMARK    1  A    between atoms: C2_2  and  O2_4 
REMARK    2  A    between atoms: O2_4  and  C3_5 
REMARK    3  A    between atoms: C7_11  and  O5_12 
REMARK    4  A    between atoms: C8_14  and  O6_15 
REMARK    5  A    between atoms: C9_17  and  O7_18 
REMARK    6  A    between atoms: C11_22  and  O9_23 
ROOT
HETATM    1  C3  UNL     1      24.751  19.939  53.347  1.00  0.00     0.284 C 
HETATM    2  C4  UNL     1      23.724  20.195  52.306  1.00  0.00     0.236 C 
HETATM    3  O3  UNL     1      22.655  20.764  52.695  1.00  0.00    -0.285 OA
HETATM    4  C5  UNL     1      23.925  19.816  50.915  1.00  0.00     0.234 C 
HETATM    5  O4  UNL     1      23.000  19.925  50.068  1.00  0.00    -0.283 OA
HETATM    6  C6  UNL     1      25.206  19.296  50.459  1.00  0.00     0.071 C 
HETATM    7  C7  UNL     1      25.227  18.983  49.100  1.00  0.00     0.117 C 
HETATM    8  C8  UNL     1      26.127  18.216  48.391  1.00  0.00     0.137 C 
HETATM    9  C9  UNL     1      27.474  18.092  48.702  1.00  0.00     0.155 C 
HETATM   10  C10 UNL     1      28.133  18.378  49.890  1.00  0.00     0.241 C 
HETATM   11  O8  UNL     1      29.393  18.358  49.885  1.00  0.00    -0.282 OA
HETATM   12  C11 UNL     1      27.517  18.689  51.100  1.00  0.00     0.134 C 
HETATM   13  C12 UNL     1      26.232  19.165  51.359  1.00  0.00     0.067 C 
HETATM   14  C13 UNL     1      26.051  19.541  52.760  1.00  0.00     0.200 C 
HETATM   15  O10 UNL     1      27.056  19.523  53.512  1.00  0.00    -0.289 OA
ENDROOT
BRANCH   1  16
HETATM   16  O2  UNL     1      24.914  21.115  54.145  1.00  0.00    -0.300 OA
BRANCH  16  17
HETATM   17  C2  UNL     1      24.577  21.071  55.485  1.00  0.00     0.256 C 
HETATM   18  C1  UNL     1      23.409  21.843  56.033  1.00  0.00     0.126 C 
HETATM   19  O1  UNL     1      25.280  20.357  56.243  1.00  0.00    -0.266 OA
ENDBRANCH  16  17
ENDBRANCH   1  16
BRANCH  12  20
HETATM   20  O9  UNL     1      28.284  18.502  52.222  1.00  0.00    -0.356 OA
ATOM     21  H9  UNL     1      28.007  17.798  52.796  1.00  0.00     0.218 HD
ENDBRANCH  12  20
BRANCH   7  22
HETATM   22  O5  UNL     1      24.207  19.513  48.364  1.00  0.00    -0.357 OA
ATOM     23  H5  UNL     1      23.900  18.971  47.647  1.00  0.00     0.217 HD
ENDBRANCH   7  22
BRANCH   8  24
HETATM   24  O6  UNL     1      25.725  17.498  47.289  1.00  0.00    -0.356 OA
ATOM     25  H6  UNL     1      25.561  16.565  47.352  1.00  0.00     0.218 HD
ENDBRANCH   8  24
BRANCH   9  26
HETATM   26  O7  UNL     1      28.296  17.617  47.699  1.00  0.00    -0.355 OA
ATOM     27  H7  UNL     1      29.058  17.121  47.975  1.00  0.00     0.218 HD
ENDBRANCH   9  26
TORSDOF 6
ENDMDL
MODEL 2
REMARK VINA RESULT: -6.648332312      1.101      3.537
REMARK  6 active torsions:
REMARK  status: ('A' for Active; 'I' for Inactive)
REMARK    1  A    between atoms: C2_2  and  O2_4 
REMARK    2  A    between atoms: O2_4  and  C3_5 
REMARK    3  A    between atoms: C7_11  and  O5_12 
REMARK    4  A    between atoms: C8_14  and  O6_15 
REMARK    5  A    between atoms: C9_17  and  O7_18 
REMARK    6  A    between atoms: C11_22  and  O9_23 
ROOT
HETATM    1  C3  UNL     1      23.930  20.506  53.127  1.00  0.00     0.284 C 
HETATM    2  C4  UNL     1      25.125  20.122  53.919  1.00  0.00     0.236 C 
HETATM    3  O3  UNL     1      25.049  20.296  55.177  1.00  0.00    -0.285 OA
HETATM    4  C5  UNL     1      26.321  19.575  53.294  1.00  0.00     0.234 C 
HETATM    5  O4  UNL     1      27.370  19.369  53.959  1.00  0.00    -0.283 OA
HETATM    6  C6  UNL     1      26.341  19.249  51.876  1.00  0.00     0.071 C 
HETATM    7  C7  UNL     1      27.563  18.736  51.440  1.00  0.00     0.117 C 
HETATM    8  C8  UNL     1      28.048  18.598  50.157  1.00  0.00     0.137 C 
HETATM    9  C9  UNL     1      27.262  18.369  49.037  1.00  0.00     0.155 C 
HETATM   10  C10 UNL     1      25.897  18.560  48.866  1.00  0.00     0.241 C 
HETATM   11  O8  UNL     1      25.367  18.111  47.814  1.00  0.00    -0.282 OA
HETATM   12  C11 UNL     1      25.054  19.211  49.763  1.00  0.00     0.134 C 
HETATM   13  C12 UNL     1      25.214  19.464  51.125  1.00  0.00     0.067 C 
HETATM   14  C13 UNL     1      24.003  20.011  51.734  1.00  0.00     0.200 C 
HETATM   15  O10 UNL     1      22.962  20.067  51.033  1.00  0.00    -0.289 OA
ENDROOT
BRANCH   1  16
HETATM   16  O2  UNL     1      22.757  19.996  53.768  1.00  0.00    -0.300 OA
BRANCH  16  17
HETATM   17  C2  UNL     1      21.684  20.841  53.979  1.00  0.00     0.256 C 
HETATM   18  C1  UNL     1      21.851  22.188  54.625  1.00  0.00     0.126 C 
HETATM   19  O1  UNL     1      20.549  20.449  53.609  1.00  0.00    -0.266 OA
ENDBRANCH  16  17
ENDBRANCH   1  16
BRANCH  12  20
HETATM   20  O9  UNL     1      23.879  19.683  49.237  1.00  0.00    -0.356 OA
ATOM     21  H9  UNL     1      23.963  20.212  48.452  1.00  0.00     0.218 HD
ENDBRANCH  12  20
BRANCH   7  22
HETATM   22  O5  UNL     1      28.401  18.307  52.429  1.00  0.00    -0.357 OA
ATOM     23  H5  UNL     1      27.971  17.958  53.201  1.00  0.00     0.217 HD
ENDBRANCH   7  22
BRANCH   8  24
HETATM   24  O6  UNL     1      29.397  18.685  49.902  1.00  0.00    -0.356 OA
ATOM     25  H6  UNL     1      29.731  19.306  49.266  1.00  0.00     0.218 HD
ENDBRANCH   8  24
BRANCH   9  26
HETATM   26  O7  UNL     1      27.909  17.878  47.920  1.00  0.00    -0.355 OA
ATOM     27  H7  UNL     1      27.634  18.230  47.082  1.00  0.00     0.218 HD
ENDBRANCH   9  26
TORSDOF 6
ENDMDL
MODEL 3
REMARK VINA RESULT: -6.543938499      1.458      6.668
REMARK  6 active torsions:
REMARK  status: ('A' for Active; 'I' for Inactive)
REMARK    1  A    between atoms: C2_2  and  O2_4 
REMARK    2  A    between atoms: O2_4  and  C3_5 
REMARK    3  A    between atoms: C7_11  and  O5_12 
REMARK    4  A    between atoms: C8_14  and  O6_15 
REMARK    5  A    between atoms: C9_17  and  O7_18 
REMARK    6  A    between atoms: C11_22  and  O9_23 
ROOT
HETATM    1  C3  UNL     1      26.292  18.481  50.289  1.00  0.00     0.284 C 
HETATM    2  C4  UNL     1      27.345  18.338  51.326  1.00  0.00     0.236 C 
HETATM    3  O3  UNL     1      28.471  17.897  50.931  1.00  0.00    -0.285 OA
HETATM    4  C5  UNL     1      27.105  18.682  52.720  1.00  0.00     0.234 C 
HETATM    5  O4  UNL     1      27.963  18.441  53.610  1.00  0.00    -0.283 OA
HETATM    6  C6  UNL     1      25.861  19.318  53.130  1.00  0.00     0.071 C 
HETATM    7  C7  UNL     1      25.795  19.579  54.499  1.00  0.00     0.117 C 
HETATM    8  C8  UNL     1      24.701  19.884  55.281  1.00  0.00     0.137 C 
HETATM    9  C9  UNL     1      23.581  20.571  54.836  1.00  0.00     0.155 C 
HETATM   10  C10 UNL     1      23.142  20.792  53.538  1.00  0.00     0.241 C 
HETATM   11  O8  UNL     1      22.190  21.600  53.366  1.00  0.00    -0.282 OA
HETATM   12  C11 UNL     1      23.667  20.193  52.395  1.00  0.00     0.134 C 
HETATM   13  C12 UNL     1      24.907  19.592  52.184  1.00  0.00     0.067 C 
HETATM   14  C13 UNL     1      25.129  19.255  50.779  1.00  0.00     0.200 C 
HETATM   15  O10 UNL     1      24.282  19.643  49.937  1.00  0.00    -0.289 OA
ENDROOT
BRANCH   1  16
HETATM   16  O2  UNL     1      26.853  19.116  49.136  1.00  0.00    -0.300 OA
BRANCH  16  17
HETATM   17  C2  UNL     1      26.504  18.658  47.879  1.00  0.00     0.256 C 
HETATM   18  C1  UNL     1      26.535  17.195  47.532  1.00  0.00     0.126 C 
HETATM   19  O1  UNL     1      26.153  19.507  47.023  1.00  0.00    -0.266 OA
ENDBRANCH  16  17
ENDBRANCH   1  16
BRANCH  12  20
HETATM   20  O9  UNL     1      22.844  20.186  51.298  1.00  0.00    -0.356 OA
ATOM     21  H9  UNL     1      22.827  20.989  50.791  1.00  0.00     0.218 HD
ENDBRANCH  12  20
BRANCH   7  22
HETATM   22  O5  UNL     1      26.987  19.524  55.161  1.00  0.00    -0.357 OA
ATOM     23  H5  UNL     1      27.659  18.998  54.743  1.00  0.00     0.217 HD
ENDBRANCH   7  22
BRANCH   8  24
HETATM   24  O6  UNL     1      24.654  19.507  56.603  1.00  0.00    -0.356 OA
ATOM     25  H6  UNL     1      23.994  18.899  56.911  1.00  0.00     0.218 HD
ENDBRANCH   8  24
BRANCH   9  26
HETATM   26  O7  UNL     1      22.771  21.123  55.809  1.00  0.00    -0.355 OA
ATOM     27  H7  UNL     1      21.848  21.204  55.597  1.00  0.00     0.218 HD
ENDBRANCH   9  26
TORSDOF 6
ENDMDL
MODEL 4
REMARK VINA RESULT: -6.539857708      1.236      3.500
REMARK  6 active torsions:
REMARK  status: ('A' for Active; 'I' for Inactive)
REMARK    1  A    between atoms: C2_2  and  O2_4 
REMARK    2  A    between atoms: O2_4  and  C3_5 
REMARK    3  A    between atoms: C7_11  and  O5_12 
REMARK    4  A    between atoms: C8_14  and  O6_15 
REMARK    5  A    between atoms: C9_17  and  O7_18 
REMARK    6  A    between atoms: C11_22  and  O9_23 
ROOT
HETATM    1  C3  UNL     1      24.524  20.264  54.150  1.00  0.00     0.284 C 
HETATM    2  C4  UNL     1      25.814  19.553  54.342  1.00  0.00     0.236 C 
HETATM    3  O3  UNL     1      26.211  19.419  55.543  1.00  0.00    -0.285 OA
HETATM    4  C5  UNL     1      26.584  19.037  53.219  1.00  0.00     0.234 C 
HETATM    5  O4  UNL     1      27.732  18.547  53.385  1.00  0.00    -0.283 OA
HETATM    6  C6  UNL     1      26.049  19.073  51.866  1.00  0.00     0.071 C 
HETATM    7  C7  UNL     1      26.916  18.539  50.912  1.00  0.00     0.117 C 
HETATM    8  C8  UNL     1      26.892  18.666  49.539  1.00  0.00     0.137 C 
HETATM    9  C9  UNL     1      25.740  18.818  48.781  1.00  0.00     0.155 C 
HETATM   10  C10 UNL     1      24.469  19.210  49.180  1.00  0.00     0.241 C 
HETATM   11  O8  UNL     1      23.530  19.103  48.345  1.00  0.00    -0.282 OA
HETATM   12  C11 UNL     1      24.137  19.715  50.434  1.00  0.00     0.134 C 
HETATM   13  C12 UNL     1      24.802  19.602  51.654  1.00  0.00     0.067 C 
HETATM   14  C13 UNL     1      24.012  20.124  52.768  1.00  0.00     0.200 C 
HETATM   15  O10 UNL     1      22.829  20.477  52.540  1.00  0.00    -0.289 OA
ENDROOT
BRANCH   1  16
HETATM   16  O2  UNL     1      23.565  19.756  55.082  1.00  0.00    -0.300 OA
BRANCH  16  17
HETATM   17  C2  UNL     1      22.960  20.629  55.967  1.00  0.00     0.256 C 
HETATM   18  C1  UNL     1      23.276  22.099  55.971  1.00  0.00     0.126 C 
HETATM   19  O1  UNL     1      22.125  20.155  56.778  1.00  0.00    -0.266 OA
ENDBRANCH  16  17
ENDBRANCH   1  16
BRANCH  12  20
HETATM   20  O9  UNL     1      22.975  20.442  50.492  1.00  0.00    -0.356 OA
ATOM     21  H9  UNL     1      22.947  21.119  51.158  1.00  0.00     0.218 HD
ENDBRANCH  12  20
BRANCH   7  22
HETATM   22  O5  UNL     1      27.936  17.781  51.410  1.00  0.00    -0.357 OA
ATOM     23  H5  UNL     1      27.795  17.435  52.283  1.00  0.00     0.217 HD
ENDBRANCH   7  22
BRANCH   8  24
HETATM   24  O6  UNL     1      28.059  18.650  48.811  1.00  0.00    -0.356 OA
ATOM     25  H6  UNL     1      28.041  18.550  47.867  1.00  0.00     0.218 HD
ENDBRANCH   8  24
BRANCH   9  26
HETATM   26  O7  UNL     1      25.851  18.545  47.431  1.00  0.00    -0.355 OA
ATOM     27  H7  UNL     1      25.293  19.048  46.850  1.00  0.00     0.218 HD
ENDBRANCH   9  26
TORSDOF 6
ENDMDL
MODEL 5
REMARK VINA RESULT: -6.470653575      1.288      5.905
REMARK  6 active torsions:
REMARK  status: ('A' for Active; 'I' for Inactive)
REMARK    1  A    between atoms: C2_2  and  O2_4 
REMARK    2  A    between atoms: O2_4  and  C3_5 
REMARK    3  A    between atoms: C7_11  and  O5_12 
REMARK    4  A    between atoms: C8_14  and  O6_15 
REMARK    5  A    between atoms: C9_17  and  O7_18 
REMARK    6  A    between atoms: C11_22  and  O9_23 
ROOT
HETATM    1  C3  UNL     1      27.461  18.490  48.716  1.00  0.00     0.284 C 
HETATM    2  C4  UNL     1      26.143  18.845  48.131  1.00  0.00     0.236 C 
HETATM    3  O3  UNL     1      26.039  18.740  46.867  1.00  0.00    -0.285 OA
HETATM    4  C5  UNL     1      25.028  19.290  48.955  1.00  0.00     0.234 C 
HETATM    5  O4  UNL     1      23.958  19.705  48.438  1.00  0.00    -0.283 OA
HETATM    6  C6  UNL     1      25.118  19.268  50.408  1.00  0.00     0.071 C 
HETATM    7  C7  UNL     1      23.963  19.727  51.042  1.00  0.00     0.117 C 
HETATM    8  C8  UNL     1      23.781  20.124  52.350  1.00  0.00     0.137 C 
HETATM    9  C9  UNL     1      24.482  19.616  53.434  1.00  0.00     0.155 C 
HETATM   10  C10 UNL     1      25.680  18.914  53.456  1.00  0.00     0.241 C 
HETATM   11  O8  UNL     1      26.039  18.394  54.546  1.00  0.00    -0.282 OA
HETATM   12  C11 UNL     1      26.530  18.733  52.368  1.00  0.00     0.134 C 
HETATM   13  C12 UNL     1      26.271  18.822  51.000  1.00  0.00     0.067 C 
HETATM   14  C13 UNL     1      27.401  18.370  50.190  1.00  0.00     0.200 C 
HETATM   15  O10 UNL     1      28.381  17.852  50.780  1.00  0.00    -0.289 OA
ENDROOT
BRANCH   1  16
HETATM   16  O2  UNL     1      27.913  17.259  48.142  1.00  0.00    -0.300 OA
BRANCH  16  17
HETATM   17  C2  UNL     1      29.016  17.270  47.310  1.00  0.00     0.256 C 
HETATM   18  C1  UNL     1      29.973  18.430  47.278  1.00  0.00     0.126 C 
HETATM   19  O1  UNL     1      29.203  16.271  46.571  1.00  0.00    -0.266 OA
ENDBRANCH  16  17
ENDBRANCH   1  16
BRANCH  12  20
HETATM   20  O9  UNL     1      27.829  18.417  52.674  1.00  0.00    -0.356 OA
ATOM     21  H9  UNL     1      28.492  18.959  52.263  1.00  0.00     0.218 HD
ENDBRANCH  12  20
BRANCH   7  22
HETATM   22  O5  UNL     1      22.851  19.791  50.253  1.00  0.00    -0.357 OA
ATOM     23  H5  UNL     1      22.903  20.403  49.529  1.00  0.00     0.217 HD
ENDBRANCH   7  22
BRANCH   8  24
HETATM   24  O6  UNL     1      22.855  21.090  52.669  1.00  0.00    -0.356 OA
ATOM     25  H6  UNL     1      22.063  20.866  53.143  1.00  0.00     0.218 HD
ENDBRANCH   8  24
BRANCH   9  26
HETATM   26  O7  UNL     1      23.927  19.827  54.680  1.00  0.00    -0.355 OA
ATOM     27  H7  UNL     1      23.733  20.728  54.912  1.00  0.00     0.218 HD
ENDBRANCH   9  26
TORSDOF 6
ENDMDL
