MODEL 1
REMARK VINA RESULT: -9.982568611      0.000      0.000
REMARK  4 active torsions:
REMARK  status: ('A' for Active; 'I' for Inactive)
REMARK    1  A    between atoms: C3_7  and  N3_8 
REMARK    2  A    between atoms: N3_8  and  C4_10 
REMARK    3  A    between atoms: C13_21  and  C14_22 
REMARK    4  A    between atoms: C15_23  and  C16_24 
ROOT
HETATM    1  C1  UNL     1       2.853   4.906 -11.012  1.00  0.00     0.165 C 
HETATM    2  N1  UNL     1       2.294   6.065 -10.459  1.00  0.00    -0.230 N 
ATOM      3  H1  UNL     1       2.688   6.310  -9.551  1.00  0.00     0.177 HD
HETATM    4  C2  UNL     1       1.406   6.868 -10.850  1.00  0.00     0.686 A 
HETATM    5  N2  UNL     1       1.015   7.965 -10.113  1.00  0.00    -0.174 N 
ATOM      6  H2  UNL     1       1.393   8.231  -9.204  1.00  0.00     0.186 HD
HETATM    7  C3  UNL     1       0.068   8.622 -10.773  1.00  0.00     0.151 A 
HETATM    8  C10 UNL     1      -0.177   7.950 -11.974  1.00  0.00     0.108 A 
HETATM    9  C11 UNL     1      -1.041   8.195 -13.008  1.00  0.00    -0.011 A 
HETATM   10  C12 UNL     1      -1.936   9.354 -12.970  1.00  0.00     0.052 C 
HETATM   11  C13 UNL     1      -1.079   7.357 -14.090  1.00  0.00     0.033 A 
HETATM   12  C21 UNL     1      -0.221   6.285 -14.076  1.00  0.00    -0.026 A 
HETATM   13  C22 UNL     1      -0.221   5.343 -15.229  1.00  0.00     0.051 C 
HETATM   14  C23 UNL     1       0.656   6.024 -13.040  1.00  0.00     0.124 A 
HETATM   15  N7  UNL     1       0.661   6.879 -11.988  1.00  0.00    -0.153 N 
ENDROOT
BRANCH   7  16
HETATM   16  N3  UNL     1      -0.602   9.817 -10.345  1.00  0.00    -0.326 N 
ATOM     17  H3  UNL     1      -0.608  10.641 -10.944  1.00  0.00     0.169 HD
BRANCH  16  18
HETATM   18  C4  UNL     1      -1.188   9.845  -9.217  1.00  0.00     0.106 A 
HETATM   19  C5  UNL     1      -2.546   9.942  -9.057  1.00  0.00     0.048 A 
HETATM   20  C6  UNL     1      -3.161   9.974  -7.821  1.00  0.00     0.006 A 
HETATM   21  C7  UNL     1      -2.358   9.903  -6.704  1.00  0.00     0.025 A 
HETATM   22  C8  UNL     1      -0.988   9.806  -6.860  1.00  0.00     0.007 A 
HETATM   23  C9  UNL     1      -0.174   9.734  -5.613  1.00  0.00     0.068 C 
HETATM   24  N4  UNL     1      -0.435   9.779  -8.082  1.00  0.00    -0.346 N 
ATOM     25  H4  UNL     1       0.579   9.706  -8.164  1.00  0.00     0.167 HD
ENDBRANCH  16  18
ENDBRANCH   7  16
BRANCH  11  26
HETATM   26  C14 UNL     1      -1.993   7.643 -15.154  1.00  0.00    -0.059 C 
HETATM   27  C15 UNL     1      -2.748   7.895 -16.061  1.00  0.00    -0.043 C 
BRANCH  27  28
HETATM   28  C16 UNL     1      -3.641   8.187 -17.164  1.00  0.00     0.088 A 
HETATM   29  C17 UNL     1      -3.762   7.291 -18.208  1.00  0.00     0.065 A 
HETATM   30  C18 UNL     1      -4.615   7.564 -19.268  1.00  0.00     0.050 A 
HETATM   31  N5  UNL     1      -4.738   6.654 -20.327  1.00  0.00    -0.102 NA
HETATM   32  C19 UNL     1      -5.361   8.732 -19.310  1.00  0.00     0.043 A 
HETATM   33  C20 UNL     1      -5.202   9.593 -18.243  1.00  0.00     0.091 A 
HETATM   34  N6  UNL     1      -4.370   9.312 -17.221  1.00  0.00    -0.359 N 
ATOM     35  H6  UNL     1      -4.292   9.984 -16.457  1.00  0.00     0.166 HD
ENDBRANCH  27  28
ENDBRANCH  11  26
TORSDOF 4
ENDMDL
MODEL 2
REMARK VINA RESULT: -9.918171256      0.590      1.247
REMARK  4 active torsions:
REMARK  status: ('A' for Active; 'I' for Inactive)
REMARK    1  A    between atoms: C3_7  and  N3_8 
REMARK    2  A    between atoms: N3_8  and  C4_10 
REMARK    3  A    between atoms: C13_21  and  C14_22 
REMARK    4  A    between atoms: C15_23  and  C16_24 
ROOT
HETATM    1  C1  UNL     1       2.774   4.928 -11.027  1.00  0.00     0.165 C 
HETATM    2  N1  UNL     1       2.231   6.112 -10.512  1.00  0.00    -0.230 N 
ATOM      3  H1  UNL     1       2.628   6.380  -9.612  1.00  0.00     0.177 HD
HETATM    4  C2  UNL     1       1.354   6.914 -10.928  1.00  0.00     0.686 A 
HETATM    5  N2  UNL     1       0.978   8.039 -10.226  1.00  0.00    -0.174 N 
ATOM      6  H2  UNL     1       1.360   8.329  -9.326  1.00  0.00     0.186 HD
HETATM    7  C3  UNL     1       0.040   8.688 -10.907  1.00  0.00     0.151 A 
HETATM    8  C10 UNL     1      -0.215   7.981 -12.087  1.00  0.00     0.108 A 
HETATM    9  C11 UNL     1      -1.075   8.205 -13.128  1.00  0.00    -0.011 A 
HETATM   10  C12 UNL     1      -1.953   9.377 -13.127  1.00  0.00     0.052 C 
HETATM   11  C13 UNL     1      -1.124   7.333 -14.183  1.00  0.00     0.033 A 
HETATM   12  C21 UNL     1      -0.281   6.250 -14.135  1.00  0.00    -0.026 A 
HETATM   13  C22 UNL     1      -0.295   5.272 -15.257  1.00  0.00     0.051 C 
HETATM   14  C23 UNL     1       0.593   6.011 -13.091  1.00  0.00     0.124 A 
HETATM   15  N7  UNL     1       0.609   6.899 -12.066  1.00  0.00    -0.153 N 
ENDROOT
BRANCH   7  16
HETATM   16  N3  UNL     1      -0.613   9.904 -10.518  1.00  0.00    -0.326 N 
ATOM     17  H3  UNL     1      -0.686  10.678 -11.178  1.00  0.00     0.169 HD
BRANCH  16  18
HETATM   18  C4  UNL     1      -1.100  10.016  -9.350  1.00  0.00     0.106 A 
HETATM   19  C5  UNL     1      -0.353  10.227  -8.220  1.00  0.00     0.048 A 
HETATM   20  C6  UNL     1      -0.905  10.344  -6.959  1.00  0.00     0.006 A 
HETATM   21  C7  UNL     1      -2.274  10.242  -6.848  1.00  0.00     0.025 A 
HETATM   22  C8  UNL     1      -3.033  10.029  -7.983  1.00  0.00     0.007 A 
HETATM   23  C9  UNL     1      -4.508   9.927  -7.796  1.00  0.00     0.068 C 
HETATM   24  N4  UNL     1      -2.452   9.922  -9.188  1.00  0.00    -0.346 N 
ATOM     25  H4  UNL     1      -3.038   9.765 -10.007  1.00  0.00     0.167 HD
ENDBRANCH  16  18
ENDBRANCH   7  16
BRANCH  11  26
HETATM   26  C14 UNL     1      -2.035   7.597 -15.256  1.00  0.00    -0.059 C 
HETATM   27  C15 UNL     1      -2.786   7.830 -16.171  1.00  0.00    -0.043 C 
BRANCH  27  28
HETATM   28  C16 UNL     1      -3.674   8.097 -17.284  1.00  0.00     0.088 A 
HETATM   29  C17 UNL     1      -3.807   7.168 -18.298  1.00  0.00     0.065 A 
HETATM   30  C18 UNL     1      -4.656   7.416 -19.367  1.00  0.00     0.050 A 
HETATM   31  N5  UNL     1      -4.790   6.474 -20.396  1.00  0.00    -0.102 NA
HETATM   32  C19 UNL     1      -5.388   8.591 -19.448  1.00  0.00     0.043 A 
HETATM   33  C20 UNL     1      -5.219   9.485 -18.409  1.00  0.00     0.091 A 
HETATM   34  N6  UNL     1      -4.390   9.227 -17.378  1.00  0.00    -0.359 N 
ATOM     35  H6  UNL     1      -4.304   9.923 -16.637  1.00  0.00     0.166 HD
ENDBRANCH  27  28
ENDBRANCH  11  26
TORSDOF 4
ENDMDL
MODEL 3
REMARK VINA RESULT: -9.907840233      4.472      5.490
REMARK  4 active torsions:
REMARK  status: ('A' for Active; 'I' for Inactive)
REMARK    1  A    between atoms: C3_7  and  N3_8 
REMARK    2  A    between atoms: N3_8  and  C4_10 
REMARK    3  A    between atoms: C13_21  and  C14_22 
REMARK    4  A    between atoms: C15_23  and  C16_24 
ROOT
HETATM    1  C1  UNL     1      -1.219   8.195  -7.195  1.00  0.00     0.165 C 
HETATM    2  N1  UNL     1      -2.528   7.812  -7.509  1.00  0.00    -0.230 N 
ATOM      3  H1  UNL     1      -3.159   7.837  -6.708  1.00  0.00     0.177 HD
HETATM    4  C2  UNL     1      -3.090   7.442  -8.574  1.00  0.00     0.686 A 
HETATM    5  N2  UNL     1      -4.426   7.108  -8.636  1.00  0.00    -0.174 N 
ATOM      6  H2  UNL     1      -5.076   7.125  -7.851  1.00  0.00     0.186 HD
HETATM    7  C3  UNL     1      -4.733   6.760  -9.880  1.00  0.00     0.151 A 
HETATM    8  C10 UNL     1      -3.579   6.864 -10.664  1.00  0.00     0.108 A 
HETATM    9  C11 UNL     1      -3.342   6.628 -11.992  1.00  0.00    -0.011 A 
HETATM   10  C12 UNL     1      -4.422   6.173 -12.870  1.00  0.00     0.052 C 
HETATM   11  C13 UNL     1      -2.089   6.813 -12.512  1.00  0.00     0.033 A 
HETATM   12  C21 UNL     1      -1.112   7.239 -11.646  1.00  0.00    -0.026 A 
HETATM   13  C22 UNL     1       0.267   7.457 -12.163  1.00  0.00     0.051 C 
HETATM   14  C23 UNL     1      -1.336   7.481 -10.304  1.00  0.00     0.124 A 
HETATM   15  N7  UNL     1      -2.591   7.286  -9.829  1.00  0.00    -0.153 N 
ENDROOT
BRANCH   7  16
HETATM   16  N3  UNL     1      -6.020   6.344 -10.359  1.00  0.00    -0.326 N 
ATOM     17  H3  UNL     1      -6.372   6.697 -11.249  1.00  0.00     0.169 HD
BRANCH  16  18
HETATM   18  C4  UNL     1      -6.720   5.535  -9.674  1.00  0.00     0.106 A 
HETATM   19  C5  UNL     1      -6.749   4.180  -9.874  1.00  0.00     0.048 A 
HETATM   20  C6  UNL     1      -7.521   3.319  -9.118  1.00  0.00     0.006 A 
HETATM   21  C7  UNL     1      -8.293   3.865  -8.116  1.00  0.00     0.025 A 
HETATM   22  C8  UNL     1      -8.268   5.231  -7.909  1.00  0.00     0.007 A 
HETATM   23  C9  UNL     1      -9.125   5.760  -6.811  1.00  0.00     0.068 C 
HETATM   24  N4  UNL     1      -7.502   6.028  -8.670  1.00  0.00    -0.346 N 
ATOM     25  H4  UNL     1      -7.505   7.032  -8.493  1.00  0.00     0.167 HD
ENDBRANCH  16  18
ENDBRANCH   7  16
BRANCH  11  26
HETATM   26  C14 UNL     1      -1.875   6.558 -13.905  1.00  0.00    -0.059 C 
HETATM   27  C15 UNL     1      -1.717   6.345 -15.082  1.00  0.00    -0.043 C 
BRANCH  27  28
HETATM   28  C16 UNL     1      -1.534   6.110 -16.500  1.00  0.00     0.088 A 
HETATM   29  C17 UNL     1      -2.420   6.658 -17.408  1.00  0.00     0.065 A 
HETATM   30  C18 UNL     1      -2.252   6.438 -18.767  1.00  0.00     0.050 A 
HETATM   31  N5  UNL     1      -3.151   6.993 -19.689  1.00  0.00    -0.102 NA
HETATM   32  C19 UNL     1      -1.202   5.670 -19.249  1.00  0.00     0.043 A 
HETATM   33  C20 UNL     1      -0.347   5.147 -18.300  1.00  0.00     0.091 A 
HETATM   34  N6  UNL     1      -0.525   5.371 -16.984  1.00  0.00    -0.359 N 
ATOM     35  H6  UNL     1       0.138   4.960 -16.326  1.00  0.00     0.166 HD
ENDBRANCH  27  28
ENDBRANCH  11  26
TORSDOF 4
ENDMDL
MODEL 4
REMARK VINA RESULT: -9.550998236      4.554      5.592
REMARK  4 active torsions:
REMARK  status: ('A' for Active; 'I' for Inactive)
REMARK    1  A    between atoms: C3_7  and  N3_8 
REMARK    2  A    between atoms: N3_8  and  C4_10 
REMARK    3  A    between atoms: C13_21  and  C14_22 
REMARK    4  A    between atoms: C15_23  and  C16_24 
ROOT
HETATM    1  C1  UNL     1      -1.460   8.451  -7.236  1.00  0.00     0.165 C 
HETATM    2  N1  UNL     1      -2.721   7.906  -7.511  1.00  0.00    -0.230 N 
ATOM      3  H1  UNL     1      -3.336   7.882  -6.698  1.00  0.00     0.177 HD
HETATM    4  C2  UNL     1      -3.253   7.440  -8.553  1.00  0.00     0.686 A 
HETATM    5  N2  UNL     1      -4.541   6.949  -8.577  1.00  0.00    -0.174 N 
ATOM      6  H2  UNL     1      -5.174   6.914  -7.779  1.00  0.00     0.186 HD
HETATM    7  C3  UNL     1      -4.826   6.528  -9.804  1.00  0.00     0.151 A 
HETATM    8  C10 UNL     1      -3.706   6.743 -10.614  1.00  0.00     0.108 A 
HETATM    9  C11 UNL     1      -3.465   6.495 -11.939  1.00  0.00    -0.011 A 
HETATM   10  C12 UNL     1      -4.499   5.889 -12.781  1.00  0.00     0.052 C 
HETATM   11  C13 UNL     1      -2.252   6.810 -12.491  1.00  0.00     0.033 A 
HETATM   12  C21 UNL     1      -1.318   7.375 -11.659  1.00  0.00    -0.026 A 
HETATM   13  C22 UNL     1       0.017   7.737 -12.210  1.00  0.00     0.051 C 
HETATM   14  C23 UNL     1      -1.546   7.631 -10.320  1.00  0.00     0.124 A 
HETATM   15  N7  UNL     1      -2.761   7.304  -9.813  1.00  0.00    -0.153 N 
ENDROOT
BRANCH   7  16
HETATM   16  N3  UNL     1      -6.062   5.949 -10.244  1.00  0.00    -0.326 N 
ATOM     17  H3  UNL     1      -6.249   5.839 -11.241  1.00  0.00     0.169 HD
BRANCH  16  18
HETATM   18  C4  UNL     1      -6.925   5.573  -9.391  1.00  0.00     0.106 A 
HETATM   19  C5  UNL     1      -7.817   6.412  -8.776  1.00  0.00     0.048 A 
HETATM   20  C6  UNL     1      -8.746   5.981  -7.849  1.00  0.00     0.006 A 
HETATM   21  C7  UNL     1      -8.765   4.639  -7.538  1.00  0.00     0.025 A 
HETATM   22  C8  UNL     1      -7.868   3.788  -8.155  1.00  0.00     0.007 A 
HETATM   23  C9  UNL     1      -7.938   2.348  -7.776  1.00  0.00     0.068 C 
HETATM   24  N4  UNL     1      -6.983   4.253  -9.050  1.00  0.00    -0.346 N 
ATOM     25  H4  UNL     1      -6.334   3.600  -9.488  1.00  0.00     0.167 HD
ENDBRANCH  16  18
ENDBRANCH   7  16
BRANCH  11  26
HETATM   26  C14 UNL     1      -2.034   6.538 -13.880  1.00  0.00    -0.059 C 
HETATM   27  C15 UNL     1      -1.852   6.330 -15.055  1.00  0.00    -0.043 C 
BRANCH  27  28
HETATM   28  C16 UNL     1      -1.615   6.094 -16.464  1.00  0.00     0.088 A 
HETATM   29  C17 UNL     1      -2.478   6.621 -17.405  1.00  0.00     0.065 A 
HETATM   30  C18 UNL     1      -2.258   6.399 -18.757  1.00  0.00     0.050 A 
HETATM   31  N5  UNL     1      -3.134   6.935 -19.712  1.00  0.00    -0.102 NA
HETATM   32  C19 UNL     1      -1.178   5.651 -19.198  1.00  0.00     0.043 A 
HETATM   33  C20 UNL     1      -0.347   5.147 -18.217  1.00  0.00     0.091 A 
HETATM   34  N6  UNL     1      -0.575   5.372 -16.909  1.00  0.00    -0.359 N 
ATOM     35  H6  UNL     1       0.071   4.976 -16.226  1.00  0.00     0.166 HD
ENDBRANCH  27  28
ENDBRANCH  11  26
TORSDOF 4
ENDMDL
MODEL 5
REMARK VINA RESULT: -9.484691323      4.431      5.336
REMARK  4 active torsions:
REMARK  status: ('A' for Active; 'I' for Inactive)
REMARK    1  A    between atoms: C3_7  and  N3_8 
REMARK    2  A    between atoms: N3_8  and  C4_10 
REMARK    3  A    between atoms: C13_21  and  C14_22 
REMARK    4  A    between atoms: C15_23  and  C16_24 
ROOT
HETATM    1  C1  UNL     1      -1.252   7.846  -7.303  1.00  0.00     0.165 C 
HETATM    2  N1  UNL     1      -2.528   7.330  -7.562  1.00  0.00    -0.230 N 
ATOM      3  H1  UNL     1      -2.977   6.933  -6.736  1.00  0.00     0.177 HD
HETATM    4  C2  UNL     1      -3.236   7.254  -8.600  1.00  0.00     0.686 A 
HETATM    5  N2  UNL     1      -4.493   6.687  -8.606  1.00  0.00    -0.174 N 
ATOM      6  H2  UNL     1      -4.963   6.285  -7.796  1.00  0.00     0.186 HD
HETATM    7  C3  UNL     1      -4.995   6.748  -9.834  1.00  0.00     0.151 A 
HETATM    8  C10 UNL     1      -4.054   7.368 -10.664  1.00  0.00     0.108 A 
HETATM    9  C11 UNL     1      -4.062   7.676 -11.998  1.00  0.00    -0.011 A 
HETATM   10  C12 UNL     1      -5.222   7.346 -12.829  1.00  0.00     0.052 C 
HETATM   11  C13 UNL     1      -2.983   8.297 -12.569  1.00  0.00     0.033 A 
HETATM   12  C21 UNL     1      -1.922   8.583 -11.746  1.00  0.00    -0.026 A 
HETATM   13  C22 UNL     1      -0.725   9.259 -12.319  1.00  0.00     0.051 C 
HETATM   14  C23 UNL     1      -1.899   8.278 -10.399  1.00  0.00     0.124 A 
HETATM   15  N7  UNL     1      -2.988   7.664  -9.872  1.00  0.00    -0.153 N 
ENDROOT
BRANCH   7  16
HETATM   16  N3  UNL     1      -6.278   6.267 -10.259  1.00  0.00    -0.326 N 
ATOM     17  H3  UNL     1      -6.665   6.567 -11.153  1.00  0.00     0.169 HD
BRANCH  16  18
HETATM   18  C4  UNL     1      -6.931   5.466  -9.520  1.00  0.00     0.106 A 
HETATM   19  C5  UNL     1      -6.932   4.104  -9.673  1.00  0.00     0.048 A 
HETATM   20  C6  UNL     1      -7.652   3.252  -8.858  1.00  0.00     0.006 A 
HETATM   21  C7  UNL     1      -8.400   3.814  -7.846  1.00  0.00     0.025 A 
HETATM   22  C8  UNL     1      -8.402   5.187  -7.687  1.00  0.00     0.007 A 
HETATM   23  C9  UNL     1      -9.231   5.733  -6.575  1.00  0.00     0.068 C 
HETATM   24  N4  UNL     1      -7.686   5.974  -8.504  1.00  0.00    -0.346 N 
ATOM     25  H4  UNL     1      -7.709   6.984  -8.361  1.00  0.00     0.167 HD
ENDBRANCH  16  18
ENDBRANCH   7  16
BRANCH  11  26
HETATM   26  C14 UNL     1      -3.025   8.605 -13.967  1.00  0.00    -0.059 C 
HETATM   27  C15 UNL     1      -3.054   8.886 -15.140  1.00  0.00    -0.043 C 
BRANCH  27  28
HETATM   28  C16 UNL     1      -3.066   9.228 -16.548  1.00  0.00     0.088 A 
HETATM   29  C17 UNL     1      -3.134   8.228 -17.499  1.00  0.00     0.065 A 
HETATM   30  C18 UNL     1      -3.146   8.547 -18.849  1.00  0.00     0.050 A 
HETATM   31  N5  UNL     1      -3.215   7.533 -19.814  1.00  0.00    -0.102 NA
HETATM   32  C19 UNL     1      -3.090   9.865 -19.279  1.00  0.00     0.043 A 
HETATM   33  C20 UNL     1      -3.023  10.824 -18.288  1.00  0.00     0.091 A 
HETATM   34  N6  UNL     1      -3.013  10.496 -16.981  1.00  0.00    -0.359 N 
ATOM     35  H6  UNL     1      -2.963  11.246 -16.291  1.00  0.00     0.166 HD
ENDBRANCH  27  28
ENDBRANCH  11  26
TORSDOF 4
ENDMDL
