MODEL 1
REMARK VINA RESULT: -9.521419133      0.000      0.000
REMARK  4 active torsions:
REMARK  status: ('A' for Active; 'I' for Inactive)
REMARK       I    between atoms: C2_2  and  N1_4 
REMARK    1  A    between atoms: N1_4  and  C3_6 
REMARK    2  A    between atoms: C7_11  and  N2_12 
REMARK    3  A    between atoms: N2_12  and  C8_14 
REMARK    4  A    between atoms: C20_31  and  N6_32 
ROOT
HETATM    1  C3  UNL     1      -2.367   8.622  -9.879  1.00  0.00     0.121 A 
HETATM    2  S1  UNL     1      -3.014   8.689 -11.480  1.00  0.00    -0.066 SA
HETATM    3  C4  UNL     1      -2.131   7.749 -12.580  1.00  0.00     0.035 A 
HETATM    4  C5  UNL     1      -2.473   7.656 -13.921  1.00  0.00     0.037 A 
HETATM    5  C6  UNL     1      -1.729   6.877 -14.795  1.00  0.00     0.020 A 
HETATM    6  C7  UNL     1      -2.110   6.810 -16.151  1.00  0.00     0.067 A 
HETATM    7  C14 UNL     1      -1.305   6.013 -16.917  1.00  0.00     0.087 A 
HETATM    8  C15 UNL     1      -1.584   5.861 -18.310  1.00  0.00     0.103 C 
HETATM    9  N3  UNL     1      -1.783   5.722 -19.421  1.00  0.00    -0.191 NA
HETATM   10  C16 UNL     1      -0.197   5.325 -16.389  1.00  0.00     0.113 A 
HETATM   11  N4  UNL     1       0.083   5.455 -15.085  1.00  0.00    -0.364 N 
ATOM     12  H4  UNL     1       0.886   4.959 -14.698  1.00  0.00     0.165 HD
HETATM   13  C17 UNL     1      -0.661   6.216 -14.277  1.00  0.00     0.046 A 
HETATM   14  C18 UNL     1      -0.290   6.285 -12.944  1.00  0.00     0.061 A 
HETATM   15  C19 UNL     1      -1.051   7.078 -12.062  1.00  0.00     0.053 A 
HETATM   16  N5  UNL     1      -0.695   7.145 -10.783  1.00  0.00    -0.339 N 
ATOM     17  H5  UNL     1       0.128   6.599 -10.530  1.00  0.00     0.167 HD
HETATM   18  C20 UNL     1      -1.256   7.818  -9.791  1.00  0.00     0.134 A 
ENDROOT
BRANCH   6  19
HETATM   19  N2  UNL     1      -3.104   7.457 -16.508  1.00  0.00    -0.354 N 
ATOM     20  H2  UNL     1      -3.919   7.111 -16.001  1.00  0.00     0.166 HD
BRANCH  19  21
HETATM   21  C8  UNL     1      -3.495   8.454 -17.325  1.00  0.00     0.032 A 
HETATM   22  C9  UNL     1      -3.080   9.761 -17.111  1.00  0.00     0.029 A 
HETATM   23  C10 UNL     1      -3.432  10.808 -17.915  1.00  0.00     0.002 A 
HETATM   24  C11 UNL     1      -4.235  10.592 -18.997  1.00  0.00     0.000 A 
HETATM   25  C12 UNL     1      -4.675   9.310 -19.256  1.00  0.00     0.002 A 
HETATM   26  C13 UNL     1      -4.317   8.252 -18.438  1.00  0.00     0.029 A 
ENDBRANCH  19  21
ENDBRANCH   6  19
BRANCH   1  27
HETATM   27  N1  UNL     1      -2.870   9.251  -8.894  1.00  0.00    -0.319 N 
HETATM   28  C2  UNL     1      -2.869  10.591  -8.571  1.00  0.00     0.218 C 
HETATM   29  C1  UNL     1      -1.840  11.262  -7.700  1.00  0.00     0.117 C 
HETATM   30  O1  UNL     1      -3.787  11.347  -9.021  1.00  0.00    -0.274 OA
ATOM     31  H1  UNL     1      -3.361   8.659  -8.224  1.00  0.00     0.169 HD
ENDBRANCH   1  27
BRANCH  18  32
HETATM   32  N6  UNL     1      -0.722   7.729  -8.600  1.00  0.00    -0.383 N 
ATOM     33  H62 UNL     1      -1.275   8.030  -7.797  1.00  0.00     0.157 HD
ATOM     34  H61 UNL     1       0.228   7.356  -8.574  1.00  0.00     0.157 HD
ENDBRANCH  18  32
TORSDOF 4
ENDMDL
MODEL 2
REMARK VINA RESULT: -9.274900373      3.402      8.044
REMARK  4 active torsions:
REMARK  status: ('A' for Active; 'I' for Inactive)
REMARK       I    between atoms: C2_2  and  N1_4 
REMARK    1  A    between atoms: N1_4  and  C3_6 
REMARK    2  A    between atoms: C7_11  and  N2_12 
REMARK    3  A    between atoms: N2_12  and  C8_14 
REMARK    4  A    between atoms: C20_31  and  N6_32 
ROOT
HETATM    1  C3  UNL     1      -2.116   5.287 -16.693  1.00  0.00     0.121 A 
HETATM    2  S1  UNL     1      -2.961   5.861 -15.298  1.00  0.00    -0.066 SA
HETATM    3  C4  UNL     1      -1.918   6.481 -14.114  1.00  0.00     0.035 A 
HETATM    4  C5  UNL     1      -2.380   6.996 -12.911  1.00  0.00     0.037 A 
HETATM    5  C6  UNL     1      -1.499   7.496 -11.964  1.00  0.00     0.020 A 
HETATM    6  C7  UNL     1      -2.010   8.010 -10.754  1.00  0.00     0.067 A 
HETATM    7  C14 UNL     1      -1.052   8.475  -9.897  1.00  0.00     0.087 A 
HETATM    8  C15 UNL     1      -1.439   9.022  -8.636  1.00  0.00     0.103 C 
HETATM    9  N3  UNL     1      -1.720   9.463  -7.626  1.00  0.00    -0.191 NA
HETATM   10  C16 UNL     1       0.321   8.439 -10.205  1.00  0.00     0.113 A 
HETATM   11  N4  UNL     1       0.706   7.929 -11.383  1.00  0.00    -0.364 N 
ATOM     12  H4  UNL     1       1.700   7.899 -11.610  1.00  0.00     0.165 HD
HETATM   13  C17 UNL     1      -0.176   7.457 -12.268  1.00  0.00     0.046 A 
HETATM   14  C18 UNL     1       0.321   6.951 -13.459  1.00  0.00     0.061 A 
HETATM   15  C19 UNL     1      -0.580   6.445 -14.417  1.00  0.00     0.053 A 
HETATM   16  N5  UNL     1      -0.102   5.959 -15.558  1.00  0.00    -0.339 N 
ATOM     17  H5  UNL     1       0.913   5.990 -15.656  1.00  0.00     0.167 HD
HETATM   18  C20 UNL     1      -0.755   5.439 -16.586  1.00  0.00     0.134 A 
ENDROOT
BRANCH   6  19
HETATM   19  N2  UNL     1      -3.238   7.993 -10.588  1.00  0.00    -0.354 N 
ATOM     20  H2  UNL     1      -3.633   8.848 -10.979  1.00  0.00     0.166 HD
BRANCH  19  21
HETATM   21  C8  UNL     1      -4.238   7.250 -10.076  1.00  0.00     0.032 A 
HETATM   22  C9  UNL     1      -4.437   7.163  -8.705  1.00  0.00     0.029 A 
HETATM   23  C10 UNL     1      -5.443   6.438  -8.131  1.00  0.00     0.002 A 
HETATM   24  C11 UNL     1      -6.318   5.749  -8.920  1.00  0.00     0.000 A 
HETATM   25  C12 UNL     1      -6.165   5.803 -10.291  1.00  0.00     0.002 A 
HETATM   26  C13 UNL     1      -5.144   6.538 -10.868  1.00  0.00     0.029 A 
ENDBRANCH  19  21
ENDBRANCH   6  19
BRANCH   1  27
HETATM   27  N1  UNL     1      -2.699   4.780 -17.704  1.00  0.00    -0.319 N 
HETATM   28  C2  UNL     1      -3.098   5.336 -18.900  1.00  0.00     0.218 C 
HETATM   29  C1  UNL     1      -4.462   5.920 -19.160  1.00  0.00     0.117 C 
HETATM   30  O1  UNL     1      -2.286   5.377 -19.877  1.00  0.00    -0.274 OA
ATOM     31  H1  UNL     1      -2.908   3.786 -17.614  1.00  0.00     0.169 HD
ENDBRANCH   1  27
BRANCH  18  32
HETATM   32  N6  UNL     1      -0.062   5.021 -17.615  1.00  0.00    -0.383 N 
ATOM     33  H62 UNL     1      -0.351   5.319 -18.547  1.00  0.00     0.157 HD
ATOM     34  H61 UNL     1       0.729   4.417 -17.391  1.00  0.00     0.157 HD
ENDBRANCH  18  32
TORSDOF 4
ENDMDL
MODEL 3
REMARK VINA RESULT: -8.975034912      0.991      1.060
REMARK  4 active torsions:
REMARK  status: ('A' for Active; 'I' for Inactive)
REMARK       I    between atoms: C2_2  and  N1_4 
REMARK    1  A    between atoms: N1_4  and  C3_6 
REMARK    2  A    between atoms: C7_11  and  N2_12 
REMARK    3  A    between atoms: N2_12  and  C8_14 
REMARK    4  A    between atoms: C20_31  and  N6_32 
ROOT
HETATM    1  C3  UNL     1      -1.654   9.018 -10.465  1.00  0.00     0.121 A 
HETATM    2  S1  UNL     1      -2.455   9.044 -11.996  1.00  0.00    -0.066 SA
HETATM    3  C4  UNL     1      -1.802   7.928 -13.092  1.00  0.00     0.035 A 
HETATM    4  C5  UNL     1      -2.291   7.779 -14.382  1.00  0.00     0.037 A 
HETATM    5  C6  UNL     1      -1.734   6.856 -15.254  1.00  0.00     0.020 A 
HETATM    6  C7  UNL     1      -2.261   6.735 -16.557  1.00  0.00     0.067 A 
HETATM    7  C14 UNL     1      -1.635   5.795 -17.327  1.00  0.00     0.087 A 
HETATM    8  C15 UNL     1      -2.074   5.575 -18.668  1.00  0.00     0.103 C 
HETATM    9  N3  UNL     1      -2.403   5.381 -19.739  1.00  0.00    -0.191 NA
HETATM   10  C16 UNL     1      -0.560   5.021 -16.852  1.00  0.00     0.113 A 
HETATM   11  N4  UNL     1      -0.131   5.212 -15.596  1.00  0.00    -0.364 N 
ATOM     12  H4  UNL     1       0.649   4.654 -15.248  1.00  0.00     0.165 HD
HETATM   13  C17 UNL     1      -0.697   6.113 -14.788  1.00  0.00     0.046 A 
HETATM   14  C18 UNL     1      -0.182   6.234 -13.507  1.00  0.00     0.061 A 
HETATM   15  C19 UNL     1      -0.754   7.174 -12.627  1.00  0.00     0.053 A 
HETATM   16  N5  UNL     1      -0.260   7.291 -11.398  1.00  0.00    -0.339 N 
ATOM     17  H5  UNL     1       0.520   6.672 -11.180  1.00  0.00     0.167 HD
HETATM   18  C20 UNL     1      -0.635   8.097 -10.417  1.00  0.00     0.134 A 
ENDROOT
BRANCH   6  19
HETATM   19  N2  UNL     1      -3.210   7.467 -16.870  1.00  0.00    -0.354 N 
ATOM     20  H2  UNL     1      -4.015   7.224 -16.293  1.00  0.00     0.166 HD
BRANCH  19  21
HETATM   21  C8  UNL     1      -3.560   8.470 -17.699  1.00  0.00     0.032 A 
HETATM   22  C9  UNL     1      -2.993   9.732 -17.577  1.00  0.00     0.029 A 
HETATM   23  C10 UNL     1      -3.298  10.780 -18.398  1.00  0.00     0.002 A 
HETATM   24  C11 UNL     1      -4.206  10.613 -19.403  1.00  0.00     0.000 A 
HETATM   25  C12 UNL     1      -4.799   9.378 -19.568  1.00  0.00     0.002 A 
HETATM   26  C13 UNL     1      -4.487   8.318 -18.734  1.00  0.00     0.029 A 
ENDBRANCH  19  21
ENDBRANCH   6  19
BRANCH   1  27
HETATM   27  N1  UNL     1      -1.978   9.772  -9.493  1.00  0.00    -0.319 N 
HETATM   28  C2  UNL     1      -2.676   9.515  -8.332  1.00  0.00     0.218 C 
HETATM   29  C1  UNL     1      -4.164   9.680  -8.172  1.00  0.00     0.117 C 
HETATM   30  O1  UNL     1      -2.053   9.109  -7.301  1.00  0.00    -0.274 OA
ATOM     31  H1  UNL     1      -1.667  10.738  -9.589  1.00  0.00     0.169 HD
ENDBRANCH   1  27
BRANCH  18  32
HETATM   32  N6  UNL     1       0.009   8.032  -9.280  1.00  0.00    -0.383 N 
ATOM     33  H62 UNL     1      -0.519   7.805  -8.436  1.00  0.00     0.157 HD
ATOM     34  H61 UNL     1       1.010   8.219  -9.334  1.00  0.00     0.157 HD
ENDBRANCH  18  32
TORSDOF 4
ENDMDL
MODEL 4
REMARK VINA RESULT: -8.973699998      1.868      2.281
REMARK  4 active torsions:
REMARK  status: ('A' for Active; 'I' for Inactive)
REMARK       I    between atoms: C2_2  and  N1_4 
REMARK    1  A    between atoms: N1_4  and  C3_6 
REMARK    2  A    between atoms: C7_11  and  N2_12 
REMARK    3  A    between atoms: N2_12  and  C8_14 
REMARK    4  A    between atoms: C20_31  and  N6_32 
ROOT
HETATM    1  C3  UNL     1       0.098   8.256 -11.211  1.00  0.00     0.121 A 
HETATM    2  S1  UNL     1      -0.921   8.726 -12.525  1.00  0.00    -0.066 SA
HETATM    3  C4  UNL     1      -1.086   7.504 -13.690  1.00  0.00     0.035 A 
HETATM    4  C5  UNL     1      -1.858   7.665 -14.832  1.00  0.00     0.037 A 
HETATM    5  C6  UNL     1      -1.972   6.645 -15.765  1.00  0.00     0.020 A 
HETATM    6  C7  UNL     1      -2.768   6.849 -16.912  1.00  0.00     0.067 A 
HETATM    7  C14 UNL     1      -2.806   5.777 -17.761  1.00  0.00     0.087 A 
HETATM    8  C15 UNL     1      -3.578   5.856 -18.960  1.00  0.00     0.103 C 
HETATM    9  N3  UNL     1      -4.183   5.892 -19.922  1.00  0.00    -0.191 NA
HETATM   10  C16 UNL     1      -2.110   4.582 -17.503  1.00  0.00     0.113 A 
HETATM   11  N4  UNL     1      -1.380   4.488 -16.383  1.00  0.00    -0.364 N 
ATOM     12  H4  UNL     1      -0.872   3.624 -16.193  1.00  0.00     0.165 HD
HETATM   13  C17 UNL     1      -1.297   5.495 -15.509  1.00  0.00     0.046 A 
HETATM   14  C18 UNL     1      -0.517   5.299 -14.381  1.00  0.00     0.061 A 
HETATM   15  C19 UNL     1      -0.407   6.340 -13.437  1.00  0.00     0.053 A 
HETATM   16  N5  UNL     1       0.343   6.152 -12.355  1.00  0.00    -0.339 N 
ATOM     17  H5  UNL     1       0.795   5.240 -12.289  1.00  0.00     0.167 HD
HETATM   18  C20 UNL     1       0.586   6.979 -11.350  1.00  0.00     0.134 A 
ENDROOT
BRANCH   6  19
HETATM   19  N2  UNL     1      -3.336   7.942 -17.038  1.00  0.00    -0.354 N 
ATOM     20  H2  UNL     1      -4.236   7.899 -16.559  1.00  0.00     0.166 HD
BRANCH  19  21
HETATM   21  C8  UNL     1      -3.194   9.167 -17.580  1.00  0.00     0.032 A 
HETATM   22  C9  UNL     1      -3.119   9.337 -18.956  1.00  0.00     0.029 A 
HETATM   23  C10 UNL     1      -2.990  10.555 -19.561  1.00  0.00     0.002 A 
HETATM   24  C11 UNL     1      -2.928  11.687 -18.802  1.00  0.00     0.000 A 
HETATM   25  C12 UNL     1      -2.998  11.573 -17.428  1.00  0.00     0.002 A 
HETATM   26  C13 UNL     1      -3.128  10.337 -16.819  1.00  0.00     0.029 A 
ENDBRANCH  19  21
ENDBRANCH   6  19
BRANCH   1  27
HETATM   27  N1  UNL     1       0.361   9.015 -10.224  1.00  0.00    -0.319 N 
HETATM   28  C2  UNL     1      -0.357   9.315  -9.087  1.00  0.00     0.218 C 
HETATM   29  C1  UNL     1      -1.307  10.477  -8.955  1.00  0.00     0.117 C 
HETATM   30  O1  UNL     1      -0.236   8.583  -8.055  1.00  0.00    -0.274 OA
ATOM     31  H1  UNL     1       1.264   9.485 -10.286  1.00  0.00     0.169 HD
ENDBRANCH   1  27
BRANCH  18  32
HETATM   32  N6  UNL     1       1.366   6.569 -10.382  1.00  0.00    -0.383 N 
ATOM     33  H62 UNL     1       1.003   5.871  -9.731  1.00  0.00     0.157 HD
ATOM     34  H61 UNL     1       2.294   6.992 -10.360  1.00  0.00     0.157 HD
ENDBRANCH  18  32
TORSDOF 4
ENDMDL
MODEL 5
REMARK VINA RESULT: -8.495209760      0.878      1.256
REMARK  4 active torsions:
REMARK  status: ('A' for Active; 'I' for Inactive)
REMARK       I    between atoms: C2_2  and  N1_4 
REMARK    1  A    between atoms: N1_4  and  C3_6 
REMARK    2  A    between atoms: C7_11  and  N2_12 
REMARK    3  A    between atoms: N2_12  and  C8_14 
REMARK    4  A    between atoms: C20_31  and  N6_32 
ROOT
HETATM    1  C3  UNL     1      -2.012   8.849  -9.098  1.00  0.00     0.121 A 
HETATM    2  S1  UNL     1      -2.680   8.993 -10.685  1.00  0.00    -0.066 SA
HETATM    3  C4  UNL     1      -1.904   7.991 -11.812  1.00  0.00     0.035 A 
HETATM    4  C5  UNL     1      -2.277   7.945 -13.148  1.00  0.00     0.037 A 
HETATM    5  C6  UNL     1      -1.621   7.114 -14.043  1.00  0.00     0.020 A 
HETATM    6  C7  UNL     1      -2.031   7.098 -15.393  1.00  0.00     0.067 A 
HETATM    7  C14 UNL     1      -1.314   6.241 -16.182  1.00  0.00     0.087 A 
HETATM    8  C15 UNL     1      -1.631   6.132 -17.571  1.00  0.00     0.103 C 
HETATM    9  N3  UNL     1      -1.862   6.025 -18.679  1.00  0.00    -0.191 NA
HETATM   10  C16 UNL     1      -0.263   5.451 -15.683  1.00  0.00     0.113 A 
HETATM   11  N4  UNL     1       0.051   5.540 -14.383  1.00  0.00    -0.364 N 
ATOM     12  H4  UNL     1       0.813   4.970 -14.016  1.00  0.00     0.165 HD
HETATM   13  C17 UNL     1      -0.607   6.355 -13.553  1.00  0.00     0.046 A 
HETATM   14  C18 UNL     1      -0.208   6.374 -12.226  1.00  0.00     0.061 A 
HETATM   15  C19 UNL     1      -0.879   7.221 -11.322  1.00  0.00     0.053 A 
HETATM   16  N5  UNL     1      -0.496   7.240 -10.049  1.00  0.00    -0.339 N 
ATOM     17  H5  UNL     1       0.280   6.620  -9.817  1.00  0.00     0.167 HD
HETATM   18  C20 UNL     1      -0.976   7.948  -9.039  1.00  0.00     0.134 A 
ENDROOT
BRANCH   6  19
HETATM   19  N2  UNL     1      -2.969   7.835 -15.724  1.00  0.00    -0.354 N 
ATOM     20  H2  UNL     1      -3.754   7.668 -15.094  1.00  0.00     0.166 HD
BRANCH  19  21
HETATM   21  C8  UNL     1      -3.326   8.778 -16.617  1.00  0.00     0.032 A 
HETATM   22  C9  UNL     1      -4.245   8.504 -17.620  1.00  0.00     0.029 A 
HETATM   23  C10 UNL     1      -4.655   9.425 -18.542  1.00  0.00     0.002 A 
HETATM   24  C11 UNL     1      -4.152  10.693 -18.505  1.00  0.00     0.000 A 
HETATM   25  C12 UNL     1      -3.233  11.018 -17.527  1.00  0.00     0.002 A 
HETATM   26  C13 UNL     1      -2.821  10.082 -16.595  1.00  0.00     0.029 A 
ENDBRANCH  19  21
ENDBRANCH   6  19
BRANCH   1  27
HETATM   27  N1  UNL     1      -2.439   9.508  -8.097  1.00  0.00    -0.319 N 
HETATM   28  C2  UNL     1      -3.421  10.470  -7.990  1.00  0.00     0.218 C 
HETATM   29  C1  UNL     1      -3.184  11.953  -8.104  1.00  0.00     0.117 C 
HETATM   30  O1  UNL     1      -4.625  10.119  -7.779  1.00  0.00    -0.274 OA
ATOM     31  H1  UNL     1      -1.973   9.286  -7.218  1.00  0.00     0.169 HD
ENDBRANCH   1  27
BRANCH  18  32
HETATM   32  N6  UNL     1      -0.431   7.798  -7.860  1.00  0.00    -0.383 N 
ATOM     33  H62 UNL     1      -1.034   7.550  -7.075  1.00  0.00     0.157 HD
ATOM     34  H61 UNL     1       0.579   7.944  -7.824  1.00  0.00     0.157 HD
ENDBRANCH  18  32
TORSDOF 4
ENDMDL
