MODEL 1
REMARK VINA RESULT: -9.957977553      0.000      0.000
REMARK  2 active torsions:
REMARK  status: ('A' for Active; 'I' for Inactive)
REMARK       I    between atoms: N2_7  and  C5_9 
REMARK       I    between atoms: C5_9  and  N3_11 
REMARK    1  A    between atoms: N3_11  and  C6_13 
REMARK    2  A    between atoms: C12_23  and  C13_24 
ROOT
HETATM    1  C6  UNL     1      -2.568   7.530  -9.873  1.00  0.00     0.118 A 
HETATM    2  C7  UNL     1      -3.338   7.197  -8.782  1.00  0.00     0.077 A 
HETATM    3  C8  UNL     1      -4.597   6.602  -8.921  1.00  0.00     0.074 A 
HETATM    4  N4  UNL     1      -5.357   6.277  -7.765  1.00  0.00    -0.101 NA
HETATM    5  C9  UNL     1      -5.095   6.335 -10.158  1.00  0.00     0.113 A 
HETATM    6  C10 UNL     1      -6.387   5.724 -10.310  1.00  0.00     0.105 C 
HETATM    7  N5  UNL     1      -7.443   5.245 -10.432  1.00  0.00    -0.191 NA
HETATM    8  C11 UNL     1      -4.311   6.675 -11.243  1.00  0.00     0.136 A 
HETATM    9  N6  UNL     1      -4.573   6.517 -12.561  1.00  0.00    -0.339 N 
ATOM     10  H6  UNL     1      -5.422   6.108 -12.951  1.00  0.00     0.167 HD
HETATM   11  C12 UNL     1      -3.534   6.986 -13.272  1.00  0.00     0.060 A 
HETATM   12  C19 UNL     1      -2.613   7.443 -12.348  1.00  0.00     0.130 A 
HETATM   13  N7  UNL     1      -3.104   7.246 -11.097  1.00  0.00    -0.290 N 
ENDROOT
BRANCH   1  14
HETATM   14  N3  UNL     1      -1.427   8.067  -9.801  1.00  0.00    -0.294 N 
HETATM   15  C5  UNL     1      -1.074   9.251  -9.127  1.00  0.00     0.327 C 
HETATM   16  N2  UNL     1      -0.494   9.295  -7.849  1.00  0.00    -0.288 N 
HETATM   17  O1  UNL     1      -1.293  10.367  -9.715  1.00  0.00    -0.247 OA
HETATM   18  C4  UNL     1      -1.010  10.016  -6.899  1.00  0.00     0.152 A 
ATOM     19  H2  UNL     1       0.348   8.751  -7.663  1.00  0.00     0.172 HD
HETATM   20  N1  UNL     1      -2.082  10.801  -6.885  1.00  0.00    -0.345 N 
HETATM   21  S1  UNL     1      -0.421  10.178  -5.279  1.00  0.00    -0.058 SA
HETATM   22  C3  UNL     1      -2.399  11.430  -5.793  1.00  0.00     0.104 A 
ATOM     23  H1  UNL     1      -2.651  10.910  -7.725  1.00  0.00     0.167 HD
HETATM   24  C2  UNL     1      -1.606  11.254  -4.693  1.00  0.00    -0.003 A 
HETATM   25  C1  UNL     1      -1.758  11.864  -3.322  1.00  0.00     0.058 C 
ATOM     26  H3  UNL     1      -0.672   7.585 -10.288  1.00  0.00     0.172 HD
ENDBRANCH   1  14
BRANCH  11  27
HETATM   27  C13 UNL     1      -3.400   7.010 -14.734  1.00  0.00    -0.008 A 
HETATM   28  C14 UNL     1      -3.427   8.222 -15.376  1.00  0.00     0.014 A 
HETATM   29  C15 UNL     1      -3.309   8.349 -16.746  1.00  0.00     0.001 A 
HETATM   30  C16 UNL     1      -3.161   7.205 -17.479  1.00  0.00     0.000 A 
HETATM   31  C17 UNL     1      -3.132   5.973 -16.850  1.00  0.00     0.001 A 
HETATM   32  C18 UNL     1      -3.251   5.865 -15.473  1.00  0.00     0.014 A 
ENDBRANCH  11  27
TORSDOF 2
ENDMDL
MODEL 2
REMARK VINA RESULT: -9.850309884      2.967      8.280
REMARK  2 active torsions:
REMARK  status: ('A' for Active; 'I' for Inactive)
REMARK       I    between atoms: N2_7  and  C5_9 
REMARK       I    between atoms: C5_9  and  N3_11 
REMARK    1  A    between atoms: N3_11  and  C6_13 
REMARK    2  A    between atoms: C12_23  and  C13_24 
ROOT
HETATM    1  C6  UNL     1      -2.956   8.536 -11.370  1.00  0.00     0.118 A 
HETATM    2  C7  UNL     1      -3.870   7.634 -11.865  1.00  0.00     0.077 A 
HETATM    3  C8  UNL     1      -4.705   6.892 -11.022  1.00  0.00     0.074 A 
HETATM    4  N4  UNL     1      -5.634   5.971 -11.578  1.00  0.00    -0.101 NA
HETATM    5  C9  UNL     1      -4.629   7.049  -9.673  1.00  0.00     0.113 A 
HETATM    6  C10 UNL     1      -5.482   6.291  -8.799  1.00  0.00     0.105 C 
HETATM    7  N5  UNL     1      -6.163   5.662  -8.092  1.00  0.00    -0.191 NA
HETATM    8  C11 UNL     1      -3.706   7.956  -9.192  1.00  0.00     0.136 A 
HETATM    9  N6  UNL     1      -3.437   8.293  -7.910  1.00  0.00    -0.339 N 
ATOM     10  H6  UNL     1      -3.898   7.905  -7.086  1.00  0.00     0.167 HD
HETATM   11  C12 UNL     1      -2.465   9.220  -7.896  1.00  0.00     0.060 A 
HETATM   12  C19 UNL     1      -2.137   9.449  -9.220  1.00  0.00     0.130 A 
HETATM   13  N7  UNL     1      -2.911   8.663 -10.012  1.00  0.00    -0.290 N 
ENDROOT
BRANCH   1  14
HETATM   14  N3  UNL     1      -2.182   9.229 -12.089  1.00  0.00    -0.294 N 
HETATM   15  C5  UNL     1      -1.734   8.947 -13.393  1.00  0.00     0.327 C 
HETATM   16  N2  UNL     1      -2.296   9.487 -14.560  1.00  0.00    -0.288 N 
HETATM   17  O1  UNL     1      -0.746   8.145 -13.530  1.00  0.00    -0.247 OA
HETATM   18  C4  UNL     1      -2.689   8.724 -15.536  1.00  0.00     0.152 A 
ATOM     19  H2  UNL     1      -2.399  10.499 -14.644  1.00  0.00     0.172 HD
HETATM   20  N1  UNL     1      -2.666   7.402 -15.671  1.00  0.00    -0.345 N 
HETATM   21  S1  UNL     1      -3.398   9.229 -17.032  1.00  0.00    -0.058 SA
HETATM   22  C3  UNL     1      -3.124   6.864 -16.762  1.00  0.00     0.104 A 
ATOM     23  H1  UNL     1      -2.290   6.815 -14.926  1.00  0.00     0.167 HD
HETATM   24  C2  UNL     1      -3.616   7.691 -17.733  1.00  0.00    -0.003 A 
HETATM   25  C1  UNL     1      -4.198   7.318 -19.073  1.00  0.00     0.058 C 
ATOM     26  H3  UNL     1      -1.842  10.097 -11.674  1.00  0.00     0.172 HD
ENDBRANCH   1  14
BRANCH  11  27
HETATM   27  C13 UNL     1      -1.869   9.861  -6.718  1.00  0.00    -0.008 A 
HETATM   28  C14 UNL     1      -2.550  10.886  -6.112  1.00  0.00     0.014 A 
HETATM   29  C15 UNL     1      -2.075  11.551  -5.000  1.00  0.00     0.001 A 
HETATM   30  C16 UNL     1      -0.867  11.158  -4.493  1.00  0.00     0.000 A 
HETATM   31  C17 UNL     1      -0.164  10.127  -5.090  1.00  0.00     0.001 A 
HETATM   32  C18 UNL     1      -0.658   9.470  -6.206  1.00  0.00     0.014 A 
ENDBRANCH  11  27
TORSDOF 2
ENDMDL
MODEL 3
REMARK VINA RESULT: -9.650775033      2.947      8.316
REMARK  2 active torsions:
REMARK  status: ('A' for Active; 'I' for Inactive)
REMARK       I    between atoms: N2_7  and  C5_9 
REMARK       I    between atoms: C5_9  and  N3_11 
REMARK    1  A    between atoms: N3_11  and  C6_13 
REMARK    2  A    between atoms: C12_23  and  C13_24 
ROOT
HETATM    1  C6  UNL     1      -2.925   7.814 -11.257  1.00  0.00     0.118 A 
HETATM    2  C7  UNL     1      -3.883   6.922 -11.682  1.00  0.00     0.077 A 
HETATM    3  C8  UNL     1      -4.826   6.376 -10.804  1.00  0.00     0.074 A 
HETATM    4  N4  UNL     1      -5.796   5.458 -11.289  1.00  0.00    -0.101 NA
HETATM    5  C9  UNL     1      -4.816   6.722  -9.489  1.00  0.00     0.113 A 
HETATM    6  C10 UNL     1      -5.781   6.167  -8.580  1.00  0.00     0.105 C 
HETATM    7  N5  UNL     1      -6.553   5.702  -7.840  1.00  0.00    -0.191 NA
HETATM    8  C11 UNL     1      -3.849   7.618  -9.077  1.00  0.00     0.136 A 
HETATM    9  N6  UNL     1      -3.628   8.116  -7.839  1.00  0.00    -0.339 N 
ATOM     10  H6  UNL     1      -4.168   7.890  -7.004  1.00  0.00     0.167 HD
HETATM   11  C12 UNL     1      -2.582   8.959  -7.888  1.00  0.00     0.060 A 
HETATM   12  C19 UNL     1      -2.159   8.967  -9.204  1.00  0.00     0.130 A 
HETATM   13  N7  UNL     1      -2.950   8.135  -9.930  1.00  0.00    -0.290 N 
ENDROOT
BRANCH   1  14
HETATM   14  N3  UNL     1      -2.054   8.334 -12.010  1.00  0.00    -0.294 N 
HETATM   15  C5  UNL     1      -1.572   7.841 -13.237  1.00  0.00     0.327 C 
HETATM   16  N2  UNL     1      -2.022   8.269 -14.496  1.00  0.00    -0.288 N 
HETATM   17  O1  UNL     1      -0.659   6.944 -13.209  1.00  0.00    -0.247 OA
HETATM   18  C4  UNL     1      -2.437   7.419 -15.388  1.00  0.00     0.152 A 
ATOM     19  H2  UNL     1      -2.022   9.265 -14.715  1.00  0.00     0.172 HD
HETATM   20  N1  UNL     1      -2.534   6.094 -15.351  1.00  0.00    -0.345 N 
HETATM   21  S1  UNL     1      -3.020   7.781 -16.977  1.00  0.00    -0.058 SA
HETATM   22  C3  UNL     1      -2.988   5.458 -16.389  1.00  0.00     0.104 A 
ATOM     23  H1  UNL     1      -2.253   5.581 -14.515  1.00  0.00     0.167 HD
HETATM   24  C2  UNL     1      -3.350   6.189 -17.487  1.00  0.00    -0.003 A 
HETATM   25  C1  UNL     1      -3.898   5.693 -18.802  1.00  0.00     0.058 C 
ATOM     26  H3  UNL     1      -1.653   9.216 -11.690  1.00  0.00     0.172 HD
ENDBRANCH   1  14
BRANCH  11  27
HETATM   27  C13 UNL     1      -2.004   9.718  -6.773  1.00  0.00    -0.008 A 
HETATM   28  C14 UNL     1      -0.883   9.226  -6.154  1.00  0.00     0.014 A 
HETATM   29  C15 UNL     1      -0.264   9.865  -5.098  1.00  0.00     0.001 A 
HETATM   30  C16 UNL     1      -0.810  11.041  -4.661  1.00  0.00     0.000 A 
HETATM   31  C17 UNL     1      -1.941  11.554  -5.271  1.00  0.00     0.001 A 
HETATM   32  C18 UNL     1      -2.547  10.897  -6.331  1.00  0.00     0.014 A 
ENDBRANCH  11  27
TORSDOF 2
ENDMDL
MODEL 4
REMARK VINA RESULT: -9.486699609      3.549      8.651
REMARK  2 active torsions:
REMARK  status: ('A' for Active; 'I' for Inactive)
REMARK       I    between atoms: N2_7  and  C5_9 
REMARK       I    between atoms: C5_9  and  N3_11 
REMARK    1  A    between atoms: N3_11  and  C6_13 
REMARK    2  A    between atoms: C12_23  and  C13_24 
ROOT
HETATM    1  C6  UNL     1      -2.065   7.313 -12.027  1.00  0.00     0.118 A 
HETATM    2  C7  UNL     1      -1.159   6.607 -12.785  1.00  0.00     0.077 A 
HETATM    3  C8  UNL     1       0.184   6.491 -12.412  1.00  0.00     0.074 A 
HETATM    4  N4  UNL     1       1.085   5.752 -13.226  1.00  0.00    -0.101 NA
HETATM    5  C9  UNL     1       0.631   7.085 -11.273  1.00  0.00     0.113 A 
HETATM    6  C10 UNL     1       2.010   6.973 -10.881  1.00  0.00     0.105 C 
HETATM    7  N5  UNL     1       3.132   6.895 -10.575  1.00  0.00    -0.191 NA
HETATM    8  C11 UNL     1      -0.289   7.791 -10.523  1.00  0.00     0.136 A 
HETATM    9  N6  UNL     1      -0.102   8.464  -9.365  1.00  0.00    -0.339 N 
ATOM     10  H6  UNL     1       0.783   8.547  -8.864  1.00  0.00     0.167 HD
HETATM   11  C12 UNL     1      -1.270   9.006  -8.981  1.00  0.00     0.060 A 
HETATM   12  C19 UNL     1      -2.194   8.644  -9.944  1.00  0.00     0.130 A 
HETATM   13  N7  UNL     1      -1.577   7.894 -10.892  1.00  0.00    -0.290 N 
ENDROOT
BRANCH   1  14
HETATM   14  N3  UNL     1      -3.287   7.445 -12.320  1.00  0.00    -0.294 N 
HETATM   15  C5  UNL     1      -3.863   8.368 -13.213  1.00  0.00     0.327 C 
HETATM   16  N2  UNL     1      -4.213   8.076 -14.541  1.00  0.00    -0.288 N 
HETATM   17  O1  UNL     1      -4.087   9.555 -12.791  1.00  0.00    -0.247 OA
HETATM   18  C4  UNL     1      -3.788   8.808 -15.528  1.00  0.00     0.152 A 
ATOM     19  H2  UNL     1      -4.812   7.273 -14.735  1.00  0.00     0.172 HD
HETATM   20  N1  UNL     1      -3.013   9.887 -15.540  1.00  0.00    -0.345 N 
HETATM   21  S1  UNL     1      -4.126   8.584 -17.211  1.00  0.00    -0.058 SA
HETATM   22  C3  UNL     1      -2.724  10.452 -16.675  1.00  0.00     0.104 A 
ATOM     23  H1  UNL     1      -2.648  10.269 -14.668  1.00  0.00     0.167 HD
HETATM   24  C2  UNL     1      -3.238   9.906 -17.818  1.00  0.00    -0.003 A 
HETATM   25  C1  UNL     1      -3.054  10.369 -19.241  1.00  0.00     0.058 C 
ATOM     26  H3  UNL     1      -3.932   6.807 -11.855  1.00  0.00     0.172 HD
ENDBRANCH   1  14
BRANCH  11  27
HETATM   27  C13 UNL     1      -1.518   9.816  -7.782  1.00  0.00    -0.008 A 
HETATM   28  C14 UNL     1      -0.870   9.486  -6.619  1.00  0.00     0.014 A 
HETATM   29  C15 UNL     1      -1.036  10.185  -5.440  1.00  0.00     0.001 A 
HETATM   30  C16 UNL     1      -1.890  11.253  -5.452  1.00  0.00     0.000 A 
HETATM   31  C17 UNL     1      -2.553  11.603  -6.614  1.00  0.00     0.001 A 
HETATM   32  C18 UNL     1      -2.373  10.888  -7.788  1.00  0.00     0.014 A 
ENDBRANCH  11  27
TORSDOF 2
ENDMDL
MODEL 5
REMARK VINA RESULT: -8.707178172      2.781      4.638
REMARK  2 active torsions:
REMARK  status: ('A' for Active; 'I' for Inactive)
REMARK       I    between atoms: N2_7  and  C5_9 
REMARK       I    between atoms: C5_9  and  N3_11 
REMARK    1  A    between atoms: N3_11  and  C6_13 
REMARK    2  A    between atoms: C12_23  and  C13_24 
ROOT
HETATM    1  C6  UNL     1      -2.672   8.043 -12.926  1.00  0.00     0.118 A 
HETATM    2  C7  UNL     1      -1.735   7.189 -12.390  1.00  0.00     0.077 A 
HETATM    3  C8  UNL     1      -0.870   6.443 -13.198  1.00  0.00     0.074 A 
HETATM    4  N4  UNL     1       0.082   5.572 -12.600  1.00  0.00    -0.101 NA
HETATM    5  C9  UNL     1      -0.937   6.548 -14.552  1.00  0.00     0.113 A 
HETATM    6  C10 UNL     1      -0.052   5.785 -15.390  1.00  0.00     0.105 C 
HETATM    7  N5  UNL     1       0.655   5.152 -16.067  1.00  0.00    -0.191 NA
HETATM    8  C11 UNL     1      -1.881   7.409 -15.074  1.00  0.00     0.136 A 
HETATM    9  N6  UNL     1      -2.148   7.690 -16.370  1.00  0.00    -0.339 N 
ATOM     10  H6  UNL     1      -1.667   7.287 -17.175  1.00  0.00     0.167 HD
HETATM   11  C12 UNL     1      -3.148   8.585 -16.427  1.00  0.00     0.060 A 
HETATM   12  C19 UNL     1      -3.496   8.852 -15.116  1.00  0.00     0.130 A 
HETATM   13  N7  UNL     1      -2.707   8.120 -14.288  1.00  0.00    -0.290 N 
ENDROOT
BRANCH   1  14
HETATM   14  N3  UNL     1      -3.474   8.738 -12.240  1.00  0.00    -0.294 N 
HETATM   15  C5  UNL     1      -3.650   8.722 -10.844  1.00  0.00     0.327 C 
HETATM   16  N2  UNL     1      -3.067   9.643  -9.960  1.00  0.00    -0.288 N 
HETATM   17  O1  UNL     1      -4.394   7.810 -10.341  1.00  0.00    -0.247 OA
HETATM   18  C4  UNL     1      -2.370   9.248  -8.936  1.00  0.00     0.152 A 
ATOM     19  H2  UNL     1      -3.192  10.643 -10.124  1.00  0.00     0.172 HD
HETATM   20  N1  UNL     1      -2.065   8.027  -8.510  1.00  0.00    -0.345 N 
HETATM   21  S1  UNL     1      -1.590  10.249  -7.759  1.00  0.00    -0.058 SA
HETATM   22  C3  UNL     1      -1.340   7.887  -7.440  1.00  0.00     0.104 A 
ATOM     23  H1  UNL     1      -2.397   7.207  -9.018  1.00  0.00     0.167 HD
HETATM   24  C2  UNL     1      -0.920   9.015  -6.792  1.00  0.00    -0.003 A 
HETATM   25  C1  UNL     1      -0.080   9.120  -5.544  1.00  0.00     0.058 C 
ATOM     26  H3  UNL     1      -4.063   9.388 -12.761  1.00  0.00     0.172 HD
ENDBRANCH   1  14
BRANCH  11  27
HETATM   27  C13 UNL     1      -3.751   9.164 -17.633  1.00  0.00    -0.008 A 
HETATM   28  C14 UNL     1      -2.954   9.883 -18.487  1.00  0.00     0.014 A 
HETATM   29  C15 UNL     1      -3.425  10.466 -19.646  1.00  0.00     0.001 A 
HETATM   30  C16 UNL     1      -4.751  10.310 -19.940  1.00  0.00     0.000 A 
HETATM   31  C17 UNL     1      -5.573   9.589 -19.093  1.00  0.00     0.001 A 
HETATM   32  C18 UNL     1      -5.080   9.010 -17.933  1.00  0.00     0.014 A 
ENDBRANCH  11  27
TORSDOF 2
ENDMDL
