MODEL 1
REMARK VINA RESULT: -10.019823044      0.000      0.000
REMARK  5 active torsions:
REMARK  status: ('A' for Active; 'I' for Inactive)
REMARK    1  A    between atoms: C2_2  and  C3_4 
REMARK    2  A    between atoms: C6_7  and  N1_8 
REMARK       I    between atoms: N1_8  and  C7_10 
REMARK       I    between atoms: C7_10  and  N2_12 
REMARK    3  A    between atoms: N2_12  and  C8_14 
REMARK    4  A    between atoms: C9_19  and  C10_20 
REMARK    5  A    between atoms: N7_31  and  C18_32 
ROOT
HETATM    1  C8  UNL     1      -3.790   8.445 -10.946  1.00  0.00     0.154 A 
HETATM    2  N3  UNL     1      -4.311   7.208 -10.963  1.00  0.00    -0.283 N 
ATOM      3  H3  UNL     1      -4.705   6.760 -11.790  1.00  0.00     0.188 HD
HETATM    4  N4  UNL     1      -4.247   6.649  -9.772  1.00  0.00    -0.296 N 
ATOM      5  H4  UNL     1      -4.577   5.714  -9.530  1.00  0.00     0.187 HD
HETATM    6  C9  UNL     1      -3.678   7.516  -8.941  1.00  0.00     0.093 A 
HETATM    7  C18 UNL     1      -3.377   8.653  -9.633  1.00  0.00     0.114 A 
ENDROOT
BRANCH   1   8
HETATM    8  N2  UNL     1      -3.667   9.310 -11.899  1.00  0.00    -0.291 N 
HETATM    9  C7  UNL     1      -3.946   8.800 -13.242  1.00  0.00     0.326 C 
HETATM   10  N1  UNL     1      -2.892   8.824 -14.165  1.00  0.00    -0.309 N 
HETATM   11  O2  UNL     1      -5.108   8.386 -13.451  1.00  0.00    -0.247 OA
ATOM     12  H1  UNL     1      -2.004   9.197 -13.828  1.00  0.00     0.170 HD
ATOM     13  H2  UNL     1      -3.395  10.278 -11.727  1.00  0.00     0.172 HD
BRANCH  10  14
HETATM   14  C6  UNL     1      -2.919   8.393 -15.502  1.00  0.00     0.036 A 
HETATM   15  C5  UNL     1      -2.753   7.107 -15.893  1.00  0.00     0.030 A 
HETATM   16  C4  UNL     1      -2.791   6.743 -17.242  1.00  0.00     0.017 A 
HETATM   17  C3  UNL     1      -2.995   7.664 -18.229  1.00  0.00     0.009 A 
HETATM   18  C20 UNL     1      -3.162   8.973 -17.817  1.00  0.00     0.017 A 
HETATM   19  C19 UNL     1      -3.127   9.340 -16.497  1.00  0.00     0.030 A 
BRANCH  17  20
HETATM   20  C2  UNL     1      -3.033   7.285 -19.631  1.00  0.00     0.155 C 
HETATM   21  C1  UNL     1      -4.140   6.425 -20.111  1.00  0.00     0.096 C 
HETATM   22  O1  UNL     1      -2.144   7.684 -20.409  1.00  0.00    -0.293 OA
ENDBRANCH  17  20
ENDBRANCH  10  14
ENDBRANCH   1   8
BRANCH   7  23
HETATM   23  N7  UNL     1      -2.791   9.691  -9.024  1.00  0.00    -0.315 N 
HETATM   24  C14 UNL     1      -1.456   9.841  -9.039  1.00  0.00     0.068 A 
HETATM   25  C13 UNL     1      -0.646   8.929  -9.685  1.00  0.00     0.089 A 
HETATM   26  C15 UNL     1      -1.124  11.000  -8.333  1.00  0.00     0.034 A 
HETATM   27  C10 UNL     1      -1.241   7.858 -10.315  1.00  0.00     0.042 A 
HETATM   28  N6  UNL     1       0.666   8.788  -9.884  1.00  0.00    -0.296 N 
HETATM   29  C11 UNL     1      -0.241   7.089 -10.885  1.00  0.00     0.126 A 
HETATM   30  N5  UNL     1       0.926   7.701 -10.594  1.00  0.00    -0.306 N 
HETATM   31  C12 UNL     1       2.231   7.220 -11.007  1.00  0.00     0.177 C 
ATOM     32  H6  UNL     1       1.375   9.432  -9.535  1.00  0.00     0.187 HD
HETATM   33  C16 UNL     1      -2.342  11.518  -7.903  1.00  0.00     0.020 A 
HETATM   34  C17 UNL     1      -3.363  10.707  -8.333  1.00  0.00     0.098 A 
ENDBRANCH   7  23
TORSDOF 5
ENDMDL
MODEL 2
REMARK VINA RESULT: -9.931184784      3.153      8.181
REMARK  5 active torsions:
REMARK  status: ('A' for Active; 'I' for Inactive)
REMARK    1  A    between atoms: C2_2  and  C3_4 
REMARK    2  A    between atoms: C6_7  and  N1_8 
REMARK       I    between atoms: N1_8  and  C7_10 
REMARK       I    between atoms: C7_10  and  N2_12 
REMARK    3  A    between atoms: N2_12  and  C8_14 
REMARK    4  A    between atoms: C9_19  and  C10_20 
REMARK    5  A    between atoms: N7_31  and  C18_32 
ROOT
HETATM    1  C8  UNL     1      -0.872   6.274 -13.585  1.00  0.00     0.154 A 
HETATM    2  N3  UNL     1      -0.367   5.171 -14.159  1.00  0.00    -0.283 N 
ATOM      3  H3  UNL     1       0.623   5.030 -14.364  1.00  0.00     0.188 HD
HETATM    4  N4  UNL     1      -1.314   4.295 -14.423  1.00  0.00    -0.296 N 
ATOM      5  H4  UNL     1      -1.182   3.382 -14.857  1.00  0.00     0.187 HD
HETATM    6  C9  UNL     1      -2.472   4.811 -14.024  1.00  0.00     0.093 A 
HETATM    7  C18 UNL     1      -2.243   6.047 -13.494  1.00  0.00     0.114 A 
ENDROOT
BRANCH   1   8
HETATM    8  N2  UNL     1      -0.278   7.349 -13.180  1.00  0.00    -0.291 N 
HETATM    9  C7  UNL     1      -0.093   7.449 -11.731  1.00  0.00     0.326 C 
HETATM   10  N1  UNL     1      -0.730   8.514 -11.080  1.00  0.00    -0.309 N 
HETATM   11  O2  UNL     1       0.621   6.572 -11.198  1.00  0.00    -0.247 OA
ATOM     12  H1  UNL     1      -1.278   9.142 -11.668  1.00  0.00     0.170 HD
ATOM     13  H2  UNL     1       0.038   8.075 -13.823  1.00  0.00     0.172 HD
BRANCH  10  14
HETATM   14  C6  UNL     1      -0.700   8.816  -9.708  1.00  0.00     0.036 A 
HETATM   15  C5  UNL     1      -0.952   7.920  -8.723  1.00  0.00     0.030 A 
HETATM   16  C4  UNL     1      -0.904   8.285  -7.375  1.00  0.00     0.017 A 
HETATM   17  C3  UNL     1      -0.604   9.558  -6.985  1.00  0.00     0.009 A 
HETATM   18  C20 UNL     1      -0.350  10.463  -7.999  1.00  0.00     0.017 A 
HETATM   19  C19 UNL     1      -0.393  10.116  -9.324  1.00  0.00     0.030 A 
BRANCH  17  20
HETATM   20  C2  UNL     1      -0.556   9.936  -5.583  1.00  0.00     0.155 C 
HETATM   21  C1  UNL     1      -1.462  11.003  -5.097  1.00  0.00     0.096 C 
HETATM   22  O1  UNL     1       0.238   9.365  -4.811  1.00  0.00    -0.293 OA
ENDBRANCH  17  20
ENDBRANCH  10  14
ENDBRANCH   1   8
BRANCH   7  23
HETATM   23  N7  UNL     1      -3.251   6.786 -13.014  1.00  0.00    -0.315 N 
HETATM   24  C14 UNL     1      -3.906   7.657 -13.799  1.00  0.00     0.068 A 
HETATM   25  C13 UNL     1      -3.561   7.818 -15.126  1.00  0.00     0.089 A 
HETATM   26  C15 UNL     1      -4.900   8.285 -13.043  1.00  0.00     0.034 A 
HETATM   27  C10 UNL     1      -2.525   7.061 -15.627  1.00  0.00     0.042 A 
HETATM   28  N6  UNL     1      -3.991   8.568 -16.142  1.00  0.00    -0.296 N 
HETATM   29  C11 UNL     1      -2.363   7.390 -16.962  1.00  0.00     0.126 A 
HETATM   30  N5  UNL     1      -3.292   8.329 -17.240  1.00  0.00    -0.306 N 
HETATM   31  C12 UNL     1      -3.468   8.951 -18.540  1.00  0.00     0.177 C 
ATOM     32  H6  UNL     1      -4.758   9.237 -16.080  1.00  0.00     0.187 HD
HETATM   33  C16 UNL     1      -4.787   7.730 -11.772  1.00  0.00     0.020 A 
HETATM   34  C17 UNL     1      -3.769   6.808 -11.763  1.00  0.00     0.098 A 
ENDBRANCH   7  23
TORSDOF 5
ENDMDL
MODEL 3
REMARK VINA RESULT: -9.822594269      1.224      1.617
REMARK  5 active torsions:
REMARK  status: ('A' for Active; 'I' for Inactive)
REMARK    1  A    between atoms: C2_2  and  C3_4 
REMARK    2  A    between atoms: C6_7  and  N1_8 
REMARK       I    between atoms: N1_8  and  C7_10 
REMARK       I    between atoms: C7_10  and  N2_12 
REMARK    3  A    between atoms: N2_12  and  C8_14 
REMARK    4  A    between atoms: C9_19  and  C10_20 
REMARK    5  A    between atoms: N7_31  and  C18_32 
ROOT
HETATM    1  C8  UNL     1      -3.848   8.314 -10.418  1.00  0.00     0.154 A 
HETATM    2  N3  UNL     1      -4.377   7.100 -10.197  1.00  0.00    -0.283 N 
ATOM      3  H3  UNL     1      -4.793   6.512 -10.919  1.00  0.00     0.188 HD
HETATM    4  N4  UNL     1      -4.288   6.767  -8.926  1.00  0.00    -0.296 N 
ATOM      5  H4  UNL     1      -4.617   5.896  -8.510  1.00  0.00     0.187 HD
HETATM    6  C9  UNL     1      -3.694   7.766  -8.281  1.00  0.00     0.093 A 
HETATM    7  C18 UNL     1      -3.402   8.754  -9.175  1.00  0.00     0.114 A 
ENDROOT
BRANCH   1   8
HETATM    8  N2  UNL     1      -3.743   8.989 -11.516  1.00  0.00    -0.291 N 
HETATM    9  C7  UNL     1      -3.711   8.186 -12.740  1.00  0.00     0.326 C 
HETATM   10  N1  UNL     1      -2.549   8.260 -13.520  1.00  0.00    -0.309 N 
HETATM   11  O2  UNL     1      -4.728   7.500 -12.984  1.00  0.00    -0.247 OA
ATOM     12  H1  UNL     1      -1.810   8.872 -13.174  1.00  0.00     0.170 HD
ATOM     13  H2  UNL     1      -3.686  10.008 -11.529  1.00  0.00     0.172 HD
BRANCH  10  14
HETATM   14  C6  UNL     1      -2.288   7.588 -14.727  1.00  0.00     0.036 A 
HETATM   15  C5  UNL     1      -2.929   7.837 -15.893  1.00  0.00     0.030 A 
HETATM   16  C4  UNL     1      -2.621   7.131 -17.060  1.00  0.00     0.017 A 
HETATM   17  C3  UNL     1      -1.663   6.159 -17.080  1.00  0.00     0.009 A 
HETATM   18  C20 UNL     1      -1.016   5.915 -15.883  1.00  0.00     0.017 A 
HETATM   19  C19 UNL     1      -1.310   6.601 -14.733  1.00  0.00     0.030 A 
BRANCH  17  20
HETATM   20  C2  UNL     1      -1.344   5.426 -18.293  1.00  0.00     0.155 C 
HETATM   21  C1  UNL     1      -2.104   5.722 -19.530  1.00  0.00     0.096 C 
HETATM   22  O1  UNL     1      -0.443   4.564 -18.282  1.00  0.00    -0.293 OA
ENDBRANCH  17  20
ENDBRANCH  10  14
ENDBRANCH   1   8
BRANCH   7  23
HETATM   23  N7  UNL     1      -2.795   9.880  -8.779  1.00  0.00    -0.315 N 
HETATM   24  C14 UNL     1      -1.475  10.053  -8.954  1.00  0.00     0.068 A 
HETATM   25  C13 UNL     1      -0.702   9.076  -9.548  1.00  0.00     0.089 A 
HETATM   26  C15 UNL     1      -1.115  11.308  -8.453  1.00  0.00     0.034 A 
HETATM   27  C10 UNL     1      -1.318   7.915  -9.959  1.00  0.00     0.042 A 
HETATM   28  N6  UNL     1       0.588   8.936  -9.861  1.00  0.00    -0.296 N 
HETATM   29  C11 UNL     1      -0.354   7.094 -10.518  1.00  0.00     0.126 A 
HETATM   30  N5  UNL     1       0.814   7.765 -10.437  1.00  0.00    -0.306 N 
HETATM   31  C12 UNL     1       2.088   7.258 -10.913  1.00  0.00     0.177 C 
ATOM     32  H6  UNL     1       1.305   9.638  -9.680  1.00  0.00     0.187 HD
HETATM   33  C16 UNL     1      -2.301  11.855  -7.975  1.00  0.00     0.020 A 
HETATM   34  C17 UNL     1      -3.331  10.970  -8.180  1.00  0.00     0.098 A 
ENDBRANCH   7  23
TORSDOF 5
ENDMDL
MODEL 4
REMARK VINA RESULT: -9.510114801      3.109      8.890
REMARK  5 active torsions:
REMARK  status: ('A' for Active; 'I' for Inactive)
REMARK    1  A    between atoms: C2_2  and  C3_4 
REMARK    2  A    between atoms: C6_7  and  N1_8 
REMARK       I    between atoms: N1_8  and  C7_10 
REMARK       I    between atoms: C7_10  and  N2_12 
REMARK    3  A    between atoms: N2_12  and  C8_14 
REMARK    4  A    between atoms: C9_19  and  C10_20 
REMARK    5  A    between atoms: N7_31  and  C18_32 
ROOT
HETATM    1  C8  UNL     1      -2.877   8.446 -12.375  1.00  0.00     0.154 A 
HETATM    2  N3  UNL     1      -4.133   8.902 -12.251  1.00  0.00    -0.283 N 
ATOM      3  H3  UNL     1      -4.406   9.688 -11.661  1.00  0.00     0.188 HD
HETATM    4  N4  UNL     1      -4.968   8.203 -12.992  1.00  0.00    -0.296 N 
ATOM      5  H4  UNL     1      -5.974   8.355 -13.067  1.00  0.00     0.187 HD
HETATM    6  C9  UNL     1      -4.270   7.264 -13.622  1.00  0.00     0.093 A 
HETATM    7  C18 UNL     1      -2.958   7.378 -13.265  1.00  0.00     0.114 A 
ENDROOT
BRANCH   1   8
HETATM    8  N2  UNL     1      -1.783   8.856 -11.820  1.00  0.00    -0.291 N 
HETATM    9  C7  UNL     1      -1.816   8.927 -10.358  1.00  0.00     0.326 C 
HETATM   10  N1  UNL     1      -1.642  10.191  -9.778  1.00  0.00    -0.309 N 
HETATM   11  O2  UNL     1      -1.996   7.849  -9.751  1.00  0.00    -0.247 OA
ATOM     12  H1  UNL     1      -1.506  10.970 -10.423  1.00  0.00     0.170 HD
ATOM     13  H2  UNL     1      -0.957   9.111 -12.362  1.00  0.00     0.172 HD
BRANCH  10  14
HETATM   14  C6  UNL     1      -1.633  10.507  -8.409  1.00  0.00     0.036 A 
HETATM   15  C5  UNL     1      -0.715  10.048  -7.525  1.00  0.00     0.030 A 
HETATM   16  C4  UNL     1      -0.764  10.401  -6.174  1.00  0.00     0.017 A 
HETATM   17  C3  UNL     1      -1.736  11.222  -5.680  1.00  0.00     0.009 A 
HETATM   18  C20 UNL     1      -2.667  11.683  -6.592  1.00  0.00     0.017 A 
HETATM   19  C19 UNL     1      -2.629  11.344  -7.919  1.00  0.00     0.030 A 
BRANCH  17  20
HETATM   20  C2  UNL     1      -1.785  11.588  -4.274  1.00  0.00     0.155 C 
HETATM   21  C1  UNL     1      -2.963  11.186  -3.470  1.00  0.00     0.096 C 
HETATM   22  O1  UNL     1      -0.845  12.228  -3.764  1.00  0.00    -0.293 OA
ENDBRANCH  17  20
ENDBRANCH  10  14
ENDBRANCH   1   8
BRANCH   7  23
HETATM   23  N7  UNL     1      -2.037   6.546 -13.764  1.00  0.00    -0.315 N 
HETATM   24  C14 UNL     1      -1.763   6.523 -15.079  1.00  0.00     0.068 A 
HETATM   25  C13 UNL     1      -2.422   7.359 -15.958  1.00  0.00     0.089 A 
HETATM   26  C15 UNL     1      -0.770   5.569 -15.317  1.00  0.00     0.034 A 
HETATM   27  C10 UNL     1      -3.372   8.220 -15.452  1.00  0.00     0.042 A 
HETATM   28  N6  UNL     1      -2.390   7.582 -17.273  1.00  0.00    -0.296 N 
HETATM   29  C11 UNL     1      -3.893   8.949 -16.507  1.00  0.00     0.126 A 
HETATM   30  N5  UNL     1      -3.257   8.522 -17.618  1.00  0.00    -0.306 N 
HETATM   31  C12 UNL     1      -3.505   9.032 -18.954  1.00  0.00     0.177 C 
ATOM     32  H6  UNL     1      -1.779   7.093 -17.926  1.00  0.00     0.187 HD
HETATM   33  C16 UNL     1      -0.481   5.035 -14.065  1.00  0.00     0.020 A 
HETATM   34  C17 UNL     1      -1.265   5.642 -13.114  1.00  0.00     0.098 A 
ENDBRANCH   7  23
TORSDOF 5
ENDMDL
MODEL 5
REMARK VINA RESULT: -9.469327699      3.364      8.864
REMARK  5 active torsions:
REMARK  status: ('A' for Active; 'I' for Inactive)
REMARK    1  A    between atoms: C2_2  and  C3_4 
REMARK    2  A    between atoms: C6_7  and  N1_8 
REMARK       I    between atoms: N1_8  and  C7_10 
REMARK       I    between atoms: C7_10  and  N2_12 
REMARK    3  A    between atoms: N2_12  and  C8_14 
REMARK    4  A    between atoms: C9_19  and  C10_20 
REMARK    5  A    between atoms: N7_31  and  C18_32 
ROOT
HETATM    1  C8  UNL     1      -1.382   8.586 -12.382  1.00  0.00     0.154 A 
HETATM    2  N3  UNL     1      -1.860   9.813 -12.641  1.00  0.00    -0.283 N 
ATOM      3  H3  UNL     1      -1.768  10.612 -12.013  1.00  0.00     0.188 HD
HETATM    4  N4  UNL     1      -2.462   9.852 -13.812  1.00  0.00    -0.296 N 
ATOM      5  H4  UNL     1      -2.905  10.669 -14.231  1.00  0.00     0.187 HD
HETATM    6  C9  UNL     1      -2.392   8.639 -14.350  1.00  0.00     0.093 A 
HETATM    7  C18 UNL     1      -1.725   7.815 -13.490  1.00  0.00     0.114 A 
ENDROOT
BRANCH   1   8
HETATM    8  N2  UNL     1      -0.736   8.144 -11.353  1.00  0.00    -0.291 N 
HETATM    9  C7  UNL     1      -1.273   8.560 -10.056  1.00  0.00     0.326 C 
HETATM   10  N1  UNL     1      -0.440   9.339  -9.242  1.00  0.00    -0.309 N 
HETATM   11  O2  UNL     1      -2.434   8.181  -9.785  1.00  0.00    -0.247 OA
ATOM     12  H1  UNL     1       0.482   9.559  -9.618  1.00  0.00     0.170 HD
ATOM     13  H2  UNL     1       0.087   7.548 -11.438  1.00  0.00     0.172 HD
BRANCH  10  14
HETATM   14  C6  UNL     1      -0.731   9.852  -7.966  1.00  0.00     0.036 A 
HETATM   15  C5  UNL     1      -0.237   9.349  -6.810  1.00  0.00     0.030 A 
HETATM   16  C4  UNL     1      -0.567   9.907  -5.572  1.00  0.00     0.017 A 
HETATM   17  C3  UNL     1      -1.401  10.982  -5.467  1.00  0.00     0.009 A 
HETATM   18  C20 UNL     1      -1.899  11.485  -6.654  1.00  0.00     0.017 A 
HETATM   19  C19 UNL     1      -1.582  10.947  -7.874  1.00  0.00     0.030 A 
BRANCH  17  20
HETATM   20  C2  UNL     1      -1.743  11.560  -4.179  1.00  0.00     0.155 C 
HETATM   21  C1  UNL     1      -3.059  11.241  -3.577  1.00  0.00     0.096 C 
HETATM   22  O1  UNL     1      -0.935  12.311  -3.599  1.00  0.00    -0.293 OA
ENDBRANCH  17  20
ENDBRANCH  10  14
ENDBRANCH   1   8
BRANCH   7  23
HETATM   23  N7  UNL     1      -1.515   6.529 -13.796  1.00  0.00    -0.315 N 
HETATM   24  C14 UNL     1      -2.371   5.574 -13.396  1.00  0.00     0.068 A 
HETATM   25  C13 UNL     1      -3.494   5.889 -12.658  1.00  0.00     0.089 A 
HETATM   26  C15 UNL     1      -1.909   4.336 -13.851  1.00  0.00     0.034 A 
HETATM   27  C10 UNL     1      -3.717   7.211 -12.340  1.00  0.00     0.042 A 
HETATM   28  N6  UNL     1      -4.509   5.207 -12.123  1.00  0.00    -0.296 N 
HETATM   29  C11 UNL     1      -4.888   7.281 -11.606  1.00  0.00     0.126 A 
HETATM   30  N5  UNL     1      -5.347   6.017 -11.494  1.00  0.00    -0.306 N 
HETATM   31  C12 UNL     1      -6.562   5.642 -10.793  1.00  0.00     0.177 C 
ATOM     32  H6  UNL     1      -4.625   4.197 -12.191  1.00  0.00     0.187 HD
HETATM   33  C16 UNL     1      -0.734   4.624 -14.539  1.00  0.00     0.020 A 
HETATM   34  C17 UNL     1      -0.499   5.976 -14.500  1.00  0.00     0.098 A 
ENDBRANCH   7  23
TORSDOF 5
ENDMDL
