MODEL 1
REMARK VINA RESULT: -10.049093149      0.000      0.000
REMARK  4 active torsions:
REMARK  status: ('A' for Active; 'I' for Inactive)
REMARK    1  A    between atoms: N1_2  and  C2_4 
REMARK    2  A    between atoms: C5_9  and  C6_10 
REMARK    3  A    between atoms: C7_11  and  C8_12 
REMARK    4  A    between atoms: C13_21  and  C14_22 
ROOT
HETATM    1  C8  UNL     1      -2.657   7.271 -12.430  1.00  0.00     0.024 A 
HETATM    2  C9  UNL     1      -2.949   5.952 -12.654  1.00  0.00     0.069 A 
HETATM    3  C10 UNL     1      -3.198   5.437 -13.914  1.00  0.00     0.106 A 
HETATM    4  N3  UNL     1      -3.461   4.210 -14.047  1.00  0.00    -0.385 N 
ATOM      5  H31 UNL     1      -3.645   3.830 -14.975  1.00  0.00     0.157 HD
ATOM      6  H32 UNL     1      -3.496   3.580 -13.246  1.00  0.00     0.157 HD
HETATM    7  N4  UNL     1      -3.153   6.262 -14.963  1.00  0.00    -0.309 N 
HETATM    8  C11 UNL     1      -3.386   5.835 -16.233  1.00  0.00     0.100 A 
HETATM    9  C12 UNL     1      -3.335   6.702 -17.307  1.00  0.00     0.030 A 
HETATM   10  C13 UNL     1      -3.049   8.039 -17.167  1.00  0.00    -0.020 A 
HETATM   11  C18 UNL     1      -2.813   8.469 -15.883  1.00  0.00     0.042 A 
HETATM   12  C19 UNL     1      -2.872   7.577 -14.824  1.00  0.00     0.042 A 
HETATM   13  C20 UNL     1      -2.622   8.080 -13.544  1.00  0.00     0.050 A 
ENDROOT
BRANCH   1  14
HETATM   14  C7  UNL     1      -2.392   7.846 -11.143  1.00  0.00    -0.060 C 
HETATM   15  C6  UNL     1      -2.168   8.311 -10.049  1.00  0.00    -0.043 C 
BRANCH  15  16
HETATM   16  C5  UNL     1      -1.893   8.883  -8.742  1.00  0.00     0.088 A 
HETATM   17  N2  UNL     1      -2.604   9.826  -8.099  1.00  0.00    -0.348 N 
HETATM   18  C4  UNL     1      -2.047  10.111  -6.901  1.00  0.00     0.048 A 
ATOM     19  H2  UNL     1      -3.448  10.267  -8.465  1.00  0.00     0.167 HD
HETATM   20  C3  UNL     1      -2.352  10.975  -5.863  1.00  0.00     0.078 A 
HETATM   21  C22 UNL     1      -0.921   9.328  -6.741  1.00  0.00     0.009 A 
HETATM   22  C2  UNL     1      -1.589  11.069  -4.716  1.00  0.00     0.102 A 
HETATM   23  N7  UNL     1      -0.484  10.284  -4.586  1.00  0.00    -0.352 N 
HETATM   24  C23 UNL     1      -0.184   9.451  -5.581  1.00  0.00     0.103 A 
ATOM     25  H7  UNL     1       0.098  10.333  -3.750  1.00  0.00     0.166 HD
HETATM   26  C21 UNL     1      -0.847   8.575  -7.896  1.00  0.00     0.054 A 
BRANCH  22  27
HETATM   27  N1  UNL     1      -1.922  11.891  -3.782  1.00  0.00    -0.381 N 
HETATM   28  C1  UNL     1      -3.077  11.721  -2.952  1.00  0.00     0.147 C 
ATOM     29  H1  UNL     1      -1.331  12.707  -3.624  1.00  0.00     0.160 HD
ENDBRANCH  22  27
ENDBRANCH  15  16
ENDBRANCH   1  14
BRANCH  10  30
HETATM   30  C14 UNL     1      -2.989   8.970 -18.286  1.00  0.00     0.008 A 
HETATM   31  C15 UNL     1      -3.128  10.318 -18.189  1.00  0.00     0.120 A 
HETATM   32  N5  UNL     1      -3.016  10.836 -19.414  1.00  0.00    -0.310 N 
HETATM   33  N6  UNL     1      -2.813   9.862 -20.270  1.00  0.00    -0.307 N 
ATOM     34  H5  UNL     1      -3.079  11.827 -19.647  1.00  0.00     0.186 HD
HETATM   35  C16 UNL     1      -2.637  10.010 -21.713  1.00  0.00     0.177 C 
HETATM   36  C17 UNL     1      -2.787   8.683 -19.626  1.00  0.00     0.123 A 
ENDBRANCH  10  30
TORSDOF 4
ENDMDL
MODEL 2
REMARK VINA RESULT: -9.699335426      1.945     11.286
REMARK  4 active torsions:
REMARK  status: ('A' for Active; 'I' for Inactive)
REMARK    1  A    between atoms: N1_2  and  C2_4 
REMARK    2  A    between atoms: C5_9  and  C6_10 
REMARK    3  A    between atoms: C7_11  and  C8_12 
REMARK    4  A    between atoms: C13_21  and  C14_22 
ROOT
HETATM    1  C8  UNL     1      -4.039   7.625 -12.651  1.00  0.00     0.024 A 
HETATM    2  C9  UNL     1      -4.962   6.714 -12.215  1.00  0.00     0.069 A 
HETATM    3  C10 UNL     1      -5.162   6.421 -10.877  1.00  0.00     0.106 A 
HETATM    4  N3  UNL     1      -6.032   5.568 -10.547  1.00  0.00    -0.385 N 
ATOM      5  H31 UNL     1      -6.179   5.352  -9.561  1.00  0.00     0.157 HD
ATOM      6  H32 UNL     1      -6.598   5.084 -11.243  1.00  0.00     0.157 HD
HETATM    7  N4  UNL     1      -4.420   7.055  -9.966  1.00  0.00    -0.309 N 
HETATM    8  C11 UNL     1      -4.555   6.824  -8.633  1.00  0.00     0.100 A 
HETATM    9  C12 UNL     1      -3.779   7.489  -7.703  1.00  0.00     0.030 A 
HETATM   10  C13 UNL     1      -2.830   8.419  -8.057  1.00  0.00    -0.020 A 
HETATM   11  C18 UNL     1      -2.696   8.651  -9.406  1.00  0.00     0.042 A 
HETATM   12  C19 UNL     1      -3.488   7.968 -10.316  1.00  0.00     0.042 A 
HETATM   13  C20 UNL     1      -3.299   8.252 -11.672  1.00  0.00     0.050 A 
ENDROOT
BRANCH   1  14
HETATM   14  C7  UNL     1      -3.798   7.959 -14.025  1.00  0.00    -0.060 C 
HETATM   15  C6  UNL     1      -3.597   8.218 -15.189  1.00  0.00    -0.043 C 
BRANCH  15  16
HETATM   16  C5  UNL     1      -3.362   8.544 -16.585  1.00  0.00     0.088 A 
HETATM   17  N2  UNL     1      -3.150   7.685 -17.599  1.00  0.00    -0.348 N 
HETATM   18  C4  UNL     1      -2.969   8.351 -18.760  1.00  0.00     0.048 A 
ATOM     19  H2  UNL     1      -3.130   6.669 -17.504  1.00  0.00     0.167 HD
HETATM   20  C3  UNL     1      -2.723   7.979 -20.071  1.00  0.00     0.078 A 
HETATM   21  C22 UNL     1      -3.063   9.706 -18.510  1.00  0.00     0.009 A 
HETATM   22  C2  UNL     1      -2.575   8.893 -21.096  1.00  0.00     0.102 A 
HETATM   23  N7  UNL     1      -2.672  10.223 -20.819  1.00  0.00    -0.352 N 
HETATM   24  C23 UNL     1      -2.909  10.588 -19.561  1.00  0.00     0.103 A 
ATOM     25  H7  UNL     1      -2.567  10.920 -21.556  1.00  0.00     0.166 HD
HETATM   26  C21 UNL     1      -3.307   9.799 -17.154  1.00  0.00     0.054 A 
BRANCH  22  27
HETATM   27  N1  UNL     1      -2.347   8.489 -22.297  1.00  0.00    -0.381 N 
HETATM   28  C1  UNL     1      -1.795   7.204 -22.608  1.00  0.00     0.147 C 
ATOM     29  H1  UNL     1      -2.572   9.117 -23.069  1.00  0.00     0.160 HD
ENDBRANCH  22  27
ENDBRANCH  15  16
ENDBRANCH   1  14
BRANCH  10  30
HETATM   30  C14 UNL     1      -2.003   9.132  -7.094  1.00  0.00     0.008 A 
HETATM   31  C15 UNL     1      -0.725   8.805  -6.768  1.00  0.00     0.120 A 
HETATM   32  N5  UNL     1      -0.293   9.679  -5.856  1.00  0.00    -0.310 N 
HETATM   33  N6  UNL     1      -1.253  10.538  -5.603  1.00  0.00    -0.307 N 
ATOM     34  H5  UNL     1       0.632   9.680  -5.427  1.00  0.00     0.186 HD
HETATM   35  C16 UNL     1      -1.180  11.653  -4.661  1.00  0.00     0.177 C 
HETATM   36  C17 UNL     1      -2.337  10.246  -6.341  1.00  0.00     0.123 A 
ENDBRANCH  10  30
TORSDOF 4
ENDMDL
MODEL 3
REMARK VINA RESULT: -9.451490366      1.174      1.604
REMARK  4 active torsions:
REMARK  status: ('A' for Active; 'I' for Inactive)
REMARK    1  A    between atoms: N1_2  and  C2_4 
REMARK    2  A    between atoms: C5_9  and  C6_10 
REMARK    3  A    between atoms: C7_11  and  C8_12 
REMARK    4  A    between atoms: C13_21  and  C14_22 
ROOT
HETATM    1  C8  UNL     1      -2.491   6.876 -13.198  1.00  0.00     0.024 A 
HETATM    2  C9  UNL     1      -2.467   5.512 -13.317  1.00  0.00     0.069 A 
HETATM    3  C10 UNL     1      -2.532   4.858 -14.535  1.00  0.00     0.106 A 
HETATM    4  N3  UNL     1      -2.506   3.597 -14.570  1.00  0.00    -0.385 N 
ATOM      5  H31 UNL     1      -2.554   3.115 -15.467  1.00  0.00     0.157 HD
ATOM      6  H32 UNL     1      -2.436   3.039 -13.719  1.00  0.00     0.157 HD
HETATM    7  N4  UNL     1      -2.624   5.589 -15.649  1.00  0.00    -0.309 N 
HETATM    8  C11 UNL     1      -2.693   5.024 -16.883  1.00  0.00     0.100 A 
HETATM    9  C12 UNL     1      -2.787   5.794 -18.026  1.00  0.00     0.030 A 
HETATM   10  C13 UNL     1      -2.816   7.168 -17.993  1.00  0.00    -0.020 A 
HETATM   11  C18 UNL     1      -2.746   7.738 -16.744  1.00  0.00     0.042 A 
HETATM   12  C19 UNL     1      -2.653   6.940 -15.615  1.00  0.00     0.042 A 
HETATM   13  C20 UNL     1      -2.586   7.583 -14.375  1.00  0.00     0.050 A 
ENDROOT
BRANCH   1  14
HETATM   14  C7  UNL     1      -2.425   7.594 -11.958  1.00  0.00    -0.060 C 
HETATM   15  C6  UNL     1      -2.350   8.207 -10.918  1.00  0.00    -0.043 C 
BRANCH  15  16
HETATM   16  C5  UNL     1      -2.276   8.943  -9.668  1.00  0.00     0.088 A 
HETATM   17  N2  UNL     1      -1.641   8.575  -8.541  1.00  0.00    -0.348 N 
HETATM   18  C4  UNL     1      -1.788   9.513  -7.581  1.00  0.00     0.048 A 
ATOM     19  H2  UNL     1      -1.119   7.705  -8.427  1.00  0.00     0.167 HD
HETATM   20  C3  UNL     1      -1.358   9.645  -6.270  1.00  0.00     0.078 A 
HETATM   21  C22 UNL     1      -2.551  10.546  -8.087  1.00  0.00     0.009 A 
HETATM   22  C2  UNL     1      -1.661  10.743  -5.488  1.00  0.00     0.102 A 
HETATM   23  N7  UNL     1      -2.416  11.747  -6.015  1.00  0.00    -0.352 N 
HETATM   24  C23 UNL     1      -2.833  11.626  -7.274  1.00  0.00     0.103 A 
ATOM     25  H7  UNL     1      -2.655  12.568  -5.461  1.00  0.00     0.166 HD
HETATM   26  C21 UNL     1      -2.841  10.169  -9.383  1.00  0.00     0.054 A 
BRANCH  22  27
HETATM   27  N1  UNL     1      -1.234  10.812  -4.275  1.00  0.00    -0.381 N 
HETATM   28  C1  UNL     1      -1.765  11.717  -3.300  1.00  0.00     0.147 C 
ATOM     29  H1  UNL     1      -0.476  10.190  -3.994  1.00  0.00     0.160 HD
ENDBRANCH  22  27
ENDBRANCH  15  16
ENDBRANCH   1  14
BRANCH  10  30
HETATM   30  C14 UNL     1      -2.914   8.000 -19.185  1.00  0.00     0.008 A 
HETATM   31  C15 UNL     1      -3.066   9.349 -19.187  1.00  0.00     0.120 A 
HETATM   32  N5  UNL     1      -3.117   9.761 -20.456  1.00  0.00    -0.310 N 
HETATM   33  N6  UNL     1      -3.002   8.718 -21.244  1.00  0.00    -0.307 N 
ATOM     34  H5  UNL     1      -3.227  10.727 -20.762  1.00  0.00     0.186 HD
HETATM   35  C16 UNL     1      -3.010   8.742 -22.706  1.00  0.00     0.177 C 
HETATM   36  C17 UNL     1      -2.874   7.600 -20.511  1.00  0.00     0.123 A 
ENDBRANCH  10  30
TORSDOF 4
ENDMDL
MODEL 4
REMARK VINA RESULT: -9.129350711      2.461     11.322
REMARK  4 active torsions:
REMARK  status: ('A' for Active; 'I' for Inactive)
REMARK    1  A    between atoms: N1_2  and  C2_4 
REMARK    2  A    between atoms: C5_9  and  C6_10 
REMARK    3  A    between atoms: C7_11  and  C8_12 
REMARK    4  A    between atoms: C13_21  and  C14_22 
ROOT
HETATM    1  C8  UNL     1      -3.764   6.496 -12.582  1.00  0.00     0.024 A 
HETATM    2  C9  UNL     1      -4.929   5.942 -12.124  1.00  0.00     0.069 A 
HETATM    3  C10 UNL     1      -5.341   6.031 -10.806  1.00  0.00     0.106 A 
HETATM    4  N3  UNL     1      -6.429   5.496 -10.453  1.00  0.00    -0.385 N 
ATOM      5  H31 UNL     1      -6.733   5.561  -9.482  1.00  0.00     0.157 HD
ATOM      6  H32 UNL     1      -7.019   4.995 -11.118  1.00  0.00     0.157 HD
HETATM    7  N4  UNL     1      -4.569   6.687  -9.937  1.00  0.00    -0.309 N 
HETATM    8  C11 UNL     1      -4.902   6.819  -8.626  1.00  0.00     0.100 A 
HETATM    9  C12 UNL     1      -4.091   7.500  -7.740  1.00  0.00     0.030 A 
HETATM   10  C13 UNL     1      -2.905   8.085  -8.118  1.00  0.00    -0.020 A 
HETATM   11  C18 UNL     1      -2.570   7.951  -9.445  1.00  0.00     0.042 A 
HETATM   12  C19 UNL     1      -3.403   7.261 -10.311  1.00  0.00     0.042 A 
HETATM   13  C20 UNL     1      -3.003   7.161 -11.647  1.00  0.00     0.050 A 
ENDROOT
BRANCH   1  14
HETATM   14  C7  UNL     1      -3.298   6.427 -13.937  1.00  0.00    -0.060 C 
HETATM   15  C6  UNL     1      -2.922   6.355 -15.085  1.00  0.00    -0.043 C 
BRANCH  15  16
HETATM   16  C5  UNL     1      -2.465   6.283 -16.461  1.00  0.00     0.088 A 
HETATM   17  N2  UNL     1      -2.988   6.912 -17.529  1.00  0.00    -0.348 N 
HETATM   18  C4  UNL     1      -2.298   6.607 -18.649  1.00  0.00     0.048 A 
ATOM     19  H2  UNL     1      -3.795   7.536 -17.497  1.00  0.00     0.167 HD
HETATM   20  C3  UNL     1      -2.398   6.961 -19.985  1.00  0.00     0.078 A 
HETATM   21  C22 UNL     1      -1.277   5.740 -18.316  1.00  0.00     0.009 A 
HETATM   22  C2  UNL     1      -1.535   6.488 -20.953  1.00  0.00     0.102 A 
HETATM   23  N7  UNL     1      -0.537   5.633 -20.595  1.00  0.00    -0.352 N 
HETATM   24  C23 UNL     1      -0.435   5.288 -19.313  1.00  0.00     0.103 A 
ATOM     25  H7  UNL     1       0.114   5.268 -21.289  1.00  0.00     0.166 HD
HETATM   26  C21 UNL     1      -1.401   5.554 -16.953  1.00  0.00     0.054 A 
BRANCH  22  27
HETATM   27  N1  UNL     1      -1.676   6.852 -22.181  1.00  0.00    -0.381 N 
HETATM   28  C1  UNL     1      -2.776   7.638 -22.651  1.00  0.00     0.147 C 
ATOM     29  H1  UNL     1      -0.964   6.566 -22.854  1.00  0.00     0.160 HD
ENDBRANCH  22  27
ENDBRANCH  15  16
ENDBRANCH   1  14
BRANCH  10  30
HETATM   30  C14 UNL     1      -2.036   8.809  -7.201  1.00  0.00     0.008 A 
HETATM   31  C15 UNL     1      -0.753   8.471  -6.909  1.00  0.00     0.120 A 
HETATM   32  N5  UNL     1      -0.277   9.360  -6.035  1.00  0.00    -0.310 N 
HETATM   33  N6  UNL     1      -1.216  10.239  -5.771  1.00  0.00    -0.307 N 
ATOM     34  H5  UNL     1       0.662   9.357  -5.637  1.00  0.00     0.186 HD
HETATM   35  C16 UNL     1      -1.095  11.376  -4.861  1.00  0.00     0.177 C 
HETATM   36  C17 UNL     1      -2.327   9.946  -6.466  1.00  0.00     0.123 A 
ENDBRANCH  10  30
TORSDOF 4
ENDMDL
MODEL 5
REMARK VINA RESULT: -9.071086988      2.637     11.391
REMARK  4 active torsions:
REMARK  status: ('A' for Active; 'I' for Inactive)
REMARK    1  A    between atoms: N1_2  and  C2_4 
REMARK    2  A    between atoms: C5_9  and  C6_10 
REMARK    3  A    between atoms: C7_11  and  C8_12 
REMARK    4  A    between atoms: C13_21  and  C14_22 
ROOT
HETATM    1  C8  UNL     1      -3.814   6.558 -12.622  1.00  0.00     0.024 A 
HETATM    2  C9  UNL     1      -4.961   5.976 -12.152  1.00  0.00     0.069 A 
HETATM    3  C10 UNL     1      -5.350   6.038 -10.826  1.00  0.00     0.106 A 
HETATM    4  N3  UNL     1      -6.421   5.477 -10.461  1.00  0.00    -0.385 N 
ATOM      5  H31 UNL     1      -6.708   5.522  -9.484  1.00  0.00     0.157 HD
ATOM      6  H32 UNL     1      -7.014   4.976 -11.122  1.00  0.00     0.157 HD
HETATM    7  N4  UNL     1      -4.573   6.694  -9.960  1.00  0.00    -0.309 N 
HETATM    8  C11 UNL     1      -4.885   6.800  -8.641  1.00  0.00     0.100 A 
HETATM    9  C12 UNL     1      -4.070   7.483  -7.760  1.00  0.00     0.030 A 
HETATM   10  C13 UNL     1      -2.902   8.095  -8.151  1.00  0.00    -0.020 A 
HETATM   11  C18 UNL     1      -2.590   7.987  -9.485  1.00  0.00     0.042 A 
HETATM   12  C19 UNL     1      -3.426   7.295 -10.346  1.00  0.00     0.042 A 
HETATM   13  C20 UNL     1      -3.048   7.223 -11.691  1.00  0.00     0.050 A 
ENDROOT
BRANCH   1  14
HETATM   14  C7  UNL     1      -3.373   6.519 -13.987  1.00  0.00    -0.060 C 
HETATM   15  C6  UNL     1      -3.010   6.467 -15.140  1.00  0.00    -0.043 C 
BRANCH  15  16
HETATM   16  C5  UNL     1      -2.575   6.419 -16.524  1.00  0.00     0.088 A 
HETATM   17  N2  UNL     1      -1.685   5.570 -17.070  1.00  0.00    -0.348 N 
HETATM   18  C4  UNL     1      -1.529   5.824 -18.388  1.00  0.00     0.048 A 
ATOM     19  H2  UNL     1      -1.194   4.836 -16.559  1.00  0.00     0.167 HD
HETATM   20  C3  UNL     1      -0.765   5.275 -19.404  1.00  0.00     0.078 A 
HETATM   21  C22 UNL     1      -2.346   6.882 -18.733  1.00  0.00     0.009 A 
HETATM   22  C2  UNL     1      -0.798   5.741 -20.704  1.00  0.00     0.102 A 
HETATM   23  N7  UNL     1      -1.614   6.787 -21.015  1.00  0.00    -0.352 N 
HETATM   24  C23 UNL     1      -2.352   7.319 -20.042  1.00  0.00     0.103 A 
ATOM     25  H7  UNL     1      -1.659   7.151 -21.966  1.00  0.00     0.166 HD
HETATM   26  C21 UNL     1      -2.985   7.233 -17.560  1.00  0.00     0.054 A 
BRANCH  22  27
HETATM   27  N1  UNL     1      -0.065   5.191 -21.609  1.00  0.00    -0.381 N 
HETATM   28  C1  UNL     1       1.081   5.824 -22.191  1.00  0.00     0.147 C 
ATOM     29  H1  UNL     1      -0.313   4.255 -21.928  1.00  0.00     0.160 HD
ENDBRANCH  22  27
ENDBRANCH  15  16
ENDBRANCH   1  14
BRANCH  10  30
HETATM   30  C14 UNL     1      -2.029   8.821  -7.238  1.00  0.00     0.008 A 
HETATM   31  C15 UNL     1      -0.744   8.487  -6.955  1.00  0.00     0.120 A 
HETATM   32  N5  UNL     1      -0.265   9.377  -6.083  1.00  0.00    -0.310 N 
HETATM   33  N6  UNL     1      -1.205  10.252  -5.812  1.00  0.00    -0.307 N 
ATOM     34  H5  UNL     1       0.676   9.376  -5.691  1.00  0.00     0.186 HD
HETATM   35  C16 UNL     1      -1.082  11.389  -4.901  1.00  0.00     0.177 C 
HETATM   36  C17 UNL     1      -2.320   9.956  -6.499  1.00  0.00     0.123 A 
ENDBRANCH  10  30
TORSDOF 4
ENDMDL
