MODEL 1
REMARK VINA RESULT: -8.143587384      0.000      0.000
REMARK  0 active torsions:
REMARK  status: ('A' for Active; 'I' for Inactive)
ROOT
HETATM    1  N1  UNL     1      -3.933   9.374 -20.022  1.00  0.00    -0.384 N 
ATOM      2  H11 UNL     1      -4.052  10.359 -20.259  1.00  0.00     0.157 HD
ATOM      3  H12 UNL     1      -4.129   8.716 -20.776  1.00  0.00     0.157 HD
HETATM    4  C1  UNL     1      -3.565   9.004 -18.860  1.00  0.00     0.127 A 
HETATM    5  N2  UNL     1      -3.401   7.650 -18.535  1.00  0.00    -0.176 N 
ATOM      6  H2  UNL     1      -3.576   6.944 -19.250  1.00  0.00     0.186 HD
HETATM    7  C2  UNL     1      -2.999   7.231 -17.234  1.00  0.00     0.692 A 
HETATM    8  N3  UNL     1      -2.748   5.949 -17.320  1.00  0.00    -0.155 N 
ATOM      9  H3  UNL     1      -2.875   5.517 -18.235  1.00  0.00     0.187 HD
HETATM   10  C3  UNL     1      -2.314   5.100 -16.267  1.00  0.00     0.270 C 
HETATM   11  O1  UNL     1      -1.545   4.152 -16.410  1.00  0.00    -0.267 OA
HETATM   12  C4  UNL     1      -2.779   5.300 -14.865  1.00  0.00     0.043 A 
HETATM   13  C5  UNL     1      -3.124   4.091 -14.303  1.00  0.00     0.018 A 
HETATM   14  C6  UNL     1      -3.745   4.105 -13.066  1.00  0.00     0.001 A 
HETATM   15  C7  UNL     1      -3.989   5.296 -12.463  1.00  0.00     0.001 A 
HETATM   16  C8  UNL     1      -3.615   6.505 -13.074  1.00  0.00     0.013 A 
HETATM   17  C9  UNL     1      -2.976   6.545 -14.326  1.00  0.00     0.015 A 
HETATM   18  C10 UNL     1      -2.500   7.941 -14.747  1.00  0.00     0.224 C 
HETATM   19  N4  UNL     1      -1.076   7.667 -14.429  1.00  0.00    -0.351 N 
ATOM     20  H4  UNL     1      -0.384   7.231 -15.039  1.00  0.00     0.163 HD
HETATM   21  C11 UNL     1      -0.875   8.128 -13.120  1.00  0.00     0.044 A 
HETATM   22  C12 UNL     1       0.229   8.062 -12.282  1.00  0.00     0.030 A 
HETATM   23  C13 UNL     1       0.254   8.593 -11.017  1.00  0.00     0.002 A 
HETATM   24  C14 UNL     1      -0.866   9.225 -10.538  1.00  0.00     0.001 A 
HETATM   25  C15 UNL     1      -1.973   9.303 -11.347  1.00  0.00     0.017 A 
HETATM   26  C16 UNL     1      -1.983   8.761 -12.622  1.00  0.00     0.041 A 
HETATM   27  C17 UNL     1      -3.055   8.736 -13.680  1.00  0.00     0.216 C 
HETATM   28  O2  UNL     1      -4.142   9.354 -13.466  1.00  0.00    -0.287 OA
HETATM   29  N5  UNL     1      -2.730   8.132 -16.127  1.00  0.00    -0.142 N 
HETATM   30  C18 UNL     1      -2.893   9.520 -16.513  1.00  0.00     0.069 A 
HETATM   31  C19 UNL     1      -2.540  10.531 -15.653  1.00  0.00     0.031 A 
HETATM   32  C20 UNL     1      -2.571  11.904 -15.955  1.00  0.00     0.002 A 
HETATM   33  C21 UNL     1      -2.974  12.293 -17.199  1.00  0.00     0.001 A 
HETATM   34  C22 UNL     1      -3.322  11.310 -18.089  1.00  0.00     0.017 A 
HETATM   35  C23 UNL     1      -3.285   9.945 -17.782  1.00  0.00     0.036 A 
ENDROOT
TORSDOF 0
ENDMDL
MODEL 2
REMARK VINA RESULT: -6.514757132      3.843      6.703
REMARK  0 active torsions:
REMARK  status: ('A' for Active; 'I' for Inactive)
ROOT
HETATM    1  N1  UNL     1      -6.527   4.276 -12.029  1.00  0.00    -0.384 N 
ATOM      2  H11 UNL     1      -7.260   3.913 -11.419  1.00  0.00     0.157 HD
ATOM      3  H12 UNL     1      -6.547   3.932 -12.989  1.00  0.00     0.157 HD
HETATM    4  C1  UNL     1      -5.654   5.103 -11.609  1.00  0.00     0.127 A 
HETATM    5  N2  UNL     1      -4.647   5.602 -12.448  1.00  0.00    -0.176 N 
ATOM      6  H2  UNL     1      -4.619   5.299 -13.422  1.00  0.00     0.186 HD
HETATM    7  C2  UNL     1      -3.662   6.518 -11.981  1.00  0.00     0.692 A 
HETATM    8  N3  UNL     1      -3.013   6.934 -13.038  1.00  0.00    -0.155 N 
ATOM      9  H3  UNL     1      -3.309   6.555 -13.937  1.00  0.00     0.187 HD
HETATM   10  C3  UNL     1      -1.937   7.862 -13.059  1.00  0.00     0.270 C 
HETATM   11  O1  UNL     1      -1.736   8.673 -13.961  1.00  0.00    -0.267 OA
HETATM   12  C4  UNL     1      -0.936   7.917 -11.956  1.00  0.00     0.043 A 
HETATM   13  C5  UNL     1       0.336   8.013 -12.475  1.00  0.00     0.018 A 
HETATM   14  C6  UNL     1       1.403   7.897 -11.601  1.00  0.00     0.001 A 
HETATM   15  C7  UNL     1       1.157   7.694 -10.282  1.00  0.00     0.001 A 
HETATM   16  C8  UNL     1      -0.160   7.606  -9.798  1.00  0.00     0.013 A 
HETATM   17  C9  UNL     1      -1.277   7.724 -10.643  1.00  0.00     0.015 A 
HETATM   18  C10 UNL     1      -2.623   7.767  -9.907  1.00  0.00     0.224 C 
HETATM   19  N4  UNL     1      -2.788   9.232 -10.077  1.00  0.00    -0.351 N 
ATOM     20  H4  UNL     1      -3.194   9.715 -10.879  1.00  0.00     0.163 HD
HETATM   21  C11 UNL     1      -2.271   9.819  -8.913  1.00  0.00     0.044 A 
HETATM   22  C12 UNL     1      -2.093  11.147  -8.554  1.00  0.00     0.030 A 
HETATM   23  C13 UNL     1      -1.582  11.544  -7.344  1.00  0.00     0.002 A 
HETATM   24  C14 UNL     1      -1.221  10.589  -6.427  1.00  0.00     0.001 A 
HETATM   25  C15 UNL     1      -1.387   9.266  -6.758  1.00  0.00     0.017 A 
HETATM   26  C16 UNL     1      -1.904   8.881  -7.985  1.00  0.00     0.041 A 
HETATM   27  C17 UNL     1      -2.187   7.516  -8.556  1.00  0.00     0.216 C 
HETATM   28  O2  UNL     1      -2.009   6.496  -7.824  1.00  0.00    -0.287 OA
HETATM   29  N5  UNL     1      -3.585   7.017 -10.619  1.00  0.00    -0.142 N 
HETATM   30  C18 UNL     1      -4.654   6.492  -9.793  1.00  0.00     0.069 A 
HETATM   31  C19 UNL     1      -4.845   6.959  -8.516  1.00  0.00     0.031 A 
HETATM   32  C20 UNL     1      -5.899   6.586  -7.663  1.00  0.00     0.002 A 
HETATM   33  C21 UNL     1      -6.826   5.694  -8.117  1.00  0.00     0.001 A 
HETATM   34  C22 UNL     1      -6.675   5.216  -9.393  1.00  0.00     0.017 A 
HETATM   35  C23 UNL     1      -5.626   5.595 -10.237  1.00  0.00     0.036 A 
ENDROOT
TORSDOF 0
ENDMDL
MODEL 3
REMARK VINA RESULT: -6.125887995      2.911      6.815
REMARK  0 active torsions:
REMARK  status: ('A' for Active; 'I' for Inactive)
ROOT
HETATM    1  N1  UNL     1      -2.457   8.112 -12.541  1.00  0.00    -0.384 N 
ATOM      2  H11 UNL     1      -1.794   7.635 -11.930  1.00  0.00     0.157 HD
ATOM      3  H12 UNL     1      -3.082   8.772 -12.079  1.00  0.00     0.157 HD
HETATM    4  C1  UNL     1      -2.493   7.889 -13.795  1.00  0.00     0.127 A 
HETATM    5  N2  UNL     1      -3.405   8.545 -14.635  1.00  0.00    -0.176 N 
ATOM      6  H2  UNL     1      -4.051   9.222 -14.230  1.00  0.00     0.186 HD
HETATM    7  C2  UNL     1      -3.456   8.292 -16.035  1.00  0.00     0.692 A 
HETATM    8  N3  UNL     1      -4.255   9.194 -16.545  1.00  0.00    -0.155 N 
ATOM      9  H3  UNL     1      -4.664   9.864 -15.895  1.00  0.00     0.187 HD
HETATM   10  C3  UNL     1      -4.609   9.334 -17.914  1.00  0.00     0.270 C 
HETATM   11  O1  UNL     1      -4.817  10.409 -18.472  1.00  0.00    -0.267 OA
HETATM   12  C4  UNL     1      -4.764   8.148 -18.802  1.00  0.00     0.043 A 
HETATM   13  C5  UNL     1      -5.902   8.275 -19.569  1.00  0.00     0.018 A 
HETATM   14  C6  UNL     1      -6.300   7.185 -20.323  1.00  0.00     0.001 A 
HETATM   15  C7  UNL     1      -5.564   6.046 -20.278  1.00  0.00     0.001 A 
HETATM   16  C8  UNL     1      -4.408   5.964 -19.483  1.00  0.00     0.013 A 
HETATM   17  C9  UNL     1      -3.957   7.044 -18.704  1.00  0.00     0.015 A 
HETATM   18  C10 UNL     1      -2.592   6.817 -18.041  1.00  0.00     0.224 C 
HETATM   19  N4  UNL     1      -1.862   7.674 -19.007  1.00  0.00    -0.351 N 
ATOM     20  H4  UNL     1      -1.734   8.685 -18.957  1.00  0.00     0.163 HD
HETATM   21  C11 UNL     1      -1.382   6.812 -20.005  1.00  0.00     0.044 A 
HETATM   22  C12 UNL     1      -0.705   7.064 -21.189  1.00  0.00     0.030 A 
HETATM   23  C13 UNL     1      -0.289   6.080 -22.049  1.00  0.00     0.002 A 
HETATM   24  C14 UNL     1      -0.550   4.768 -21.737  1.00  0.00     0.001 A 
HETATM   25  C15 UNL     1      -1.221   4.492 -20.571  1.00  0.00     0.017 A 
HETATM   26  C16 UNL     1      -1.635   5.498 -19.713  1.00  0.00     0.041 A 
HETATM   27  C17 UNL     1      -2.359   5.439 -18.393  1.00  0.00     0.216 C 
HETATM   28  O2  UNL     1      -2.609   4.306 -17.881  1.00  0.00    -0.287 OA
HETATM   29  N5  UNL     1      -2.600   7.347 -16.731  1.00  0.00    -0.142 N 
HETATM   30  C18 UNL     1      -1.662   6.707 -15.830  1.00  0.00     0.069 A 
HETATM   31  C19 UNL     1      -0.669   5.893 -16.316  1.00  0.00     0.031 A 
HETATM   32  C20 UNL     1       0.344   5.296 -15.544  1.00  0.00     0.002 A 
HETATM   33  C21 UNL     1       0.371   5.533 -14.201  1.00  0.00     0.001 A 
HETATM   34  C22 UNL     1      -0.598   6.352 -13.682  1.00  0.00     0.017 A 
HETATM   35  C23 UNL     1      -1.600   6.945 -14.456  1.00  0.00     0.036 A 
ENDROOT
TORSDOF 0
ENDMDL
MODEL 4
REMARK VINA RESULT: -5.677940838      3.398      7.429
REMARK  0 active torsions:
REMARK  status: ('A' for Active; 'I' for Inactive)
ROOT
HETATM    1  N1  UNL     1      -4.164   8.190 -14.078  1.00  0.00    -0.384 N 
ATOM      2  H11 UNL     1      -4.086   7.488 -13.341  1.00  0.00     0.157 HD
ATOM      3  H12 UNL     1      -4.629   9.057 -13.808  1.00  0.00     0.157 HD
HETATM    4  C1  UNL     1      -3.707   7.986 -15.248  1.00  0.00     0.127 A 
HETATM    5  N2  UNL     1      -3.813   8.951 -16.260  1.00  0.00    -0.176 N 
ATOM      6  H2  UNL     1      -4.263   9.842 -16.049  1.00  0.00     0.186 HD
HETATM    7  C2  UNL     1      -3.313   8.724 -17.574  1.00  0.00     0.692 A 
HETATM    8  N3  UNL     1      -3.385   9.871 -18.201  1.00  0.00    -0.155 N 
ATOM      9  H3  UNL     1      -3.758  10.659 -17.673  1.00  0.00     0.187 HD
HETATM   10  C3  UNL     1      -2.995  10.127 -19.543  1.00  0.00     0.270 C 
HETATM   11  O1  UNL     1      -2.503  11.184 -19.934  1.00  0.00    -0.267 OA
HETATM   12  C4  UNL     1      -3.164   9.102 -20.611  1.00  0.00     0.043 A 
HETATM   13  C5  UNL     1      -3.685   9.682 -21.747  1.00  0.00     0.018 A 
HETATM   14  C6  UNL     1      -4.074   8.848 -22.781  1.00  0.00     0.001 A 
HETATM   15  C7  UNL     1      -3.931   7.506 -22.636  1.00  0.00     0.001 A 
HETATM   16  C8  UNL     1      -3.390   6.960 -21.460  1.00  0.00     0.013 A 
HETATM   17  C9  UNL     1      -2.974   7.764 -20.384  1.00  0.00     0.015 A 
HETATM   18  C10 UNL     1      -2.260   6.997 -19.263  1.00  0.00     0.224 C 
HETATM   19  N4  UNL     1      -0.908   7.458 -19.665  1.00  0.00    -0.351 N 
ATOM     20  H4  UNL     1      -0.446   8.324 -19.386  1.00  0.00     0.163 HD
HETATM   21  C11 UNL     1      -0.393   6.461 -20.507  1.00  0.00     0.044 A 
HETATM   22  C12 UNL     1       0.787   6.392 -21.233  1.00  0.00     0.030 A 
HETATM   23  C13 UNL     1       1.142   5.312 -22.001  1.00  0.00     0.002 A 
HETATM   24  C14 UNL     1       0.295   4.234 -22.068  1.00  0.00     0.001 A 
HETATM   25  C15 UNL     1      -0.880   4.278 -21.359  1.00  0.00     0.017 A 
HETATM   26  C16 UNL     1      -1.225   5.376 -20.588  1.00  0.00     0.041 A 
HETATM   27  C17 UNL     1      -2.432   5.642 -19.726  1.00  0.00     0.216 C 
HETATM   28  O2  UNL     1      -3.294   4.725 -19.578  1.00  0.00    -0.287 OA
HETATM   29  N5  UNL     1      -2.663   7.499 -18.005  1.00  0.00    -0.142 N 
HETATM   30  C18 UNL     1      -2.557   6.538 -16.925  1.00  0.00     0.069 A 
HETATM   31  C19 UNL     1      -1.842   5.377 -17.088  1.00  0.00     0.031 A 
HETATM   32  C20 UNL     1      -1.600   4.422 -16.084  1.00  0.00     0.002 A 
HETATM   33  C21 UNL     1      -2.100   4.644 -14.835  1.00  0.00     0.001 A 
HETATM   34  C22 UNL     1      -2.809   5.800 -14.630  1.00  0.00     0.017 A 
HETATM   35  C23 UNL     1      -3.042   6.747 -15.633  1.00  0.00     0.036 A 
ENDROOT
TORSDOF 0
ENDMDL
MODEL 5
REMARK VINA RESULT: -5.599793116      2.613      6.958
REMARK  0 active torsions:
REMARK  status: ('A' for Active; 'I' for Inactive)
ROOT
HETATM    1  N1  UNL     1      -4.354   7.439 -12.438  1.00  0.00    -0.384 N 
ATOM      2  H11 UNL     1      -4.323   6.610 -11.844  1.00  0.00     0.157 HD
ATOM      3  H12 UNL     1      -4.706   8.286 -11.990  1.00  0.00     0.157 HD
HETATM    4  C1  UNL     1      -3.975   7.407 -13.653  1.00  0.00     0.127 A 
HETATM    5  N2  UNL     1      -4.018   8.547 -14.469  1.00  0.00    -0.176 N 
ATOM      6  H2  UNL     1      -4.355   9.426 -14.075  1.00  0.00     0.186 HD
HETATM    7  C2  UNL     1      -3.605   8.515 -15.832  1.00  0.00     0.692 A 
HETATM    8  N3  UNL     1      -3.577   9.758 -16.240  1.00  0.00    -0.155 N 
ATOM      9  H3  UNL     1      -3.835  10.470 -15.558  1.00  0.00     0.187 HD
HETATM   10  C3  UNL     1      -3.221  10.214 -17.537  1.00  0.00     0.270 C 
HETATM   11  O1  UNL     1      -2.632  11.268 -17.766  1.00  0.00    -0.267 OA
HETATM   12  C4  UNL     1      -3.552   9.424 -18.757  1.00  0.00     0.043 A 
HETATM   13  C5  UNL     1      -4.055  10.253 -19.736  1.00  0.00     0.018 A 
HETATM   14  C6  UNL     1      -4.581   9.667 -20.874  1.00  0.00     0.001 A 
HETATM   15  C7  UNL     1      -4.583   8.313 -20.979  1.00  0.00     0.001 A 
HETATM   16  C8  UNL     1      -4.055   7.509 -19.955  1.00  0.00     0.013 A 
HETATM   17  C9  UNL     1      -3.503   8.055 -18.783  1.00  0.00     0.015 A 
HETATM   18  C10 UNL     1      -2.831   7.027 -17.864  1.00  0.00     0.224 C 
HETATM   19  N4  UNL     1      -1.454   7.413 -18.264  1.00  0.00    -0.351 N 
ATOM     20  H4  UNL     1      -0.887   8.161 -17.867  1.00  0.00     0.163 HD
HETATM   21  C11 UNL     1      -1.093   6.540 -19.301  1.00  0.00     0.044 A 
HETATM   22  C12 UNL     1       0.038   6.484 -20.102  1.00  0.00     0.030 A 
HETATM   23  C13 UNL     1       0.235   5.532 -21.071  1.00  0.00     0.002 A 
HETATM   24  C14 UNL     1      -0.730   4.577 -21.272  1.00  0.00     0.001 A 
HETATM   25  C15 UNL     1      -1.860   4.611 -20.493  1.00  0.00     0.017 A 
HETATM   26  C16 UNL     1      -2.044   5.579 -19.519  1.00  0.00     0.041 A 
HETATM   27  C17 UNL     1      -3.173   5.805 -18.548  1.00  0.00     0.216 C 
HETATM   28  O2  UNL     1      -4.126   4.969 -18.509  1.00  0.00    -0.287 OA
HETATM   29  N5  UNL     1      -3.117   7.329 -16.514  1.00  0.00    -0.142 N 
HETATM   30  C18 UNL     1      -3.072   6.181 -15.630  1.00  0.00     0.069 A 
HETATM   31  C19 UNL     1      -2.500   5.002 -16.042  1.00  0.00     0.031 A 
HETATM   32  C20 UNL     1      -2.322   3.860 -15.240  1.00  0.00     0.002 A 
HETATM   33  C21 UNL     1      -2.737   3.899 -13.942  1.00  0.00     0.001 A 
HETATM   34  C22 UNL     1      -3.302   5.065 -13.491  1.00  0.00     0.017 A 
HETATM   35  C23 UNL     1      -3.472   6.198 -14.293  1.00  0.00     0.036 A 
ENDROOT
TORSDOF 0
ENDMDL
