MODEL 1
REMARK VINA RESULT: -8.711288754      0.000      0.000
REMARK  10 active torsions:
REMARK  status: ('A' for Active; 'I' for Inactive)
REMARK    1  A    between atoms: O1_2  and  C2_3 
REMARK    2  A    between atoms: C4_5  and  C5_6 
REMARK    3  A    between atoms: C5_6  and  N1_7 
REMARK    4  A    between atoms: N1_7  and  C6_9 
REMARK    5  A    between atoms: C6_9  and  C7_10 
REMARK    6  A    between atoms: C7_10  and  C8_11 
REMARK    7  A    between atoms: C11_14  and  O2_15 
REMARK    8  A    between atoms: O2_15  and  C12_16 
REMARK    9  A    between atoms: C12_16  and  O3_19 
REMARK   10  A    between atoms: C15_21  and  O4_22 
ROOT
HETATM    1  C2  UNL     1      54.318 -37.461   4.238  1.00  0.00     0.105 A 
HETATM    2  C3  UNL     1      54.234 -37.194   2.900  1.00  0.00     0.055 A 
HETATM    3  C4  UNL     1      53.835 -35.966   2.427  1.00  0.00     0.018 A 
HETATM    4  C11 UNL     1      53.511 -34.899   3.340  1.00  0.00     0.120 A 
HETATM    5  C15 UNL     1      53.618 -35.229   4.642  1.00  0.00     0.139 A 
HETATM    6  C17 UNL     1      53.989 -36.422   5.161  1.00  0.00     0.138 A 
HETATM    7  O5  UNL     1      54.061 -36.670   6.429  1.00  0.00    -0.351 OA
HETATM    8  C18 UNL     1      54.221 -36.882   7.697  1.00  0.00     0.210 C 
ENDROOT
BRANCH   1   9
HETATM    9  O1  UNL     1      54.694 -38.642   4.769  1.00  0.00    -0.353 OA
HETATM   10  C1  UNL     1      55.947 -39.217   4.762  1.00  0.00     0.210 C 
ENDBRANCH   1   9
BRANCH   5  11
HETATM   11  O4  UNL     1      53.311 -34.229   5.601  1.00  0.00    -0.351 OA
HETATM   12  C16 UNL     1      51.950 -34.478   6.097  1.00  0.00     0.210 C 
ENDBRANCH   5  11
BRANCH   4  13
HETATM   13  O2  UNL     1      53.180 -33.770   2.804  1.00  0.00    -0.311 OA
BRANCH  13  14
HETATM   14  C12 UNL     1      52.454 -32.841   2.274  1.00  0.00     0.160 C 
HETATM   15  C13 UNL     1      51.753 -31.947   3.340  1.00  0.00     0.078 C 
HETATM   16  C14 UNL     1      53.159 -31.859   1.367  1.00  0.00     0.078 C 
BRANCH  14  17
HETATM   17  O3  UNL     1      51.274 -33.327   1.578  1.00  0.00    -0.366 OA
ATOM     18  H3  UNL     1      50.647 -32.650   1.351  1.00  0.00     0.213 HD
ENDBRANCH  14  17
ENDBRANCH  13  14
ENDBRANCH   4  13
BRANCH   3  19
HETATM   19  C5  UNL     1      53.332 -35.802   1.061  1.00  0.00     0.101 C 
BRANCH  19  20
HETATM   20  N1  UNL     1      53.955 -35.318   0.001  1.00  0.00    -0.378 N 
ATOM     21  H1  UNL     1      53.250 -34.858  -0.575  1.00  0.00     0.164 HD
BRANCH  20  22
HETATM   22  C6  UNL     1      55.134 -35.181  -0.634  1.00  0.00     0.061 C 
BRANCH  22  23
HETATM   23  C7  UNL     1      56.017 -36.408  -0.836  1.00  0.00     0.048 C 
BRANCH  23  24
HETATM   24  C8  UNL     1      57.307 -36.191  -0.101  1.00  0.00    -0.018 C 
HETATM   25  C9  UNL     1      57.381 -37.211   1.024  1.00  0.00     0.010 C 
HETATM   26  C10 UNL     1      58.421 -36.727  -1.102  1.00  0.00     0.010 C 
ENDBRANCH  23  24
ENDBRANCH  22  23
ENDBRANCH  20  22
ENDBRANCH  19  20
ENDBRANCH   3  19
TORSDOF 10
ENDMDL
MODEL 2
REMARK VINA RESULT: -8.154967660      1.491      4.672
REMARK  10 active torsions:
REMARK  status: ('A' for Active; 'I' for Inactive)
REMARK    1  A    between atoms: O1_2  and  C2_3 
REMARK    2  A    between atoms: C4_5  and  C5_6 
REMARK    3  A    between atoms: C5_6  and  N1_7 
REMARK    4  A    between atoms: N1_7  and  C6_9 
REMARK    5  A    between atoms: C6_9  and  C7_10 
REMARK    6  A    between atoms: C7_10  and  C8_11 
REMARK    7  A    between atoms: C11_14  and  O2_15 
REMARK    8  A    between atoms: O2_15  and  C12_16 
REMARK    9  A    between atoms: C12_16  and  O3_19 
REMARK   10  A    between atoms: C15_21  and  O4_22 
ROOT
HETATM    1  C2  UNL     1      53.476 -34.753   2.208  1.00  0.00     0.105 A 
HETATM    2  C3  UNL     1      54.247 -35.880   2.174  1.00  0.00     0.055 A 
HETATM    3  C4  UNL     1      54.753 -36.450   3.319  1.00  0.00     0.018 A 
HETATM    4  C11 UNL     1      54.464 -35.879   4.611  1.00  0.00     0.120 A 
HETATM    5  C15 UNL     1      53.698 -34.772   4.571  1.00  0.00     0.139 A 
HETATM    6  C17 UNL     1      53.187 -34.163   3.476  1.00  0.00     0.138 A 
HETATM    7  O5  UNL     1      52.462 -33.092   3.514  1.00  0.00    -0.351 OA
HETATM    8  C18 UNL     1      51.662 -32.074   3.566  1.00  0.00     0.210 C 
ENDROOT
BRANCH   1   9
HETATM    9  O1  UNL     1      52.953 -34.140   1.125  1.00  0.00    -0.353 OA
HETATM   10  C1  UNL     1      53.565 -33.237   0.282  1.00  0.00     0.210 C 
ENDBRANCH   1   9
BRANCH   5  11
HETATM   11  O4  UNL     1      53.374 -34.152   5.806  1.00  0.00    -0.351 OA
HETATM   12  C16 UNL     1      52.111 -34.730   6.286  1.00  0.00     0.210 C 
ENDBRANCH   5  11
BRANCH   4  13
HETATM   13  O2  UNL     1      54.955 -36.502   5.632  1.00  0.00    -0.311 OA
BRANCH  13  14
HETATM   14  C12 UNL     1      55.079 -37.363   6.587  1.00  0.00     0.160 C 
HETATM   15  C13 UNL     1      54.116 -37.080   7.778  1.00  0.00     0.078 C 
HETATM   16  C14 UNL     1      54.825 -38.812   6.237  1.00  0.00     0.078 C 
BRANCH  14  17
HETATM   17  O3  UNL     1      56.344 -37.290   7.299  1.00  0.00    -0.366 OA
ATOM     18  H3  UNL     1      56.307 -37.601   8.197  1.00  0.00     0.213 HD
ENDBRANCH  14  17
ENDBRANCH  13  14
ENDBRANCH   4  13
BRANCH   3  19
HETATM   19  C5  UNL     1      55.898 -37.362   3.274  1.00  0.00     0.101 C 
BRANCH  19  20
HETATM   20  N1  UNL     1      56.984 -37.292   2.526  1.00  0.00    -0.378 N 
ATOM     21  H1  UNL     1      57.641 -37.984   2.887  1.00  0.00     0.164 HD
BRANCH  20  22
HETATM   22  C6  UNL     1      57.584 -36.686   1.484  1.00  0.00     0.061 C 
BRANCH  22  23
HETATM   23  C7  UNL     1      57.989 -37.519   0.272  1.00  0.00     0.048 C 
BRANCH  23  24
HETATM   24  C8  UNL     1      57.659 -36.743  -0.969  1.00  0.00    -0.018 C 
HETATM   25  C9  UNL     1      56.214 -36.283  -0.863  1.00  0.00     0.010 C 
HETATM   26  C10 UNL     1      58.451 -35.373  -0.794  1.00  0.00     0.010 C 
ENDBRANCH  23  24
ENDBRANCH  22  23
ENDBRANCH  20  22
ENDBRANCH  19  20
ENDBRANCH   3  19
TORSDOF 10
ENDMDL
MODEL 3
REMARK VINA RESULT: -8.129252602      2.583      4.848
REMARK  10 active torsions:
REMARK  status: ('A' for Active; 'I' for Inactive)
REMARK    1  A    between atoms: O1_2  and  C2_3 
REMARK    2  A    between atoms: C4_5  and  C5_6 
REMARK    3  A    between atoms: C5_6  and  N1_7 
REMARK    4  A    between atoms: N1_7  and  C6_9 
REMARK    5  A    between atoms: C6_9  and  C7_10 
REMARK    6  A    between atoms: C7_10  and  C8_11 
REMARK    7  A    between atoms: C11_14  and  O2_15 
REMARK    8  A    between atoms: O2_15  and  C12_16 
REMARK    9  A    between atoms: C12_16  and  O3_19 
REMARK   10  A    between atoms: C15_21  and  O4_22 
ROOT
HETATM    1  C2  UNL     1      52.714 -33.320   2.591  1.00  0.00     0.105 A 
HETATM    2  C3  UNL     1      53.004 -33.261   1.257  1.00  0.00     0.055 A 
HETATM    3  C4  UNL     1      53.994 -34.032   0.693  1.00  0.00     0.018 A 
HETATM    4  C11 UNL     1      54.751 -34.956   1.499  1.00  0.00     0.120 A 
HETATM    5  C15 UNL     1      54.412 -34.964   2.803  1.00  0.00     0.139 A 
HETATM    6  C17 UNL     1      53.461 -34.219   3.411  1.00  0.00     0.138 A 
HETATM    7  O5  UNL     1      53.195 -34.276   4.676  1.00  0.00    -0.351 OA
HETATM    8  C18 UNL     1      52.871 -34.405   5.924  1.00  0.00     0.210 C 
ENDROOT
BRANCH   1   9
HETATM    9  O1  UNL     1      51.763 -32.589   3.210  1.00  0.00    -0.353 OA
HETATM   10  C1  UNL     1      51.264 -31.358   2.841  1.00  0.00     0.210 C 
ENDBRANCH   1   9
BRANCH   5  11
HETATM   11  O4  UNL     1      55.118 -35.848   3.660  1.00  0.00    -0.351 OA
HETATM   12  C16 UNL     1      54.406 -37.133   3.673  1.00  0.00     0.210 C 
ENDBRANCH   5  11
BRANCH   4  13
HETATM   13  O2  UNL     1      55.637 -35.662   0.876  1.00  0.00    -0.311 OA
BRANCH  13  14
HETATM   14  C12 UNL     1      56.787 -36.114   0.500  1.00  0.00     0.160 C 
HETATM   15  C13 UNL     1      57.277 -37.308   1.372  1.00  0.00     0.078 C 
HETATM   16  C14 UNL     1      56.889 -36.623  -0.920  1.00  0.00     0.078 C 
BRANCH  14  17
HETATM   17  O3  UNL     1      57.894 -35.200   0.728  1.00  0.00    -0.366 OA
ATOM     18  H3  UNL     1      58.062 -34.601   0.009  1.00  0.00     0.213 HD
ENDBRANCH  14  17
ENDBRANCH  13  14
ENDBRANCH   4  13
BRANCH   3  19
HETATM   19  C5  UNL     1      54.596 -33.677  -0.594  1.00  0.00     0.101 C 
BRANCH  19  20
HETATM   20  N1  UNL     1      55.760 -33.100  -0.834  1.00  0.00    -0.378 N 
ATOM     21  H1  UNL     1      56.015 -32.584   0.009  1.00  0.00     0.164 HD
BRANCH  20  22
HETATM   22  C6  UNL     1      56.748 -32.910  -1.728  1.00  0.00     0.061 C 
BRANCH  22  23
HETATM   23  C7  UNL     1      57.726 -31.759  -1.521  1.00  0.00     0.048 C 
BRANCH  23  24
HETATM   24  C8  UNL     1      59.108 -32.247  -1.843  1.00  0.00    -0.018 C 
HETATM   25  C9  UNL     1      59.812 -32.559  -0.533  1.00  0.00     0.010 C 
HETATM   26  C10 UNL     1      58.877 -33.702  -2.444  1.00  0.00     0.010 C 
ENDBRANCH  23  24
ENDBRANCH  22  23
ENDBRANCH  20  22
ENDBRANCH  19  20
ENDBRANCH   3  19
TORSDOF 10
ENDMDL
MODEL 4
REMARK VINA RESULT: -8.110254230      2.353      4.988
REMARK  10 active torsions:
REMARK  status: ('A' for Active; 'I' for Inactive)
REMARK    1  A    between atoms: O1_2  and  C2_3 
REMARK    2  A    between atoms: C4_5  and  C5_6 
REMARK    3  A    between atoms: C5_6  and  N1_7 
REMARK    4  A    between atoms: N1_7  and  C6_9 
REMARK    5  A    between atoms: C6_9  and  C7_10 
REMARK    6  A    between atoms: C7_10  and  C8_11 
REMARK    7  A    between atoms: C11_14  and  O2_15 
REMARK    8  A    between atoms: O2_15  and  C12_16 
REMARK    9  A    between atoms: C12_16  and  O3_19 
REMARK   10  A    between atoms: C15_21  and  O4_22 
ROOT
HETATM    1  C2  UNL     1      54.466 -35.896   1.132  1.00  0.00     0.105 A 
HETATM    2  C3  UNL     1      54.440 -37.004   1.931  1.00  0.00     0.055 A 
HETATM    3  C4  UNL     1      54.131 -36.928   3.270  1.00  0.00     0.018 A 
HETATM    4  C11 UNL     1      53.797 -35.662   3.873  1.00  0.00     0.120 A 
HETATM    5  C15 UNL     1      53.840 -34.614   3.028  1.00  0.00     0.139 A 
HETATM    6  C17 UNL     1      54.152 -34.630   1.712  1.00  0.00     0.138 A 
HETATM    7  O5  UNL     1      54.180 -33.576   0.962  1.00  0.00    -0.351 OA
HETATM    8  C18 UNL     1      54.116 -32.532   0.196  1.00  0.00     0.210 C 
ENDROOT
BRANCH   1   9
HETATM    9  O1  UNL     1      54.767 -35.898  -0.183  1.00  0.00    -0.353 OA
HETATM   10  C1  UNL     1      55.979 -36.180  -0.777  1.00  0.00     0.210 C 
ENDBRANCH   1   9
BRANCH   5  11
HETATM   11  O4  UNL     1      53.526 -33.334   3.554  1.00  0.00    -0.351 OA
HETATM   12  C16 UNL     1      52.094 -33.090   3.332  1.00  0.00     0.210 C 
ENDBRANCH   5  11
BRANCH   4  13
HETATM   13  O2  UNL     1      53.487 -35.694   5.128  1.00  0.00    -0.311 OA
BRANCH  13  14
HETATM   14  C12 UNL     1      53.181 -35.289   6.316  1.00  0.00     0.160 C 
HETATM   15  C13 UNL     1      51.649 -35.075   6.501  1.00  0.00     0.078 C 
HETATM   16  C14 UNL     1      53.574 -36.187   7.466  1.00  0.00     0.078 C 
BRANCH  14  17
HETATM   17  O3  UNL     1      53.633 -33.942   6.625  1.00  0.00    -0.366 OA
ATOM     18  H3  UNL     1      53.557 -33.328   5.904  1.00  0.00     0.213 HD
ENDBRANCH  14  17
ENDBRANCH  13  14
ENDBRANCH   4  13
BRANCH   3  19
HETATM   19  C5  UNL     1      54.513 -37.991   4.202  1.00  0.00     0.101 C 
BRANCH  19  20
HETATM   20  N1  UNL     1      55.668 -38.178   4.816  1.00  0.00    -0.378 N 
ATOM     21  H1  UNL     1      56.194 -38.855   4.263  1.00  0.00     0.164 HD
BRANCH  20  22
HETATM   22  C6  UNL     1      56.438 -37.846   5.870  1.00  0.00     0.061 C 
BRANCH  22  23
HETATM   23  C7  UNL     1      57.176 -36.512   5.859  1.00  0.00     0.048 C 
BRANCH  23  24
HETATM   24  C8  UNL     1      58.037 -36.456   4.632  1.00  0.00    -0.018 C 
HETATM   25  C9  UNL     1      57.527 -35.324   3.755  1.00  0.00     0.010 C 
HETATM   26  C10 UNL     1      59.420 -35.867   5.153  1.00  0.00     0.010 C 
ENDBRANCH  23  24
ENDBRANCH  22  23
ENDBRANCH  20  22
ENDBRANCH  19  20
ENDBRANCH   3  19
TORSDOF 10
ENDMDL
MODEL 5
REMARK VINA RESULT: -8.048012786      2.303      4.709
REMARK  10 active torsions:
REMARK  status: ('A' for Active; 'I' for Inactive)
REMARK    1  A    between atoms: O1_2  and  C2_3 
REMARK    2  A    between atoms: C4_5  and  C5_6 
REMARK    3  A    between atoms: C5_6  and  N1_7 
REMARK    4  A    between atoms: N1_7  and  C6_9 
REMARK    5  A    between atoms: C6_9  and  C7_10 
REMARK    6  A    between atoms: C7_10  and  C8_11 
REMARK    7  A    between atoms: C11_14  and  O2_15 
REMARK    8  A    between atoms: O2_15  and  C12_16 
REMARK    9  A    between atoms: C12_16  and  O3_19 
REMARK   10  A    between atoms: C15_21  and  O4_22 
ROOT
HETATM    1  C2  UNL     1      52.619 -33.692   2.296  1.00  0.00     0.105 A 
HETATM    2  C3  UNL     1      53.033 -33.942   1.019  1.00  0.00     0.055 A 
HETATM    3  C4  UNL     1      54.136 -34.720   0.751  1.00  0.00     0.018 A 
HETATM    4  C11 UNL     1      54.886 -35.322   1.824  1.00  0.00     0.120 A 
HETATM    5  C15 UNL     1      54.422 -35.036   3.056  1.00  0.00     0.139 A 
HETATM    6  C17 UNL     1      53.356 -34.268   3.376  1.00  0.00     0.138 A 
HETATM    7  O5  UNL     1      52.972 -34.029   4.588  1.00  0.00    -0.351 OA
HETATM    8  C18 UNL     1      52.538 -33.871   5.800  1.00  0.00     0.210 C 
ENDROOT
BRANCH   1   9
HETATM    9  O1  UNL     1      51.553 -32.935   2.630  1.00  0.00    -0.353 OA
HETATM   10  C1  UNL     1      51.483 -31.561   2.725  1.00  0.00     0.210 C 
ENDBRANCH   1   9
BRANCH   5  11
HETATM   11  O4  UNL     1      55.113 -35.592   4.164  1.00  0.00    -0.351 OA
HETATM   12  C16 UNL     1      54.462 -36.862   4.514  1.00  0.00     0.210 C 
ENDBRANCH   5  11
BRANCH   4  13
HETATM   13  O2  UNL     1      55.886 -36.064   1.475  1.00  0.00    -0.311 OA
BRANCH  13  14
HETATM   14  C12 UNL     1      57.085 -36.540   1.416  1.00  0.00     0.160 C 
HETATM   15  C13 UNL     1      57.316 -37.709   2.418  1.00  0.00     0.078 C 
HETATM   16  C14 UNL     1      57.535 -37.094   0.084  1.00  0.00     0.078 C 
BRANCH  14  17
HETATM   17  O3  UNL     1      58.115 -35.630   1.892  1.00  0.00    -0.366 OA
ATOM     18  H3  UNL     1      58.502 -35.088   1.215  1.00  0.00     0.213 HD
ENDBRANCH  14  17
ENDBRANCH  13  14
ENDBRANCH   4  13
BRANCH   3  19
HETATM   19  C5  UNL     1      54.829 -34.641  -0.537  1.00  0.00     0.101 C 
BRANCH  19  20
HETATM   20  N1  UNL     1      55.907 -33.948  -0.856  1.00  0.00    -0.378 N 
ATOM     21  H1  UNL     1      56.641 -34.219  -0.201  1.00  0.00     0.164 HD
BRANCH  20  22
HETATM   22  C6  UNL     1      56.439 -33.032  -1.688  1.00  0.00     0.061 C 
BRANCH  22  23
HETATM   23  C7  UNL     1      57.834 -33.266  -2.257  1.00  0.00     0.048 C 
BRANCH  23  24
HETATM   24  C8  UNL     1      58.687 -33.879  -1.185  1.00  0.00    -0.018 C 
HETATM   25  C9  UNL     1      59.727 -34.758  -1.859  1.00  0.00     0.010 C 
HETATM   26  C10 UNL     1      59.576 -32.670  -0.655  1.00  0.00     0.010 C 
ENDBRANCH  23  24
ENDBRANCH  22  23
ENDBRANCH  20  22
ENDBRANCH  19  20
ENDBRANCH   3  19
TORSDOF 10
ENDMDL
