MODEL 1
REMARK VINA RESULT: -7.844447180      0.000      0.000
REMARK  11 active torsions:
REMARK  status: ('A' for Active; 'I' for Inactive)
REMARK    1  A    between atoms: C2_2  and  C3_3 
REMARK    2  A    between atoms: C3_3  and  C4_4 
REMARK    3  A    between atoms: C4_4  and  S1_5 
REMARK    4  A    between atoms: S1_5  and  C5_6 
REMARK    5  A    between atoms: C6_9  and  N2_10 
REMARK    6  A    between atoms: C7_15  and  N4_16 
REMARK    7  A    between atoms: N4_16  and  C8_17 
REMARK    8  A    between atoms: N4_16  and  C10_19 
REMARK    9  A    between atoms: C10_19  and  C11_20 
REMARK   10  A    between atoms: C10_19  and  C13_22 
REMARK   11  A    between atoms: C15_24  and  N5_25 
ROOT
HETATM    1  C5  UNL     1      55.445 -36.304   0.229  1.00  0.00     0.123 A 
HETATM    2  N1  UNL     1      54.191 -36.217  -0.223  1.00  0.00    -0.183 N 
ATOM      3  H1  UNL     1      54.009 -36.209  -1.227  1.00  0.00     0.185 HD
HETATM    4  C6  UNL     1      53.176 -36.141   0.640  1.00  0.00     0.678 A 
HETATM    5  N3  UNL     1      53.417 -36.154   1.951  1.00  0.00    -0.174 N 
ATOM      6  H3  UNL     1      52.620 -36.095   2.586  1.00  0.00     0.186 HD
HETATM    7  C7  UNL     1      54.656 -36.241   2.491  1.00  0.00     0.159 A 
HETATM    8  C15 UNL     1      55.700 -36.317   1.611  1.00  0.00     0.181 A 
ENDROOT
BRANCH   7   9
HETATM    9  N4  UNL     1      54.812 -36.262   3.933  1.00  0.00    -0.338 N 
BRANCH   9  10
HETATM   10  C8  UNL     1      54.365 -35.068   4.599  1.00  0.00     0.126 C 
HETATM   11  C9  UNL     1      53.173 -35.293   5.509  1.00  0.00     0.027 C 
ENDBRANCH   9  10
BRANCH   9  12
HETATM   12  C10 UNL     1      55.399 -37.379   4.588  1.00  0.00    -0.010 C 
BRANCH  12  13
HETATM   13  C11 UNL     1      54.600 -38.630   4.715  1.00  0.00     0.048 C 
HETATM   14  C12 UNL     1      54.936 -39.571   5.808  1.00  0.00     0.011 C 
ENDBRANCH  12  13
BRANCH  12  15
HETATM   15  C13 UNL     1      56.253 -37.051   5.788  1.00  0.00     0.048 C 
HETATM   16  C14 UNL     1      57.634 -36.610   5.536  1.00  0.00     0.011 C 
ENDBRANCH  12  15
ENDBRANCH   9  12
ENDBRANCH   7   9
BRANCH   8  17
HETATM   17  N5  UNL     1      57.055 -36.395   2.002  1.00  0.00    -0.109 N 
HETATM   18  O1  UNL     1      57.765 -35.416   2.281  1.00  0.00    -0.532 OA
HETATM   19  O2  UNL     1      57.641 -37.631   2.089  1.00  0.00    -0.532 OA
ENDBRANCH   8  17
BRANCH   4  20
HETATM   20  N2  UNL     1      51.942 -36.053   0.276  1.00  0.00    -0.234 N 
ATOM     21  H22 UNL     1      51.692 -35.259  -0.314  1.00  0.00     0.174 HD
ATOM     22  H21 UNL     1      51.228 -36.729   0.548  1.00  0.00     0.174 HD
ENDBRANCH   4  20
BRANCH   1  23
HETATM   23  S1  UNL     1      56.773 -36.404  -0.952  1.00  0.00    -0.109 SA
BRANCH  23  24
HETATM   24  C4  UNL     1      57.494 -34.748  -1.267  1.00  0.00     0.081 C 
BRANCH  24  25
HETATM   25  C3  UNL     1      58.997 -34.841  -1.364  1.00  0.00     0.010 C 
BRANCH  25  26
HETATM   26  C2  UNL     1      59.723 -34.118  -0.270  1.00  0.00    -0.004 C 
HETATM   27  C1  UNL     1      59.785 -32.622  -0.515  1.00  0.00     0.005 C 
ENDBRANCH  25  26
ENDBRANCH  24  25
ENDBRANCH  23  24
ENDBRANCH   1  23
TORSDOF 11
ENDMDL
MODEL 2
REMARK VINA RESULT: -7.673990877      2.809      3.941
REMARK  11 active torsions:
REMARK  status: ('A' for Active; 'I' for Inactive)
REMARK    1  A    between atoms: C2_2  and  C3_3 
REMARK    2  A    between atoms: C3_3  and  C4_4 
REMARK    3  A    between atoms: C4_4  and  S1_5 
REMARK    4  A    between atoms: S1_5  and  C5_6 
REMARK    5  A    between atoms: C6_9  and  N2_10 
REMARK    6  A    between atoms: C7_15  and  N4_16 
REMARK    7  A    between atoms: N4_16  and  C8_17 
REMARK    8  A    between atoms: N4_16  and  C10_19 
REMARK    9  A    between atoms: C10_19  and  C11_20 
REMARK   10  A    between atoms: C10_19  and  C13_22 
REMARK   11  A    between atoms: C15_24  and  N5_25 
ROOT
HETATM    1  C5  UNL     1      52.675 -34.515   1.792  1.00  0.00     0.123 A 
HETATM    2  N1  UNL     1      52.296 -35.239   0.735  1.00  0.00    -0.183 N 
ATOM      3  H1  UNL     1      51.624 -34.857   0.069  1.00  0.00     0.185 HD
HETATM    4  C6  UNL     1      52.797 -36.461   0.552  1.00  0.00     0.678 A 
HETATM    5  N3  UNL     1      53.677 -36.956   1.423  1.00  0.00    -0.174 N 
ATOM      6  H3  UNL     1      54.043 -37.894   1.256  1.00  0.00     0.186 HD
HETATM    7  C7  UNL     1      54.114 -36.289   2.518  1.00  0.00     0.159 A 
HETATM    8  C15 UNL     1      53.601 -35.035   2.712  1.00  0.00     0.181 A 
ENDROOT
BRANCH   7   9
HETATM    9  N4  UNL     1      55.085 -36.909   3.398  1.00  0.00    -0.338 N 
BRANCH   9  10
HETATM   10  C8  UNL     1      54.514 -37.621   4.509  1.00  0.00     0.126 C 
HETATM   11  C9  UNL     1      54.775 -39.114   4.471  1.00  0.00     0.027 C 
ENDBRANCH   9  10
BRANCH   9  12
HETATM   12  C10 UNL     1      56.481 -36.767   3.163  1.00  0.00    -0.010 C 
BRANCH  12  13
HETATM   13  C11 UNL     1      57.136 -37.691   2.196  1.00  0.00     0.048 C 
HETATM   14  C12 UNL     1      57.460 -37.180   0.844  1.00  0.00     0.011 C 
ENDBRANCH  12  13
BRANCH  12  15
HETATM   15  C13 UNL     1      57.310 -36.430   4.377  1.00  0.00     0.048 C 
HETATM   16  C14 UNL     1      58.310 -35.360   4.239  1.00  0.00     0.011 C 
ENDBRANCH  12  15
ENDBRANCH   9  12
ENDBRANCH   7   9
BRANCH   8  17
HETATM   17  N5  UNL     1      53.935 -34.210   3.808  1.00  0.00    -0.109 N 
HETATM   18  O1  UNL     1      53.189 -33.989   4.775  1.00  0.00    -0.532 OA
HETATM   19  O2  UNL     1      55.166 -33.607   3.824  1.00  0.00    -0.532 OA
ENDBRANCH   8  17
BRANCH   4  20
HETATM   20  N2  UNL     1      52.475 -37.217  -0.443  1.00  0.00    -0.234 N 
ATOM     21  H22 UNL     1      51.603 -36.999  -0.923  1.00  0.00     0.174 HD
ATOM     22  H21 UNL     1      53.046 -38.002  -0.757  1.00  0.00     0.174 HD
ENDBRANCH   4  20
BRANCH   1  23
HETATM   23  S1  UNL     1      51.985 -32.887   2.004  1.00  0.00    -0.109 SA
BRANCH  23  24
HETATM   24  C4  UNL     1      52.879 -31.659   0.977  1.00  0.00     0.081 C 
BRANCH  24  25
HETATM   25  C3  UNL     1      54.229 -32.197   0.574  1.00  0.00     0.010 C 
BRANCH  25  26
HETATM   26  C2  UNL     1      54.298 -32.660  -0.850  1.00  0.00    -0.004 C 
HETATM   27  C1  UNL     1      55.162 -33.897  -1.009  1.00  0.00     0.005 C 
ENDBRANCH  25  26
ENDBRANCH  24  25
ENDBRANCH  23  24
ENDBRANCH   1  23
TORSDOF 11
ENDMDL
MODEL 3
REMARK VINA RESULT: -7.491051616      2.885      4.490
REMARK  11 active torsions:
REMARK  status: ('A' for Active; 'I' for Inactive)
REMARK    1  A    between atoms: C2_2  and  C3_3 
REMARK    2  A    between atoms: C3_3  and  C4_4 
REMARK    3  A    between atoms: C4_4  and  S1_5 
REMARK    4  A    between atoms: S1_5  and  C5_6 
REMARK    5  A    between atoms: C6_9  and  N2_10 
REMARK    6  A    between atoms: C7_15  and  N4_16 
REMARK    7  A    between atoms: N4_16  and  C8_17 
REMARK    8  A    between atoms: N4_16  and  C10_19 
REMARK    9  A    between atoms: C10_19  and  C11_20 
REMARK   10  A    between atoms: C10_19  and  C13_22 
REMARK   11  A    between atoms: C15_24  and  N5_25 
ROOT
HETATM    1  C5  UNL     1      52.891 -34.466   3.868  1.00  0.00     0.123 A 
HETATM    2  N1  UNL     1      52.515 -34.181   5.118  1.00  0.00    -0.183 N 
ATOM      3  H1  UNL     1      51.863 -33.417   5.294  1.00  0.00     0.185 HD
HETATM    4  C6  UNL     1      52.995 -34.898   6.136  1.00  0.00     0.678 A 
HETATM    5  N3  UNL     1      53.847 -35.897   5.902  1.00  0.00    -0.174 N 
ATOM      6  H3  UNL     1      54.195 -36.427   6.701  1.00  0.00     0.186 HD
HETATM    7  C7  UNL     1      54.276 -36.250   4.668  1.00  0.00     0.159 A 
HETATM    8  C15 UNL     1      53.789 -35.518   3.620  1.00  0.00     0.181 A 
ENDROOT
BRANCH   7   9
HETATM    9  N4  UNL     1      55.193 -37.364   4.517  1.00  0.00    -0.338 N 
BRANCH   9  10
HETATM   10  C8  UNL     1      54.596 -38.658   4.710  1.00  0.00     0.126 C 
HETATM   11  C9  UNL     1      54.998 -39.322   6.013  1.00  0.00     0.027 C 
ENDBRANCH   9  10
BRANCH   9  12
HETATM   12  C10 UNL     1      56.570 -37.145   4.237  1.00  0.00    -0.010 C 
BRANCH  12  13
HETATM   13  C11 UNL     1      57.248 -38.044   3.262  1.00  0.00     0.048 C 
HETATM   14  C12 UNL     1      57.377 -37.588   1.858  1.00  0.00     0.011 C 
ENDBRANCH  12  13
BRANCH  12  15
HETATM   15  C13 UNL     1      57.415 -36.744   5.420  1.00  0.00     0.048 C 
HETATM   16  C14 UNL     1      58.673 -36.031   5.145  1.00  0.00     0.011 C 
ENDBRANCH  12  15
ENDBRANCH   9  12
ENDBRANCH   7   9
BRANCH   8  17
HETATM   17  N5  UNL     1      54.145 -35.740   2.272  1.00  0.00    -0.109 N 
HETATM   18  O1  UNL     1      53.519 -36.472   1.490  1.00  0.00    -0.532 OA
HETATM   19  O2  UNL     1      55.254 -35.106   1.774  1.00  0.00    -0.532 OA
ENDBRANCH   8  17
BRANCH   4  20
HETATM   20  N2  UNL     1      52.679 -34.679   7.368  1.00  0.00    -0.234 N 
ATOM     21  H22 UNL     1      53.438 -34.699   8.048  1.00  0.00     0.174 HD
ATOM     22  H21 UNL     1      51.724 -34.491   7.675  1.00  0.00     0.174 HD
ENDBRANCH   4  20
BRANCH   1  23
HETATM   23  S1  UNL     1      52.231 -33.488   2.535  1.00  0.00    -0.109 SA
BRANCH  23  24
HETATM   24  C4  UNL     1      53.379 -32.130   2.089  1.00  0.00     0.081 C 
BRANCH  24  25
HETATM   25  C3  UNL     1      53.438 -31.965   0.591  1.00  0.00     0.010 C 
BRANCH  25  26
HETATM   26  C2  UNL     1      53.950 -33.173  -0.134  1.00  0.00    -0.004 C 
HETATM   27  C1  UNL     1      55.043 -32.826  -1.127  1.00  0.00     0.005 C 
ENDBRANCH  25  26
ENDBRANCH  24  25
ENDBRANCH  23  24
ENDBRANCH   1  23
TORSDOF 11
ENDMDL
MODEL 4
REMARK VINA RESULT: -7.480522595      1.081      1.694
REMARK  11 active torsions:
REMARK  status: ('A' for Active; 'I' for Inactive)
REMARK    1  A    between atoms: C2_2  and  C3_3 
REMARK    2  A    between atoms: C3_3  and  C4_4 
REMARK    3  A    between atoms: C4_4  and  S1_5 
REMARK    4  A    between atoms: S1_5  and  C5_6 
REMARK    5  A    between atoms: C6_9  and  N2_10 
REMARK    6  A    between atoms: C7_15  and  N4_16 
REMARK    7  A    between atoms: N4_16  and  C8_17 
REMARK    8  A    between atoms: N4_16  and  C10_19 
REMARK    9  A    between atoms: C10_19  and  C11_20 
REMARK   10  A    between atoms: C10_19  and  C13_22 
REMARK   11  A    between atoms: C15_24  and  N5_25 
ROOT
HETATM    1  C5  UNL     1      55.980 -36.282   1.084  1.00  0.00     0.123 A 
HETATM    2  N1  UNL     1      54.923 -36.329   0.268  1.00  0.00    -0.183 N 
ATOM      3  H1  UNL     1      55.060 -36.397  -0.741  1.00  0.00     0.185 HD
HETATM    4  C6  UNL     1      53.690 -36.285   0.774  1.00  0.00     0.678 A 
HETATM    5  N3  UNL     1      53.515 -36.198   2.093  1.00  0.00    -0.174 N 
ATOM      6  H3  UNL     1      52.560 -36.167   2.449  1.00  0.00     0.186 HD
HETATM    7  C7  UNL     1      54.530 -36.146   2.988  1.00  0.00     0.159 A 
HETATM    8  C15 UNL     1      55.797 -36.188   2.474  1.00  0.00     0.181 A 
ENDROOT
BRANCH   7   9
HETATM    9  N4  UNL     1      54.235 -36.066   4.405  1.00  0.00    -0.338 N 
BRANCH   9  10
HETATM   10  C8  UNL     1      53.921 -34.744   4.875  1.00  0.00     0.126 C 
HETATM   11  C9  UNL     1      52.582 -34.654   5.581  1.00  0.00     0.027 C 
ENDBRANCH   9  10
BRANCH   9  12
HETATM   12  C10 UNL     1      54.301 -37.221   5.233  1.00  0.00    -0.010 C 
BRANCH  12  13
HETATM   13  C11 UNL     1      55.009 -37.119   6.539  1.00  0.00     0.048 C 
HETATM   14  C12 UNL     1      54.202 -37.159   7.781  1.00  0.00     0.011 C 
ENDBRANCH  12  13
BRANCH  12  15
HETATM   15  C13 UNL     1      54.500 -38.528   4.506  1.00  0.00     0.048 C 
HETATM   16  C14 UNL     1      54.966 -39.679   5.295  1.00  0.00     0.011 C 
ENDBRANCH  12  15
ENDBRANCH   9  12
ENDBRANCH   7   9
BRANCH   8  17
HETATM   17  N5  UNL     1      56.968 -36.127   3.262  1.00  0.00    -0.109 N 
HETATM   18  O1  UNL     1      57.598 -37.118   3.664  1.00  0.00    -0.532 OA
HETATM   19  O2  UNL     1      57.459 -34.896   3.612  1.00  0.00    -0.532 OA
ENDBRANCH   8  17
BRANCH   4  20
HETATM   20  N2  UNL     1      52.624 -36.324   0.047  1.00  0.00    -0.234 N 
ATOM     21  H22 UNL     1      52.310 -35.441  -0.356  1.00  0.00     0.174 HD
ATOM     22  H21 UNL     1      52.101 -37.181  -0.134  1.00  0.00     0.174 HD
ENDBRANCH   4  20
BRANCH   1  23
HETATM   23  S1  UNL     1      57.611 -36.341   0.373  1.00  0.00    -0.109 SA
BRANCH  23  24
HETATM   24  C4  UNL     1      57.678 -35.388  -1.192  1.00  0.00     0.081 C 
BRANCH  24  25
HETATM   25  C3  UNL     1      59.059 -34.821  -1.401  1.00  0.00     0.010 C 
BRANCH  25  26
HETATM   26  C2  UNL     1      59.624 -34.133  -0.195  1.00  0.00    -0.004 C 
HETATM   27  C1  UNL     1      59.915 -32.666  -0.454  1.00  0.00     0.005 C 
ENDBRANCH  25  26
ENDBRANCH  24  25
ENDBRANCH  23  24
ENDBRANCH   1  23
TORSDOF 11
ENDMDL
MODEL 5
REMARK VINA RESULT: -7.397953021      2.808      3.795
REMARK  11 active torsions:
REMARK  status: ('A' for Active; 'I' for Inactive)
REMARK    1  A    between atoms: C2_2  and  C3_3 
REMARK    2  A    between atoms: C3_3  and  C4_4 
REMARK    3  A    between atoms: C4_4  and  S1_5 
REMARK    4  A    between atoms: S1_5  and  C5_6 
REMARK    5  A    between atoms: C6_9  and  N2_10 
REMARK    6  A    between atoms: C7_15  and  N4_16 
REMARK    7  A    between atoms: N4_16  and  C8_17 
REMARK    8  A    between atoms: N4_16  and  C10_19 
REMARK    9  A    between atoms: C10_19  and  C11_20 
REMARK   10  A    between atoms: C10_19  and  C13_22 
REMARK   11  A    between atoms: C15_24  and  N5_25 
ROOT
HETATM    1  C5  UNL     1      52.765 -34.486   1.779  1.00  0.00     0.123 A 
HETATM    2  N1  UNL     1      52.290 -35.171   0.735  1.00  0.00    -0.183 N 
ATOM      3  H1  UNL     1      51.638 -34.729   0.087  1.00  0.00     0.185 HD
HETATM    4  C6  UNL     1      52.670 -36.435   0.541  1.00  0.00     0.678 A 
HETATM    5  N3  UNL     1      53.524 -37.010   1.388  1.00  0.00    -0.174 N 
ATOM      6  H3  UNL     1      53.797 -37.978   1.212  1.00  0.00     0.186 HD
HETATM    7  C7  UNL     1      54.052 -36.387   2.468  1.00  0.00     0.159 A 
HETATM    8  C15 UNL     1      53.664 -35.091   2.674  1.00  0.00     0.181 A 
ENDROOT
BRANCH   7   9
HETATM    9  N4  UNL     1      54.986 -37.095   3.322  1.00  0.00    -0.338 N 
BRANCH   9  10
HETATM   10  C8  UNL     1      56.288 -37.296   2.745  1.00  0.00     0.126 C 
HETATM   11  C9  UNL     1      57.295 -36.232   3.136  1.00  0.00     0.027 C 
ENDBRANCH   9  10
BRANCH   9  12
HETATM   12  C10 UNL     1      54.591 -37.568   4.604  1.00  0.00    -0.010 C 
BRANCH  12  13
HETATM   13  C11 UNL     1      55.001 -36.788   5.806  1.00  0.00     0.048 C 
HETATM   14  C12 UNL     1      53.984 -36.516   6.847  1.00  0.00     0.011 C 
ENDBRANCH  12  13
BRANCH  12  15
HETATM   15  C13 UNL     1      54.625 -39.065   4.781  1.00  0.00     0.048 C 
HETATM   16  C14 UNL     1      55.456 -39.601   5.870  1.00  0.00     0.011 C 
ENDBRANCH  12  15
ENDBRANCH   9  12
ENDBRANCH   7   9
BRANCH   8  17
HETATM   17  N5  UNL     1      54.103 -34.301   3.758  1.00  0.00    -0.109 N 
HETATM   18  O1  UNL     1      55.243 -33.822   3.864  1.00  0.00    -0.532 OA
HETATM   19  O2  UNL     1      53.221 -34.030   4.772  1.00  0.00    -0.532 OA
ENDBRANCH   8  17
BRANCH   4  20
HETATM   20  N2  UNL     1      52.252 -37.158  -0.443  1.00  0.00    -0.234 N 
ATOM     21  H22 UNL     1      52.922 -37.805  -0.857  1.00  0.00     0.174 HD
ATOM     22  H21 UNL     1      51.301 -37.105  -0.811  1.00  0.00     0.174 HD
ENDBRANCH   4  20
BRANCH   1  23
HETATM   23  S1  UNL     1      52.235 -32.802   2.007  1.00  0.00    -0.109 SA
BRANCH  23  24
HETATM   24  C4  UNL     1      53.042 -31.692   0.791  1.00  0.00     0.081 C 
BRANCH  24  25
HETATM   25  C3  UNL     1      54.395 -32.235   0.404  1.00  0.00     0.010 C 
BRANCH  25  26
HETATM   26  C2  UNL     1      54.445 -32.819  -0.975  1.00  0.00    -0.004 C 
HETATM   27  C1  UNL     1      55.243 -34.109  -1.024  1.00  0.00     0.005 C 
ENDBRANCH  25  26
ENDBRANCH  24  25
ENDBRANCH  23  24
ENDBRANCH   1  23
TORSDOF 11
ENDMDL
