MODEL 1
REMARK VINA RESULT: -7.979753049      0.000      0.000
REMARK  10 active torsions:
REMARK  status: ('A' for Active; 'I' for Inactive)
REMARK    1  A    between atoms: C2_2  and  O1_3 
REMARK    2  A    between atoms: O1_3  and  C3_4 
REMARK    3  A    between atoms: C4_5  and  N1_6 
REMARK    4  A    between atoms: N1_6  and  C5_8 
REMARK    5  A    between atoms: C5_8  and  C6_9 
REMARK    6  A    between atoms: C5_8  and  C8_11 
REMARK    7  A    between atoms: C12_15  and  N2_16 
REMARK       I    between atoms: N2_16  and  C13_18 
REMARK    8  A    between atoms: C13_18  and  C14_20 
REMARK    9  A    between atoms: C14_20  and  S1_21 
REMARK   10  A    between atoms: C16_24  and  O3_25 
ROOT
HETATM    1  S1  UNL     1      60.409 -33.239  -2.138  1.00  0.00    -0.042 SA
HETATM    2  C15 UNL     1      61.961 -33.126  -1.325  1.00  0.00     0.134 C 
HETATM    3  N3  UNL     1      62.988 -33.055  -0.802  1.00  0.00    -0.184 NA
ENDROOT
BRANCH   1   4
HETATM    4  C14 UNL     1      59.746 -34.899  -2.023  1.00  0.00     0.193 C 
BRANCH   4   5
HETATM    5  C13 UNL     1      58.901 -35.034  -0.782  1.00  0.00     0.232 C 
HETATM    6  N2  UNL     1      57.976 -36.070  -0.639  1.00  0.00    -0.324 N 
ATOM      7  H2  UNL     1      57.927 -36.709  -1.432  1.00  0.00     0.169 HD
HETATM    8  O2  UNL     1      59.107 -34.154   0.081  1.00  0.00    -0.272 OA
BRANCH   6   9
HETATM    9  C12 UNL     1      57.107 -36.377   0.409  1.00  0.00     0.071 A 
HETATM   10  C11 UNL     1      57.542 -37.000   1.544  1.00  0.00     0.035 A 
HETATM   11  C10 UNL     1      56.681 -37.318   2.614  1.00  0.00     0.034 A 
HETATM   12  C4  UNL     1      55.359 -36.998   2.526  1.00  0.00     0.065 A 
HETATM   13  C3  UNL     1      54.896 -36.359   1.364  1.00  0.00     0.130 A 
HETATM   14  C16 UNL     1      55.734 -36.050   0.326  1.00  0.00     0.130 A 
BRANCH  12  15
HETATM   15  N1  UNL     1      54.468 -37.305   3.587  1.00  0.00    -0.383 N 
ATOM     16  H1  UNL     1      53.626 -37.828   3.347  1.00  0.00     0.160 HD
BRANCH  15  17
HETATM   17  C5  UNL     1      54.639 -36.952   4.954  1.00  0.00     0.081 C 
BRANCH  17  18
HETATM   18  C6  UNL     1      54.511 -38.219   5.797  1.00  0.00     0.020 C 
HETATM   19  C7  UNL     1      54.849 -39.470   5.066  1.00  0.00     0.007 C 
ENDBRANCH  17  18
BRANCH  17  20
HETATM   20  C8  UNL     1      53.560 -35.953   5.418  1.00  0.00     0.020 C 
HETATM   21  C9  UNL     1      53.452 -36.014   6.906  1.00  0.00     0.007 C 
ENDBRANCH  17  20
ENDBRANCH  15  17
ENDBRANCH  12  15
BRANCH  13  22
HETATM   22  O1  UNL     1      53.547 -36.051   1.311  1.00  0.00    -0.346 OA
BRANCH  22  23
HETATM   23  C2  UNL     1      52.963 -34.794   1.350  1.00  0.00     0.171 C 
HETATM   24  C1  UNL     1      53.700 -33.939   2.398  1.00  0.00     0.034 C 
ENDBRANCH  22  23
ENDBRANCH  13  22
BRANCH  14  25
HETATM   25  O3  UNL     1      55.305 -35.416  -0.839  1.00  0.00    -0.351 OA
HETATM   26  C17 UNL     1      55.367 -34.038  -1.057  1.00  0.00     0.210 C 
ENDBRANCH  14  25
ENDBRANCH   6   9
ENDBRANCH   4   5
ENDBRANCH   1   4
TORSDOF 10
ENDMDL
MODEL 2
REMARK VINA RESULT: -7.904609916      0.886      1.050
REMARK  10 active torsions:
REMARK  status: ('A' for Active; 'I' for Inactive)
REMARK    1  A    between atoms: C2_2  and  O1_3 
REMARK    2  A    between atoms: O1_3  and  C3_4 
REMARK    3  A    between atoms: C4_5  and  N1_6 
REMARK    4  A    between atoms: N1_6  and  C5_8 
REMARK    5  A    between atoms: C5_8  and  C6_9 
REMARK    6  A    between atoms: C5_8  and  C8_11 
REMARK    7  A    between atoms: C12_15  and  N2_16 
REMARK       I    between atoms: N2_16  and  C13_18 
REMARK    8  A    between atoms: C13_18  and  C14_20 
REMARK    9  A    between atoms: C14_20  and  S1_21 
REMARK   10  A    between atoms: C16_24  and  O3_25 
ROOT
HETATM    1  S1  UNL     1      61.235 -34.878  -2.280  1.00  0.00    -0.042 SA
HETATM    2  C15 UNL     1      62.260 -33.766  -1.387  1.00  0.00     0.134 C 
HETATM    3  N3  UNL     1      62.931 -33.041  -0.789  1.00  0.00    -0.184 NA
ENDROOT
BRANCH   1   4
HETATM    4  C14 UNL     1      59.580 -34.219  -2.460  1.00  0.00     0.193 C 
BRANCH   4   5
HETATM    5  C13 UNL     1      58.774 -34.497  -1.216  1.00  0.00     0.232 C 
HETATM    6  N2  UNL     1      57.827 -35.522  -1.175  1.00  0.00    -0.324 N 
ATOM      7  H2  UNL     1      57.735 -36.050  -2.043  1.00  0.00     0.169 HD
HETATM    8  O2  UNL     1      59.031 -33.742  -0.254  1.00  0.00    -0.272 OA
BRANCH   6   9
HETATM    9  C12 UNL     1      56.985 -35.944  -0.145  1.00  0.00     0.071 A 
HETATM   10  C11 UNL     1      57.427 -36.767   0.852  1.00  0.00     0.035 A 
HETATM   11  C10 UNL     1      56.594 -37.203   1.902  1.00  0.00     0.034 A 
HETATM   12  C4  UNL     1      55.293 -36.799   1.936  1.00  0.00     0.065 A 
HETATM   13  C3  UNL     1      54.823 -35.955   0.915  1.00  0.00     0.130 A 
HETATM   14  C16 UNL     1      55.634 -35.530  -0.103  1.00  0.00     0.130 A 
BRANCH  12  15
HETATM   15  N1  UNL     1      54.431 -37.221   2.980  1.00  0.00    -0.383 N 
ATOM     16  H1  UNL     1      53.456 -37.392   2.733  1.00  0.00     0.160 HD
BRANCH  15  17
HETATM   17  C5  UNL     1      54.796 -37.429   4.338  1.00  0.00     0.081 C 
BRANCH  17  18
HETATM   18  C6  UNL     1      54.622 -38.911   4.662  1.00  0.00     0.020 C 
HETATM   19  C7  UNL     1      55.130 -39.302   6.004  1.00  0.00     0.007 C 
ENDBRANCH  17  18
BRANCH  17  20
HETATM   20  C8  UNL     1      53.901 -36.618   5.295  1.00  0.00     0.020 C 
HETATM   21  C9  UNL     1      53.890 -35.191   4.856  1.00  0.00     0.007 C 
ENDBRANCH  17  20
ENDBRANCH  15  17
ENDBRANCH  12  15
BRANCH  13  22
HETATM   22  O1  UNL     1      53.496 -35.565   0.983  1.00  0.00    -0.346 OA
BRANCH  22  23
HETATM   23  C2  UNL     1      52.984 -34.390   1.510  1.00  0.00     0.171 C 
HETATM   24  C1  UNL     1      51.469 -34.342   1.231  1.00  0.00     0.034 C 
ENDBRANCH  22  23
ENDBRANCH  13  22
BRANCH  14  25
HETATM   25  O3  UNL     1      55.197 -34.693  -1.128  1.00  0.00    -0.351 OA
HETATM   26  C17 UNL     1      55.193 -33.298  -1.061  1.00  0.00     0.210 C 
ENDBRANCH  14  25
ENDBRANCH   6   9
ENDBRANCH   4   5
ENDBRANCH   1   4
TORSDOF 10
ENDMDL
MODEL 3
REMARK VINA RESULT: -7.742797363      1.388      1.525
REMARK  10 active torsions:
REMARK  status: ('A' for Active; 'I' for Inactive)
REMARK    1  A    between atoms: C2_2  and  O1_3 
REMARK    2  A    between atoms: O1_3  and  C3_4 
REMARK    3  A    between atoms: C4_5  and  N1_6 
REMARK    4  A    between atoms: N1_6  and  C5_8 
REMARK    5  A    between atoms: C5_8  and  C6_9 
REMARK    6  A    between atoms: C5_8  and  C8_11 
REMARK    7  A    between atoms: C12_15  and  N2_16 
REMARK       I    between atoms: N2_16  and  C13_18 
REMARK    8  A    between atoms: C13_18  and  C14_20 
REMARK    9  A    between atoms: C14_20  and  S1_21 
REMARK   10  A    between atoms: C16_24  and  O3_25 
ROOT
HETATM    1  S1  UNL     1      58.769 -33.259  -2.962  1.00  0.00    -0.042 SA
HETATM    2  C15 UNL     1      58.083 -32.024  -1.919  1.00  0.00     0.134 C 
HETATM    3  N3  UNL     1      57.643 -31.205  -1.235  1.00  0.00    -0.184 NA
ENDROOT
BRANCH   1   4
HETATM    4  C14 UNL     1      59.677 -34.471  -2.007  1.00  0.00     0.193 C 
BRANCH   4   5
HETATM    5  C13 UNL     1      58.920 -34.810  -0.747  1.00  0.00     0.232 C 
HETATM    6  N2  UNL     1      57.851 -35.708  -0.758  1.00  0.00    -0.324 N 
ATOM      7  H2  UNL     1      57.636 -36.102  -1.674  1.00  0.00     0.169 HD
HETATM    8  O2  UNL     1      59.335 -34.227   0.277  1.00  0.00    -0.272 OA
BRANCH   6   9
HETATM    9  C12 UNL     1      57.027 -36.156   0.275  1.00  0.00     0.071 A 
HETATM   10  C11 UNL     1      57.527 -36.845   1.345  1.00  0.00     0.035 A 
HETATM   11  C10 UNL     1      56.712 -37.305   2.399  1.00  0.00     0.034 A 
HETATM   12  C4  UNL     1      55.372 -37.063   2.363  1.00  0.00     0.065 A 
HETATM   13  C3  UNL     1      54.843 -36.358   1.269  1.00  0.00     0.130 A 
HETATM   14  C16 UNL     1      55.636 -35.910   0.246  1.00  0.00     0.130 A 
BRANCH  12  15
HETATM   15  N1  UNL     1      54.527 -37.513   3.410  1.00  0.00    -0.383 N 
ATOM     16  H1  UNL     1      53.662 -37.980   3.138  1.00  0.00     0.160 HD
BRANCH  15  17
HETATM   17  C5  UNL     1      54.772 -37.375   4.804  1.00  0.00     0.081 C 
BRANCH  17  18
HETATM   18  C6  UNL     1      54.497 -38.719   5.476  1.00  0.00     0.020 C 
HETATM   19  C7  UNL     1      55.722 -39.511   5.769  1.00  0.00     0.007 C 
ENDBRANCH  17  18
BRANCH  17  20
HETATM   20  C8  UNL     1      53.844 -36.320   5.439  1.00  0.00     0.020 C 
HETATM   21  C9  UNL     1      53.862 -36.490   6.922  1.00  0.00     0.007 C 
ENDBRANCH  17  20
ENDBRANCH  15  17
ENDBRANCH  12  15
BRANCH  13  22
HETATM   22  O1  UNL     1      53.477 -36.132   1.267  1.00  0.00    -0.346 OA
BRANCH  22  23
HETATM   23  C2  UNL     1      52.819 -34.918   1.393  1.00  0.00     0.171 C 
HETATM   24  C1  UNL     1      53.492 -34.105   2.516  1.00  0.00     0.034 C 
ENDBRANCH  22  23
ENDBRANCH  13  22
BRANCH  14  25
HETATM   25  O3  UNL     1      55.141 -35.208  -0.852  1.00  0.00    -0.351 OA
HETATM   26  C17 UNL     1      55.104 -33.815  -0.948  1.00  0.00     0.210 C 
ENDBRANCH  14  25
ENDBRANCH   6   9
ENDBRANCH   4   5
ENDBRANCH   1   4
TORSDOF 10
ENDMDL
MODEL 4
REMARK VINA RESULT: -7.662868391      3.300      3.938
REMARK  10 active torsions:
REMARK  status: ('A' for Active; 'I' for Inactive)
REMARK    1  A    between atoms: C2_2  and  O1_3 
REMARK    2  A    between atoms: O1_3  and  C3_4 
REMARK    3  A    between atoms: C4_5  and  N1_6 
REMARK    4  A    between atoms: N1_6  and  C5_8 
REMARK    5  A    between atoms: C5_8  and  C6_9 
REMARK    6  A    between atoms: C5_8  and  C8_11 
REMARK    7  A    between atoms: C12_15  and  N2_16 
REMARK       I    between atoms: N2_16  and  C13_18 
REMARK    8  A    between atoms: C13_18  and  C14_20 
REMARK    9  A    between atoms: C14_20  and  S1_21 
REMARK   10  A    between atoms: C16_24  and  O3_25 
ROOT
HETATM    1  S1  UNL     1      56.599 -32.254  -3.294  1.00  0.00    -0.042 SA
HETATM    2  C15 UNL     1      56.346 -31.928  -5.001  1.00  0.00     0.134 C 
HETATM    3  N3  UNL     1      56.178 -31.701  -6.121  1.00  0.00    -0.184 NA
ENDROOT
BRANCH   1   4
HETATM    4  C14 UNL     1      55.045 -32.589  -2.469  1.00  0.00     0.193 C 
BRANCH   4   5
HETATM    5  C13 UNL     1      55.279 -33.442  -1.248  1.00  0.00     0.232 C 
HETATM    6  N2  UNL     1      54.228 -33.820  -0.411  1.00  0.00    -0.324 N 
ATOM      7  H2  UNL     1      53.312 -33.475  -0.696  1.00  0.00     0.169 HD
HETATM    8  O2  UNL     1      56.472 -33.767  -1.067  1.00  0.00    -0.272 OA
BRANCH   6   9
HETATM    9  C12 UNL     1      54.222 -34.593   0.752  1.00  0.00     0.071 A 
HETATM   10  C11 UNL     1      54.385 -35.949   0.713  1.00  0.00     0.035 A 
HETATM   11  C10 UNL     1      54.384 -36.747   1.875  1.00  0.00     0.034 A 
HETATM   12  C4  UNL     1      54.213 -36.157   3.092  1.00  0.00     0.065 A 
HETATM   13  C3  UNL     1      54.042 -34.764   3.147  1.00  0.00     0.130 A 
HETATM   14  C16 UNL     1      54.045 -33.990   2.017  1.00  0.00     0.130 A 
BRANCH  12  15
HETATM   15  N1  UNL     1      54.208 -36.935   4.279  1.00  0.00    -0.383 N 
ATOM     16  H1  UNL     1      53.371 -36.884   4.861  1.00  0.00     0.160 HD
BRANCH  15  17
HETATM   17  C5  UNL     1      55.258 -37.778   4.734  1.00  0.00     0.081 C 
BRANCH  17  18
HETATM   18  C6  UNL     1      54.676 -39.161   5.017  1.00  0.00     0.020 C 
HETATM   19  C7  UNL     1      55.118 -39.752   6.309  1.00  0.00     0.007 C 
ENDBRANCH  17  18
BRANCH  17  20
HETATM   20  C8  UNL     1      55.887 -37.244   6.036  1.00  0.00     0.020 C 
HETATM   21  C9  UNL     1      57.220 -36.649   5.721  1.00  0.00     0.007 C 
ENDBRANCH  17  20
ENDBRANCH  15  17
ENDBRANCH  12  15
BRANCH  13  22
HETATM   22  O1  UNL     1      53.871 -34.201   4.400  1.00  0.00    -0.346 OA
BRANCH  22  23
HETATM   23  C2  UNL     1      52.677 -33.948   5.059  1.00  0.00     0.171 C 
HETATM   24  C1  UNL     1      52.743 -34.584   6.461  1.00  0.00     0.034 C 
ENDBRANCH  22  23
ENDBRANCH  13  22
BRANCH  14  25
HETATM   25  O3  UNL     1      53.879 -32.606   2.040  1.00  0.00    -0.351 OA
HETATM   26  C17 UNL     1      52.646 -31.956   1.953  1.00  0.00     0.210 C 
ENDBRANCH  14  25
ENDBRANCH   6   9
ENDBRANCH   4   5
ENDBRANCH   1   4
TORSDOF 10
ENDMDL
MODEL 5
REMARK VINA RESULT: -7.582418458      2.872      7.139
REMARK  10 active torsions:
REMARK  status: ('A' for Active; 'I' for Inactive)
REMARK    1  A    between atoms: C2_2  and  O1_3 
REMARK    2  A    between atoms: O1_3  and  C3_4 
REMARK    3  A    between atoms: C4_5  and  N1_6 
REMARK    4  A    between atoms: N1_6  and  C5_8 
REMARK    5  A    between atoms: C5_8  and  C6_9 
REMARK    6  A    between atoms: C5_8  and  C8_11 
REMARK    7  A    between atoms: C12_15  and  N2_16 
REMARK       I    between atoms: N2_16  and  C13_18 
REMARK    8  A    between atoms: C13_18  and  C14_20 
REMARK    9  A    between atoms: C14_20  and  S1_21 
REMARK   10  A    between atoms: C16_24  and  O3_25 
ROOT
HETATM    1  S1  UNL     1      53.899 -36.211   6.037  1.00  0.00    -0.042 SA
HETATM    2  C15 UNL     1      53.205 -34.747   5.363  1.00  0.00     0.134 C 
HETATM    3  N3  UNL     1      52.736 -33.788   4.921  1.00  0.00    -0.184 NA
ENDROOT
BRANCH   1   4
HETATM    4  C14 UNL     1      54.240 -37.409   4.750  1.00  0.00     0.193 C 
BRANCH   4   5
HETATM    5  C13 UNL     1      55.237 -36.847   3.769  1.00  0.00     0.232 C 
HETATM    6  N2  UNL     1      55.140 -37.106   2.401  1.00  0.00    -0.324 N 
ATOM      7  H2  UNL     1      54.351 -37.696   2.135  1.00  0.00     0.169 HD
HETATM    8  O2  UNL     1      56.132 -36.146   4.288  1.00  0.00    -0.272 OA
BRANCH   6   9
HETATM    9  C12 UNL     1      55.941 -36.693   1.336  1.00  0.00     0.071 A 
HETATM   10  C11 UNL     1      57.178 -37.230   1.117  1.00  0.00     0.035 A 
HETATM   11  C10 UNL     1      58.002 -36.828   0.047  1.00  0.00     0.034 A 
HETATM   12  C4  UNL     1      57.562 -35.865  -0.811  1.00  0.00     0.065 A 
HETATM   13  C3  UNL     1      56.293 -35.301  -0.598  1.00  0.00     0.130 A 
HETATM   14  C16 UNL     1      55.493 -35.694   0.442  1.00  0.00     0.130 A 
BRANCH  12  15
HETATM   15  N1  UNL     1      58.369 -35.440  -1.898  1.00  0.00    -0.383 N 
ATOM     16  H1  UNL     1      58.114 -35.783  -2.824  1.00  0.00     0.160 HD
BRANCH  15  17
HETATM   17  C5  UNL     1      59.500 -34.582  -1.818  1.00  0.00     0.081 C 
BRANCH  17  18
HETATM   18  C6  UNL     1      60.742 -35.386  -2.196  1.00  0.00     0.020 C 
HETATM   19  C7  UNL     1      61.562 -34.765  -3.271  1.00  0.00     0.007 C 
ENDBRANCH  17  18
BRANCH  17  20
HETATM   20  C8  UNL     1      59.695 -34.035  -0.391  1.00  0.00     0.020 C 
HETATM   21  C9  UNL     1      59.859 -32.553  -0.458  1.00  0.00     0.007 C 
ENDBRANCH  17  20
ENDBRANCH  15  17
ENDBRANCH  12  15
BRANCH  13  22
HETATM   22  O1  UNL     1      55.880 -34.326  -1.490  1.00  0.00    -0.346 OA
BRANCH  22  23
HETATM   23  C2  UNL     1      55.996 -32.951  -1.355  1.00  0.00     0.171 C 
HETATM   24  C1  UNL     1      56.603 -32.377  -2.649  1.00  0.00     0.034 C 
ENDBRANCH  22  23
ENDBRANCH  13  22
BRANCH  14  25
HETATM   25  O3  UNL     1      54.229 -35.155   0.678  1.00  0.00    -0.351 OA
HETATM   26  C17 UNL     1      53.980 -34.062   1.511  1.00  0.00     0.210 C 
ENDBRANCH  14  25
ENDBRANCH   6   9
ENDBRANCH   4   5
ENDBRANCH   1   4
TORSDOF 10
ENDMDL
