MODEL 1
REMARK VINA RESULT: -6.138786527      0.000      0.000
REMARK  1 active torsions:
REMARK  status: ('A' for Active; 'I' for Inactive)
REMARK       I    between atoms: C2_4  and  N3_6 
REMARK    1  A    between atoms: N6_14  and  N7_15 
ROOT
HETATM    1  C1  UNL     1      55.820  68.466  62.214  1.00  0.00     0.148 C 
HETATM    2  N1  UNL     1      56.880  69.426  62.239  1.00  0.00    -0.368 N 
ATOM      3  H1  UNL     1      56.628  70.390  62.461  1.00  0.00     0.161 HD
HETATM    4  C2  UNL     1      58.116  69.185  62.009  1.00  0.00     0.202 C 
HETATM    5  N2  UNL     1      59.017  70.291  62.084  1.00  0.00    -0.063 NA
HETATM    6  N3  UNL     1      58.662  67.934  61.688  1.00  0.00    -0.162 N 
ATOM      7  H3  UNL     1      59.014  67.325  62.427  1.00  0.00     0.187 HD
HETATM    8  C3  UNL     1      58.718  67.558  60.466  1.00  0.00     0.698 C 
HETATM    9  N4  UNL     1      59.273  66.278  60.092  1.00  0.00    -0.186 N 
ATOM     10  H4  UNL     1      59.640  65.621  60.782  1.00  0.00     0.185 HD
HETATM   11  C4  UNL     1      59.273  66.020  58.831  1.00  0.00     0.213 C 
HETATM   12  N5  UNL     1      58.767  66.924  57.854  1.00  0.00    -0.278 N 
ATOM     13  H5  UNL     1      59.112  66.914  56.893  1.00  0.00     0.185 HD
HETATM   14  N6  UNL     1      57.777  67.826  58.261  1.00  0.00    -0.031 NA
HETATM   15  N8  UNL     1      58.232  68.409  59.451  1.00  0.00    -0.115 N 
ATOM     16  H8  UNL     1      58.212  69.420  59.580  1.00  0.00     0.203 HD
ENDROOT
BRANCH  14  17
HETATM   17  N7  UNL     1      56.608  67.099  58.596  1.00  0.00    -0.327 NA
ATOM     18  H72 UNL     1      56.687  66.197  58.126  1.00  0.00     0.174 HD
ATOM     19  H71 UNL     1      55.800  67.569  58.189  1.00  0.00     0.174 HD
ENDBRANCH  14  17
TORSDOF 1
ENDMDL
MODEL 2
REMARK VINA RESULT: -6.121720859      0.910      1.083
REMARK  1 active torsions:
REMARK  status: ('A' for Active; 'I' for Inactive)
REMARK       I    between atoms: C2_4  and  N3_6 
REMARK    1  A    between atoms: N6_14  and  N7_15 
ROOT
HETATM    1  C1  UNL     1      57.228  69.337  62.401  1.00  0.00     0.148 C 
HETATM    2  N1  UNL     1      58.444  69.942  61.951  1.00  0.00    -0.368 N 
ATOM      3  H1  UNL     1      58.521  70.955  62.046  1.00  0.00     0.161 HD
HETATM    4  C2  UNL     1      59.444  69.327  61.441  1.00  0.00     0.202 C 
HETATM    5  N2  UNL     1      60.566  70.122  61.054  1.00  0.00    -0.063 NA
HETATM    6  N3  UNL     1      59.534  67.944  61.227  1.00  0.00    -0.162 N 
ATOM      7  H3  UNL     1      59.940  67.341  61.943  1.00  0.00     0.187 HD
HETATM    8  C3  UNL     1      59.106  67.439  60.131  1.00  0.00     0.698 C 
HETATM    9  N4  UNL     1      59.181  66.020  59.871  1.00  0.00    -0.186 N 
ATOM     10  H4  UNL     1      59.574  65.363  60.545  1.00  0.00     0.185 HD
HETATM   11  C4  UNL     1      58.718  65.641  58.731  1.00  0.00     0.213 C 
HETATM   12  N5  UNL     1      58.168  66.543  57.776  1.00  0.00    -0.278 N 
ATOM     13  H5  UNL     1      58.178  66.331  56.779  1.00  0.00     0.185 HD
HETATM   14  N6  UNL     1      57.613  67.734  58.260  1.00  0.00    -0.031 NA
HETATM   15  N8  UNL     1      58.550  68.282  59.146  1.00  0.00    -0.115 N 
ATOM     16  H8  UNL     1      58.821  69.262  59.080  1.00  0.00     0.203 HD
ENDROOT
BRANCH  14  17
HETATM   17  N7  UNL     1      56.468  67.420  59.036  1.00  0.00    -0.327 NA
ATOM     18  H72 UNL     1      56.629  66.488  59.418  1.00  0.00     0.174 HD
ATOM     19  H71 UNL     1      55.662  67.347  58.416  1.00  0.00     0.174 HD
ENDBRANCH  14  17
TORSDOF 1
ENDMDL
MODEL 3
REMARK VINA RESULT: -5.491427697      1.829      2.823
REMARK  1 active torsions:
REMARK  status: ('A' for Active; 'I' for Inactive)
REMARK       I    between atoms: C2_4  and  N3_6 
REMARK    1  A    between atoms: N6_14  and  N7_15 
ROOT
HETATM    1  C1  UNL     1      60.546  69.932  60.060  1.00  0.00     0.148 C 
HETATM    2  N1  UNL     1      60.830  69.120  61.203  1.00  0.00    -0.368 N 
ATOM      3  H1  UNL     1      61.799  69.091  61.522  1.00  0.00     0.161 HD
HETATM    4  C2  UNL     1      59.979  68.427  61.862  1.00  0.00     0.202 C 
HETATM    5  N2  UNL     1      60.473  67.683  62.977  1.00  0.00    -0.063 NA
HETATM    6  N3  UNL     1      58.607  68.335  61.586  1.00  0.00    -0.162 N 
ATOM      7  H3  UNL     1      57.951  68.974  62.034  1.00  0.00     0.187 HD
HETATM    8  C3  UNL     1      58.180  67.445  60.770  1.00  0.00     0.698 C 
HETATM    9  N4  UNL     1      56.776  67.315  60.458  1.00  0.00    -0.186 N 
ATOM     10  H4  UNL     1      56.068  67.923  60.871  1.00  0.00     0.185 HD
HETATM   11  C4  UNL     1      56.477  66.380  59.625  1.00  0.00     0.213 C 
HETATM   12  N5  UNL     1      57.451  65.521  59.041  1.00  0.00    -0.278 N 
ATOM     13  H5  UNL     1      57.207  64.582  58.725  1.00  0.00     0.185 HD
HETATM   14  N6  UNL     1      58.754  66.014  58.915  1.00  0.00    -0.031 NA
HETATM   15  N8  UNL     1      59.096  66.563  60.158  1.00  0.00    -0.115 N 
ATOM     16  H8  UNL     1      59.982  66.332  60.607  1.00  0.00     0.203 HD
ENDROOT
BRANCH  14  17
HETATM   17  N7  UNL     1      58.748  67.090  57.993  1.00  0.00    -0.327 NA
ATOM     18  H72 UNL     1      59.617  67.602  58.145  1.00  0.00     0.174 HD
ATOM     19  H71 UNL     1      57.989  67.726  58.237  1.00  0.00     0.174 HD
ENDBRANCH  14  17
TORSDOF 1
ENDMDL
MODEL 4
REMARK VINA RESULT: -5.382766687      1.761      3.733
REMARK  1 active torsions:
REMARK  status: ('A' for Active; 'I' for Inactive)
REMARK       I    between atoms: C2_4  and  N3_6 
REMARK    1  A    between atoms: N6_14  and  N7_15 
ROOT
HETATM    1  C1  UNL     1      55.663  67.351  61.277  1.00  0.00     0.148 C 
HETATM    2  N1  UNL     1      56.186  66.300  60.462  1.00  0.00    -0.368 N 
ATOM      3  H1  UNL     1      55.808  65.364  60.611  1.00  0.00     0.161 HD
HETATM    4  C2  UNL     1      57.088  66.426  59.561  1.00  0.00     0.202 C 
HETATM    5  N2  UNL     1      57.472  65.244  58.857  1.00  0.00    -0.063 NA
HETATM    6  N3  UNL     1      57.731  67.621  59.207  1.00  0.00    -0.162 N 
ATOM      7  H3  UNL     1      57.355  68.200  58.455  1.00  0.00     0.187 HD
HETATM    8  C3  UNL     1      58.790  67.983  59.827  1.00  0.00     0.698 C 
HETATM    9  N4  UNL     1      59.483  69.206  59.493  1.00  0.00    -0.186 N 
ATOM     10  H4  UNL     1      59.160  69.830  58.754  1.00  0.00     0.185 HD
HETATM   11  C4  UNL     1      60.536  69.454  60.190  1.00  0.00     0.213 C 
HETATM   12  N5  UNL     1      61.004  68.594  61.224  1.00  0.00    -0.278 N 
ATOM     13  H5  UNL     1      61.990  68.566  61.486  1.00  0.00     0.185 HD
HETATM   14  N6  UNL     1      60.059  67.787  61.869  1.00  0.00    -0.031 NA
HETATM   15  N8  UNL     1      59.303  67.173  60.862  1.00  0.00    -0.115 N 
ATOM     16  H8  UNL     1      59.129  66.168  60.877  1.00  0.00     0.203 HD
ENDROOT
BRANCH  14  17
HETATM   17  N7  UNL     1      59.164  68.620  62.587  1.00  0.00    -0.327 NA
ATOM     18  H72 UNL     1      59.044  68.188  63.503  1.00  0.00     0.174 HD
ATOM     19  H71 UNL     1      58.252  68.592  62.130  1.00  0.00     0.174 HD
ENDBRANCH  14  17
TORSDOF 1
ENDMDL
MODEL 5
REMARK VINA RESULT: -5.211111817      1.543      2.965
REMARK  1 active torsions:
REMARK  status: ('A' for Active; 'I' for Inactive)
REMARK       I    between atoms: C2_4  and  N3_6 
REMARK    1  A    between atoms: N6_14  and  N7_15 
ROOT
HETATM    1  C1  UNL     1      56.475  70.432  62.678  1.00  0.00     0.148 C 
HETATM    2  N1  UNL     1      55.828  69.181  62.930  1.00  0.00    -0.368 N 
ATOM      3  H1  UNL     1      55.397  69.058  63.846  1.00  0.00     0.161 HD
HETATM    4  C2  UNL     1      55.741  68.203  62.109  1.00  0.00     0.202 C 
HETATM    5  N2  UNL     1      55.049  67.037  62.561  1.00  0.00    -0.063 NA
HETATM    6  N3  UNL     1      56.264  68.174  60.808  1.00  0.00    -0.162 N 
ATOM      7  H3  UNL     1      55.689  68.467  60.019  1.00  0.00     0.187 HD
HETATM    8  C3  UNL     1      57.466  67.778  60.614  1.00  0.00     0.698 C 
HETATM    9  N4  UNL     1      58.043  67.732  59.291  1.00  0.00    -0.186 N 
ATOM     10  H4  UNL     1      57.523  68.013  58.459  1.00  0.00     0.185 HD
HETATM   11  C4  UNL     1      59.259  67.313  59.231  1.00  0.00     0.213 C 
HETATM   12  N5  UNL     1      60.001  66.915  60.379  1.00  0.00    -0.278 N 
ATOM     13  H5  UNL     1      60.764  66.241  60.310  1.00  0.00     0.185 HD
HETATM   14  N6  UNL     1      59.645  67.485  61.607  1.00  0.00    -0.031 NA
HETATM   15  N8  UNL     1      58.253  67.371  61.712  1.00  0.00    -0.115 N 
ATOM     16  H8  UNL     1      57.820  67.003  62.560  1.00  0.00     0.203 HD
ENDROOT
BRANCH  14  17
HETATM   17  N7  UNL     1      59.927  68.874  61.563  1.00  0.00    -0.327 NA
ATOM     18  H72 UNL     1      60.867  68.963  61.178  1.00  0.00     0.174 HD
ATOM     19  H71 UNL     1      59.968  69.230  62.518  1.00  0.00     0.174 HD
ENDBRANCH  14  17
TORSDOF 1
ENDMDL
