MODEL 1
REMARK VINA RESULT: -6.411644527      0.000      0.000
REMARK  3 active torsions:
REMARK  status: ('A' for Active; 'I' for Inactive)
REMARK    1  A    between atoms: C3_4  and  C4_5 
REMARK       I    between atoms: C4_5  and  N2_7 
REMARK    2  A    between atoms: N2_7  and  N3_9 
REMARK    3  A    between atoms: N5_15  and  N6_17 
ROOT
HETATM    1  C1  UNL     1      54.518  68.792  63.129  1.00  0.00     0.175 C 
HETATM    2  N1  UNL     1      55.857  68.874  62.552  1.00  0.00    -0.194 N 
HETATM    3  C2  UNL     1      56.391  68.004  61.679  1.00  0.00     0.144 A 
HETATM    4  C3  UNL     1      57.668  68.376  61.338  1.00  0.00     0.134 A 
HETATM    5  N4  UNL     1      57.898  69.521  62.044  1.00  0.00    -0.183 N 
ATOM      6  H4  UNL     1      58.760  70.067  62.024  1.00  0.00     0.184 HD
HETATM    7  C5  UNL     1      56.793  69.814  62.777  1.00  0.00     0.698 A 
HETATM    8  N5  UNL     1      56.603  70.811  63.576  1.00  0.00    -0.138 N 
ATOM      9  H5  UNL     1      55.713  70.905  64.066  1.00  0.00     0.205 HD
ENDROOT
BRANCH   4  10
HETATM   10  C4  UNL     1      58.599  67.718  60.428  1.00  0.00     0.288 C 
HETATM   11  O1  UNL     1      59.644  67.215  60.913  1.00  0.00    -0.264 OA
HETATM   12  N2  UNL     1      58.385  67.621  59.039  1.00  0.00    -0.271 N 
ATOM     13  H2  UNL     1      57.537  68.030  58.647  1.00  0.00     0.189 HD
BRANCH  12  14
HETATM   14  N3  UNL     1      59.283  66.988  58.175  1.00  0.00    -0.342 N 
ATOM     15  H32 UNL     1      59.411  65.982  58.282  1.00  0.00     0.176 HD
ATOM     16  H31 UNL     1      59.805  67.488  57.455  1.00  0.00     0.176 HD
ENDBRANCH  12  14
ENDBRANCH   4  10
BRANCH   8  17
HETATM   17  N6  UNL     1      57.605  71.759  63.775  1.00  0.00    -0.331 N 
ATOM     18  H62 UNL     1      57.993  72.241  62.964  1.00  0.00     0.177 HD
ATOM     19  H61 UNL     1      57.943  71.967  64.714  1.00  0.00     0.177 HD
ENDBRANCH   8  17
TORSDOF 3
ENDMDL
MODEL 2
REMARK VINA RESULT: -6.266891276      2.223      4.557
REMARK  3 active torsions:
REMARK  status: ('A' for Active; 'I' for Inactive)
REMARK    1  A    between atoms: C3_4  and  C4_5 
REMARK       I    between atoms: C4_5  and  N2_7 
REMARK    2  A    between atoms: N2_7  and  N3_9 
REMARK    3  A    between atoms: N5_15  and  N6_17 
ROOT
HETATM    1  C1  UNL     1      55.776  66.830  61.742  1.00  0.00     0.175 C 
HETATM    2  N1  UNL     1      56.611  68.014  61.924  1.00  0.00    -0.194 N 
HETATM    3  C2  UNL     1      56.231  69.163  62.504  1.00  0.00     0.144 A 
HETATM    4  C3  UNL     1      57.261  70.071  62.513  1.00  0.00     0.134 A 
HETATM    5  N4  UNL     1      58.300  69.426  61.907  1.00  0.00    -0.183 N 
ATOM      6  H4  UNL     1      59.228  69.817  61.746  1.00  0.00     0.184 HD
HETATM    7  C5  UNL     1      57.895  68.178  61.554  1.00  0.00     0.698 A 
HETATM    8  N5  UNL     1      58.575  67.253  60.962  1.00  0.00    -0.138 N 
ATOM      9  H5  UNL     1      58.136  66.355  60.757  1.00  0.00     0.205 HD
ENDROOT
BRANCH   4  10
HETATM   10  C4  UNL     1      57.277  71.431  63.040  1.00  0.00     0.288 C 
HETATM   11  O1  UNL     1      58.037  71.680  64.010  1.00  0.00    -0.264 OA
HETATM   12  N2  UNL     1      56.486  72.473  62.518  1.00  0.00    -0.271 N 
ATOM     13  H2  UNL     1      55.870  72.269  61.731  1.00  0.00     0.189 HD
BRANCH  12  14
HETATM   14  N3  UNL     1      56.508  73.773  63.030  1.00  0.00    -0.342 N 
ATOM     15  H32 UNL     1      56.856  73.899  63.980  1.00  0.00     0.176 HD
ATOM     16  H31 UNL     1      56.195  74.585  62.496  1.00  0.00     0.176 HD
ENDBRANCH  12  14
ENDBRANCH   4  10
BRANCH   8  17
HETATM   17  N6  UNL     1      59.903  67.473  60.599  1.00  0.00    -0.331 N 
ATOM     18  H62 UNL     1      60.224  68.432  60.472  1.00  0.00     0.177 HD
ATOM     19  H61 UNL     1      60.540  66.688  60.465  1.00  0.00     0.177 HD
ENDBRANCH   8  17
TORSDOF 3
ENDMDL
MODEL 3
REMARK VINA RESULT: -6.215318020      2.535      5.082
REMARK  3 active torsions:
REMARK  status: ('A' for Active; 'I' for Inactive)
REMARK    1  A    between atoms: C3_4  and  C4_5 
REMARK       I    between atoms: C4_5  and  N2_7 
REMARK    2  A    between atoms: N2_7  and  N3_9 
REMARK    3  A    between atoms: N5_15  and  N6_17 
ROOT
HETATM    1  C1  UNL     1      60.149  68.943  60.853  1.00  0.00     0.175 C 
HETATM    2  N1  UNL     1      58.767  68.564  61.130  1.00  0.00    -0.194 N 
HETATM    3  C2  UNL     1      57.941  69.177  61.994  1.00  0.00     0.144 A 
HETATM    4  C3  UNL     1      56.711  68.566  62.012  1.00  0.00     0.134 A 
HETATM    5  N4  UNL     1      56.817  67.542  61.116  1.00  0.00    -0.183 N 
ATOM      6  H4  UNL     1      56.077  66.879  60.883  1.00  0.00     0.184 HD
HETATM    7  C5  UNL     1      58.068  67.550  60.587  1.00  0.00     0.698 A 
HETATM    8  N5  UNL     1      58.570  66.749  59.706  1.00  0.00    -0.138 N 
ATOM      9  H5  UNL     1      59.534  66.875  59.398  1.00  0.00     0.205 HD
ENDROOT
BRANCH   4  10
HETATM   10  C4  UNL     1      55.533  68.907  62.801  1.00  0.00     0.288 C 
HETATM   11  O1  UNL     1      55.533  69.999  63.424  1.00  0.00    -0.264 OA
HETATM   12  N2  UNL     1      54.400  68.075  62.898  1.00  0.00    -0.271 N 
ATOM     13  H2  UNL     1      54.401  67.189  62.392  1.00  0.00     0.189 HD
BRANCH  12  14
HETATM   14  N3  UNL     1      53.275  68.410  63.656  1.00  0.00    -0.342 N 
ATOM     15  H32 UNL     1      52.651  69.126  63.283  1.00  0.00     0.176 HD
ATOM     16  H31 UNL     1      53.059  67.972  64.552  1.00  0.00     0.176 HD
ENDBRANCH  12  14
ENDBRANCH   4  10
BRANCH   8  17
HETATM   17  N6  UNL     1      57.803  65.714  59.172  1.00  0.00    -0.331 N 
ATOM     18  H62 UNL     1      57.202  65.177  59.796  1.00  0.00     0.177 HD
ATOM     19  H61 UNL     1      57.845  65.499  58.176  1.00  0.00     0.177 HD
ENDBRANCH   8  17
TORSDOF 3
ENDMDL
MODEL 4
REMARK VINA RESULT: -6.189258354      1.100      2.182
REMARK  3 active torsions:
REMARK  status: ('A' for Active; 'I' for Inactive)
REMARK    1  A    between atoms: C3_4  and  C4_5 
REMARK       I    between atoms: C4_5  and  N2_7 
REMARK    2  A    between atoms: N2_7  and  N3_9 
REMARK    3  A    between atoms: N5_15  and  N6_17 
ROOT
HETATM    1  C1  UNL     1      57.082  71.391  63.671  1.00  0.00     0.175 C 
HETATM    2  N1  UNL     1      57.128  70.185  62.850  1.00  0.00    -0.194 N 
HETATM    3  C2  UNL     1      58.165  69.786  62.096  1.00  0.00     0.144 A 
HETATM    4  C3  UNL     1      57.877  68.608  61.453  1.00  0.00     0.134 A 
HETATM    5  N4  UNL     1      56.608  68.296  61.846  1.00  0.00    -0.183 N 
ATOM      6  H4  UNL     1      56.080  67.474  61.552  1.00  0.00     0.184 HD
HETATM    7  C5  UNL     1      56.163  69.259  62.695  1.00  0.00     0.698 A 
HETATM    8  N5  UNL     1      55.019  69.337  63.288  1.00  0.00    -0.138 N 
ATOM      9  H5  UNL     1      54.820  70.126  63.903  1.00  0.00     0.205 HD
ENDROOT
BRANCH   4  10
HETATM   10  C4  UNL     1      58.715  67.834  60.544  1.00  0.00     0.288 C 
HETATM   11  O1  UNL     1      59.703  67.224  61.024  1.00  0.00    -0.264 OA
HETATM   12  N2  UNL     1      58.471  67.738  59.159  1.00  0.00    -0.271 N 
ATOM     13  H2  UNL     1      57.668  68.234  58.770  1.00  0.00     0.189 HD
BRANCH  12  14
HETATM   14  N3  UNL     1      59.279  66.994  58.295  1.00  0.00    -0.342 N 
ATOM     15  H32 UNL     1      59.806  67.504  57.586  1.00  0.00     0.176 HD
ATOM     16  H31 UNL     1      59.361  65.978  58.349  1.00  0.00     0.176 HD
ENDBRANCH  12  14
ENDBRANCH   4  10
BRANCH   8  17
HETATM   17  N6  UNL     1      54.052  68.352  63.094  1.00  0.00    -0.331 N 
ATOM     18  H62 UNL     1      53.466  68.077  63.882  1.00  0.00     0.177 HD
ATOM     19  H61 UNL     1      53.934  67.914  62.180  1.00  0.00     0.177 HD
ENDBRANCH   8  17
TORSDOF 3
ENDMDL
MODEL 5
REMARK VINA RESULT: -6.016609695      2.324      4.408
REMARK  3 active torsions:
REMARK  status: ('A' for Active; 'I' for Inactive)
REMARK    1  A    between atoms: C3_4  and  C4_5 
REMARK       I    between atoms: C4_5  and  N2_7 
REMARK    2  A    between atoms: N2_7  and  N3_9 
REMARK    3  A    between atoms: N5_15  and  N6_17 
ROOT
HETATM    1  C1  UNL     1      54.499  68.265  62.851  1.00  0.00     0.175 C 
HETATM    2  N1  UNL     1      55.752  68.996  62.683  1.00  0.00    -0.194 N 
HETATM    3  C2  UNL     1      56.057  70.173  63.251  1.00  0.00     0.144 A 
HETATM    4  C3  UNL     1      57.316  70.581  62.885  1.00  0.00     0.134 A 
HETATM    5  N4  UNL     1      57.776  69.596  62.060  1.00  0.00    -0.183 N 
ATOM      6  H4  UNL     1      58.688  69.580  61.605  1.00  0.00     0.184 HD
HETATM    7  C5  UNL     1      56.819  68.638  61.945  1.00  0.00     0.698 A 
HETATM    8  N5  UNL     1      56.859  67.544  61.260  1.00  0.00    -0.138 N 
ATOM      9  H5  UNL     1      56.058  66.913  61.266  1.00  0.00     0.205 HD
ENDROOT
BRANCH   4  10
HETATM   10  C4  UNL     1      58.034  71.791  63.270  1.00  0.00     0.288 C 
HETATM   11  O1  UNL     1      58.293  71.963  64.488  1.00  0.00    -0.264 OA
HETATM   12  N2  UNL     1      58.449  72.771  62.347  1.00  0.00    -0.271 N 
ATOM     13  H2  UNL     1      58.239  72.630  61.359  1.00  0.00     0.189 HD
BRANCH  12  14
HETATM   14  N3  UNL     1      59.137  73.927  62.725  1.00  0.00    -0.342 N 
ATOM     15  H32 UNL     1      59.705  73.882  63.571  1.00  0.00     0.176 HD
ATOM     16  H31 UNL     1      59.092  74.798  62.195  1.00  0.00     0.176 HD
ENDBRANCH  12  14
ENDBRANCH   4  10
BRANCH   8  17
HETATM   17  N6  UNL     1      57.989  67.219  60.511  1.00  0.00    -0.331 N 
ATOM     18  H62 UNL     1      57.996  67.436  59.515  1.00  0.00     0.177 HD
ATOM     19  H61 UNL     1      58.793  66.772  60.953  1.00  0.00     0.177 HD
ENDBRANCH   8  17
TORSDOF 3
ENDMDL
