MODEL 1
REMARK VINA RESULT: -10.145164076      0.000      0.000
REMARK  11 active torsions:
REMARK  status: ('A' for Active; 'I' for Inactive)
REMARK    1  A    between atoms: O1_2  and  N1_3 
REMARK    2  A    between atoms: C2_5  and  C3_6 
REMARK    3  A    between atoms: C2_5  and  C14_43 
REMARK    4  A    between atoms: N2_8  and  C5_9 
REMARK    5  A    between atoms: C6_12  and  N4_13 
REMARK    6  A    between atoms: C7_18  and  N6_19 
REMARK    7  A    between atoms: N7_21  and  N8_23 
REMARK    8  A    between atoms: N8_23  and  C8_25 
REMARK    9  A    between atoms: C11_28  and  S1_29 
REMARK   10  A    between atoms: S1_29  and  N9_30 
REMARK   11  A    between atoms: C16_47  and  N14_48 
ROOT
HETATM    1  C5  UNL     1      29.216  -4.493  50.914  1.00  0.00     0.733 A 
HETATM    2  N3  UNL     1      29.660  -3.210  51.011  1.00  0.00    -0.020 N 
ATOM      3  H3  UNL     1      30.275  -2.834  50.289  1.00  0.00     0.203 HD
HETATM    4  C6  UNL     1      29.299  -2.433  52.047  1.00  0.00     0.705 A 
HETATM    5  N5  UNL     1      28.491  -2.906  53.009  1.00  0.00    -0.020 N 
ATOM      6  H5  UNL     1      28.224  -2.308  53.790  1.00  0.00     0.203 HD
HETATM    7  C7  UNL     1      28.034  -4.174  52.942  1.00  0.00     0.727 A 
HETATM    8  N10 UNL     1      28.414  -4.938  51.886  1.00  0.00    -0.018 N 
ATOM      9  H10 UNL     1      28.072  -5.897  51.832  1.00  0.00     0.203 HD
ENDROOT
BRANCH   1  10
HETATM   10  N2  UNL     1      29.631  -5.265  49.800  1.00  0.00    -0.080 N 
HETATM   11  C4  UNL     1      29.803  -4.888  48.503  1.00  0.00     0.170 A 
HETATM   12  C3  UNL     1      30.210  -5.956  47.770  1.00  0.00     0.097 A 
HETATM   13  N12 UNL     1      30.274  -6.984  48.688  1.00  0.00    -0.282 N 
HETATM   14  N11 UNL     1      29.932  -6.540  49.847  1.00  0.00    -0.221 N 
ATOM     15  H12 UNL     1      30.549  -7.945  48.481  1.00  0.00     0.188 HD
ATOM     16  H11 UNL     1      29.898  -7.108  50.693  1.00  0.00     0.209 HD
BRANCH  12  17
HETATM   17  C2  UNL     1      30.469  -6.169  46.364  1.00  0.00     0.101 C 
HETATM   18  N1  UNL     1      29.698  -7.118  45.804  1.00  0.00    -0.264 N 
ATOM     19  H1  UNL     1      29.810  -7.337  44.814  1.00  0.00     0.194 HD
BRANCH  18  20
HETATM   20  O1  UNL     1      28.790  -7.777  46.524  1.00  0.00    -0.285 OA
HETATM   21  C1  UNL     1      28.707  -9.193  46.402  1.00  0.00     0.237 C 
ENDBRANCH  18  20
BRANCH  17  22
HETATM   22  C14 UNL     1      31.386  -5.584  45.455  1.00  0.00     0.079 A 
HETATM   23  C15 UNL     1      32.722  -5.415  45.865  1.00  0.00     0.125 A 
HETATM   24  N13 UNL     1      33.631  -4.791  45.121  1.00  0.00    -0.201 N 
HETATM   25  C16 UNL     1      33.296  -4.293  43.932  1.00  0.00     0.678 A 
ATOM     26  H13 UNL     1      34.587  -4.693  45.463  1.00  0.00     0.183 HD
HETATM   27  N15 UNL     1      32.045  -4.427  43.494  1.00  0.00    -0.156 N 
HETATM   28  C17 UNL     1      31.075  -5.067  44.232  1.00  0.00     0.273 A 
ATOM     29  H15 UNL     1      31.797  -4.042  42.582  1.00  0.00     0.187 HD
HETATM   30  O4  UNL     1      29.932  -5.143  43.705  1.00  0.00    -0.267 OA
BRANCH  25  31
HETATM   31  N14 UNL     1      34.167  -3.671  43.174  1.00  0.00    -0.234 N 
ATOM     32 2H14 UNL     1      34.014  -2.686  42.956  1.00  0.00     0.174 HD
ATOM     33 1H14 UNL     1      34.989  -4.145  42.801  1.00  0.00     0.174 HD
ENDBRANCH  25  31
ENDBRANCH  17  22
ENDBRANCH  12  17
ENDBRANCH   1  10
BRANCH   4  34
HETATM   34  N4  UNL     1      29.749  -1.215  52.093  1.00  0.00    -0.234 N 
ATOM     35  H42 UNL     1      30.663  -1.010  52.495  1.00  0.00     0.174 HD
ATOM     36  H41 UNL     1      29.165  -0.467  51.719  1.00  0.00     0.174 HD
ENDBRANCH   4  34
BRANCH   7  37
HETATM   37  N6  UNL     1      27.178  -4.707  53.942  1.00  0.00    -0.116 N 
HETATM   38  N7  UNL     1      27.201  -5.881  54.363  1.00  0.00    -0.228 N 
ATOM     39  H7  UNL     1      26.526  -6.129  55.086  1.00  0.00     0.209 HD
ATOM     40  H6  UNL     1      26.488  -4.077  54.351  1.00  0.00     0.207 HD
BRANCH  38  41
HETATM   41  N8  UNL     1      28.071  -6.883  53.929  1.00  0.00    -0.286 N 
ATOM     42  H8  UNL     1      29.079  -6.762  54.022  1.00  0.00     0.188 HD
BRANCH  41  43
HETATM   43  C8  UNL     1      27.549  -8.061  53.363  1.00  0.00     0.049 A 
HETATM   44  C9  UNL     1      28.055  -8.508  52.172  1.00  0.00     0.032 A 
HETATM   45  C10 UNL     1      27.568  -9.652  51.595  1.00  0.00     0.027 A 
HETATM   46  C11 UNL     1      26.553 -10.370  52.216  1.00  0.00     0.079 A 
HETATM   47  C12 UNL     1      26.065  -9.905  53.401  1.00  0.00     0.027 A 
HETATM   48  C13 UNL     1      26.528  -8.762  54.012  1.00  0.00     0.032 A 
BRANCH  46  49
HETATM   49  S1  UNL     1      25.974 -11.819  51.432  1.00  0.00     0.256 S 
HETATM   50  O2  UNL     1      25.647 -12.891  52.464  1.00  0.00    -0.201 OA
HETATM   51  O3  UNL     1      24.713 -11.508  50.711  1.00  0.00    -0.201 OA
BRANCH  49  52
HETATM   52  N9  UNL     1      27.179 -12.438  50.390  1.00  0.00    -0.324 N 
ATOM     53  H92 UNL     1      27.824 -11.860  49.851  1.00  0.00     0.169 HD
ATOM     54  H91 UNL     1      27.150 -13.457  50.392  1.00  0.00     0.169 HD
ENDBRANCH  49  52
ENDBRANCH  46  49
ENDBRANCH  41  43
ENDBRANCH  38  41
ENDBRANCH   7  37
TORSDOF 11
ENDMDL
MODEL 2
REMARK VINA RESULT: -9.881468806      1.162      1.499
REMARK  11 active torsions:
REMARK  status: ('A' for Active; 'I' for Inactive)
REMARK    1  A    between atoms: O1_2  and  N1_3 
REMARK    2  A    between atoms: C2_5  and  C3_6 
REMARK    3  A    between atoms: C2_5  and  C14_43 
REMARK    4  A    between atoms: N2_8  and  C5_9 
REMARK    5  A    between atoms: C6_12  and  N4_13 
REMARK    6  A    between atoms: C7_18  and  N6_19 
REMARK    7  A    between atoms: N7_21  and  N8_23 
REMARK    8  A    between atoms: N8_23  and  C8_25 
REMARK    9  A    between atoms: C11_28  and  S1_29 
REMARK   10  A    between atoms: S1_29  and  N9_30 
REMARK   11  A    between atoms: C16_47  and  N14_48 
ROOT
HETATM    1  C5  UNL     1      29.121  -4.028  50.549  1.00  0.00     0.733 A 
HETATM    2  N3  UNL     1      29.465  -2.713  50.614  1.00  0.00    -0.020 N 
ATOM      3  H3  UNL     1      29.806  -2.238  49.778  1.00  0.00     0.203 HD
HETATM    4  C6  UNL     1      29.363  -2.032  51.769  1.00  0.00     0.705 A 
HETATM    5  N5  UNL     1      28.918  -2.634  52.883  1.00  0.00    -0.020 N 
ATOM      6  H5  UNL     1      28.845  -2.108  53.753  1.00  0.00     0.203 HD
HETATM    7  C7  UNL     1      28.569  -3.937  52.851  1.00  0.00     0.727 A 
HETATM    8  N10 UNL     1      28.682  -4.602  51.672  1.00  0.00    -0.018 N 
ATOM      9  H10 UNL     1      28.420  -5.587  51.644  1.00  0.00     0.203 HD
ENDROOT
BRANCH   1  10
HETATM   10  N2  UNL     1      29.250  -4.694  49.304  1.00  0.00    -0.080 N 
HETATM   11  C4  UNL     1      30.376  -5.041  48.622  1.00  0.00     0.170 A 
HETATM   12  C3  UNL     1      30.032  -5.665  47.466  1.00  0.00     0.097 A 
HETATM   13  N12 UNL     1      28.653  -5.674  47.490  1.00  0.00    -0.282 N 
HETATM   14  N11 UNL     1      28.245  -5.104  48.570  1.00  0.00    -0.221 N 
ATOM     15  H12 UNL     1      28.052  -6.070  46.767  1.00  0.00     0.188 HD
ATOM     16  H11 UNL     1      27.263  -4.985  48.821  1.00  0.00     0.209 HD
BRANCH  12  17
HETATM   17  C2  UNL     1      30.781  -6.172  46.338  1.00  0.00     0.101 C 
HETATM   18  N1  UNL     1      30.706  -7.506  46.187  1.00  0.00    -0.264 N 
ATOM     19  H1  UNL     1      31.203  -7.953  45.417  1.00  0.00     0.194 HD
BRANCH  18  20
HETATM   20  O1  UNL     1      29.991  -8.252  47.030  1.00  0.00    -0.285 OA
HETATM   21  C1  UNL     1      30.633  -9.313  47.728  1.00  0.00     0.237 C 
ENDBRANCH  18  20
BRANCH  17  22
HETATM   22  C14 UNL     1      31.594  -5.544  45.362  1.00  0.00     0.079 A 
HETATM   23  C15 UNL     1      32.932  -5.250  45.690  1.00  0.00     0.125 A 
HETATM   24  N13 UNL     1      33.742  -4.578  44.877  1.00  0.00    -0.201 N 
HETATM   25  C16 UNL     1      33.302  -4.149  43.696  1.00  0.00     0.678 A 
ATOM     26  H13 UNL     1      34.704  -4.390  45.161  1.00  0.00     0.183 HD
HETATM   27  N15 UNL     1      32.044  -4.401  43.334  1.00  0.00    -0.156 N 
HETATM   28  C17 UNL     1      31.175  -5.095  44.145  1.00  0.00     0.273 A 
ATOM     29  H15 UNL     1      31.716  -4.068  42.428  1.00  0.00     0.187 HD
HETATM   30  O4  UNL     1      30.014  -5.282  43.686  1.00  0.00    -0.267 OA
BRANCH  25  31
HETATM   31  N14 UNL     1      34.074  -3.483  42.872  1.00  0.00    -0.234 N 
ATOM     32 2H14 UNL     1      34.899  -3.945  42.489  1.00  0.00     0.174 HD
ATOM     33 1H14 UNL     1      33.870  -2.519  42.606  1.00  0.00     0.174 HD
ENDBRANCH  25  31
ENDBRANCH  17  22
ENDBRANCH  12  17
ENDBRANCH   1  10
BRANCH   4  34
HETATM   34  N4  UNL     1      29.703  -0.777  51.780  1.00  0.00    -0.234 N 
ATOM     35  H42 UNL     1      29.341  -0.143  52.492  1.00  0.00     0.174 HD
ATOM     36  H41 UNL     1      30.341  -0.441  51.059  1.00  0.00     0.174 HD
ENDBRANCH   4  34
BRANCH   7  37
HETATM   37  N6  UNL     1      28.095  -4.607  54.010  1.00  0.00    -0.116 N 
HETATM   38  N7  UNL     1      27.513  -5.709  54.022  1.00  0.00    -0.228 N 
ATOM     39  H7  UNL     1      27.225  -6.075  54.929  1.00  0.00     0.209 HD
ATOM     40  H6  UNL     1      28.243  -4.147  54.909  1.00  0.00     0.207 HD
BRANCH  38  41
HETATM   41  N8  UNL     1      27.222  -6.486  52.898  1.00  0.00    -0.286 N 
ATOM     42  H8  UNL     1      27.034  -6.040  52.001  1.00  0.00     0.188 HD
BRANCH  41  43
HETATM   43  C8  UNL     1      27.192  -7.889  53.011  1.00  0.00     0.049 A 
HETATM   44  C9  UNL     1      26.524  -8.458  54.062  1.00  0.00     0.032 A 
HETATM   45  C10 UNL     1      26.475  -9.821  54.200  1.00  0.00     0.027 A 
HETATM   46  C11 UNL     1      27.106 -10.639  53.271  1.00  0.00     0.079 A 
HETATM   47  C12 UNL     1      27.765 -10.050  52.233  1.00  0.00     0.027 A 
HETATM   48  C13 UNL     1      27.836  -8.687  52.060  1.00  0.00     0.032 A 
BRANCH  46  49
HETATM   49  S1  UNL     1      27.010 -12.368  53.500  1.00  0.00     0.256 S 
HETATM   50  O2  UNL     1      27.342 -12.736  54.940  1.00  0.00    -0.201 OA
HETATM   51  O3  UNL     1      25.616 -12.813  53.245  1.00  0.00    -0.201 OA
BRANCH  49  52
HETATM   52  N9  UNL     1      28.136 -13.153  52.482  1.00  0.00    -0.324 N 
ATOM     53  H92 UNL     1      29.137 -12.956  52.473  1.00  0.00     0.169 HD
ATOM     54  H91 UNL     1      27.656 -13.836  51.896  1.00  0.00     0.169 HD
ENDBRANCH  49  52
ENDBRANCH  46  49
ENDBRANCH  41  43
ENDBRANCH  38  41
ENDBRANCH   7  37
TORSDOF 11
ENDMDL
MODEL 3
REMARK VINA RESULT: -9.778913586      2.577      7.409
REMARK  11 active torsions:
REMARK  status: ('A' for Active; 'I' for Inactive)
REMARK    1  A    between atoms: O1_2  and  N1_3 
REMARK    2  A    between atoms: C2_5  and  C3_6 
REMARK    3  A    between atoms: C2_5  and  C14_43 
REMARK    4  A    between atoms: N2_8  and  C5_9 
REMARK    5  A    between atoms: C6_12  and  N4_13 
REMARK    6  A    between atoms: C7_18  and  N6_19 
REMARK    7  A    between atoms: N7_21  and  N8_23 
REMARK    8  A    between atoms: N8_23  and  C8_25 
REMARK    9  A    between atoms: C11_28  and  S1_29 
REMARK   10  A    between atoms: S1_29  and  N9_30 
REMARK   11  A    between atoms: C16_47  and  N14_48 
ROOT
HETATM    1  C5  UNL     1      30.677  -5.182  47.270  1.00  0.00     0.733 A 
HETATM    2  N3  UNL     1      31.822  -4.705  46.711  1.00  0.00    -0.020 N 
ATOM      3  H3  UNL     1      32.292  -3.902  47.129  1.00  0.00     0.203 HD
HETATM    4  C6  UNL     1      32.342  -5.281  45.612  1.00  0.00     0.705 A 
HETATM    5  N5  UNL     1      31.742  -6.338  45.043  1.00  0.00    -0.020 N 
ATOM      6  H5  UNL     1      32.146  -6.766  44.211  1.00  0.00     0.203 HD
HETATM    7  C7  UNL     1      30.605  -6.834  45.575  1.00  0.00     0.727 A 
HETATM    8  N10 UNL     1      30.101  -6.234  46.683  1.00  0.00    -0.018 N 
ATOM      9  H10 UNL     1      29.241  -6.605  47.087  1.00  0.00     0.203 HD
ENDROOT
BRANCH   1  10
HETATM   10  N2  UNL     1      30.176  -4.534  48.427  1.00  0.00    -0.080 N 
HETATM   11  C4  UNL     1      29.944  -5.039  49.670  1.00  0.00     0.170 A 
HETATM   12  C3  UNL     1      29.458  -4.060  50.475  1.00  0.00     0.097 A 
HETATM   13  N12 UNL     1      29.413  -2.949  49.658  1.00  0.00    -0.282 N 
HETATM   14  N11 UNL     1      29.837  -3.268  48.485  1.00  0.00    -0.221 N 
ATOM     15  H12 UNL     1      29.093  -2.022  49.939  1.00  0.00     0.188 HD
ATOM     16  H11 UNL     1      29.900  -2.620  47.701  1.00  0.00     0.209 HD
BRANCH  12  17
HETATM   17  C2  UNL     1      28.974  -4.028  51.837  1.00  0.00     0.101 C 
HETATM   18  N1  UNL     1      29.173  -2.853  52.461  1.00  0.00    -0.264 N 
ATOM     19  H1  UNL     1      28.864  -2.738  53.426  1.00  0.00     0.194 HD
BRANCH  18  20
HETATM   20  O1  UNL     1      29.770  -1.838  51.836  1.00  0.00    -0.285 OA
HETATM   21  C1  UNL     1      29.202  -0.536  51.934  1.00  0.00     0.237 C 
ENDBRANCH  18  20
BRANCH  17  22
HETATM   22  C14 UNL     1      28.339  -4.996  52.656  1.00  0.00     0.079 A 
HETATM   23  C15 UNL     1      28.713  -6.345  52.512  1.00  0.00     0.125 A 
HETATM   24  N13 UNL     1      28.109  -7.334  53.165  1.00  0.00    -0.201 N 
HETATM   25  C16 UNL     1      27.103  -7.071  53.998  1.00  0.00     0.678 A 
ATOM     26  H13 UNL     1      28.417  -8.297  53.027  1.00  0.00     0.183 HD
HETATM   27  N15 UNL     1      26.710  -5.810  54.172  1.00  0.00    -0.156 N 
HETATM   28  C17 UNL     1      27.310  -4.758  53.517  1.00  0.00     0.273 A 
ATOM     29  H15 UNL     1      25.938  -5.618  54.811  1.00  0.00     0.187 HD
HETATM   30  O4  UNL     1      26.858  -3.609  53.776  1.00  0.00    -0.267 OA
BRANCH  25  31
HETATM   31  N14 UNL     1      26.485  -8.022  54.655  1.00  0.00    -0.234 N 
ATOM     32 2H14 UNL     1      25.730  -7.768  55.292  1.00  0.00     0.174 HD
ATOM     33 1H14 UNL     1      26.740  -9.004  54.545  1.00  0.00     0.174 HD
ENDBRANCH  25  31
ENDBRANCH  17  22
ENDBRANCH  12  17
ENDBRANCH   1  10
BRANCH   4  34
HETATM   34  N4  UNL     1      33.439  -4.789  45.116  1.00  0.00    -0.234 N 
ATOM     35  H42 UNL     1      33.676  -4.927  44.134  1.00  0.00     0.174 HD
ATOM     36  H41 UNL     1      34.057  -4.263  45.732  1.00  0.00     0.174 HD
ENDBRANCH   4  34
BRANCH   7  37
HETATM   37  N6  UNL     1      29.944  -7.951  44.999  1.00  0.00    -0.116 N 
HETATM   38  N7  UNL     1      29.894  -9.095  45.491  1.00  0.00    -0.228 N 
ATOM     39  H7  UNL     1      29.383  -9.806  44.969  1.00  0.00     0.209 HD
ATOM     40  H6  UNL     1      29.468  -7.805  44.108  1.00  0.00     0.207 HD
BRANCH  38  41
HETATM   41  N8  UNL     1      30.479  -9.486  46.698  1.00  0.00    -0.286 N 
ATOM     42  H8  UNL     1      31.494  -9.536  46.783  1.00  0.00     0.188 HD
BRANCH  41  43
HETATM   43  C8  UNL     1      29.660  -9.811  47.795  1.00  0.00     0.049 A 
HETATM   44  C9  UNL     1      28.636 -10.703  47.622  1.00  0.00     0.032 A 
HETATM   45  C10 UNL     1      27.821 -11.040  48.670  1.00  0.00     0.027 A 
HETATM   46  C11 UNL     1      28.027 -10.476  49.924  1.00  0.00     0.079 A 
HETATM   47  C12 UNL     1      29.053  -9.591  50.073  1.00  0.00     0.027 A 
HETATM   48  C13 UNL     1      29.892  -9.227  49.045  1.00  0.00     0.032 A 
BRANCH  46  49
HETATM   49  S1  UNL     1      26.956 -10.944  51.222  1.00  0.00     0.256 S 
HETATM   50  O2  UNL     1      26.695  -9.765  52.151  1.00  0.00    -0.201 OA
HETATM   51  O3  UNL     1      25.647 -11.346  50.647  1.00  0.00    -0.201 OA
BRANCH  49  52
HETATM   52  N9  UNL     1      27.669 -12.194  52.143  1.00  0.00    -0.324 N 
ATOM     53  H92 UNL     1      28.611 -12.555  51.989  1.00  0.00     0.169 HD
ATOM     54  H91 UNL     1      27.016 -12.516  52.857  1.00  0.00     0.169 HD
ENDBRANCH  49  52
ENDBRANCH  46  49
ENDBRANCH  41  43
ENDBRANCH  38  41
ENDBRANCH   7  37
TORSDOF 11
ENDMDL
MODEL 4
REMARK VINA RESULT: -9.370197698      1.192      1.428
REMARK  11 active torsions:
REMARK  status: ('A' for Active; 'I' for Inactive)
REMARK    1  A    between atoms: O1_2  and  N1_3 
REMARK    2  A    between atoms: C2_5  and  C3_6 
REMARK    3  A    between atoms: C2_5  and  C14_43 
REMARK    4  A    between atoms: N2_8  and  C5_9 
REMARK    5  A    between atoms: C6_12  and  N4_13 
REMARK    6  A    between atoms: C7_18  and  N6_19 
REMARK    7  A    between atoms: N7_21  and  N8_23 
REMARK    8  A    between atoms: N8_23  and  C8_25 
REMARK    9  A    between atoms: C11_28  and  S1_29 
REMARK   10  A    between atoms: S1_29  and  N9_30 
REMARK   11  A    between atoms: C16_47  and  N14_48 
ROOT
HETATM    1  C5  UNL     1      28.900  -4.432  50.657  1.00  0.00     0.733 A 
HETATM    2  N3  UNL     1      29.436  -3.193  50.830  1.00  0.00    -0.020 N 
ATOM      3  H3  UNL     1      29.972  -2.765  50.076  1.00  0.00     0.203 HD
HETATM    4  C6  UNL     1      29.268  -2.527  51.987  1.00  0.00     0.705 A 
HETATM    5  N5  UNL     1      28.568  -3.070  52.995  1.00  0.00    -0.020 N 
ATOM      6  H5  UNL     1      28.446  -2.556  53.867  1.00  0.00     0.203 HD
HETATM    7  C7  UNL     1      28.024  -4.298  52.853  1.00  0.00     0.727 A 
HETATM    8  N10 UNL     1      28.209  -4.949  51.676  1.00  0.00    -0.018 N 
ATOM      9  H10 UNL     1      27.801  -5.877  51.566  1.00  0.00     0.203 HD
ENDROOT
BRANCH   1  10
HETATM   10  N2  UNL     1      29.111  -5.086  49.417  1.00  0.00    -0.080 N 
HETATM   11  C4  UNL     1      30.246  -5.180  48.671  1.00  0.00     0.170 A 
HETATM   12  C3  UNL     1      29.993  -5.901  47.548  1.00  0.00     0.097 A 
HETATM   13  N12 UNL     1      28.658  -6.232  47.659  1.00  0.00    -0.282 N 
HETATM   14  N11 UNL     1      28.190  -5.741  48.753  1.00  0.00    -0.221 N 
ATOM     15  H12 UNL     1      28.127  -6.779  46.981  1.00  0.00     0.188 HD
ATOM     16  H11 UNL     1      27.224  -5.849  49.064  1.00  0.00     0.209 HD
BRANCH  12  17
HETATM   17  C2  UNL     1      30.774  -6.252  46.383  1.00  0.00     0.101 C 
HETATM   18  N1  UNL     1      31.113  -7.552  46.324  1.00  0.00    -0.264 N 
ATOM     19  H1  UNL     1      31.665  -7.892  45.536  1.00  0.00     0.194 HD
BRANCH  18  20
HETATM   20  O1  UNL     1      30.738  -8.403  47.280  1.00  0.00    -0.285 OA
HETATM   21  C1  UNL     1      30.055  -9.596  46.914  1.00  0.00     0.237 C 
ENDBRANCH  18  20
BRANCH  17  22
HETATM   22  C14 UNL     1      31.269  -5.494  45.292  1.00  0.00     0.079 A 
HETATM   23  C15 UNL     1      30.400  -5.215  44.220  1.00  0.00     0.125 A 
HETATM   24  N13 UNL     1      30.798  -4.596  43.112  1.00  0.00    -0.201 N 
HETATM   25  C16 UNL     1      32.066  -4.211  42.978  1.00  0.00     0.678 A 
ATOM     26  H13 UNL     1      30.129  -4.416  42.362  1.00  0.00     0.183 HD
HETATM   27  N15 UNL     1      32.930  -4.450  43.963  1.00  0.00    -0.156 N 
HETATM   28  C17 UNL     1      32.559  -5.085  45.126  1.00  0.00     0.273 A 
ATOM     29  H15 UNL     1      33.900  -4.152  43.852  1.00  0.00     0.187 HD
HETATM   30  O4  UNL     1      33.464  -5.241  45.991  1.00  0.00    -0.267 OA
BRANCH  25  31
HETATM   31  N14 UNL     1      32.491  -3.600  41.898  1.00  0.00    -0.234 N 
ATOM     32 2H14 UNL     1      33.495  -3.545  41.729  1.00  0.00     0.174 HD
ATOM     33 1H14 UNL     1      31.845  -3.182  41.228  1.00  0.00     0.174 HD
ENDBRANCH  25  31
ENDBRANCH  17  22
ENDBRANCH  12  17
ENDBRANCH   1  10
BRANCH   4  34
HETATM   34  N4  UNL     1      29.798  -1.346  52.103  1.00  0.00    -0.234 N 
ATOM     35  H42 UNL     1      30.686  -1.217  52.589  1.00  0.00     0.174 HD
ATOM     36  H41 UNL     1      29.305  -0.551  51.699  1.00  0.00     0.174 HD
ENDBRANCH   4  34
BRANCH   7  37
HETATM   37  N6  UNL     1      27.277  -4.903  53.899  1.00  0.00    -0.116 N 
HETATM   38  N7  UNL     1      27.416  -6.074  54.302  1.00  0.00    -0.228 N 
ATOM     39  H7  UNL     1      26.810  -6.380  55.063  1.00  0.00     0.209 HD
ATOM     40  H6  UNL     1      26.568  -4.331  54.358  1.00  0.00     0.207 HD
BRANCH  38  41
HETATM   41  N8  UNL     1      28.330  -7.003  53.801  1.00  0.00    -0.286 N 
ATOM     42  H8  UNL     1      29.330  -6.870  53.950  1.00  0.00     0.188 HD
BRANCH  41  43
HETATM   43  C8  UNL     1      27.864  -8.124  53.089  1.00  0.00     0.049 A 
HETATM   44  C9  UNL     1      28.310  -8.335  51.812  1.00  0.00     0.032 A 
HETATM   45  C10 UNL     1      27.876  -9.417  51.092  1.00  0.00     0.027 A 
HETATM   46  C11 UNL     1      26.975 -10.313  51.655  1.00  0.00     0.079 A 
HETATM   47  C12 UNL     1      26.544 -10.083  52.928  1.00  0.00     0.027 A 
HETATM   48  C13 UNL     1      26.957  -9.008  53.682  1.00  0.00     0.032 A 
BRANCH  46  49
HETATM   49  S1  UNL     1      26.457 -11.673  50.689  1.00  0.00     0.256 S 
HETATM   50  O2  UNL     1      26.477 -12.954  51.514  1.00  0.00    -0.201 OA
HETATM   51  O3  UNL     1      25.052 -11.453  50.257  1.00  0.00    -0.201 OA
BRANCH  49  52
HETATM   52  N9  UNL     1      27.516 -11.882  49.363  1.00  0.00    -0.324 N 
ATOM     53  H92 UNL     1      27.223 -12.198  48.439  1.00  0.00     0.169 HD
ATOM     54  H91 UNL     1      28.468 -11.644  49.639  1.00  0.00     0.169 HD
ENDBRANCH  49  52
ENDBRANCH  46  49
ENDBRANCH  41  43
ENDBRANCH  38  41
ENDBRANCH   7  37
TORSDOF 11
ENDMDL
MODEL 5
REMARK VINA RESULT: -9.325251523      1.853      3.994
REMARK  11 active torsions:
REMARK  status: ('A' for Active; 'I' for Inactive)
REMARK    1  A    between atoms: O1_2  and  N1_3 
REMARK    2  A    between atoms: C2_5  and  C3_6 
REMARK    3  A    between atoms: C2_5  and  C14_43 
REMARK    4  A    between atoms: N2_8  and  C5_9 
REMARK    5  A    between atoms: C6_12  and  N4_13 
REMARK    6  A    between atoms: C7_18  and  N6_19 
REMARK    7  A    between atoms: N7_21  and  N8_23 
REMARK    8  A    between atoms: N8_23  and  C8_25 
REMARK    9  A    between atoms: C11_28  and  S1_29 
REMARK   10  A    between atoms: S1_29  and  N9_30 
REMARK   11  A    between atoms: C16_47  and  N14_48 
ROOT
HETATM    1  C5  UNL     1      29.120  -4.404  50.884  1.00  0.00     0.733 A 
HETATM    2  N3  UNL     1      29.579  -3.125  50.966  1.00  0.00    -0.020 N 
ATOM      3  H3  UNL     1      30.163  -2.750  50.219  1.00  0.00     0.203 HD
HETATM    4  C6  UNL     1      29.272  -2.351  52.022  1.00  0.00     0.705 A 
HETATM    5  N5  UNL     1      28.506  -2.823  53.018  1.00  0.00    -0.020 N 
ATOM      6  H5  UNL     1      28.279  -2.226  53.813  1.00  0.00     0.203 HD
HETATM    7  C7  UNL     1      28.035  -4.087  52.965  1.00  0.00     0.727 A 
HETATM    8  N10 UNL     1      28.360  -4.847  51.889  1.00  0.00    -0.018 N 
ATOM      9  H10 UNL     1      28.008  -5.803  51.846  1.00  0.00     0.203 HD
ENDROOT
BRANCH   1  10
HETATM   10  N2  UNL     1      29.477  -5.172  49.747  1.00  0.00    -0.080 N 
HETATM   11  C4  UNL     1      28.779  -6.154  49.113  1.00  0.00     0.170 A 
HETATM   12  C3  UNL     1      29.505  -6.622  48.065  1.00  0.00     0.097 A 
HETATM   13  N12 UNL     1      30.664  -5.876  48.103  1.00  0.00    -0.282 N 
HETATM   14  N11 UNL     1      30.605  -5.051  49.090  1.00  0.00    -0.221 N 
ATOM     15  H12 UNL     1      31.445  -5.964  47.452  1.00  0.00     0.188 HD
ATOM     16  H11 UNL     1      31.342  -4.388  49.329  1.00  0.00     0.209 HD
BRANCH  12  17
HETATM   17  C2  UNL     1      29.311  -7.687  47.106  1.00  0.00     0.101 C 
HETATM   18  N1  UNL     1      29.427  -7.295  45.824  1.00  0.00    -0.264 N 
ATOM     19  H1  UNL     1      29.307  -7.979  45.077  1.00  0.00     0.194 HD
BRANCH  18  20
HETATM   20  O1  UNL     1      29.698  -6.026  45.516  1.00  0.00    -0.285 OA
HETATM   21  C1  UNL     1      30.578  -5.750  44.433  1.00  0.00     0.237 C 
ENDBRANCH  18  20
BRANCH  17  22
HETATM   22  C14 UNL     1      29.008  -9.064  47.244  1.00  0.00     0.079 A 
HETATM   23  C15 UNL     1      28.008  -9.618  46.422  1.00  0.00     0.125 A 
HETATM   24  N13 UNL     1      27.588 -10.874  46.544  1.00  0.00    -0.201 N 
HETATM   25  C16 UNL     1      28.114 -11.669  47.474  1.00  0.00     0.678 A 
ATOM     26  H13 UNL     1      26.860 -11.229  45.924  1.00  0.00     0.183 HD
HETATM   27  N15 UNL     1      29.065 -11.196  48.279  1.00  0.00    -0.156 N 
HETATM   28  C17 UNL     1      29.529  -9.904  48.184  1.00  0.00     0.273 A 
ATOM     29  H15 UNL     1      29.462 -11.812  48.989  1.00  0.00     0.187 HD
HETATM   30  O4  UNL     1      30.441  -9.577  48.992  1.00  0.00    -0.267 OA
BRANCH  25  31
HETATM   31  N14 UNL     1      27.722 -12.911  47.623  1.00  0.00    -0.234 N 
ATOM     32 2H14 UNL     1      26.763 -13.156  47.376  1.00  0.00     0.174 HD
ATOM     33 1H14 UNL     1      28.349 -13.634  47.977  1.00  0.00     0.174 HD
ENDBRANCH  25  31
ENDBRANCH  17  22
ENDBRANCH  12  17
ENDBRANCH   1  10
BRANCH   4  34
HETATM   34  N4  UNL     1      29.734  -1.136  52.054  1.00  0.00    -0.234 N 
ATOM     35  H42 UNL     1      30.214  -0.738  51.247  1.00  0.00     0.174 HD
ATOM     36  H41 UNL     1      29.606  -0.590  52.905  1.00  0.00     0.174 HD
ENDBRANCH   4  34
BRANCH   7  37
HETATM   37  N6  UNL     1      27.222  -4.618  54.001  1.00  0.00    -0.116 N 
HETATM   38  N7  UNL     1      27.292  -5.778  54.453  1.00  0.00    -0.228 N 
ATOM     39  H7  UNL     1      26.644  -6.028  55.199  1.00  0.00     0.209 HD
ATOM     40  H6  UNL     1      26.522  -3.999  54.410  1.00  0.00     0.207 HD
BRANCH  38  41
HETATM   41  N8  UNL     1      28.183  -6.764  54.024  1.00  0.00    -0.286 N 
ATOM     42  H8  UNL     1      29.181  -6.672  54.213  1.00  0.00     0.188 HD
BRANCH  41  43
HETATM   43  C8  UNL     1      27.697  -7.887  53.328  1.00  0.00     0.049 A 
HETATM   44  C9  UNL     1      28.174  -8.150  52.072  1.00  0.00     0.032 A 
HETATM   45  C10 UNL     1      27.721  -9.235  51.368  1.00  0.00     0.027 A 
HETATM   46  C11 UNL     1      26.769 -10.081  51.926  1.00  0.00     0.079 A 
HETATM   47  C12 UNL     1      26.309  -9.799  53.178  1.00  0.00     0.027 A 
HETATM   48  C13 UNL     1      26.740  -8.720  53.915  1.00  0.00     0.032 A 
BRANCH  46  49
HETATM   49  S1  UNL     1      26.230 -11.448  50.982  1.00  0.00     0.256 S 
HETATM   50  O2  UNL     1      24.831 -11.875  51.409  1.00  0.00    -0.201 OA
HETATM   51  O3  UNL     1      26.147 -11.046  49.554  1.00  0.00    -0.201 OA
BRANCH  49  52
HETATM   52  N9  UNL     1      27.283 -12.772  51.221  1.00  0.00    -0.324 N 
ATOM     53  H92 UNL     1      28.012 -12.805  51.935  1.00  0.00     0.169 HD
ATOM     54  H91 UNL     1      27.071 -13.510  50.550  1.00  0.00     0.169 HD
ENDBRANCH  49  52
ENDBRANCH  46  49
ENDBRANCH  41  43
ENDBRANCH  38  41
ENDBRANCH   7  37
TORSDOF 11
ENDMDL
