MODEL 1
REMARK VINA RESULT: -8.987703870      0.000      0.000
REMARK  10 active torsions:
REMARK  status: ('A' for Active; 'I' for Inactive)
REMARK    1  A    between atoms: C2_2  and  C3_4 
REMARK    2  A    between atoms: C3_4  and  N1_5 
REMARK    3  A    between atoms: C3_4  and  C11_25 
REMARK       I    between atoms: N1_5  and  C4_7 
REMARK    4  A    between atoms: C4_7  and  C5_9 
REMARK    5  A    between atoms: C5_9  and  N2_10 
REMARK       I    between atoms: N2_10  and  C6_11 
REMARK    6  A    between atoms: C6_11  and  C7_13 
REMARK    7  A    between atoms: C8_15  and  N3_16 
REMARK       I    between atoms: N3_16  and  C9_18 
REMARK    8  A    between atoms: C11_25  and  O6_27 
REMARK    9  A    between atoms: O6_27  and  C12_28 
REMARK   10  A    between atoms: C15_31  and  N7_32 
ROOT
HETATM    1  C3  UNL     1      28.600 -10.006  48.355  1.00  0.00     0.254 C 
ENDROOT
BRANCH   1   2
HETATM    2  C2  UNL     1      27.813  -9.941  47.124  1.00  0.00     0.155 C 
HETATM    3  C1  UNL     1      28.282 -10.491  45.832  1.00  0.00     0.093 C 
HETATM    4  O1  UNL     1      26.700  -9.399  47.151  1.00  0.00    -0.296 OA
ENDBRANCH   1   2
BRANCH   1   5
HETATM    5  N1  UNL     1      27.786  -9.602  49.504  1.00  0.00    -0.335 N 
HETATM    6  C4  UNL     1      27.185 -10.632  50.274  1.00  0.00     0.271 C 
HETATM    7  O2  UNL     1      27.342 -11.816  49.948  1.00  0.00    -0.266 OA
ATOM      8  H1  UNL     1      27.656  -8.618  49.743  1.00  0.00     0.164 HD
BRANCH   6   9
HETATM    9  C5  UNL     1      26.384 -10.219  51.472  1.00  0.00     0.260 C 
BRANCH   9  10
HETATM   10  N2  UNL     1      26.997  -9.312  52.329  1.00  0.00    -0.373 NA
HETATM   11  C6  UNL     1      27.584  -8.444  53.151  1.00  0.00     0.336 C 
HETATM   12  O3  UNL     1      27.758  -8.526  54.425  1.00  0.00    -0.250 OA
BRANCH  11  13
HETATM   13  C7  UNL     1      28.137  -7.176  52.570  1.00  0.00     0.132 A 
HETATM   14  S1  UNL     1      29.481  -6.981  51.539  1.00  0.00    -0.044 SA
HETATM   15  C8  UNL     1      29.391  -5.281  51.337  1.00  0.00     0.154 A 
HETATM   16  N5  UNL     1      28.335  -4.947  52.073  1.00  0.00    -0.324 N 
HETATM   17  C10 UNL     1      27.680  -5.899  52.710  1.00  0.00     0.142 A 
ATOM     18  H5  UNL     1      28.036  -3.974  52.142  1.00  0.00     0.169 HD
HETATM   19  N6  UNL     1      26.506  -5.648  53.538  1.00  0.00    -0.081 NA
BRANCH  15  20
HETATM   20  N3  UNL     1      30.165  -4.492  50.624  1.00  0.00    -0.291 N 
HETATM   21  C9  UNL     1      29.618  -3.257  50.211  1.00  0.00     0.334 C 
HETATM   22  N4  UNL     1      30.210  -2.057  50.585  1.00  0.00    -0.040 NA
HETATM   23  O4  UNL     1      28.583  -3.262  49.495  1.00  0.00    -0.251 OA
ATOM     24  H3  UNL     1      31.118  -4.760  50.381  1.00  0.00     0.172 HD
ENDBRANCH  15  20
ENDBRANCH  11  13
ENDBRANCH   9  10
ENDBRANCH   6   9
ENDBRANCH   1   5
BRANCH   1  25
HETATM   25  C11 UNL     1      29.775  -9.070  48.258  1.00  0.00     0.294 C 
HETATM   26  O5  UNL     1      30.945  -9.519  48.245  1.00  0.00    -0.262 OA
BRANCH  25  27
HETATM   27  O6  UNL     1      29.559  -7.727  48.179  1.00  0.00    -0.277 OA
BRANCH  27  28
HETATM   28  C12 UNL     1      30.126  -6.932  47.178  1.00  0.00     0.079 A 
HETATM   29  C13 UNL     1      29.940  -7.206  45.841  1.00  0.00     0.039 A 
HETATM   30  C14 UNL     1      30.506  -6.411  44.862  1.00  0.00     0.034 A 
HETATM   31  C15 UNL     1      31.280  -5.311  45.167  1.00  0.00     0.059 A 
HETATM   32  C18 UNL     1      31.463  -5.040  46.517  1.00  0.00     0.034 A 
HETATM   33  C19 UNL     1      30.907  -5.823  47.496  1.00  0.00     0.039 A 
BRANCH  31  34
HETATM   34  N7  UNL     1      31.833  -4.450  44.180  1.00  0.00    -0.225 N 
HETATM   35  N8  UNL     1      33.163  -4.379  43.983  1.00  0.00    -0.264 N 
HETATM   36  C16 UNL     1      33.474  -3.533  43.007  1.00  0.00     0.210 A 
ATOM     37  H8  UNL     1      33.849  -4.912  44.518  1.00  0.00     0.190 HD
HETATM   38  N9  UNL     1      34.761  -3.186  42.488  1.00  0.00    -0.062 NA
HETATM   39  N10 UNL     1      32.283  -3.043  42.562  1.00  0.00    -0.302 N 
HETATM   40  C17 UNL     1      31.294  -3.620  43.297  1.00  0.00     0.216 A 
ATOM     41  H10 UNL     1      32.155  -2.364  41.812  1.00  0.00     0.171 HD
HETATM   42  N11 UNL     1      29.911  -3.369  43.119  1.00  0.00    -0.061 NA
ENDBRANCH  31  34
ENDBRANCH  27  28
ENDBRANCH  25  27
ENDBRANCH   1  25
TORSDOF 10
ENDMDL
MODEL 2
REMARK VINA RESULT: -8.913192005      2.381      6.708
REMARK  10 active torsions:
REMARK  status: ('A' for Active; 'I' for Inactive)
REMARK    1  A    between atoms: C2_2  and  C3_4 
REMARK    2  A    between atoms: C3_4  and  N1_5 
REMARK    3  A    between atoms: C3_4  and  C11_25 
REMARK       I    between atoms: N1_5  and  C4_7 
REMARK    4  A    between atoms: C4_7  and  C5_9 
REMARK    5  A    between atoms: C5_9  and  N2_10 
REMARK       I    between atoms: N2_10  and  C6_11 
REMARK    6  A    between atoms: C6_11  and  C7_13 
REMARK    7  A    between atoms: C8_15  and  N3_16 
REMARK       I    between atoms: N3_16  and  C9_18 
REMARK    8  A    between atoms: C11_25  and  O6_27 
REMARK    9  A    between atoms: O6_27  and  C12_28 
REMARK   10  A    between atoms: C15_31  and  N7_32 
ROOT
HETATM    1  C3  UNL     1      26.203  -9.849  53.220  1.00  0.00     0.254 C 
ENDROOT
BRANCH   1   2
HETATM    2  C2  UNL     1      26.036 -11.135  53.895  1.00  0.00     0.155 C 
HETATM    3  C1  UNL     1      27.020 -11.678  54.859  1.00  0.00     0.093 C 
HETATM    4  O1  UNL     1      25.029 -11.814  53.656  1.00  0.00    -0.296 OA
ENDBRANCH   1   2
BRANCH   1   5
HETATM    5  N1  UNL     1      27.348  -9.898  52.305  1.00  0.00    -0.335 N 
HETATM    6  C4  UNL     1      27.102 -10.323  50.974  1.00  0.00     0.271 C 
HETATM    7  O2  UNL     1      25.960 -10.654  50.634  1.00  0.00    -0.266 OA
ATOM      8  H1  UNL     1      28.285  -9.637  52.614  1.00  0.00     0.164 HD
BRANCH   6   9
HETATM    9  C5  UNL     1      28.267 -10.335  50.029  1.00  0.00     0.260 C 
BRANCH   9  10
HETATM   10  N2  UNL     1      28.008  -9.886  48.739  1.00  0.00    -0.373 NA
HETATM   11  C6  UNL     1      27.760  -9.457  47.503  1.00  0.00     0.336 C 
HETATM   12  O3  UNL     1      26.896  -9.894  46.652  1.00  0.00    -0.250 OA
BRANCH  11  13
HETATM   13  C7  UNL     1      28.568  -8.310  46.973  1.00  0.00     0.132 A 
HETATM   14  S1  UNL     1      29.758  -8.326  45.752  1.00  0.00    -0.044 SA
HETATM   15  C8  UNL     1      30.132  -6.653  45.751  1.00  0.00     0.154 A 
HETATM   16  N5  UNL     1      29.327  -6.165  46.689  1.00  0.00    -0.324 N 
HETATM   17  C10 UNL     1      28.520  -6.993  47.326  1.00  0.00     0.142 A 
ATOM     18  H5  UNL     1      29.332  -5.169  46.912  1.00  0.00     0.169 HD
HETATM   19  N6  UNL     1      27.591  -6.566  48.366  1.00  0.00    -0.081 NA
BRANCH  15  20
HETATM   20  N3  UNL     1      30.995  -6.001  45.002  1.00  0.00    -0.291 N 
HETATM   21  C9  UNL     1      31.866  -5.103  45.659  1.00  0.00     0.334 C 
HETATM   22  N4  UNL     1      33.244  -5.267  45.584  1.00  0.00    -0.040 NA
HETATM   23  O4  UNL     1      31.373  -4.149  46.314  1.00  0.00    -0.251 OA
ATOM     24  H3  UNL     1      31.033  -6.137  43.992  1.00  0.00     0.172 HD
ENDBRANCH  15  20
ENDBRANCH  11  13
ENDBRANCH   9  10
ENDBRANCH   6   9
ENDBRANCH   1   5
BRANCH   1  25
HETATM   25  C11 UNL     1      26.459  -8.769  54.236  1.00  0.00     0.294 C 
HETATM   26  O5  UNL     1      25.542  -8.383  54.998  1.00  0.00    -0.262 OA
BRANCH  25  27
HETATM   27  O6  UNL     1      27.702  -8.215  54.329  1.00  0.00    -0.277 OA
BRANCH  27  28
HETATM   28  C12 UNL     1      28.059  -7.051  53.643  1.00  0.00     0.079 A 
HETATM   29  C13 UNL     1      27.681  -5.802  54.087  1.00  0.00     0.039 A 
HETATM   30  C14 UNL     1      28.042  -4.659  53.400  1.00  0.00     0.034 A 
HETATM   31  C15 UNL     1      28.793  -4.704  52.245  1.00  0.00     0.059 A 
HETATM   32  C18 UNL     1      29.172  -5.965  51.803  1.00  0.00     0.034 A 
HETATM   33  C19 UNL     1      28.818  -7.106  52.477  1.00  0.00     0.039 A 
BRANCH  31  34
HETATM   34  N7  UNL     1      29.219  -3.541  51.547  1.00  0.00    -0.225 N 
HETATM   35  N8  UNL     1      29.110  -2.317  52.099  1.00  0.00    -0.264 N 
HETATM   36  C16 UNL     1      29.578  -1.369  51.294  1.00  0.00     0.210 A 
ATOM     37  H8  UNL     1      28.716  -2.141  53.023  1.00  0.00     0.190 HD
HETATM   38  N9  UNL     1      29.653   0.044  51.512  1.00  0.00    -0.062 NA
HETATM   39  N10 UNL     1      30.005  -2.022  50.178  1.00  0.00    -0.302 N 
HETATM   40  C17 UNL     1      29.774  -3.350  50.358  1.00  0.00     0.216 A 
ATOM     41  H10 UNL     1      30.424  -1.591  49.353  1.00  0.00     0.171 HD
HETATM   42  N11 UNL     1      30.097  -4.356  49.413  1.00  0.00    -0.061 NA
ENDBRANCH  31  34
ENDBRANCH  27  28
ENDBRANCH  25  27
ENDBRANCH   1  25
TORSDOF 10
ENDMDL
MODEL 3
REMARK VINA RESULT: -8.718174716      1.286      1.647
REMARK  10 active torsions:
REMARK  status: ('A' for Active; 'I' for Inactive)
REMARK    1  A    between atoms: C2_2  and  C3_4 
REMARK    2  A    between atoms: C3_4  and  N1_5 
REMARK    3  A    between atoms: C3_4  and  C11_25 
REMARK       I    between atoms: N1_5  and  C4_7 
REMARK    4  A    between atoms: C4_7  and  C5_9 
REMARK    5  A    between atoms: C5_9  and  N2_10 
REMARK       I    between atoms: N2_10  and  C6_11 
REMARK    6  A    between atoms: C6_11  and  C7_13 
REMARK    7  A    between atoms: C8_15  and  N3_16 
REMARK       I    between atoms: N3_16  and  C9_18 
REMARK    8  A    between atoms: C11_25  and  O6_27 
REMARK    9  A    between atoms: O6_27  and  C12_28 
REMARK   10  A    between atoms: C15_31  and  N7_32 
ROOT
HETATM    1  C3  UNL     1      28.502 -10.386  49.365  1.00  0.00     0.254 C 
ENDROOT
BRANCH   1   2
HETATM    2  C2  UNL     1      27.946 -10.821  48.084  1.00  0.00     0.155 C 
HETATM    3  C1  UNL     1      26.651 -10.333  47.557  1.00  0.00     0.093 C 
HETATM    4  O1  UNL     1      28.576 -11.637  47.401  1.00  0.00    -0.296 OA
ENDBRANCH   1   2
BRANCH   1   5
HETATM    5  N1  UNL     1      27.457  -9.781  50.196  1.00  0.00    -0.335 N 
HETATM    6  C4  UNL     1      27.336 -10.244  51.533  1.00  0.00     0.271 C 
HETATM    7  O2  UNL     1      28.084 -11.140  51.944  1.00  0.00    -0.266 OA
ATOM      8  H1  UNL     1      26.841  -9.056  49.829  1.00  0.00     0.164 HD
BRANCH   6   9
HETATM    9  C5  UNL     1      26.293  -9.597  52.393  1.00  0.00     0.260 C 
BRANCH   9  10
HETATM   10  N2  UNL     1      26.683  -8.438  53.054  1.00  0.00    -0.373 NA
HETATM   11  C6  UNL     1      27.056  -7.328  53.688  1.00  0.00     0.336 C 
HETATM   12  O3  UNL     1      26.826  -6.974  54.906  1.00  0.00    -0.250 OA
BRANCH  11  13
HETATM   13  C7  UNL     1      27.856  -6.311  52.930  1.00  0.00     0.132 A 
HETATM   14  S1  UNL     1      29.131  -6.572  51.828  1.00  0.00    -0.044 SA
HETATM   15  C8  UNL     1      29.441  -4.936  51.418  1.00  0.00     0.154 A 
HETATM   16  N5  UNL     1      28.551  -4.270  52.148  1.00  0.00    -0.324 N 
HETATM   17  C10 UNL     1      27.732  -4.953  52.927  1.00  0.00     0.142 A 
ATOM     18  H5  UNL     1      28.502  -3.252  52.107  1.00  0.00     0.169 HD
HETATM   19  N6  UNL     1      26.715  -4.327  53.764  1.00  0.00    -0.081 NA
BRANCH  15  20
HETATM   20  N3  UNL     1      30.330  -4.450  50.580  1.00  0.00    -0.291 N 
HETATM   21  C9  UNL     1      30.013  -3.229  49.944  1.00  0.00     0.334 C 
HETATM   22  N4  UNL     1      30.828  -2.114  50.099  1.00  0.00    -0.040 NA
HETATM   23  O4  UNL     1      28.978  -3.166  49.232  1.00  0.00    -0.251 OA
ATOM     24  H3  UNL     1      31.209  -4.932  50.398  1.00  0.00     0.172 HD
ENDBRANCH  15  20
ENDBRANCH  11  13
ENDBRANCH   9  10
ENDBRANCH   6   9
ENDBRANCH   1   5
BRANCH   1  25
HETATM   25  C11 UNL     1      29.573  -9.354  49.131  1.00  0.00     0.294 C 
HETATM   26  O5  UNL     1      30.783  -9.664  49.225  1.00  0.00    -0.262 OA
BRANCH  25  27
HETATM   27  O6  UNL     1      29.217  -8.078  48.810  1.00  0.00    -0.277 OA
BRANCH  27  28
HETATM   28  C12 UNL     1      29.757  -7.402  47.711  1.00  0.00     0.079 A 
HETATM   29  C13 UNL     1      29.635  -7.889  46.428  1.00  0.00     0.039 A 
HETATM   30  C14 UNL     1      30.171  -7.210  45.351  1.00  0.00     0.034 A 
HETATM   31  C15 UNL     1      30.851  -6.018  45.499  1.00  0.00     0.059 A 
HETATM   32  C18 UNL     1      30.969  -5.532  46.795  1.00  0.00     0.034 A 
HETATM   33  C19 UNL     1      30.441  -6.199  47.871  1.00  0.00     0.039 A 
BRANCH  31  34
HETATM   34  N7  UNL     1      31.369  -5.276  44.403  1.00  0.00    -0.225 N 
HETATM   35  N8  UNL     1      30.648  -5.095  43.281  1.00  0.00    -0.264 N 
HETATM   36  C16 UNL     1      31.302  -4.361  42.387  1.00  0.00     0.210 A 
ATOM     37  H8  UNL     1      29.713  -5.474  43.135  1.00  0.00     0.190 HD
HETATM   38  N9  UNL     1      30.883  -3.937  41.086  1.00  0.00    -0.062 NA
HETATM   39  N10 UNL     1      32.497  -4.061  42.970  1.00  0.00    -0.302 N 
HETATM   40  C17 UNL     1      32.512  -4.634  44.204  1.00  0.00     0.216 A 
ATOM     41  H10 UNL     1      33.246  -3.507  42.556  1.00  0.00     0.171 HD
HETATM   42  N11 UNL     1      33.588  -4.534  45.122  1.00  0.00    -0.061 NA
ENDBRANCH  31  34
ENDBRANCH  27  28
ENDBRANCH  25  27
ENDBRANCH   1  25
TORSDOF 10
ENDMDL
MODEL 4
REMARK VINA RESULT: -8.639417626      2.305      6.794
REMARK  10 active torsions:
REMARK  status: ('A' for Active; 'I' for Inactive)
REMARK    1  A    between atoms: C2_2  and  C3_4 
REMARK    2  A    between atoms: C3_4  and  N1_5 
REMARK    3  A    between atoms: C3_4  and  C11_25 
REMARK       I    between atoms: N1_5  and  C4_7 
REMARK    4  A    between atoms: C4_7  and  C5_9 
REMARK    5  A    between atoms: C5_9  and  N2_10 
REMARK       I    between atoms: N2_10  and  C6_11 
REMARK    6  A    between atoms: C6_11  and  C7_13 
REMARK    7  A    between atoms: C8_15  and  N3_16 
REMARK       I    between atoms: N3_16  and  C9_18 
REMARK    8  A    between atoms: C11_25  and  O6_27 
REMARK    9  A    between atoms: O6_27  and  C12_28 
REMARK   10  A    between atoms: C15_31  and  N7_32 
ROOT
HETATM    1  C3  UNL     1      26.397 -11.205  49.596  1.00  0.00     0.254 C 
ENDROOT
BRANCH   1   2
HETATM    2  C2  UNL     1      26.262 -12.645  49.379  1.00  0.00     0.155 C 
HETATM    3  C1  UNL     1      24.958 -13.345  49.382  1.00  0.00     0.093 C 
HETATM    4  O1  UNL     1      27.280 -13.322  49.186  1.00  0.00    -0.296 OA
ENDBRANCH   1   2
BRANCH   1   5
HETATM    5  N1  UNL     1      27.494 -10.667  48.785  1.00  0.00    -0.335 N 
HETATM    6  C4  UNL     1      27.152 -10.034  47.561  1.00  0.00     0.271 C 
HETATM    7  O2  UNL     1      25.968  -9.973  47.209  1.00  0.00    -0.266 OA
ATOM      8  H1  UNL     1      28.465 -10.745  49.088  1.00  0.00     0.164 HD
BRANCH   6   9
HETATM    9  C5  UNL     1      28.272  -9.450  46.753  1.00  0.00     0.260 C 
BRANCH   9  10
HETATM   10  N2  UNL     1      28.493  -8.087  46.914  1.00  0.00    -0.373 NA
HETATM   11  C6  UNL     1      28.705  -6.782  47.070  1.00  0.00     0.336 C 
HETATM   12  O3  UNL     1      27.961  -5.905  47.651  1.00  0.00    -0.250 OA
BRANCH  11  13
HETATM   13  C7  UNL     1      29.966  -6.194  46.510  1.00  0.00     0.132 A 
HETATM   14  S1  UNL     1      30.559  -6.282  44.914  1.00  0.00    -0.044 SA
HETATM   15  C8  UNL     1      31.981  -5.347  45.129  1.00  0.00     0.154 A 
HETATM   16  N5  UNL     1      31.930  -5.015  46.415  1.00  0.00    -0.324 N 
HETATM   17  C10 UNL     1      30.910  -5.437  47.139  1.00  0.00     0.142 A 
ATOM     18  H5  UNL     1      32.665  -4.445  46.834  1.00  0.00     0.169 HD
HETATM   19  N6  UNL     1      30.751  -5.127  48.555  1.00  0.00    -0.081 NA
BRANCH  15  20
HETATM   20  N3  UNL     1      32.896  -5.024  44.242  1.00  0.00    -0.291 N 
HETATM   21  C9  UNL     1      33.223  -3.654  44.127  1.00  0.00     0.334 C 
HETATM   22  N4  UNL     1      34.523  -3.213  44.347  1.00  0.00    -0.040 NA
HETATM   23  O4  UNL     1      32.317  -2.838  43.820  1.00  0.00    -0.251 OA
ATOM     24  H3  UNL     1      33.351  -5.730  43.663  1.00  0.00     0.172 HD
ENDBRANCH  15  20
ENDBRANCH  11  13
ENDBRANCH   9  10
ENDBRANCH   6   9
ENDBRANCH   1   5
BRANCH   1  25
HETATM   25  C11 UNL     1      26.706 -10.934  51.043  1.00  0.00     0.294 C 
HETATM   26  O5  UNL     1      25.867 -11.204  51.933  1.00  0.00    -0.262 OA
BRANCH  25  27
HETATM   27  O6  UNL     1      27.912 -10.396  51.384  1.00  0.00    -0.277 OA
BRANCH  27  28
HETATM   28  C12 UNL     1      28.103  -9.021  51.547  1.00  0.00     0.079 A 
HETATM   29  C13 UNL     1      27.300  -8.270  52.377  1.00  0.00     0.039 A 
HETATM   30  C14 UNL     1      27.501  -6.912  52.530  1.00  0.00     0.034 A 
HETATM   31  C15 UNL     1      28.506  -6.239  51.867  1.00  0.00     0.059 A 
HETATM   32  C18 UNL     1      29.313  -7.002  51.033  1.00  0.00     0.034 A 
HETATM   33  C19 UNL     1      29.121  -8.351  50.873  1.00  0.00     0.039 A 
BRANCH  31  34
HETATM   34  N7  UNL     1      28.764  -4.853  52.044  1.00  0.00    -0.225 N 
HETATM   35  N8  UNL     1      29.376  -4.130  51.087  1.00  0.00    -0.264 N 
HETATM   36  C16 UNL     1      29.507  -2.855  51.438  1.00  0.00     0.210 A 
ATOM     37  H8  UNL     1      29.699  -4.514  50.199  1.00  0.00     0.190 HD
HETATM   38  N9  UNL     1      30.085  -1.771  50.705  1.00  0.00    -0.062 NA
HETATM   39  N10 UNL     1      28.951  -2.764  52.679  1.00  0.00    -0.302 N 
HETATM   40  C17 UNL     1      28.504  -4.001  53.027  1.00  0.00     0.216 A 
ATOM     41  H10 UNL     1      28.882  -1.919  53.246  1.00  0.00     0.171 HD
HETATM   42  N11 UNL     1      27.852  -4.304  54.248  1.00  0.00    -0.061 NA
ENDBRANCH  31  34
ENDBRANCH  27  28
ENDBRANCH  25  27
ENDBRANCH   1  25
TORSDOF 10
ENDMDL
MODEL 5
REMARK VINA RESULT: -8.563813187      1.665      2.307
REMARK  10 active torsions:
REMARK  status: ('A' for Active; 'I' for Inactive)
REMARK    1  A    between atoms: C2_2  and  C3_4 
REMARK    2  A    between atoms: C3_4  and  N1_5 
REMARK    3  A    between atoms: C3_4  and  C11_25 
REMARK       I    between atoms: N1_5  and  C4_7 
REMARK    4  A    between atoms: C4_7  and  C5_9 
REMARK    5  A    between atoms: C5_9  and  N2_10 
REMARK       I    between atoms: N2_10  and  C6_11 
REMARK    6  A    between atoms: C6_11  and  C7_13 
REMARK    7  A    between atoms: C8_15  and  N3_16 
REMARK       I    between atoms: N3_16  and  C9_18 
REMARK    8  A    between atoms: C11_25  and  O6_27 
REMARK    9  A    between atoms: O6_27  and  C12_28 
REMARK   10  A    between atoms: C15_31  and  N7_32 
ROOT
HETATM    1  C3  UNL     1      27.849 -10.466  50.406  1.00  0.00     0.254 C 
ENDROOT
BRANCH   1   2
HETATM    2  C2  UNL     1      26.979 -11.306  49.584  1.00  0.00     0.155 C 
HETATM    3  C1  UNL     1      25.503 -11.307  49.707  1.00  0.00     0.093 C 
HETATM    4  O1  UNL     1      27.488 -12.059  48.745  1.00  0.00    -0.296 OA
ENDBRANCH   1   2
BRANCH   1   5
HETATM    5  N1  UNL     1      27.050  -9.534  51.207  1.00  0.00    -0.335 N 
HETATM    6  C4  UNL     1      27.189  -9.600  52.618  1.00  0.00     0.271 C 
HETATM    7  O2  UNL     1      27.946 -10.438  53.123  1.00  0.00    -0.266 OA
ATOM      8  H1  UNL     1      26.419  -8.863  50.768  1.00  0.00     0.164 HD
BRANCH   6   9
HETATM    9  C5  UNL     1      26.401  -8.620  53.434  1.00  0.00     0.260 C 
BRANCH   9  10
HETATM   10  N2  UNL     1      26.991  -7.377  53.629  1.00  0.00    -0.373 NA
HETATM   11  C6  UNL     1      27.558  -6.186  53.817  1.00  0.00     0.336 C 
HETATM   12  O3  UNL     1      27.611  -5.475  54.891  1.00  0.00    -0.250 OA
BRANCH  11  13
HETATM   13  C7  UNL     1      28.241  -5.532  52.653  1.00  0.00     0.132 A 
HETATM   14  S1  UNL     1      28.806  -6.252  51.215  1.00  0.00    -0.044 SA
HETATM   15  C8  UNL     1      29.398  -4.837  50.448  1.00  0.00     0.154 A 
HETATM   16  N5  UNL     1      29.133  -3.883  51.334  1.00  0.00    -0.324 N 
HETATM   17  C10 UNL     1      28.543  -4.215  52.467  1.00  0.00     0.142 A 
ATOM     18  H5  UNL     1      29.381  -2.912  51.142  1.00  0.00     0.169 HD
HETATM   19  N6  UNL     1      28.201  -3.250  53.506  1.00  0.00    -0.081 NA
BRANCH  15  20
HETATM   20  N3  UNL     1      29.965  -4.714  49.267  1.00  0.00    -0.291 N 
HETATM   21  C9  UNL     1      29.565  -3.616  48.474  1.00  0.00     0.334 C 
HETATM   22  N4  UNL     1      30.491  -2.669  48.053  1.00  0.00    -0.040 NA
HETATM   23  O4  UNL     1      28.354  -3.509  48.151  1.00  0.00    -0.251 OA
ATOM     24  H3  UNL     1      30.663  -5.382  48.940  1.00  0.00     0.172 HD
ENDBRANCH  15  20
ENDBRANCH  11  13
ENDBRANCH   9  10
ENDBRANCH   6   9
ENDBRANCH   1   5
BRANCH   1  25
HETATM   25  C11 UNL     1      28.764  -9.661  49.522  1.00  0.00     0.294 C 
HETATM   26  O5  UNL     1      29.956  -9.466  49.852  1.00  0.00    -0.262 OA
BRANCH  25  27
HETATM   27  O6  UNL     1      28.288  -9.150  48.351  1.00  0.00    -0.277 OA
BRANCH  27  28
HETATM   28  C12 UNL     1      29.053  -8.320  47.526  1.00  0.00     0.079 A 
HETATM   29  C13 UNL     1      30.343  -8.646  47.166  1.00  0.00     0.039 A 
HETATM   30  C14 UNL     1      31.088  -7.817  46.349  1.00  0.00     0.034 A 
HETATM   31  C15 UNL     1      30.588  -6.630  45.855  1.00  0.00     0.059 A 
HETATM   32  C18 UNL     1      29.287  -6.309  46.221  1.00  0.00     0.034 A 
HETATM   33  C19 UNL     1      28.539  -7.124  47.032  1.00  0.00     0.039 A 
BRANCH  31  34
HETATM   34  N7  UNL     1      31.316  -5.784  44.974  1.00  0.00    -0.225 N 
HETATM   35  N8  UNL     1      32.330  -5.020  45.422  1.00  0.00    -0.264 N 
HETATM   36  C16 UNL     1      32.890  -4.319  44.443  1.00  0.00     0.210 A 
ATOM     37  H8  UNL     1      32.632  -4.985  46.396  1.00  0.00     0.190 HD
HETATM   38  N9  UNL     1      33.991  -3.407  44.500  1.00  0.00    -0.062 NA
HETATM   39  N10 UNL     1      32.198  -4.654  43.318  1.00  0.00    -0.302 N 
HETATM   40  C17 UNL     1      31.240  -5.553  43.671  1.00  0.00     0.216 A 
ATOM     41  H10 UNL     1      32.368  -4.295  42.378  1.00  0.00     0.171 HD
HETATM   42  N11 UNL     1      30.324  -6.146  42.767  1.00  0.00    -0.061 NA
ENDBRANCH  31  34
ENDBRANCH  27  28
ENDBRANCH  25  27
ENDBRANCH   1  25
TORSDOF 10
ENDMDL
