MODEL 1
REMARK VINA RESULT: -7.258550326      0.000      0.000
REMARK  6 active torsions:
REMARK  status: ('A' for Active; 'I' for Inactive)
REMARK    1  A    between atoms: C3_3  and  C4_4 
REMARK    2  A    between atoms: C4_4  and  N8_30 
REMARK    3  A    between atoms: N1_5  and  C5_7 
REMARK    4  A    between atoms: C5_7  and  N2_9 
REMARK    5  A    between atoms: N2_9  and  C6_11 
REMARK    6  A    between atoms: C9_14  and  N3_15 
REMARK       I    between atoms: N4_18  and  C12_19 
REMARK       I    between atoms: C12_19  and  N5_21 
ROOT
HETATM    1  C1  UNL     1       0.334  23.957 -63.533  1.00  0.00     0.112 C 
HETATM    2  C2  UNL     1       1.029  22.825 -62.934  1.00  0.00    -0.103 C 
HETATM    3  C3  UNL     1       1.599  21.886 -62.435  1.00  0.00    -0.031 C 
ENDROOT
BRANCH   3   4
HETATM    4  C4  UNL     1       2.274  20.764 -61.814  1.00  0.00     0.161 C 
HETATM    5  N1  UNL     1       3.423  20.954 -61.344  1.00  0.00    -0.312 N 
ATOM      6  H1  UNL     1       3.843  21.881 -61.415  1.00  0.00     0.170 HD
BRANCH   5   7
HETATM    7  C5  UNL     1       4.157  19.901 -60.713  1.00  0.00     0.178 C 
HETATM    8  S1  UNL     1       5.249  19.118 -61.619  1.00  0.00    -0.040 SA
BRANCH   7   9
HETATM    9  N2  UNL     1       3.889  19.579 -59.395  1.00  0.00    -0.333 N 
ATOM     10  H2  UNL     1       4.335  20.140 -58.669  1.00  0.00     0.168 HD
BRANCH   9  11
HETATM   11  C6  UNL     1       3.042  18.529 -58.986  1.00  0.00     0.034 A 
HETATM   12  C7  UNL     1       1.788  18.822 -58.424  1.00  0.00     0.032 A 
HETATM   13  C8  UNL     1       0.969  17.819 -57.988  1.00  0.00     0.031 A 
HETATM   14  C9  UNL     1       1.348  16.501 -58.087  1.00  0.00     0.030 A 
HETATM   15  C16 UNL     1       2.572  16.179 -58.632  1.00  0.00     0.031 A 
HETATM   16  C17 UNL     1       3.388  17.203 -59.067  1.00  0.00     0.032 A 
BRANCH  14  17
HETATM   17  N3  UNL     1       0.514  15.462 -57.664  1.00  0.00    -0.378 N 
HETATM   18  C10 UNL     1      -0.892  15.662 -57.425  1.00  0.00     0.143 C 
HETATM   19  C11 UNL     1      -1.765  14.503 -57.740  1.00  0.00     0.147 C 
HETATM   20  N4  UNL     1      -1.098  13.303 -58.163  1.00  0.00    -0.331 N 
HETATM   21  C12 UNL     1      -1.875  12.126 -58.344  1.00  0.00     0.324 C 
HETATM   22  C14 UNL     1       0.325  13.219 -58.413  1.00  0.00     0.147 C 
HETATM   23  O1  UNL     1      -3.117  12.200 -58.126  1.00  0.00    -0.247 OA
HETATM   24  N5  UNL     1      -1.237  10.940 -58.755  1.00  0.00    -0.285 N 
HETATM   25  C13 UNL     1      -1.912   9.914 -59.080  1.00  0.00     0.204 C 
ATOM     26  H5  UNL     1      -0.218  10.905 -58.793  1.00  0.00     0.172 HD
HETATM   27  N6  UNL     1      -3.322   9.945 -59.036  1.00  0.00    -0.066 NA
HETATM   28  N7  UNL     1      -1.245   8.741 -59.485  1.00  0.00    -0.066 NA
HETATM   29  C15 UNL     1       1.052  14.143 -57.431  1.00  0.00     0.143 C 
ENDBRANCH  14  17
ENDBRANCH   9  11
ENDBRANCH   7   9
ENDBRANCH   5   7
BRANCH   4  30
HETATM   30  N8  UNL     1       1.631  19.510 -61.761  1.00  0.00    -0.360 N 
HETATM   31  C18 UNL     1       2.047  18.235 -62.346  1.00  0.00     0.125 C 
HETATM   32  C19 UNL     1       0.742  17.796 -62.992  1.00  0.00     0.021 C 
HETATM   33  C20 UNL     1      -0.356  18.424 -62.181  1.00  0.00     0.021 C 
HETATM   34  C21 UNL     1       0.369  19.188 -61.104  1.00  0.00     0.125 C 
ENDBRANCH   4  30
ENDBRANCH   3   4
TORSDOF 6
ENDMDL
MODEL 2
REMARK VINA RESULT: -7.092241940      4.290      9.248
REMARK  6 active torsions:
REMARK  status: ('A' for Active; 'I' for Inactive)
REMARK    1  A    between atoms: C3_3  and  C4_4 
REMARK    2  A    between atoms: C4_4  and  N8_30 
REMARK    3  A    between atoms: N1_5  and  C5_7 
REMARK    4  A    between atoms: C5_7  and  N2_9 
REMARK    5  A    between atoms: N2_9  and  C6_11 
REMARK    6  A    between atoms: C9_14  and  N3_15 
REMARK       I    between atoms: N4_18  and  C12_19 
REMARK       I    between atoms: C12_19  and  N5_21 
ROOT
HETATM    1  C1  UNL     1       0.344  17.374 -53.138  1.00  0.00     0.112 C 
HETATM    2  C2  UNL     1       0.421  16.911 -54.517  1.00  0.00    -0.103 C 
HETATM    3  C3  UNL     1       0.490  16.531 -55.660  1.00  0.00    -0.031 C 
ENDROOT
BRANCH   3   4
HETATM    4  C4  UNL     1       0.578  16.097 -57.040  1.00  0.00     0.161 C 
HETATM    5  N1  UNL     1       1.676  15.645 -57.446  1.00  0.00    -0.312 N 
ATOM      6  H1  UNL     1       2.465  15.598 -56.801  1.00  0.00     0.170 HD
BRANCH   5   7
HETATM    7  C5  UNL     1       1.848  15.193 -58.792  1.00  0.00     0.178 C 
HETATM    8  S1  UNL     1       1.221  13.747 -59.170  1.00  0.00    -0.040 SA
BRANCH   7   9
HETATM    9  N2  UNL     1       2.554  15.975 -59.688  1.00  0.00    -0.333 N 
ATOM     10  H2  UNL     1       3.487  15.663 -59.958  1.00  0.00     0.168 HD
BRANCH   9  11
HETATM   11  C6  UNL     1       2.072  17.172 -60.256  1.00  0.00     0.034 A 
HETATM   12  C7  UNL     1       1.572  17.171 -61.568  1.00  0.00     0.032 A 
HETATM   13  C8  UNL     1       1.134  18.328 -62.148  1.00  0.00     0.031 A 
HETATM   14  C9  UNL     1       1.172  19.521 -61.464  1.00  0.00     0.030 A 
HETATM   15  C16 UNL     1       1.658  19.558 -60.175  1.00  0.00     0.031 A 
HETATM   16  C17 UNL     1       2.096  18.381 -59.604  1.00  0.00     0.032 A 
BRANCH  14  17
HETATM   17  N3  UNL     1       0.711  20.711 -62.035  1.00  0.00    -0.378 N 
HETATM   18  C10 UNL     1       1.469  21.934 -61.967  1.00  0.00     0.143 C 
HETATM   19  C11 UNL     1       1.340  22.832 -63.142  1.00  0.00     0.147 C 
HETATM   20  N4  UNL     1       0.419  22.414 -64.162  1.00  0.00    -0.331 N 
HETATM   21  C12 UNL     1       0.157  23.303 -65.241  1.00  0.00     0.324 C 
HETATM   22  C14 UNL     1      -0.265  21.139 -64.155  1.00  0.00     0.147 C 
HETATM   23  O1  UNL     1       0.755  24.416 -65.246  1.00  0.00    -0.247 OA
HETATM   24  N5  UNL     1      -0.746  22.911 -66.248  1.00  0.00    -0.285 N 
HETATM   25  C13 UNL     1      -0.887  23.604 -67.304  1.00  0.00     0.204 C 
ATOM     26  H5  UNL     1      -1.294  22.060 -66.127  1.00  0.00     0.172 HD
HETATM   27  N6  UNL     1      -0.136  24.783 -67.489  1.00  0.00    -0.066 NA
HETATM   28  N7  UNL     1      -1.800  23.187 -68.292  1.00  0.00    -0.066 NA
HETATM   29  C15 UNL     1      -0.568  20.752 -62.704  1.00  0.00     0.143 C 
ENDBRANCH  14  17
ENDBRANCH   9  11
ENDBRANCH   7   9
ENDBRANCH   5   7
BRANCH   4  30
HETATM   30  N8  UNL     1      -0.554  16.201 -57.874  1.00  0.00    -0.360 N 
HETATM   31  C18 UNL     1      -1.292  15.144 -58.564  1.00  0.00     0.125 C 
HETATM   32  C19 UNL     1      -1.410  15.756 -59.950  1.00  0.00     0.021 C 
HETATM   33  C20 UNL     1      -1.386  17.245 -59.751  1.00  0.00     0.021 C 
HETATM   34  C21 UNL     1      -1.262  17.417 -58.259  1.00  0.00     0.125 C 
ENDBRANCH   4  30
ENDBRANCH   3   4
TORSDOF 6
ENDMDL
MODEL 3
REMARK VINA RESULT: -7.090608822      4.056      8.773
REMARK  6 active torsions:
REMARK  status: ('A' for Active; 'I' for Inactive)
REMARK    1  A    between atoms: C3_3  and  C4_4 
REMARK    2  A    between atoms: C4_4  and  N8_30 
REMARK    3  A    between atoms: N1_5  and  C5_7 
REMARK    4  A    between atoms: C5_7  and  N2_9 
REMARK    5  A    between atoms: N2_9  and  C6_11 
REMARK    6  A    between atoms: C9_14  and  N3_15 
REMARK       I    between atoms: N4_18  and  C12_19 
REMARK       I    between atoms: C12_19  and  N5_21 
ROOT
HETATM    1  C1  UNL     1       0.172  18.300 -51.499  1.00  0.00     0.112 C 
HETATM    2  C2  UNL     1       0.397  17.574 -52.742  1.00  0.00    -0.103 C 
HETATM    3  C3  UNL     1       0.577  16.973 -53.773  1.00  0.00    -0.031 C 
ENDROOT
BRANCH   3   4
HETATM    4  C4  UNL     1       0.775  16.235 -55.004  1.00  0.00     0.161 C 
HETATM    5  N1  UNL     1       1.744  15.439 -55.064  1.00  0.00    -0.312 N 
ATOM      6  H1  UNL     1       2.356  15.338 -54.254  1.00  0.00     0.170 HD
BRANCH   5   7
HETATM    7  C5  UNL     1       2.009  14.670 -56.240  1.00  0.00     0.178 C 
HETATM    8  S1  UNL     1       1.192  13.280 -56.413  1.00  0.00    -0.040 SA
BRANCH   7   9
HETATM    9  N2  UNL     1       2.954  15.116 -57.147  1.00  0.00    -0.333 N 
ATOM     10  H2  UNL     1       3.933  14.906 -56.954  1.00  0.00     0.168 HD
BRANCH   9  11
HETATM   11  C6  UNL     1       2.656  15.840 -58.319  1.00  0.00     0.034 A 
HETATM   12  C7  UNL     1       3.415  16.974 -58.651  1.00  0.00     0.032 A 
HETATM   13  C8  UNL     1       3.118  17.710 -59.764  1.00  0.00     0.031 A 
HETATM   14  C9  UNL     1       2.072  17.361 -60.585  1.00  0.00     0.030 A 
HETATM   15  C16 UNL     1       1.306  16.255 -60.288  1.00  0.00     0.031 A 
HETATM   16  C17 UNL     1       1.619  15.523 -59.161  1.00  0.00     0.032 A 
BRANCH  14  17
HETATM   17  N3  UNL     1       1.767  18.091 -61.737  1.00  0.00    -0.378 N 
HETATM   18  C10 UNL     1       0.584  17.828 -62.516  1.00  0.00     0.143 C 
HETATM   19  C11 UNL     1      -0.033  19.015 -63.162  1.00  0.00     0.147 C 
HETATM   20  N4  UNL     1       0.665  20.259 -63.001  1.00  0.00    -0.331 N 
HETATM   21  C12 UNL     1       0.192  21.396 -63.712  1.00  0.00     0.324 C 
HETATM   22  C14 UNL     1       1.830  20.425 -62.158  1.00  0.00     0.147 C 
HETATM   23  O1  UNL     1      -0.824  21.250 -64.448  1.00  0.00    -0.247 OA
HETATM   24  N5  UNL     1       0.867  22.624 -63.569  1.00  0.00    -0.285 N 
HETATM   25  C13 UNL     1       0.387  23.694 -64.058  1.00  0.00     0.204 C 
ATOM     26  H5  UNL     1       1.753  22.654 -63.065  1.00  0.00     0.172 HD
HETATM   27  N6  UNL     1      -0.838  23.671 -64.757  1.00  0.00    -0.066 NA
HETATM   28  N7  UNL     1       1.086  24.906 -63.900  1.00  0.00    -0.066 NA
HETATM   29  C15 UNL     1       2.653  19.134 -62.197  1.00  0.00     0.143 C 
ENDBRANCH  14  17
ENDBRANCH   9  11
ENDBRANCH   7   9
ENDBRANCH   5   7
BRANCH   4  30
HETATM   30  N8  UNL     1      -0.109  16.435 -56.084  1.00  0.00    -0.360 N 
HETATM   31  C18 UNL     1      -0.100  17.484 -57.102  1.00  0.00     0.125 C 
HETATM   32  C19 UNL     1      -1.563  17.895 -57.082  1.00  0.00     0.021 C 
HETATM   33  C20 UNL     1      -2.330  16.680 -56.642  1.00  0.00     0.021 C 
HETATM   34  C21 UNL     1      -1.272  15.627 -56.437  1.00  0.00     0.125 C 
ENDBRANCH   4  30
ENDBRANCH   3   4
TORSDOF 6
ENDMDL
MODEL 4
REMARK VINA RESULT: -7.035744310      3.514      9.627
REMARK  6 active torsions:
REMARK  status: ('A' for Active; 'I' for Inactive)
REMARK    1  A    between atoms: C3_3  and  C4_4 
REMARK    2  A    between atoms: C4_4  and  N8_30 
REMARK    3  A    between atoms: N1_5  and  C5_7 
REMARK    4  A    between atoms: C5_7  and  N2_9 
REMARK    5  A    between atoms: N2_9  and  C6_11 
REMARK    6  A    between atoms: C9_14  and  N3_15 
REMARK       I    between atoms: N4_18  and  C12_19 
REMARK       I    between atoms: C12_19  and  N5_21 
ROOT
HETATM    1  C1  UNL     1      -3.403   8.272 -59.328  1.00  0.00     0.112 C 
HETATM    2  C2  UNL     1      -2.577   9.447 -59.085  1.00  0.00    -0.103 C 
HETATM    3  C3  UNL     1      -1.897  10.424 -58.887  1.00  0.00    -0.031 C 
ENDROOT
BRANCH   3   4
HETATM    4  C4  UNL     1      -1.084  11.603 -58.673  1.00  0.00     0.161 C 
HETATM    5  N1  UNL     1       0.157  11.500 -58.832  1.00  0.00    -0.312 N 
ATOM      6  H1  UNL     1       0.551  10.598 -59.102  1.00  0.00     0.170 HD
BRANCH   5   7
HETATM    7  C5  UNL     1       1.032  12.615 -58.643  1.00  0.00     0.178 C 
HETATM    8  S1  UNL     1       1.346  13.055 -57.114  1.00  0.00    -0.040 SA
BRANCH   7   9
HETATM    9  N2  UNL     1       1.538  13.279 -59.745  1.00  0.00    -0.333 N 
ATOM     10  H2  UNL     1       1.945  12.716 -60.492  1.00  0.00     0.168 HD
BRANCH   9  11
HETATM   11  C6  UNL     1       1.529  14.679 -59.908  1.00  0.00     0.034 A 
HETATM   12  C7  UNL     1       0.709  15.263 -60.886  1.00  0.00     0.032 A 
HETATM   13  C8  UNL     1       0.714  16.616 -61.083  1.00  0.00     0.031 A 
HETATM   14  C9  UNL     1       1.520  17.438 -60.331  1.00  0.00     0.030 A 
HETATM   15  C16 UNL     1       2.338  16.897 -59.363  1.00  0.00     0.031 A 
HETATM   16  C17 UNL     1       2.321  15.530 -59.177  1.00  0.00     0.032 A 
BRANCH  14  17
HETATM   17  N3  UNL     1       1.523  18.825 -60.506  1.00  0.00    -0.378 N 
HETATM   18  C10 UNL     1       2.739  19.596 -60.466  1.00  0.00     0.143 C 
HETATM   19  C11 UNL     1       2.775  20.779 -61.361  1.00  0.00     0.147 C 
HETATM   20  N4  UNL     1       1.572  21.058 -62.094  1.00  0.00    -0.331 N 
HETATM   21  C12 UNL     1       1.509  22.255 -62.859  1.00  0.00     0.324 C 
HETATM   22  C14 UNL     1       0.413  20.191 -62.097  1.00  0.00     0.147 C 
HETATM   23  O1  UNL     1       2.520  23.011 -62.856  1.00  0.00    -0.247 OA
HETATM   24  N5  UNL     1       0.335  22.546 -63.581  1.00  0.00    -0.285 N 
HETATM   25  C13 UNL     1       0.294  23.518 -64.398  1.00  0.00     0.204 C 
ATOM     26  H5  UNL     1      -0.494  21.967 -63.446  1.00  0.00     0.172 HD
HETATM   27  N6  UNL     1       1.432  24.328 -64.598  1.00  0.00    -0.066 NA
HETATM   28  N7  UNL     1      -0.895  23.785 -65.103  1.00  0.00    -0.066 NA
HETATM   29  C15 UNL     1       0.286  19.537 -60.718  1.00  0.00     0.143 C 
ENDBRANCH  14  17
ENDBRANCH   9  11
ENDBRANCH   7   9
ENDBRANCH   5   7
BRANCH   4  30
HETATM   30  N8  UNL     1      -1.700  12.813 -58.291  1.00  0.00    -0.360 N 
HETATM   31  C18 UNL     1      -1.867  14.046 -59.059  1.00  0.00     0.125 C 
HETATM   32  C19 UNL     1      -1.418  15.069 -58.028  1.00  0.00     0.021 C 
HETATM   33  C20 UNL     1      -1.712  14.463 -56.685  1.00  0.00     0.021 C 
HETATM   34  C21 UNL     1      -2.321  13.124 -57.008  1.00  0.00     0.125 C 
ENDBRANCH   4  30
ENDBRANCH   3   4
TORSDOF 6
ENDMDL
MODEL 5
REMARK VINA RESULT: -6.970252201      4.274      9.459
REMARK  6 active torsions:
REMARK  status: ('A' for Active; 'I' for Inactive)
REMARK    1  A    between atoms: C3_3  and  C4_4 
REMARK    2  A    between atoms: C4_4  and  N8_30 
REMARK    3  A    between atoms: N1_5  and  C5_7 
REMARK    4  A    between atoms: C5_7  and  N2_9 
REMARK    5  A    between atoms: N2_9  and  C6_11 
REMARK    6  A    between atoms: C9_14  and  N3_15 
REMARK       I    between atoms: N4_18  and  C12_19 
REMARK       I    between atoms: C12_19  and  N5_21 
ROOT
HETATM    1  C1  UNL     1      -3.420  17.999 -55.708  1.00  0.00     0.112 C 
HETATM    2  C2  UNL     1      -2.321  17.325 -56.386  1.00  0.00    -0.103 C 
HETATM    3  C3  UNL     1      -1.407  16.772 -56.947  1.00  0.00    -0.031 C 
ENDROOT
BRANCH   3   4
HETATM    4  C4  UNL     1      -0.306  16.128 -57.633  1.00  0.00     0.161 C 
HETATM    5  N1  UNL     1       0.785  16.746 -57.708  1.00  0.00    -0.312 N 
ATOM      6  H1  UNL     1       0.861  17.673 -57.289  1.00  0.00     0.170 HD
BRANCH   5   7
HETATM    7  C5  UNL     1       1.922  16.182 -58.366  1.00  0.00     0.178 C 
HETATM    8  S1  UNL     1       2.935  15.298 -57.459  1.00  0.00    -0.040 SA
BRANCH   7   9
HETATM    9  N2  UNL     1       2.126  16.433 -59.710  1.00  0.00    -0.333 N 
ATOM     10  H2  UNL     1       2.605  15.719 -60.259  1.00  0.00     0.168 HD
BRANCH   9  11
HETATM   11  C6  UNL     1       1.717  17.607 -60.374  1.00  0.00     0.034 A 
HETATM   12  C7  UNL     1       2.594  18.701 -60.462  1.00  0.00     0.032 A 
HETATM   13  C8  UNL     1       2.203  19.861 -61.070  1.00  0.00     0.031 A 
HETATM   14  C9  UNL     1       0.944  19.988 -61.609  1.00  0.00     0.030 A 
HETATM   15  C16 UNL     1       0.059  18.935 -61.538  1.00  0.00     0.031 A 
HETATM   16  C17 UNL     1       0.469  17.771 -60.922  1.00  0.00     0.032 A 
BRANCH  14  17
HETATM   17  N3  UNL     1       0.535  21.160 -62.250  1.00  0.00    -0.378 N 
HETATM   18  C10 UNL     1       1.312  22.372 -62.194  1.00  0.00     0.143 C 
HETATM   19  C11 UNL     1       1.258  23.222 -63.411  1.00  0.00     0.147 C 
HETATM   20  N4  UNL     1       0.380  22.778 -64.457  1.00  0.00    -0.331 N 
HETATM   21  C12 UNL     1       0.189  23.625 -65.583  1.00  0.00     0.324 C 
HETATM   22  C14 UNL     1      -0.328  21.516 -64.431  1.00  0.00     0.147 C 
HETATM   23  O1  UNL     1       0.807  24.726 -65.604  1.00  0.00    -0.247 OA
HETATM   24  N5  UNL     1      -0.672  23.208 -66.616  1.00  0.00    -0.285 N 
HETATM   25  C13 UNL     1      -0.748  23.857 -67.706  1.00  0.00     0.204 C 
ATOM     26  H5  UNL     1      -1.242  22.371 -66.488  1.00  0.00     0.172 HD
HETATM   27  N6  UNL     1       0.034  25.015 -67.901  1.00  0.00    -0.066 NA
HETATM   28  N7  UNL     1      -1.619  23.415 -68.720  1.00  0.00    -0.066 NA
HETATM   29  C15 UNL     1      -0.709  21.196 -62.983  1.00  0.00     0.143 C 
ENDBRANCH  14  17
ENDBRANCH   9  11
ENDBRANCH   7   9
ENDBRANCH   5   7
BRANCH   4  30
HETATM   30  N8  UNL     1      -0.490  14.847 -58.195  1.00  0.00    -0.360 N 
HETATM   31  C18 UNL     1      -0.364  13.535 -57.561  1.00  0.00     0.125 C 
HETATM   32  C19 UNL     1       0.477  12.813 -58.602  1.00  0.00     0.021 C 
HETATM   33  C20 UNL     1       0.162  13.466 -59.918  1.00  0.00     0.021 C 
HETATM   34  C21 UNL     1      -0.849  14.528 -59.572  1.00  0.00     0.125 C 
ENDBRANCH   4  30
ENDBRANCH   3   4
TORSDOF 6
ENDMDL
