MODEL 1
REMARK VINA RESULT: -5.977427632      0.000      0.000
REMARK  6 active torsions:
REMARK  status: ('A' for Active; 'I' for Inactive)
REMARK    1  A    between atoms: C2_2  and  C3_3 
REMARK    2  A    between atoms: C3_3  and  C6_6 
REMARK    3  A    between atoms: C7_7  and  C8_8 
REMARK    4  A    between atoms: C9_9  and  C10_10 
REMARK    5  A    between atoms: C14_14  and  C15_15 
REMARK    6  A    between atoms: C23_27  and  C24_28 
ROOT
HETATM    1  C10 UNL     1       2.319  16.180 -58.600  1.00  0.00     0.031 C 
HETATM    2  C11 UNL     1       2.561  15.534 -57.452  1.00  0.00    -0.000 C 
HETATM    3  C12 UNL     1       1.893  14.334 -56.968  1.00  0.00     0.071 C 
HETATM    4  C13 UNL     1       1.305  13.538 -58.070  1.00  0.00    -0.000 C 
HETATM    5  C14 UNL     1       1.068  12.251 -57.914  1.00  0.00     0.060 C 
HETATM    6  C19 UNL     1       0.983  14.240 -59.303  1.00  0.00     0.192 C 
HETATM    7  O1  UNL     1       0.248  13.676 -60.114  1.00  0.00    -0.287 OA
HETATM    8  C20 UNL     1       1.494  15.610 -59.628  1.00  0.00     0.060 C 
HETATM    9  C21 UNL     1       1.061  16.234 -60.696  1.00  0.00     0.051 A 
HETATM   10  C22 UNL     1       1.235  17.593 -61.149  1.00  0.00     0.054 A 
HETATM   11  C23 UNL     1       0.708  17.794 -62.386  1.00  0.00     0.110 A 
HETATM   12  C25 UNL     1       0.135  16.563 -62.845  1.00  0.00     0.263 A 
HETATM   13  O4  UNL     1      -0.439  16.362 -63.932  1.00  0.00    -0.267 OA
HETATM   14  N3  UNL     1       0.364  15.611 -61.787  1.00  0.00    -0.322 N 
ATOM     15  H3  UNL     1       0.072  14.635 -61.810  1.00  0.00     0.169 HD
ENDROOT
BRANCH   1  16
HETATM   16  C9  UNL     1       3.114  17.369 -58.858  1.00  0.00    -0.052 C 
HETATM   17  C8  UNL     1       3.808  18.345 -59.121  1.00  0.00    -0.009 C 
BRANCH  17  18
HETATM   18  C7  UNL     1       4.606  19.464 -59.449  1.00  0.00    -0.014 C 
HETATM   19  C6  UNL     1       5.298  20.413 -59.747  1.00  0.00    -0.083 C 
BRANCH  19  20
HETATM   20  C3  UNL     1       6.131  21.534 -60.124  1.00  0.00     0.017 C 
HETATM   21  C4  UNL     1       5.809  22.795 -59.384  1.00  0.00     0.029 C 
HETATM   22  C5  UNL     1       7.601  21.249 -60.012  1.00  0.00     0.029 C 
BRANCH  20  23
HETATM   23  C2  UNL     1       5.854  21.806 -61.608  1.00  0.00     0.017 C 
HETATM   24  C1  UNL     1       4.563  22.578 -61.669  1.00  0.00     0.006 C 
ENDBRANCH  20  23
ENDBRANCH  19  20
ENDBRANCH  17  18
ENDBRANCH   1  16
BRANCH   5  25
HETATM   25  C15 UNL     1       0.532  11.258 -58.775  1.00  0.00     0.107 A 
HETATM   26  N1  UNL     1       1.123  10.388 -59.600  1.00  0.00    -0.351 N 
HETATM   27  C16 UNL     1       0.184   9.662 -60.216  1.00  0.00     0.107 A 
ATOM     28  H1  UNL     1       2.129  10.293 -59.738  1.00  0.00     0.166 HD
HETATM   29  C17 UNL     1      -1.038  10.085 -59.765  1.00  0.00     0.109 A 
HETATM   30  N2  UNL     1      -0.816  11.058 -58.887  1.00  0.00    -0.346 N 
HETATM   31  C18 UNL     1      -1.864  11.794 -58.159  1.00  0.00     0.157 C 
ENDBRANCH   5  25
BRANCH  11  32
HETATM   32  C24 UNL     1       0.722  19.057 -63.119  1.00  0.00     0.215 C 
HETATM   33  O2  UNL     1       1.534  19.956 -62.828  1.00  0.00    -0.644 OA
HETATM   34  O3  UNL     1      -0.168  19.270 -64.147  1.00  0.00    -0.644 OA
ENDBRANCH  11  32
TORSDOF 6
ENDMDL
MODEL 2
REMARK VINA RESULT: -5.879917012      0.472      1.081
REMARK  6 active torsions:
REMARK  status: ('A' for Active; 'I' for Inactive)
REMARK    1  A    between atoms: C2_2  and  C3_3 
REMARK    2  A    between atoms: C3_3  and  C6_6 
REMARK    3  A    between atoms: C7_7  and  C8_8 
REMARK    4  A    between atoms: C9_9  and  C10_10 
REMARK    5  A    between atoms: C14_14  and  C15_15 
REMARK    6  A    between atoms: C23_27  and  C24_28 
ROOT
HETATM    1  C10 UNL     1       2.369  15.960 -58.526  1.00  0.00     0.031 C 
HETATM    2  C11 UNL     1       2.608  15.276 -57.400  1.00  0.00    -0.000 C 
HETATM    3  C12 UNL     1       1.866  14.125 -56.904  1.00  0.00     0.071 C 
HETATM    4  C13 UNL     1       1.167  13.400 -57.990  1.00  0.00    -0.000 C 
HETATM    5  C14 UNL     1       0.833  12.133 -57.841  1.00  0.00     0.060 C 
HETATM    6  C19 UNL     1       0.848  14.148 -59.196  1.00  0.00     0.192 C 
HETATM    7  O1  UNL     1       0.034  13.660 -59.981  1.00  0.00    -0.287 OA
HETATM    8  C20 UNL     1       1.455  15.478 -59.523  1.00  0.00     0.060 C 
HETATM    9  C21 UNL     1       1.028  16.154 -60.561  1.00  0.00     0.051 A 
HETATM   10  C22 UNL     1       1.291  17.502 -61.003  1.00  0.00     0.054 A 
HETATM   11  C23 UNL     1       0.728  17.768 -62.211  1.00  0.00     0.110 A 
HETATM   12  C25 UNL     1       0.037  16.596 -62.661  1.00  0.00     0.263 A 
HETATM   13  O4  UNL     1      -0.600  16.462 -63.723  1.00  0.00    -0.267 OA
HETATM   14  N3  UNL     1       0.234  15.610 -61.629  1.00  0.00    -0.322 N 
ATOM     15  H3  UNL     1      -0.137  14.660 -61.652  1.00  0.00     0.169 HD
ENDROOT
BRANCH   1  16
HETATM   16  C9  UNL     1       3.246  17.085 -58.803  1.00  0.00    -0.052 C 
HETATM   17  C8  UNL     1       3.962  18.038 -59.089  1.00  0.00    -0.009 C 
BRANCH  17  18
HETATM   18  C7  UNL     1       4.768  19.146 -59.433  1.00  0.00    -0.014 C 
HETATM   19  C6  UNL     1       5.448  20.099 -59.745  1.00  0.00    -0.083 C 
BRANCH  19  20
HETATM   20  C3  UNL     1       6.242  21.244 -60.136  1.00  0.00     0.017 C 
HETATM   21  C4  UNL     1       5.861  22.507 -59.429  1.00  0.00     0.029 C 
HETATM   22  C5  UNL     1       7.720  21.019 -59.999  1.00  0.00     0.029 C 
BRANCH  20  23
HETATM   23  C2  UNL     1       5.975  21.473 -61.629  1.00  0.00     0.017 C 
HETATM   24  C1  UNL     1       4.778  22.382 -61.717  1.00  0.00     0.006 C 
ENDBRANCH  20  23
ENDBRANCH  19  20
ENDBRANCH  17  18
ENDBRANCH   1  16
BRANCH   5  25
HETATM   25  C15 UNL     1       0.179  11.202 -58.692  1.00  0.00     0.107 A 
HETATM   26  N1  UNL     1      -1.112  10.881 -58.826  1.00  0.00    -0.351 N 
HETATM   27  C16 UNL     1      -1.230   9.928 -59.756  1.00  0.00     0.107 A 
ATOM     28  H1  UNL     1      -1.883  11.297 -58.304  1.00  0.00     0.166 HD
HETATM   29  C17 UNL     1       0.023   9.638 -60.224  1.00  0.00     0.109 A 
HETATM   30  N2  UNL     1       0.877  10.420 -59.569  1.00  0.00    -0.346 N 
HETATM   31  C18 UNL     1       2.336  10.432 -59.768  1.00  0.00     0.157 C 
ENDBRANCH   5  25
BRANCH  11  32
HETATM   32  C24 UNL     1       0.813  19.039 -62.925  1.00  0.00     0.215 C 
HETATM   33  O2  UNL     1       1.706  19.865 -62.656  1.00  0.00    -0.644 OA
HETATM   34  O3  UNL     1      -0.100  19.341 -63.910  1.00  0.00    -0.644 OA
ENDBRANCH  11  32
TORSDOF 6
ENDMDL
MODEL 3
REMARK VINA RESULT: -5.666477626      2.883      4.851
REMARK  6 active torsions:
REMARK  status: ('A' for Active; 'I' for Inactive)
REMARK    1  A    between atoms: C2_2  and  C3_3 
REMARK    2  A    between atoms: C3_3  and  C6_6 
REMARK    3  A    between atoms: C7_7  and  C8_8 
REMARK    4  A    between atoms: C9_9  and  C10_10 
REMARK    5  A    between atoms: C14_14  and  C15_15 
REMARK    6  A    between atoms: C23_27  and  C24_28 
ROOT
HETATM    1  C10 UNL     1       0.604  17.246 -61.819  1.00  0.00     0.031 C 
HETATM    2  C11 UNL     1      -0.397  16.438 -62.190  1.00  0.00    -0.000 C 
HETATM    3  C12 UNL     1      -0.543  15.026 -61.869  1.00  0.00     0.071 C 
HETATM    4  C13 UNL     1       0.195  14.652 -60.640  1.00  0.00    -0.000 C 
HETATM    5  C14 UNL     1      -0.155  13.587 -59.947  1.00  0.00     0.060 C 
HETATM    6  C19 UNL     1       1.323  15.489 -60.258  1.00  0.00     0.192 C 
HETATM    7  O1  UNL     1       2.111  15.049 -59.420  1.00  0.00    -0.287 OA
HETATM    8  C20 UNL     1       1.572  16.848 -60.835  1.00  0.00     0.060 C 
HETATM    9  C21 UNL     1       2.674  17.492 -60.541  1.00  0.00     0.051 A 
HETATM   10  C22 UNL     1       3.250  18.703 -61.075  1.00  0.00     0.054 A 
HETATM   11  C23 UNL     1       4.362  19.087 -60.395  1.00  0.00     0.110 A 
HETATM   12  C25 UNL     1       4.608  18.141 -59.348  1.00  0.00     0.263 A 
HETATM   13  O4  UNL     1       5.539  18.163 -58.520  1.00  0.00    -0.267 OA
HETATM   14  N3  UNL     1       3.555  17.164 -59.453  1.00  0.00    -0.322 N 
ATOM     15  H3  UNL     1       3.448  16.353 -58.843  1.00  0.00     0.169 HD
ENDROOT
BRANCH   1  16
HETATM   16  C9  UNL     1       0.533  18.624 -62.277  1.00  0.00    -0.052 C 
HETATM   17  C8  UNL     1       0.491  19.803 -62.610  1.00  0.00    -0.009 C 
BRANCH  17  18
HETATM   18  C7  UNL     1       0.464  21.166 -62.980  1.00  0.00    -0.014 C 
HETATM   19  C6  UNL     1       0.455  22.339 -63.283  1.00  0.00    -0.083 C 
BRANCH  19  20
HETATM   20  C3  UNL     1       0.467  23.744 -63.631  1.00  0.00     0.017 C 
HETATM   21  C4  UNL     1       0.187  24.004 -65.079  1.00  0.00     0.029 C 
HETATM   22  C5  UNL     1      -0.452  24.576 -62.784  1.00  0.00     0.029 C 
BRANCH  20  23
HETATM   23  C2  UNL     1       1.888  24.251 -63.356  1.00  0.00     0.017 C 
HETATM   24  C1  UNL     1       2.574  23.189 -62.538  1.00  0.00     0.006 C 
ENDBRANCH  20  23
ENDBRANCH  19  20
ENDBRANCH  17  18
ENDBRANCH   1  16
BRANCH   5  25
HETATM   25  C15 UNL     1       0.351  13.004 -58.755  1.00  0.00     0.107 A 
HETATM   26  N1  UNL     1       1.300  12.084 -58.553  1.00  0.00    -0.351 N 
HETATM   27  C16 UNL     1       1.406  11.847 -57.242  1.00  0.00     0.107 A 
ATOM     28  H1  UNL     1       1.854  11.635 -59.282  1.00  0.00     0.166 HD
HETATM   29  C17 UNL     1       0.499  12.641 -56.595  1.00  0.00     0.109 A 
HETATM   30  N2  UNL     1      -0.141  13.344 -57.525  1.00  0.00    -0.346 N 
HETATM   31  C18 UNL     1      -1.205  14.327 -57.260  1.00  0.00     0.157 C 
ENDBRANCH   5  25
BRANCH  11  32
HETATM   32  C24 UNL     1       5.171  20.267 -60.691  1.00  0.00     0.215 C 
HETATM   33  O2  UNL     1       4.849  21.389 -60.254  1.00  0.00    -0.644 OA
HETATM   34  O3  UNL     1       6.306  20.151 -61.460  1.00  0.00    -0.644 OA
ENDBRANCH  11  32
TORSDOF 6
ENDMDL
MODEL 4
REMARK VINA RESULT: -5.141515589      2.679      9.129
REMARK  6 active torsions:
REMARK  status: ('A' for Active; 'I' for Inactive)
REMARK    1  A    between atoms: C2_2  and  C3_3 
REMARK    2  A    between atoms: C3_3  and  C6_6 
REMARK    3  A    between atoms: C7_7  and  C8_8 
REMARK    4  A    between atoms: C9_9  and  C10_10 
REMARK    5  A    between atoms: C14_14  and  C15_15 
REMARK    6  A    between atoms: C23_27  and  C24_28 
ROOT
HETATM    1  C10 UNL     1       1.424  15.432 -60.279  1.00  0.00     0.031 C 
HETATM    2  C11 UNL     1       2.067  16.030 -59.268  1.00  0.00    -0.000 C 
HETATM    3  C12 UNL     1       2.808  17.282 -59.325  1.00  0.00     0.071 C 
HETATM    4  C13 UNL     1       2.354  18.152 -60.435  1.00  0.00    -0.000 C 
HETATM    5  C14 UNL     1       2.559  19.453 -60.392  1.00  0.00     0.060 C 
HETATM    6  C19 UNL     1       1.706  17.507 -61.567  1.00  0.00     0.192 C 
HETATM    7  O1  UNL     1       1.578  18.155 -62.605  1.00  0.00    -0.287 OA
HETATM    8  C20 UNL     1       1.197  16.099 -61.530  1.00  0.00     0.060 C 
HETATM    9  C21 UNL     1       0.740  15.539 -62.624  1.00  0.00     0.051 A 
HETATM   10  C22 UNL     1       0.364  14.178 -62.920  1.00  0.00     0.054 A 
HETATM   11  C23 UNL     1      -0.176  14.053 -64.162  1.00  0.00     0.110 A 
HETATM   12  C25 UNL     1      -0.192  15.342 -64.786  1.00  0.00     0.263 A 
HETATM   13  O4  UNL     1      -0.612  15.618 -65.926  1.00  0.00    -0.267 OA
HETATM   14  N3  UNL     1       0.377  16.248 -63.821  1.00  0.00    -0.322 N 
ATOM     15  H3  UNL     1       0.505  17.249 -63.966  1.00  0.00     0.169 HD
ENDROOT
BRANCH   1  16
HETATM   16  C9  UNL     1       0.761  14.174 -59.975  1.00  0.00    -0.052 C 
HETATM   17  C8  UNL     1       0.175  13.117 -59.770  1.00  0.00    -0.009 C 
BRANCH  17  18
HETATM   18  C7  UNL     1      -0.498  11.893 -59.560  1.00  0.00    -0.014 C 
HETATM   19  C6  UNL     1      -1.077  10.841 -59.399  1.00  0.00    -0.083 C 
BRANCH  19  20
HETATM   20  C3  UNL     1      -1.764   9.579 -59.234  1.00  0.00     0.017 C 
HETATM   21  C4  UNL     1      -1.671   8.684 -60.431  1.00  0.00     0.029 C 
HETATM   22  C5  UNL     1      -1.337   8.823 -58.008  1.00  0.00     0.029 C 
BRANCH  20  23
HETATM   23  C2  UNL     1      -3.250   9.911 -59.042  1.00  0.00     0.017 C 
HETATM   24  C1  UNL     1      -4.004   8.618 -59.204  1.00  0.00     0.006 C 
ENDBRANCH  20  23
ENDBRANCH  19  20
ENDBRANCH  17  18
ENDBRANCH   1  16
BRANCH   5  25
HETATM   25  C15 UNL     1       2.236  20.510 -61.284  1.00  0.00     0.107 A 
HETATM   26  N1  UNL     1       1.089  20.839 -61.888  1.00  0.00    -0.351 N 
HETATM   27  C16 UNL     1       1.293  21.916 -62.653  1.00  0.00     0.107 A 
ATOM     28  H1  UNL     1       0.202  20.348 -61.783  1.00  0.00     0.166 HD
HETATM   29  C17 UNL     1       2.607  22.280 -62.528  1.00  0.00     0.109 A 
HETATM   30  N2  UNL     1       3.174  21.417 -61.691  1.00  0.00    -0.346 N 
HETATM   31  C18 UNL     1       4.587  21.445 -61.277  1.00  0.00     0.157 C 
ENDBRANCH   5  25
BRANCH  11  32
HETATM   32  C24 UNL     1      -0.654  12.807 -64.756  1.00  0.00     0.215 C 
HETATM   33  O2  UNL     1       0.122  11.851 -64.948  1.00  0.00    -0.644 OA
HETATM   34  O3  UNL     1      -1.977  12.674 -65.111  1.00  0.00    -0.644 OA
ENDBRANCH  11  32
TORSDOF 6
ENDMDL
MODEL 5
REMARK VINA RESULT: -5.129269173      2.761      3.928
REMARK  6 active torsions:
REMARK  status: ('A' for Active; 'I' for Inactive)
REMARK    1  A    between atoms: C2_2  and  C3_3 
REMARK    2  A    between atoms: C3_3  and  C6_6 
REMARK    3  A    between atoms: C7_7  and  C8_8 
REMARK    4  A    between atoms: C9_9  and  C10_10 
REMARK    5  A    between atoms: C14_14  and  C15_15 
REMARK    6  A    between atoms: C23_27  and  C24_28 
ROOT
HETATM    1  C10 UNL     1       1.615  16.596 -60.871  1.00  0.00     0.031 C 
HETATM    2  C11 UNL     1       1.724  15.378 -60.326  1.00  0.00    -0.000 C 
HETATM    3  C12 UNL     1       0.957  14.192 -60.680  1.00  0.00     0.071 C 
HETATM    4  C13 UNL     1       0.429  14.259 -62.062  1.00  0.00    -0.000 C 
HETATM    5  C14 UNL     1       0.115  13.156 -62.713  1.00  0.00     0.060 C 
HETATM    6  C19 UNL     1       0.250  15.580 -62.646  1.00  0.00     0.192 C 
HETATM    7  O1  UNL     1      -0.438  15.674 -63.662  1.00  0.00    -0.287 OA
HETATM    8  C20 UNL     1       0.856  16.823 -62.069  1.00  0.00     0.060 C 
HETATM    9  C21 UNL     1       0.550  17.994 -62.572  1.00  0.00     0.051 A 
HETATM   10  C22 UNL     1       0.830  19.335 -62.119  1.00  0.00     0.054 A 
HETATM   11  C23 UNL     1       0.423  20.275 -63.013  1.00  0.00     0.110 A 
HETATM   12  C25 UNL     1      -0.168  19.612 -64.137  1.00  0.00     0.263 A 
HETATM   13  O4  UNL     1      -0.654  20.145 -65.153  1.00  0.00    -0.267 OA
HETATM   14  N3  UNL     1      -0.080  18.203 -63.847  1.00  0.00    -0.322 N 
ATOM     15  H3  UNL     1      -0.417  17.460 -64.459  1.00  0.00     0.169 HD
ENDROOT
BRANCH   1  16
HETATM   16  C9  UNL     1       2.488  17.629 -60.338  1.00  0.00    -0.052 C 
HETATM   17  C8  UNL     1       3.239  18.514 -59.942  1.00  0.00    -0.009 C 
BRANCH  17  18
HETATM   18  C7  UNL     1       4.097  19.547 -59.507  1.00  0.00    -0.014 C 
HETATM   19  C6  UNL     1       4.839  20.438 -59.153  1.00  0.00    -0.083 C 
BRANCH  19  20
HETATM   20  C3  UNL     1       5.727  21.509 -58.756  1.00  0.00     0.017 C 
HETATM   21  C4  UNL     1       5.372  22.834 -59.356  1.00  0.00     0.029 C 
HETATM   22  C5  UNL     1       5.859  21.652 -57.267  1.00  0.00     0.029 C 
BRANCH  20  23
HETATM   23  C2  UNL     1       7.120  21.142 -59.282  1.00  0.00     0.017 C 
HETATM   24  C1  UNL     1       6.983  20.959 -60.770  1.00  0.00     0.006 C 
ENDBRANCH  20  23
ENDBRANCH  19  20
ENDBRANCH  17  18
ENDBRANCH   1  16
BRANCH   5  25
HETATM   25  C15 UNL     1      -0.393  12.918 -64.017  1.00  0.00     0.107 A 
HETATM   26  N1  UNL     1      -1.642  12.911 -64.493  1.00  0.00    -0.351 N 
HETATM   27  C16 UNL     1      -1.611  12.616 -65.797  1.00  0.00     0.107 A 
ATOM     28  H1  UNL     1      -2.484  13.100 -63.950  1.00  0.00     0.166 HD
HETATM   29  C17 UNL     1      -0.303  12.433 -66.157  1.00  0.00     0.109 A 
HETATM   30  N2  UNL     1       0.433  12.619 -65.065  1.00  0.00    -0.346 N 
HETATM   31  C18 UNL     1       1.901  12.517 -65.008  1.00  0.00     0.157 C 
ENDBRANCH   5  25
BRANCH  11  32
HETATM   32  C24 UNL     1       0.564  21.719 -62.847  1.00  0.00     0.215 C 
HETATM   33  O2  UNL     1      -0.393  22.415 -62.457  1.00  0.00    -0.644 OA
HETATM   34  O3  UNL     1       1.766  22.332 -63.121  1.00  0.00    -0.644 OA
ENDBRANCH  11  32
TORSDOF 6
ENDMDL
