MODEL 1
REMARK VINA RESULT: -6.451253382      0.000      0.000
REMARK  4 active torsions:
REMARK  status: ('A' for Active; 'I' for Inactive)
REMARK       I    between atoms: C2_2  and  N1_4 
REMARK    1  A    between atoms: N3_18  and  C14_19 
REMARK    2  A    between atoms: C14_19  and  O2_20 
REMARK    3  A    between atoms: C14_19  and  N4_22 
REMARK    4  A    between atoms: N4_22  and  C15_23 
REMARK       I    between atoms: N5_26  and  C18_27 
ROOT
HETATM    1  C1  UNL     1      -2.362   7.935 -60.512  1.00  0.00     0.117 C 
HETATM    2  C2  UNL     1      -2.775   8.997 -59.611  1.00  0.00     0.215 C 
HETATM    3  O1  UNL     1      -4.019   9.214 -59.359  1.00  0.00    -0.274 OA
HETATM    4  N1  UNL     1      -1.817   9.829 -58.978  1.00  0.00    -0.352 N 
HETATM    5  C3  UNL     1      -0.447   9.522 -59.306  1.00  0.00     0.132 C 
HETATM    6  C4  UNL     1       0.037  10.604 -60.271  1.00  0.00     0.077 C 
HETATM    7  C5  UNL     1       0.244  11.827 -59.457  1.00  0.00     0.018 A 
HETATM    8  N2  UNL     1       1.464  12.359 -59.349  1.00  0.00    -0.362 N 
ATOM      9  H2  UNL     1       2.311  12.006 -59.795  1.00  0.00     0.165 HD
HETATM   10  C6  UNL     1       1.387  13.432 -58.560  1.00  0.00     0.017 A 
HETATM   11  C7  UNL     1       0.059  13.597 -58.143  1.00  0.00    -0.023 A 
HETATM   12  C8  UNL     1      -0.669  12.561 -58.726  1.00  0.00    -0.025 A 
HETATM   13  C9  UNL     1      -2.093  12.258 -58.620  1.00  0.00     0.061 C 
HETATM   14  C10 UNL     1      -2.340  10.838 -58.111  1.00  0.00     0.130 C 
HETATM   15  C11 UNL     1      -0.078  14.765 -57.277  1.00  0.00     0.028 C 
HETATM   16  C12 UNL     1      -1.266  15.621 -57.483  1.00  0.00     0.030 C 
HETATM   17  C13 UNL     1      -0.760  17.077 -57.244  1.00  0.00     0.128 C 
HETATM   18  N3  UNL     1       0.054  17.475 -58.368  1.00  0.00    -0.336 N 
HETATM   19  C21 UNL     1       0.784  16.340 -58.982  1.00  0.00     0.133 C 
HETATM   20  C22 UNL     1       1.176  15.565 -57.721  1.00  0.00     0.018 C 
HETATM   21  C23 UNL     1       2.186  14.539 -57.945  1.00  0.00     0.064 C 
ENDROOT
BRANCH  18  22
HETATM   22  C14 UNL     1       0.324  18.802 -58.781  1.00  0.00     0.291 C 
BRANCH  22  23
HETATM   23  O2  UNL     1      -0.675  19.636 -58.734  1.00  0.00    -0.322 OA
ATOM     24  H2  UNL     1      -0.590  20.425 -59.256  1.00  0.00     0.222 HD
ENDBRANCH  22  23
BRANCH  22  25
HETATM   25  N4  UNL     1       1.558  19.160 -59.211  1.00  0.00    -0.404 NA
BRANCH  25  26
HETATM   26  C15 UNL     1       2.839  19.532 -59.657  1.00  0.00     0.170 C 
HETATM   27  C16 UNL     1       3.842  18.583 -59.006  1.00  0.00     0.059 C 
HETATM   28  C17 UNL     1       5.241  18.721 -59.564  1.00  0.00     0.130 C 
HETATM   29  N5  UNL     1       5.233  19.579 -60.710  1.00  0.00    -0.336 N 
HETATM   30  C18 UNL     1       6.112  20.632 -60.879  1.00  0.00     0.330 C 
HETATM   31  C19 UNL     1       4.226  19.264 -61.713  1.00  0.00     0.130 C 
HETATM   32  N6  UNL     1       7.165  21.018 -59.997  1.00  0.00    -0.040 NA
HETATM   33  O3  UNL     1       6.031  21.395 -61.921  1.00  0.00    -0.251 OA
HETATM   34  C20 UNL     1       2.847  19.365 -61.184  1.00  0.00     0.059 C 
ENDBRANCH  25  26
ENDBRANCH  22  25
ENDBRANCH  18  22
TORSDOF 4
ENDMDL
MODEL 2
REMARK VINA RESULT: -5.910649627      4.126      9.499
REMARK  4 active torsions:
REMARK  status: ('A' for Active; 'I' for Inactive)
REMARK       I    between atoms: C2_2  and  N1_4 
REMARK    1  A    between atoms: N3_18  and  C14_19 
REMARK    2  A    between atoms: C14_19  and  O2_20 
REMARK    3  A    between atoms: C14_19  and  N4_22 
REMARK    4  A    between atoms: N4_22  and  C15_23 
REMARK       I    between atoms: N5_26  and  C18_27 
ROOT
HETATM    1  C1  UNL     1       6.399  21.952 -60.617  1.00  0.00     0.117 C 
HETATM    2  C2  UNL     1       6.067  20.855 -59.725  1.00  0.00     0.215 C 
HETATM    3  O1  UNL     1       6.961  20.309 -58.976  1.00  0.00    -0.274 OA
HETATM    4  N1  UNL     1       4.744  20.351 -59.649  1.00  0.00    -0.352 N 
HETATM    5  C3  UNL     1       3.800  21.017 -60.514  1.00  0.00     0.132 C 
HETATM    6  C4  UNL     1       3.523  20.075 -61.684  1.00  0.00     0.077 C 
HETATM    7  C5  UNL     1       2.656  18.993 -61.155  1.00  0.00     0.018 A 
HETATM    8  N2  UNL     1       1.422  18.829 -61.637  1.00  0.00    -0.362 N 
ATOM      9  H2  UNL     1       0.990  19.387 -62.374  1.00  0.00     0.165 HD
HETATM   10  C6  UNL     1       0.849  17.811 -60.992  1.00  0.00     0.017 A 
HETATM   11  C7  UNL     1       1.756  17.298 -60.054  1.00  0.00    -0.023 A 
HETATM   12  C8  UNL     1       2.916  18.064 -60.167  1.00  0.00    -0.025 A 
HETATM   13  C9  UNL     1       4.168  17.959 -59.424  1.00  0.00     0.061 C 
HETATM   14  C10 UNL     1       4.535  19.273 -58.735  1.00  0.00     0.130 C 
HETATM   15  C11 UNL     1       1.176  16.176 -59.323  1.00  0.00     0.028 C 
HETATM   16  C12 UNL     1       2.053  15.012 -59.065  1.00  0.00     0.030 C 
HETATM   17  C13 UNL     1       1.122  13.769 -59.202  1.00  0.00     0.128 C 
HETATM   18  N3  UNL     1       0.817  13.568 -60.598  1.00  0.00    -0.336 N 
HETATM   19  C21 UNL     1       0.770  14.836 -61.366  1.00  0.00     0.133 C 
HETATM   20  C22 UNL     1       0.084  15.742 -60.339  1.00  0.00     0.018 C 
HETATM   21  C23 UNL     1      -0.404  16.999 -60.888  1.00  0.00     0.064 C 
ENDROOT
BRANCH  18  22
HETATM   22  C14 UNL     1       0.412  12.355 -61.204  1.00  0.00     0.291 C 
BRANCH  22  23
HETATM   23  O2  UNL     1       0.225  11.344 -60.404  1.00  0.00    -0.322 OA
ATOM     24  H2  UNL     1       0.363  10.481 -60.776  1.00  0.00     0.222 HD
ENDBRANCH  22  23
BRANCH  22  25
HETATM   25  N4  UNL     1       0.246  12.267 -62.546  1.00  0.00    -0.404 NA
BRANCH  25  26
HETATM   26  C15 UNL     1       0.075  12.176 -63.939  1.00  0.00     0.170 C 
HETATM   27  C16 UNL     1      -1.084  13.094 -64.317  1.00  0.00     0.059 C 
HETATM   28  C17 UNL     1      -1.242  13.269 -65.811  1.00  0.00     0.130 C 
HETATM   29  N5  UNL     1      -0.133  12.679 -66.497  1.00  0.00    -0.336 N 
HETATM   30  C18 UNL     1      -0.273  11.815 -67.567  1.00  0.00     0.330 C 
HETATM   31  C19 UNL     1       1.179  13.057 -65.994  1.00  0.00     0.130 C 
HETATM   32  N6  UNL     1      -1.493  11.400 -68.179  1.00  0.00    -0.040 NA
HETATM   33  O3  UNL     1       0.768  11.285 -68.123  1.00  0.00    -0.251 OA
HETATM   34  C20 UNL     1       1.383  12.660 -64.583  1.00  0.00     0.059 C 
ENDBRANCH  25  26
ENDBRANCH  22  25
ENDBRANCH  18  22
TORSDOF 4
ENDMDL
MODEL 3
REMARK VINA RESULT: -5.693987124      5.615      7.668
REMARK  4 active torsions:
REMARK  status: ('A' for Active; 'I' for Inactive)
REMARK       I    between atoms: C2_2  and  N1_4 
REMARK    1  A    between atoms: N3_18  and  C14_19 
REMARK    2  A    between atoms: C14_19  and  O2_20 
REMARK    3  A    between atoms: C14_19  and  N4_22 
REMARK    4  A    between atoms: N4_22  and  C15_23 
REMARK       I    between atoms: N5_26  and  C18_27 
ROOT
HETATM    1  C1  UNL     1      -1.964  13.323 -56.924  1.00  0.00     0.117 C 
HETATM    2  C2  UNL     1      -1.698  14.749 -56.851  1.00  0.00     0.215 C 
HETATM    3  O1  UNL     1      -2.385  15.518 -56.081  1.00  0.00    -0.274 OA
HETATM    4  N1  UNL     1      -0.668  15.340 -57.627  1.00  0.00    -0.352 N 
HETATM    5  C3  UNL     1       0.058  14.414 -58.461  1.00  0.00     0.132 C 
HETATM    6  C4  UNL     1      -0.418  14.633 -59.896  1.00  0.00     0.077 C 
HETATM    7  C5  UNL     1       0.191  15.907 -60.349  1.00  0.00     0.018 A 
HETATM    8  N2  UNL     1       1.048  15.911 -61.373  1.00  0.00    -0.362 N 
ATOM      9  H2  UNL     1       1.338  15.095 -61.912  1.00  0.00     0.165 HD
HETATM   10  C6  UNL     1       1.462  17.164 -61.571  1.00  0.00     0.017 A 
HETATM   11  C7  UNL     1       0.842  18.003 -60.634  1.00  0.00    -0.023 A 
HETATM   12  C8  UNL     1       0.026  17.185 -59.852  1.00  0.00    -0.025 A 
HETATM   13  C9  UNL     1      -0.839  17.543 -58.732  1.00  0.00     0.061 C 
HETATM   14  C10 UNL     1      -0.496  16.750 -57.471  1.00  0.00     0.130 C 
HETATM   15  C11 UNL     1       1.260  19.390 -60.813  1.00  0.00     0.028 C 
HETATM   16  C12 UNL     1       0.216  20.431 -60.691  1.00  0.00     0.030 C 
HETATM   17  C13 UNL     1       0.590  21.504 -61.759  1.00  0.00     0.128 C 
HETATM   18  N3  UNL     1       0.291  20.978 -63.070  1.00  0.00    -0.336 N 
HETATM   19  C21 UNL     1       0.456  19.507 -63.152  1.00  0.00     0.133 C 
HETATM   20  C22 UNL     1       1.714  19.333 -62.297  1.00  0.00     0.018 C 
HETATM   21  C23 UNL     1       2.342  18.026 -62.422  1.00  0.00     0.064 C 
ENDROOT
BRANCH  18  22
HETATM   22  C14 UNL     1       0.044  21.733 -64.241  1.00  0.00     0.291 C 
BRANCH  22  23
HETATM   23  O2  UNL     1       0.648  22.884 -64.325  1.00  0.00    -0.322 OA
ATOM     24  H2  UNL     1       1.067  23.198 -63.533  1.00  0.00     0.222 HD
ENDBRANCH  22  23
BRANCH  22  25
HETATM   25  N4  UNL     1      -0.790  21.272 -65.205  1.00  0.00    -0.404 NA
BRANCH  25  26
HETATM   26  C15 UNL     1      -1.655  20.794 -66.206  1.00  0.00     0.170 C 
HETATM   27  C16 UNL     1      -1.751  21.874 -67.280  1.00  0.00     0.059 C 
HETATM   28  C17 UNL     1      -2.473  21.412 -68.525  1.00  0.00     0.130 C 
HETATM   29  N5  UNL     1      -2.717  20.003 -68.461  1.00  0.00    -0.336 N 
HETATM   30  C18 UNL     1      -3.949  19.431 -68.713  1.00  0.00     0.330 C 
HETATM   31  C19 UNL     1      -1.561  19.189 -68.113  1.00  0.00     0.130 C 
HETATM   32  N6  UNL     1      -5.144  20.108 -69.103  1.00  0.00    -0.040 NA
HETATM   33  O3  UNL     1      -4.116  18.153 -68.603  1.00  0.00    -0.251 OA
HETATM   34  C20 UNL     1      -1.018  19.517 -66.775  1.00  0.00     0.059 C 
ENDBRANCH  25  26
ENDBRANCH  22  25
ENDBRANCH  18  22
TORSDOF 4
ENDMDL
MODEL 4
REMARK VINA RESULT: -5.540652219      4.818      7.051
REMARK  4 active torsions:
REMARK  status: ('A' for Active; 'I' for Inactive)
REMARK       I    between atoms: C2_2  and  N1_4 
REMARK    1  A    between atoms: N3_18  and  C14_19 
REMARK    2  A    between atoms: C14_19  and  O2_20 
REMARK    3  A    between atoms: C14_19  and  N4_22 
REMARK    4  A    between atoms: N4_22  and  C15_23 
REMARK       I    between atoms: N5_26  and  C18_27 
ROOT
HETATM    1  C1  UNL     1       0.579  12.783 -66.122  1.00  0.00     0.117 C 
HETATM    2  C2  UNL     1       0.097  13.826 -65.233  1.00  0.00     0.215 C 
HETATM    3  O1  UNL     1       0.044  15.055 -65.610  1.00  0.00    -0.274 OA
HETATM    4  N1  UNL     1      -0.335  13.519 -63.917  1.00  0.00    -0.352 N 
HETATM    5  C3  UNL     1      -0.249  12.122 -63.570  1.00  0.00     0.132 C 
HETATM    6  C4  UNL     1       0.953  11.963 -62.641  1.00  0.00     0.077 C 
HETATM    7  C5  UNL     1       0.545  12.522 -61.328  1.00  0.00     0.018 A 
HETATM    8  N2  UNL     1       0.493  11.731 -60.253  1.00  0.00    -0.362 N 
ATOM      9  H2  UNL     1       0.724  10.738 -60.230  1.00  0.00     0.165 HD
HETATM   10  C6  UNL     1       0.088  12.462 -59.213  1.00  0.00     0.017 A 
HETATM   11  C7  UNL     1      -0.130  13.780 -59.638  1.00  0.00    -0.023 A 
HETATM   12  C8  UNL     1       0.168  13.809 -61.001  1.00  0.00    -0.025 A 
HETATM   13  C9  UNL     1       0.109  14.928 -61.936  1.00  0.00     0.061 C 
HETATM   14  C10 UNL     1      -0.791  14.624 -63.134  1.00  0.00     0.130 C 
HETATM   15  C11 UNL     1      -0.572  14.623 -58.532  1.00  0.00     0.028 C 
HETATM   16  C12 UNL     1       0.002  15.984 -58.449  1.00  0.00     0.030 C 
HETATM   17  C13 UNL     1       0.180  16.253 -56.923  1.00  0.00     0.128 C 
HETATM   18  N3  UNL     1       1.290  15.466 -56.440  1.00  0.00    -0.336 N 
HETATM   19  C21 UNL     1       1.448  14.185 -57.169  1.00  0.00     0.133 C 
HETATM   20  C22 UNL     1      -0.022  13.794 -57.340  1.00  0.00     0.018 C 
HETATM   21  C23 UNL     1      -0.226  12.412 -57.750  1.00  0.00     0.064 C 
ENDROOT
BRANCH  18  22
HETATM   22  C14 UNL     1       2.068  15.730 -55.287  1.00  0.00     0.291 C 
BRANCH  22  23
HETATM   23  O2  UNL     1       3.333  15.433 -55.364  1.00  0.00    -0.322 OA
ATOM     24  H2  UNL     1       3.581  14.816 -56.041  1.00  0.00     0.222 HD
ENDBRANCH  22  23
BRANCH  22  25
HETATM   25  N4  UNL     1       1.503  16.250 -54.170  1.00  0.00    -0.404 NA
BRANCH  25  26
HETATM   26  C15 UNL     1       0.919  16.789 -53.010  1.00  0.00     0.170 C 
HETATM   27  C16 UNL     1       1.878  17.842 -52.463  1.00  0.00     0.059 C 
HETATM   28  C17 UNL     1       1.283  18.663 -51.341  1.00  0.00     0.130 C 
HETATM   29  N5  UNL     1      -0.112  18.374 -51.203  1.00  0.00    -0.336 N 
HETATM   30  C18 UNL     1      -0.712  18.076 -49.994  1.00  0.00     0.330 C 
HETATM   31  C19 UNL     1      -0.879  18.420 -52.439  1.00  0.00     0.130 C 
HETATM   32  N6  UNL     1      -0.084  18.040 -48.713  1.00  0.00    -0.040 NA
HETATM   33  O3  UNL     1      -1.972  17.788 -49.939  1.00  0.00    -0.251 OA
HETATM   34  C20 UNL     1      -0.409  17.433 -53.437  1.00  0.00     0.059 C 
ENDBRANCH  25  26
ENDBRANCH  22  25
ENDBRANCH  18  22
TORSDOF 4
ENDMDL
MODEL 5
REMARK VINA RESULT: -5.306856110      3.948      9.284
REMARK  4 active torsions:
REMARK  status: ('A' for Active; 'I' for Inactive)
REMARK       I    between atoms: C2_2  and  N1_4 
REMARK    1  A    between atoms: N3_18  and  C14_19 
REMARK    2  A    between atoms: C14_19  and  O2_20 
REMARK    3  A    between atoms: C14_19  and  N4_22 
REMARK    4  A    between atoms: N4_22  and  C15_23 
REMARK       I    between atoms: N5_26  and  C18_27 
ROOT
HETATM    1  C1  UNL     1       4.819  23.471 -61.846  1.00  0.00     0.117 C 
HETATM    2  C2  UNL     1       3.605  22.703 -62.064  1.00  0.00     0.215 C 
HETATM    3  O1  UNL     1       2.525  23.264 -62.483  1.00  0.00    -0.274 OA
HETATM    4  N1  UNL     1       3.574  21.306 -61.825  1.00  0.00    -0.352 N 
HETATM    5  C3  UNL     1       4.822  20.750 -61.362  1.00  0.00     0.132 C 
HETATM    6  C4  UNL     1       4.663  20.471 -59.868  1.00  0.00     0.077 C 
HETATM    7  C5  UNL     1       3.798  19.270 -59.757  1.00  0.00     0.018 A 
HETATM    8  N2  UNL     1       4.276  18.152 -59.204  1.00  0.00    -0.362 N 
ATOM      9  H2  UNL     1       5.213  18.029 -58.821  1.00  0.00     0.165 HD
HETATM   10  C6  UNL     1       3.318  17.224 -59.237  1.00  0.00     0.017 A 
HETATM   11  C7  UNL     1       2.174  17.769 -59.836  1.00  0.00    -0.023 A 
HETATM   12  C8  UNL     1       2.493  19.086 -60.167  1.00  0.00    -0.025 A 
HETATM   13  C9  UNL     1       1.667  20.102 -60.813  1.00  0.00     0.061 C 
HETATM   14  C10 UNL     1       2.327  20.654 -62.077  1.00  0.00     0.130 C 
HETATM   15  C11 UNL     1       1.093  16.790 -59.892  1.00  0.00     0.028 C 
HETATM   16  C12 UNL     1      -0.270  17.272 -59.579  1.00  0.00     0.030 C 
HETATM   17  C13 UNL     1      -0.944  16.097 -58.806  1.00  0.00     0.128 C 
HETATM   18  N3  UNL     1      -0.375  16.027 -57.481  1.00  0.00    -0.336 N 
HETATM   19  C21 UNL     1       1.043  16.456 -57.439  1.00  0.00     0.133 C 
HETATM   20  C22 UNL     1       1.544  15.841 -58.749  1.00  0.00     0.018 C 
HETATM   21  C23 UNL     1       2.995  15.808 -58.872  1.00  0.00     0.064 C 
ENDROOT
BRANCH  18  22
HETATM   22  C14 UNL     1      -0.978  15.448 -56.338  1.00  0.00     0.291 C 
BRANCH  22  23
HETATM   23  O2  UNL     1      -1.695  14.380 -56.541  1.00  0.00    -0.322 OA
ATOM     24  H2  UNL     1      -2.023  13.939 -55.767  1.00  0.00     0.222 HD
ENDBRANCH  22  23
BRANCH  22  25
HETATM   25  N4  UNL     1      -0.816  15.998 -55.110  1.00  0.00    -0.404 NA
BRANCH  25  26
HETATM   26  C15 UNL     1      -0.648  16.569 -53.836  1.00  0.00     0.170 C 
HETATM   27  C16 UNL     1       0.804  17.025 -53.728  1.00  0.00     0.059 C 
HETATM   28  C17 UNL     1       1.077  17.857 -52.495  1.00  0.00     0.130 C 
HETATM   29  N5  UNL     1      -0.152  18.175 -51.832  1.00  0.00    -0.336 N 
HETATM   30  C18 UNL     1      -0.354  17.998 -50.477  1.00  0.00     0.330 C 
HETATM   31  C19 UNL     1      -1.196  18.716 -52.690  1.00  0.00     0.130 C 
HETATM   32  N6  UNL     1       0.595  17.520 -49.525  1.00  0.00    -0.040 NA
HETATM   33  O3  UNL     1      -1.500  18.270 -49.942  1.00  0.00    -0.251 OA
HETATM   34  C20 UNL     1      -1.602  17.771 -53.756  1.00  0.00     0.059 C 
ENDBRANCH  25  26
ENDBRANCH  22  25
ENDBRANCH  18  22
TORSDOF 4
ENDMDL
