MODEL 1
REMARK VINA RESULT: -5.563743757      0.000      0.000
REMARK  3 active torsions:
REMARK  status: ('A' for Active; 'I' for Inactive)
REMARK    1  A    between atoms: C2_2  and  C5_5 
REMARK    2  A    between atoms: C6_7  and  C7_8 
REMARK    3  A    between atoms: N1_12  and  O1_13 
ROOT
HETATM    1  C5  UNL     1       7.846   7.734  43.478  1.00  0.00     0.088 A 
HETATM    2  S1  UNL     1       6.815   8.996  42.981  1.00  0.00    -0.071 SA
HETATM    3  C6  UNL     1       6.407   9.587  44.529  1.00  0.00     0.066 A 
HETATM    4  C8  UNL     1       7.092   8.740  45.352  1.00  0.00     0.143 A 
HETATM    5  N1  UNL     1       7.822   7.806  44.799  1.00  0.00    -0.231 N 
ENDROOT
BRANCH   1   6
HETATM    6  C2  UNL     1       8.573   6.704  42.626  1.00  0.00     0.001 C 
HETATM    7  C1  UNL     1       7.908   5.359  42.762  1.00  0.00     0.021 C 
HETATM    8  C3  UNL     1       8.293   7.167  41.175  1.00  0.00     0.021 C 
HETATM    9  C4  UNL     1      10.031   6.649  42.830  1.00  0.00     0.021 C 
ENDBRANCH   1   6
BRANCH   5  10
HETATM   10  O1  UNL     1       8.628   6.906  45.583  1.00  0.00    -0.283 OA
ATOM     11  H1  UNL     1       8.412   6.746  46.494  1.00  0.00     0.245 HD
ENDBRANCH   5  10
BRANCH   3  12
HETATM   12  C7  UNL     1       5.557  10.751  44.952  1.00  0.00     0.395 C 
HETATM   13  F1  UNL     1       5.148  10.515  46.260  1.00  0.00    -0.208 F 
HETATM   14  F2  UNL     1       6.238  11.917  44.829  1.00  0.00    -0.208 F 
ENDBRANCH   3  12
TORSDOF 3
ENDMDL
MODEL 2
REMARK VINA RESULT: -5.528206589      3.548      4.375
REMARK  3 active torsions:
REMARK  status: ('A' for Active; 'I' for Inactive)
REMARK    1  A    between atoms: C2_2  and  C5_5 
REMARK    2  A    between atoms: C6_7  and  C7_8 
REMARK    3  A    between atoms: N1_12  and  O1_13 
ROOT
HETATM    1  C5  UNL     1       5.584  10.690  44.505  1.00  0.00     0.088 A 
HETATM    2  S1  UNL     1       5.289  11.660  43.136  1.00  0.00    -0.071 SA
HETATM    3  C6  UNL     1       4.319  12.843  43.893  1.00  0.00     0.066 A 
HETATM    4  C8  UNL     1       4.266  12.392  45.181  1.00  0.00     0.143 A 
HETATM    5  N1  UNL     1       4.919  11.298  45.475  1.00  0.00    -0.231 N 
ENDROOT
BRANCH   1   6
HETATM    6  C2  UNL     1       6.361   9.385  44.600  1.00  0.00     0.001 C 
HETATM    7  C1  UNL     1       5.427   8.215  44.441  1.00  0.00     0.021 C 
HETATM    8  C3  UNL     1       7.245   9.394  43.328  1.00  0.00     0.021 C 
HETATM    9  C4  UNL     1       7.235   9.269  45.781  1.00  0.00     0.021 C 
ENDBRANCH   1   6
BRANCH   5  10
HETATM   10  O1  UNL     1       4.973  10.780  46.818  1.00  0.00    -0.283 OA
ATOM     11  H1  UNL     1       4.396  10.071  47.076  1.00  0.00     0.245 HD
ENDBRANCH   5  10
BRANCH   3  12
HETATM   12  C7  UNL     1       3.688  14.097  43.359  1.00  0.00     0.395 C 
HETATM   13  F1  UNL     1       3.331  13.853  42.037  1.00  0.00    -0.208 F 
HETATM   14  F2  UNL     1       2.628  14.468  44.119  1.00  0.00    -0.208 F 
ENDBRANCH   3  12
TORSDOF 3
ENDMDL
MODEL 3
REMARK VINA RESULT: -5.372329449      4.834      5.717
REMARK  3 active torsions:
REMARK  status: ('A' for Active; 'I' for Inactive)
REMARK    1  A    between atoms: C2_2  and  C5_5 
REMARK    2  A    between atoms: C6_7  and  C7_8 
REMARK    3  A    between atoms: N1_12  and  O1_13 
ROOT
HETATM    1  C5  UNL     1       4.807  12.420  43.838  1.00  0.00     0.088 A 
HETATM    2  S1  UNL     1       3.928  13.775  43.295  1.00  0.00    -0.071 SA
HETATM    3  C6  UNL     1       3.174  14.171  44.774  1.00  0.00     0.066 A 
HETATM    4  C8  UNL     1       3.643  13.197  45.608  1.00  0.00     0.143 A 
HETATM    5  N1  UNL     1       4.477  12.317  45.115  1.00  0.00    -0.231 N 
ENDROOT
BRANCH   1   6
HETATM    6  C2  UNL     1       5.707  11.485  43.043  1.00  0.00     0.001 C 
HETATM    7  C1  UNL     1       5.253  10.060  43.217  1.00  0.00     0.021 C 
HETATM    8  C3  UNL     1       5.397  11.847  41.569  1.00  0.00     0.021 C 
HETATM    9  C4  UNL     1       7.150  11.664  43.279  1.00  0.00     0.021 C 
ENDBRANCH   1   6
BRANCH   5  10
HETATM   10  O1  UNL     1       5.072  11.291  45.932  1.00  0.00    -0.283 OA
ATOM     11  H1  UNL     1       5.622  10.627  45.533  1.00  0.00     0.245 HD
ENDBRANCH   5  10
BRANCH   3  12
HETATM   12  C7  UNL     1       2.256  15.300  45.147  1.00  0.00     0.395 C 
HETATM   13  F1  UNL     1       3.001  16.473  45.105  1.00  0.00    -0.208 F 
HETATM   14  F2  UNL     1       1.181  15.343  44.321  1.00  0.00    -0.208 F 
ENDBRANCH   3  12
TORSDOF 3
ENDMDL
MODEL 4
REMARK VINA RESULT: -5.357932801      5.244      6.231
REMARK  3 active torsions:
REMARK  status: ('A' for Active; 'I' for Inactive)
REMARK    1  A    between atoms: C2_2  and  C5_5 
REMARK    2  A    between atoms: C6_7  and  C7_8 
REMARK    3  A    between atoms: N1_12  and  O1_13 
ROOT
HETATM    1  C5  UNL     1       4.714  12.357  42.950  1.00  0.00     0.088 A 
HETATM    2  S1  UNL     1       4.054  12.746  44.473  1.00  0.00    -0.071 SA
HETATM    3  C6  UNL     1       3.370  14.252  44.052  1.00  0.00     0.066 A 
HETATM    4  C8  UNL     1       3.720  14.372  42.738  1.00  0.00     0.143 A 
HETATM    5  N1  UNL     1       4.400  13.396  42.193  1.00  0.00    -0.231 N 
ENDROOT
BRANCH   1   6
HETATM    6  C2  UNL     1       5.541  11.144  42.550  1.00  0.00     0.001 C 
HETATM    7  C1  UNL     1       7.008  11.443  42.710  1.00  0.00     0.021 C 
HETATM    8  C3  UNL     1       5.204  10.097  43.642  1.00  0.00     0.021 C 
HETATM    9  C4  UNL     1       5.208  10.574  41.233  1.00  0.00     0.021 C 
ENDBRANCH   1   6
BRANCH   5  10
HETATM   10  O1  UNL     1       4.761  13.404  40.799  1.00  0.00    -0.283 OA
ATOM     11  H1  UNL     1       5.047  12.602  40.378  1.00  0.00     0.245 HD
ENDBRANCH   5  10
BRANCH   3  12
HETATM   12  C7  UNL     1       2.551  15.225  44.851  1.00  0.00     0.395 C 
HETATM   13  F1  UNL     1       3.223  16.442  44.840  1.00  0.00    -0.208 F 
HETATM   14  F2  UNL     1       1.295  15.326  44.351  1.00  0.00    -0.208 F 
ENDBRANCH   3  12
TORSDOF 3
ENDMDL
MODEL 5
REMARK VINA RESULT: -5.291530620      4.549      5.572
REMARK  3 active torsions:
REMARK  status: ('A' for Active; 'I' for Inactive)
REMARK    1  A    between atoms: C2_2  and  C5_5 
REMARK    2  A    between atoms: C6_7  and  C7_8 
REMARK    3  A    between atoms: N1_12  and  O1_13 
ROOT
HETATM    1  C5  UNL     1       4.878  12.132  43.768  1.00  0.00     0.088 A 
HETATM    2  S1  UNL     1       4.069  13.487  43.126  1.00  0.00    -0.071 SA
HETATM    3  C6  UNL     1       3.337  14.027  44.570  1.00  0.00     0.066 A 
HETATM    4  C8  UNL     1       3.757  13.093  45.474  1.00  0.00     0.143 A 
HETATM    5  N1  UNL     1       4.544  12.139  45.048  1.00  0.00    -0.231 N 
ENDROOT
BRANCH   1   6
HETATM    6  C2  UNL     1       5.728  11.097  43.045  1.00  0.00     0.001 C 
HETATM    7  C1  UNL     1       5.503  11.191  41.559  1.00  0.00     0.021 C 
HETATM    8  C3  UNL     1       7.179  11.587  43.282  1.00  0.00     0.021 C 
HETATM    9  C4  UNL     1       5.604   9.723  43.562  1.00  0.00     0.021 C 
ENDBRANCH   1   6
BRANCH   5  10
HETATM   10  O1  UNL     1       5.087  11.146  45.939  1.00  0.00    -0.283 OA
ATOM     11  H1  UNL     1       5.129  11.317  46.872  1.00  0.00     0.245 HD
ENDBRANCH   5  10
BRANCH   3  12
HETATM   12  C7  UNL     1       2.479  15.225  44.857  1.00  0.00     0.395 C 
HETATM   13  F1  UNL     1       3.285  16.352  44.741  1.00  0.00    -0.208 F 
HETATM   14  F2  UNL     1       1.411  15.268  44.022  1.00  0.00    -0.208 F 
ENDBRANCH   3  12
TORSDOF 3
ENDMDL
