MODEL 1
REMARK VINA RESULT: -6.725854333      0.000      0.000
REMARK  1 active torsions:
REMARK  status: ('A' for Active; 'I' for Inactive)
REMARK    1  A    between atoms: C2_3  and  C3_4 
ROOT
HETATM    1  N1  UNL     1       5.274  11.175  46.132  1.00  0.00    -0.196 NA
HETATM    2  C1  UNL     1       5.389  11.423  45.001  1.00  0.00     0.082 C 
HETATM    3  C2  UNL     1       5.544  11.740  43.552  1.00  0.00     0.163 C 
HETATM    4  C7  UNL     1       7.025  12.016  43.389  1.00  0.00     0.038 C 
HETATM    5  C8  UNL     1       7.537  10.569  43.345  1.00  0.00     0.008 C 
HETATM    6  C9  UNL     1       6.637  10.002  42.271  1.00  0.00     0.081 C 
HETATM    7  C10 UNL     1       5.273  10.480  42.800  1.00  0.00     0.270 C 
HETATM    8  F1  UNL     1       4.455  10.620  41.718  1.00  0.00    -0.204 F 
HETATM    9  F2  UNL     1       4.827   9.450  43.630  1.00  0.00    -0.204 F 
ENDROOT
BRANCH   3  10
HETATM   10  C3  UNL     1       4.670  12.860  43.185  1.00  0.00     0.081 A 
HETATM   11  C4  UNL     1       3.772  13.522  43.975  1.00  0.00     0.036 A 
HETATM   12  C5  UNL     1       3.184  14.496  43.205  1.00  0.00     0.027 A 
HETATM   13  C6  UNL     1       3.761  14.373  41.956  1.00  0.00     0.142 A 
HETATM   14  O1  UNL     1       4.604  13.414  42.021  1.00  0.00    -0.325 OA
ENDBRANCH   3  10
TORSDOF 1
ENDMDL
MODEL 2
REMARK VINA RESULT: -6.618809781      2.386      2.924
REMARK  1 active torsions:
REMARK  status: ('A' for Active; 'I' for Inactive)
REMARK    1  A    between atoms: C2_3  and  C3_4 
ROOT
HETATM    1  N1  UNL     1       5.158  12.069  40.478  1.00  0.00    -0.196 NA
HETATM    2  C1  UNL     1       5.100  11.986  41.637  1.00  0.00     0.082 C 
HETATM    3  C2  UNL     1       5.023  11.871  43.123  1.00  0.00     0.163 C 
HETATM    4  C7  UNL     1       4.508  10.467  43.360  1.00  0.00     0.038 C 
HETATM    5  C8  UNL     1       5.816   9.691  43.154  1.00  0.00     0.008 C 
HETATM    6  C9  UNL     1       6.725  10.452  44.093  1.00  0.00     0.081 C 
HETATM    7  C10 UNL     1       6.426  11.888  43.632  1.00  0.00     0.270 C 
HETATM    8  F1  UNL     1       6.638  12.702  44.706  1.00  0.00    -0.204 F 
HETATM    9  F2  UNL     1       7.355  12.146  42.623  1.00  0.00    -0.204 F 
ENDROOT
BRANCH   3  10
HETATM   10  C3  UNL     1       4.171  12.935  43.667  1.00  0.00     0.081 A 
HETATM   11  C4  UNL     1       3.788  14.099  43.062  1.00  0.00     0.036 A 
HETATM   12  C5  UNL     1       2.993  14.783  43.951  1.00  0.00     0.027 A 
HETATM   13  C6  UNL     1       2.935  13.986  45.077  1.00  0.00     0.142 A 
HETATM   14  O1  UNL     1       3.634  12.943  44.840  1.00  0.00    -0.325 OA
ENDBRANCH   3  10
TORSDOF 1
ENDMDL
MODEL 3
REMARK VINA RESULT: -6.528675150      1.976      2.383
REMARK  1 active torsions:
REMARK  status: ('A' for Active; 'I' for Inactive)
REMARK    1  A    between atoms: C2_3  and  C3_4 
ROOT
HETATM    1  N1  UNL     1       7.335   9.313  45.959  1.00  0.00    -0.196 NA
HETATM    2  C1  UNL     1       6.764  10.023  45.235  1.00  0.00     0.082 C 
HETATM    3  C2  UNL     1       6.040  10.935  44.303  1.00  0.00     0.163 C 
HETATM    4  C7  UNL     1       7.132  11.797  43.705  1.00  0.00     0.038 C 
HETATM    5  C8  UNL     1       7.673  10.812  42.660  1.00  0.00     0.008 C 
HETATM    6  C9  UNL     1       6.386  10.434  41.962  1.00  0.00     0.081 C 
HETATM    7  C10 UNL     1       5.521  10.092  43.187  1.00  0.00     0.270 C 
HETATM    8  F1  UNL     1       4.225  10.335  42.837  1.00  0.00    -0.204 F 
HETATM    9  F2  UNL     1       5.728   8.729  43.408  1.00  0.00    -0.204 F 
ENDROOT
BRANCH   3  10
HETATM   10  C3  UNL     1       5.003  11.677  45.030  1.00  0.00     0.081 A 
HETATM   11  C4  UNL     1       4.191  12.670  44.557  1.00  0.00     0.036 A 
HETATM   12  C5  UNL     1       3.379  13.067  45.594  1.00  0.00     0.027 A 
HETATM   13  C6  UNL     1       3.750  12.283  46.669  1.00  0.00     0.142 A 
HETATM   14  O1  UNL     1       4.687  11.510  46.269  1.00  0.00    -0.325 OA
ENDBRANCH   3  10
TORSDOF 1
ENDMDL
MODEL 4
REMARK VINA RESULT: -6.441524234      4.453      5.759
REMARK  1 active torsions:
REMARK  status: ('A' for Active; 'I' for Inactive)
REMARK    1  A    between atoms: C2_3  and  C3_4 
ROOT
HETATM    1  N1  UNL     1      10.499   6.565  43.261  1.00  0.00    -0.196 NA
HETATM    2  C1  UNL     1       9.403   6.873  43.023  1.00  0.00     0.082 C 
HETATM    3  C2  UNL     1       7.999   7.269  42.710  1.00  0.00     0.163 C 
HETATM    4  C7  UNL     1       8.085   7.871  41.322  1.00  0.00     0.038 C 
HETATM    5  C8  UNL     1       8.128   6.576  40.499  1.00  0.00     0.008 C 
HETATM    6  C9  UNL     1       6.919   5.864  41.063  1.00  0.00     0.081 C 
HETATM    7  C10 UNL     1       7.214   6.009  42.566  1.00  0.00     0.270 C 
HETATM    8  F1  UNL     1       6.010   6.005  43.208  1.00  0.00    -0.204 F 
HETATM    9  F2  UNL     1       7.959   4.876  42.899  1.00  0.00    -0.204 F 
ENDROOT
BRANCH   3  10
HETATM   10  C3  UNL     1       7.492   8.182  43.741  1.00  0.00     0.081 A 
HETATM   11  C4  UNL     1       6.685   9.273  43.578  1.00  0.00     0.036 A 
HETATM   12  C5  UNL     1       6.471   9.817  44.822  1.00  0.00     0.027 A 
HETATM   13  C6  UNL     1       7.177   9.016  45.698  1.00  0.00     0.142 A 
HETATM   14  O1  UNL     1       7.736   8.098  45.005  1.00  0.00    -0.325 OA
ENDBRANCH   3  10
TORSDOF 1
ENDMDL
MODEL 5
REMARK VINA RESULT: -6.307090668      4.485      6.030
REMARK  1 active torsions:
REMARK  status: ('A' for Active; 'I' for Inactive)
REMARK    1  A    between atoms: C2_3  and  C3_4 
ROOT
HETATM    1  N1  UNL     1      10.732   6.523  43.260  1.00  0.00    -0.196 NA
HETATM    2  C1  UNL     1       9.764   6.706  42.642  1.00  0.00     0.082 C 
HETATM    3  C2  UNL     1       8.526   6.938  41.842  1.00  0.00     0.163 C 
HETATM    4  C7  UNL     1       8.992   6.851  40.404  1.00  0.00     0.038 C 
HETATM    5  C8  UNL     1       9.053   5.324  40.262  1.00  0.00     0.008 C 
HETATM    6  C9  UNL     1       7.669   4.957  40.749  1.00  0.00     0.081 C 
HETATM    7  C10 UNL     1       7.640   5.758  42.062  1.00  0.00     0.270 C 
HETATM    8  F1  UNL     1       6.333   6.059  42.314  1.00  0.00    -0.204 F 
HETATM    9  F2  UNL     1       8.144   4.886  43.029  1.00  0.00    -0.204 F 
ENDROOT
BRANCH   3  10
HETATM   10  C3  UNL     1       7.921   8.223  42.212  1.00  0.00     0.081 A 
HETATM   11  C4  UNL     1       7.296   9.125  41.398  1.00  0.00     0.036 A 
HETATM   12  C5  UNL     1       6.890  10.178  42.183  1.00  0.00     0.027 A 
HETATM   13  C6  UNL     1       7.302   9.859  43.462  1.00  0.00     0.142 A 
HETATM   14  O1  UNL     1       7.886   8.723  43.401  1.00  0.00    -0.325 OA
ENDBRANCH   3  10
TORSDOF 1
ENDMDL
