MODEL 1
REMARK VINA RESULT: -7.355583228      0.000      0.000
REMARK  2 active torsions:
REMARK  status: ('A' for Active; 'I' for Inactive)
REMARK    1  A    between atoms: C1_2  and  C2_5 
REMARK    2  A    between atoms: C5_8  and  N1_9 
ROOT
HETATM    1  C2  UNL     1       3.995  13.378  43.757  1.00  0.00     0.048 A 
HETATM    2  C3  UNL     1       4.022  12.796  45.011  1.00  0.00     0.018 A 
HETATM    3  C4  UNL     1       4.715  11.627  45.254  1.00  0.00     0.031 A 
HETATM    4  C5  UNL     1       5.385  11.069  44.181  1.00  0.00     0.039 A 
HETATM    5  C9  UNL     1       5.365  11.643  42.925  1.00  0.00     0.031 A 
HETATM    6  C10 UNL     1       4.667  12.809  42.697  1.00  0.00     0.018 A 
ENDROOT
BRANCH   4   7
HETATM    7  N1  UNL     1       6.145   9.883  44.395  1.00  0.00    -0.317 N 
HETATM    8  C6  UNL     1       6.681   8.993  43.575  1.00  0.00     0.115 A 
HETATM    9  C7  UNL     1       7.312   8.012  44.300  1.00  0.00     0.106 A 
HETATM   10  N2  UNL     1       7.129   8.357  45.599  1.00  0.00    -0.360 N 
HETATM   11  C8  UNL     1       6.430   9.480  45.669  1.00  0.00     0.188 A 
ATOM     12  H2  UNL     1       7.477   7.830  46.401  1.00  0.00     0.166 HD
ENDBRANCH   4   7
BRANCH   1  13
HETATM   13  C1  UNL     1       3.242  14.653  43.533  1.00  0.00     0.417 C 
HETATM   14  F1  UNL     1       2.720  14.584  42.235  1.00  0.00    -0.166 F 
HETATM   15  F2  UNL     1       2.171  14.720  44.394  1.00  0.00    -0.166 F 
HETATM   16  F3  UNL     1       4.098  15.731  43.658  1.00  0.00    -0.166 F 
ENDBRANCH   1  13
TORSDOF 2
ENDMDL
MODEL 2
REMARK VINA RESULT: -7.346310160      0.087      1.015
REMARK  2 active torsions:
REMARK  status: ('A' for Active; 'I' for Inactive)
REMARK    1  A    between atoms: C1_2  and  C2_5 
REMARK    2  A    between atoms: C5_8  and  N1_9 
ROOT
HETATM    1  C2  UNL     1       3.962  13.342  43.682  1.00  0.00     0.048 A 
HETATM    2  C3  UNL     1       4.058  12.822  44.960  1.00  0.00     0.018 A 
HETATM    3  C4  UNL     1       4.758  11.662  45.221  1.00  0.00     0.031 A 
HETATM    4  C5  UNL     1       5.362  11.046  44.141  1.00  0.00     0.039 A 
HETATM    5  C9  UNL     1       5.274  11.557  42.861  1.00  0.00     0.031 A 
HETATM    6  C10 UNL     1       4.570  12.716  42.616  1.00  0.00     0.018 A 
ENDROOT
BRANCH   4   7
HETATM    7  N1  UNL     1       6.127   9.866  44.370  1.00  0.00    -0.317 N 
HETATM    8  C6  UNL     1       6.641   8.950  43.563  1.00  0.00     0.115 A 
HETATM    9  C7  UNL     1       7.290   7.991  44.301  1.00  0.00     0.106 A 
HETATM   10  N2  UNL     1       7.142   8.375  45.593  1.00  0.00    -0.360 N 
HETATM   11  C8  UNL     1       6.445   9.501  45.648  1.00  0.00     0.188 A 
ATOM     12  H2  UNL     1       7.511   7.873  46.401  1.00  0.00     0.166 HD
ENDBRANCH   4   7
BRANCH   1  13
HETATM   13  C1  UNL     1       3.205  14.610  43.438  1.00  0.00     0.417 C 
HETATM   14  F1  UNL     1       4.130  15.655  43.555  1.00  0.00    -0.166 F 
HETATM   15  F2  UNL     1       2.736  14.631  42.144  1.00  0.00    -0.166 F 
HETATM   16  F3  UNL     1       2.198  14.744  44.374  1.00  0.00    -0.166 F 
ENDBRANCH   1  13
TORSDOF 2
ENDMDL
MODEL 3
REMARK VINA RESULT: -7.345965376      0.166      1.027
REMARK  2 active torsions:
REMARK  status: ('A' for Active; 'I' for Inactive)
REMARK    1  A    between atoms: C1_2  and  C2_5 
REMARK    2  A    between atoms: C5_8  and  N1_9 
ROOT
HETATM    1  C2  UNL     1       4.048  13.284  43.593  1.00  0.00     0.048 A 
HETATM    2  C3  UNL     1       4.127  12.775  44.877  1.00  0.00     0.018 A 
HETATM    3  C4  UNL     1       4.815  11.612  45.155  1.00  0.00     0.031 A 
HETATM    4  C5  UNL     1       5.425  10.981  44.087  1.00  0.00     0.039 A 
HETATM    5  C9  UNL     1       5.353  11.480  42.801  1.00  0.00     0.031 A 
HETATM    6  C10 UNL     1       4.661  12.643  42.538  1.00  0.00     0.018 A 
ENDROOT
BRANCH   4   7
HETATM    7  N1  UNL     1       6.177   9.797  44.335  1.00  0.00    -0.317 N 
HETATM    8  C6  UNL     1       6.659   8.849  43.544  1.00  0.00     0.115 A 
HETATM    9  C7  UNL     1       7.312   7.904  44.296  1.00  0.00     0.106 A 
HETATM   10  N2  UNL     1       7.200   8.329  45.579  1.00  0.00    -0.360 N 
HETATM   11  C8  UNL     1       6.521   9.467  45.615  1.00  0.00     0.188 A 
ATOM     12  H2  UNL     1       7.581   7.846  46.393  1.00  0.00     0.166 HD
ENDBRANCH   4   7
BRANCH   1  13
HETATM   13  C1  UNL     1       3.303  14.556  43.329  1.00  0.00     0.417 C 
HETATM   14  F1  UNL     1       2.278  14.622  44.281  1.00  0.00    -0.166 F 
HETATM   15  F2  UNL     1       4.128  15.634  43.552  1.00  0.00    -0.166 F 
HETATM   16  F3  UNL     1       2.780  14.537  42.051  1.00  0.00    -0.166 F 
ENDBRANCH   1  13
TORSDOF 2
ENDMDL
MODEL 4
REMARK VINA RESULT: -7.342159931      0.082      1.606
REMARK  2 active torsions:
REMARK  status: ('A' for Active; 'I' for Inactive)
REMARK    1  A    between atoms: C1_2  and  C2_5 
REMARK    2  A    between atoms: C5_8  and  N1_9 
ROOT
HETATM    1  C2  UNL     1       4.021  13.353  43.778  1.00  0.00     0.048 A 
HETATM    2  C3  UNL     1       4.773  12.811  42.752  1.00  0.00     0.018 A 
HETATM    3  C4  UNL     1       5.528  11.669  42.929  1.00  0.00     0.031 A 
HETATM    4  C5  UNL     1       5.491  11.090  44.184  1.00  0.00     0.039 A 
HETATM    5  C9  UNL     1       4.742  11.622  45.216  1.00  0.00     0.031 A 
HETATM    6  C10 UNL     1       3.995  12.764  45.024  1.00  0.00     0.018 A 
ENDROOT
BRANCH   4   7
HETATM    7  N1  UNL     1       6.225   9.888  44.401  1.00  0.00    -0.317 N 
HETATM    8  C6  UNL     1       6.753   8.990  43.583  1.00  0.00     0.115 A 
HETATM    9  C7  UNL     1       7.356   7.995  44.312  1.00  0.00     0.106 A 
HETATM   10  N2  UNL     1       7.166   8.338  45.610  1.00  0.00    -0.360 N 
HETATM   11  C8  UNL     1       6.488   9.475  45.677  1.00  0.00     0.188 A 
ATOM     12  H2  UNL     1       7.494   7.802  46.414  1.00  0.00     0.166 HD
ENDBRANCH   4   7
BRANCH   1  13
HETATM   13  C1  UNL     1       3.205  14.586  43.546  1.00  0.00     0.417 C 
HETATM   14  F1  UNL     1       4.082  15.672  43.663  1.00  0.00    -0.166 F 
HETATM   15  F2  UNL     1       2.726  14.593  42.256  1.00  0.00    -0.166 F 
HETATM   16  F3  UNL     1       2.200  14.668  44.490  1.00  0.00    -0.166 F 
ENDBRANCH   1  13
TORSDOF 2
ENDMDL
MODEL 5
REMARK VINA RESULT: -7.315898772      0.132      1.251
REMARK  2 active torsions:
REMARK  status: ('A' for Active; 'I' for Inactive)
REMARK    1  A    between atoms: C1_2  and  C2_5 
REMARK    2  A    between atoms: C5_8  and  N1_9 
ROOT
HETATM    1  C2  UNL     1       4.112  13.357  43.697  1.00  0.00     0.048 A 
HETATM    2  C3  UNL     1       4.801  12.762  42.656  1.00  0.00     0.018 A 
HETATM    3  C4  UNL     1       5.532  11.605  42.837  1.00  0.00     0.031 A 
HETATM    4  C5  UNL     1       5.539  11.068  44.110  1.00  0.00     0.039 A 
HETATM    5  C9  UNL     1       4.854  11.653  45.158  1.00  0.00     0.031 A 
HETATM    6  C10 UNL     1       4.129  12.809  44.962  1.00  0.00     0.018 A 
ENDROOT
BRANCH   4   7
HETATM    7  N1  UNL     1       6.249   9.853  44.334  1.00  0.00    -0.317 N 
HETATM    8  C6  UNL     1       6.763   8.944  43.520  1.00  0.00     0.115 A 
HETATM    9  C7  UNL     1       7.346   7.939  44.253  1.00  0.00     0.106 A 
HETATM   10  N2  UNL     1       7.157   8.289  45.550  1.00  0.00    -0.360 N 
HETATM   11  C8  UNL     1       6.500   9.439  45.611  1.00  0.00     0.188 A 
ATOM     12  H2  UNL     1       7.473   7.750  46.356  1.00  0.00     0.166 HD
ENDBRANCH   4   7
BRANCH   1  13
HETATM   13  C1  UNL     1       3.319  14.605  43.462  1.00  0.00     0.417 C 
HETATM   14  F1  UNL     1       2.773  14.494  42.178  1.00  0.00    -0.166 F 
HETATM   15  F2  UNL     1       2.264  14.660  44.344  1.00  0.00    -0.166 F 
HETATM   16  F3  UNL     1       4.146  15.709  43.547  1.00  0.00    -0.166 F 
ENDBRANCH   1  13
TORSDOF 2
ENDMDL
