MODEL 1
REMARK VINA RESULT: -7.096310344      0.000      0.000
REMARK  3 active torsions:
REMARK  status: ('A' for Active; 'I' for Inactive)
REMARK    1  A    between atoms: C2_2  and  C3_3 
REMARK    2  A    between atoms: C2_2  and  C5_8 
REMARK    3  A    between atoms: C3_3  and  C4_4 
ROOT
HETATM    1  C5  UNL     1       4.576  12.453  43.365  1.00  0.00    -0.039 A 
HETATM    2  C6  UNL     1       4.893  11.338  42.614  1.00  0.00     0.012 A 
HETATM    3  C7  UNL     1       5.672  10.330  43.141  1.00  0.00     0.041 A 
HETATM    4  C8  UNL     1       6.165  10.387  44.428  1.00  0.00     0.113 A 
HETATM    5  C9  UNL     1       6.972   9.323  44.948  1.00  0.00     0.117 C 
HETATM    6  N1  UNL     1       7.634   8.468  45.379  1.00  0.00    -0.190 NA
HETATM    7  N2  UNL     1       5.841  11.487  45.141  1.00  0.00    -0.357 N 
ATOM      8  H2  UNL     1       6.187  11.568  46.097  1.00  0.00     0.166 HD
HETATM    9  C10 UNL     1       5.085  12.476  44.646  1.00  0.00     0.096 A 
ENDROOT
BRANCH   1  10
HETATM   10  C2  UNL     1       3.761  13.566  42.904  1.00  0.00     0.024 C 
HETATM   11  C1  UNL     1       4.080  13.849  41.420  1.00  0.00     0.015 C 
BRANCH  10  12
HETATM   12  C3  UNL     1       3.835  14.842  43.648  1.00  0.00     0.126 C 
BRANCH  12  13
HETATM   13  C4  UNL     1       2.623  15.062  44.508  1.00  0.00     0.388 C 
HETATM   14  F1  UNL     1       2.890  16.207  45.271  1.00  0.00    -0.171 F 
HETATM   15  F2  UNL     1       2.405  13.977  45.348  1.00  0.00    -0.171 F 
HETATM   16  F3  UNL     1       1.518  15.288  43.744  1.00  0.00    -0.171 F 
ENDBRANCH  12  13
ENDBRANCH  10  12
ENDBRANCH   1  10
TORSDOF 3
ENDMDL
MODEL 2
REMARK VINA RESULT: -7.058367379      1.233      1.546
REMARK  3 active torsions:
REMARK  status: ('A' for Active; 'I' for Inactive)
REMARK    1  A    between atoms: C2_2  and  C3_3 
REMARK    2  A    between atoms: C2_2  and  C5_8 
REMARK    3  A    between atoms: C3_3  and  C4_4 
ROOT
HETATM    1  C5  UNL     1       4.580  12.810  42.917  1.00  0.00    -0.039 A 
HETATM    2  C6  UNL     1       5.204  12.486  44.106  1.00  0.00     0.012 A 
HETATM    3  C7  UNL     1       6.078  11.422  44.178  1.00  0.00     0.041 A 
HETATM    4  C8  UNL     1       6.366  10.640  43.079  1.00  0.00     0.113 A 
HETATM    5  C9  UNL     1       7.279   9.540  43.185  1.00  0.00     0.117 C 
HETATM    6  N1  UNL     1       8.013   8.641  43.261  1.00  0.00    -0.190 NA
HETATM    7  N2  UNL     1       5.743  10.977  41.930  1.00  0.00    -0.357 N 
ATOM      8  H2  UNL     1       5.929  10.423  41.093  1.00  0.00     0.166 HD
HETATM    9  C10 UNL     1       4.892  12.007  41.840  1.00  0.00     0.096 A 
ENDROOT
BRANCH   1  10
HETATM   10  C2  UNL     1       3.647  13.911  42.736  1.00  0.00     0.024 C 
HETATM   11  C1  UNL     1       3.710  14.395  41.272  1.00  0.00     0.015 C 
BRANCH  10  12
HETATM   12  C3  UNL     1       3.776  15.088  43.622  1.00  0.00     0.126 C 
BRANCH  12  13
HETATM   13  C4  UNL     1       2.672  15.149  44.640  1.00  0.00     0.388 C 
HETATM   14  F1  UNL     1       2.920  16.290  45.415  1.00  0.00    -0.171 F 
HETATM   15  F2  UNL     1       2.678  14.020  45.449  1.00  0.00    -0.171 F 
HETATM   16  F3  UNL     1       1.459  15.281  44.035  1.00  0.00    -0.171 F 
ENDBRANCH  12  13
ENDBRANCH  10  12
ENDBRANCH   1  10
TORSDOF 3
ENDMDL
MODEL 3
REMARK VINA RESULT: -6.895385235      3.828      5.836
REMARK  3 active torsions:
REMARK  status: ('A' for Active; 'I' for Inactive)
REMARK    1  A    between atoms: C2_2  and  C3_3 
REMARK    2  A    between atoms: C2_2  and  C5_8 
REMARK    3  A    between atoms: C3_3  and  C4_4 
ROOT
HETATM    1  C5  UNL     1       4.335  12.481  43.754  1.00  0.00    -0.039 A 
HETATM    2  C6  UNL     1       3.658  13.681  43.861  1.00  0.00     0.012 A 
HETATM    3  C7  UNL     1       3.450  14.476  42.753  1.00  0.00     0.041 A 
HETATM    4  C8  UNL     1       3.903  14.114  41.502  1.00  0.00     0.113 A 
HETATM    5  C9  UNL     1       3.671  14.961  40.369  1.00  0.00     0.117 C 
HETATM    6  N1  UNL     1       3.495  15.644  39.443  1.00  0.00    -0.190 NA
HETATM    7  N2  UNL     1       4.561  12.938  41.424  1.00  0.00    -0.357 N 
ATOM      8  H2  UNL     1       4.913  12.635  40.516  1.00  0.00     0.166 HD
HETATM    9  C10 UNL     1       4.772  12.153  42.488  1.00  0.00     0.096 A 
ENDROOT
BRANCH   1  10
HETATM   10  C2  UNL     1       4.603  11.573  44.858  1.00  0.00     0.024 C 
HETATM   11  C1  UNL     1       4.203  12.253  46.184  1.00  0.00     0.015 C 
BRANCH  10  12
HETATM   12  C3  UNL     1       5.972  11.034  45.004  1.00  0.00     0.126 C 
BRANCH  12  13
HETATM   13  C4  UNL     1       5.993   9.533  44.956  1.00  0.00     0.388 C 
HETATM   14  F1  UNL     1       7.319   9.171  44.678  1.00  0.00    -0.171 F 
HETATM   15  F2  UNL     1       5.156   9.055  43.956  1.00  0.00    -0.171 F 
HETATM   16  F3  UNL     1       5.633   9.002  46.157  1.00  0.00    -0.171 F 
ENDBRANCH  12  13
ENDBRANCH  10  12
ENDBRANCH   1  10
TORSDOF 3
ENDMDL
MODEL 4
REMARK VINA RESULT: -6.886911461      1.403      2.221
REMARK  3 active torsions:
REMARK  status: ('A' for Active; 'I' for Inactive)
REMARK    1  A    between atoms: C2_2  and  C3_3 
REMARK    2  A    between atoms: C2_2  and  C5_8 
REMARK    3  A    between atoms: C3_3  and  C4_4 
ROOT
HETATM    1  C5  UNL     1       4.748  11.942  45.291  1.00  0.00    -0.039 A 
HETATM    2  C6  UNL     1       5.588  11.736  44.214  1.00  0.00     0.012 A 
HETATM    3  C7  UNL     1       6.440  10.652  44.180  1.00  0.00     0.041 A 
HETATM    4  C8  UNL     1       6.493   9.735  45.209  1.00  0.00     0.113 A 
HETATM    5  C9  UNL     1       7.389   8.618  45.145  1.00  0.00     0.117 C 
HETATM    6  N1  UNL     1       8.118   7.711  45.108  1.00  0.00    -0.190 NA
HETATM    7  N2  UNL     1       5.663   9.959  46.250  1.00  0.00    -0.357 N 
ATOM      8  H2  UNL     1       5.673   9.304  47.032  1.00  0.00     0.166 HD
HETATM    9  C10 UNL     1       4.829  11.006  46.300  1.00  0.00     0.096 A 
ENDROOT
BRANCH   1  10
HETATM   10  C2  UNL     1       3.813  13.049  45.421  1.00  0.00     0.024 C 
HETATM   11  C1  UNL     1       2.544  12.559  46.149  1.00  0.00     0.015 C 
BRANCH  10  12
HETATM   12  C3  UNL     1       3.400  13.763  44.193  1.00  0.00     0.126 C 
BRANCH  12  13
HETATM   13  C4  UNL     1       2.971  15.174  44.481  1.00  0.00     0.388 C 
HETATM   14  F1  UNL     1       1.679  15.302  43.953  1.00  0.00    -0.171 F 
HETATM   15  F2  UNL     1       3.822  16.087  43.872  1.00  0.00    -0.171 F 
HETATM   16  F3  UNL     1       2.925  15.404  45.822  1.00  0.00    -0.171 F 
ENDBRANCH  12  13
ENDBRANCH  10  12
ENDBRANCH   1  10
TORSDOF 3
ENDMDL
MODEL 5
REMARK VINA RESULT: -6.847631510      3.172      5.117
REMARK  3 active torsions:
REMARK  status: ('A' for Active; 'I' for Inactive)
REMARK    1  A    between atoms: C2_2  and  C3_3 
REMARK    2  A    between atoms: C2_2  and  C5_8 
REMARK    3  A    between atoms: C3_3  and  C4_4 
ROOT
HETATM    1  C5  UNL     1       4.411  13.347  42.988  1.00  0.00    -0.039 A 
HETATM    2  C6  UNL     1       4.922  12.964  41.763  1.00  0.00     0.012 A 
HETATM    3  C7  UNL     1       4.475  13.551  40.598  1.00  0.00     0.041 A 
HETATM    4  C8  UNL     1       3.509  14.535  40.602  1.00  0.00     0.113 A 
HETATM    5  C9  UNL     1       3.065  15.127  39.374  1.00  0.00     0.117 C 
HETATM    6  N1  UNL     1       2.692  15.610  38.383  1.00  0.00    -0.190 NA
HETATM    7  N2  UNL     1       3.027  14.891  41.811  1.00  0.00    -0.357 N 
ATOM      8  H2  UNL     1       2.310  15.616  41.857  1.00  0.00     0.166 HD
HETATM    9  C10 UNL     1       3.449  14.333  42.954  1.00  0.00     0.096 A 
ENDROOT
BRANCH   1  10
HETATM   10  C2  UNL     1       4.817  12.793  44.271  1.00  0.00     0.024 C 
HETATM   11  C1  UNL     1       6.150  12.034  44.098  1.00  0.00     0.015 C 
BRANCH  10  12
HETATM   12  C3  UNL     1       3.867  11.912  44.984  1.00  0.00     0.126 C 
BRANCH  12  13
HETATM   13  C4  UNL     1       3.324  12.560  46.226  1.00  0.00     0.388 C 
HETATM   14  F1  UNL     1       1.979  12.174  46.309  1.00  0.00    -0.171 F 
HETATM   15  F2  UNL     1       3.413  13.943  46.146  1.00  0.00    -0.171 F 
HETATM   16  F3  UNL     1       3.980  12.115  47.334  1.00  0.00    -0.171 F 
ENDBRANCH  12  13
ENDBRANCH  10  12
ENDBRANCH   1  10
TORSDOF 3
ENDMDL
