MODEL 1
REMARK VINA RESULT: -8.436885210      0.000      0.000
REMARK  1 active torsions:
REMARK  status: ('A' for Active; 'I' for Inactive)
REMARK    1  A    between atoms: C2_3  and  C3_6 
ROOT
HETATM    1  N1  UNL     1       7.823   9.268  43.271  1.00  0.00    -0.190 NA
HETATM    2  C1  UNL     1       7.068   9.301  44.138  1.00  0.00     0.145 C 
HETATM    3  C2  UNL     1       6.110   9.366  45.251  1.00  0.00     0.371 C 
HETATM    4  F1  UNL     1       5.369   8.245  45.287  1.00  0.00    -0.182 F 
HETATM    5  F2  UNL     1       6.883   9.489  46.456  1.00  0.00    -0.182 F 
ENDROOT
BRANCH   3   6
HETATM    6  C3  UNL     1       5.380  10.647  45.208  1.00  0.00     0.097 A 
HETATM    7  C4  UNL     1       5.193  11.349  44.030  1.00  0.00     0.044 A 
HETATM    8  C5  UNL     1       4.378  12.500  44.119  1.00  0.00    -0.022 A 
HETATM    9  C6  UNL     1       4.140  13.250  42.975  1.00  0.00     0.012 A 
HETATM   10  C10 UNL     1       3.828  12.872  45.302  1.00  0.00    -0.011 A 
HETATM   11  C7  UNL     1       3.349  14.385  43.037  1.00  0.00     0.001 A 
HETATM   12  C8  UNL     1       2.813  14.752  44.258  1.00  0.00     0.001 A 
HETATM   13  C9  UNL     1       3.048  13.998  45.367  1.00  0.00     0.013 A 
HETATM   14  C11 UNL     1       4.047  12.140  46.472  1.00  0.00     0.100 A 
HETATM   15  N2  UNL     1       4.808  11.068  46.368  1.00  0.00    -0.363 N 
ATOM     16  H2  UNL     1       4.979  10.520  47.211  1.00  0.00     0.165 HD
ENDBRANCH   3   6
TORSDOF 1
ENDMDL
MODEL 2
REMARK VINA RESULT: -8.174729011      1.280      1.478
REMARK  1 active torsions:
REMARK  status: ('A' for Active; 'I' for Inactive)
REMARK    1  A    between atoms: C2_3  and  C3_6 
ROOT
HETATM    1  N1  UNL     1       7.896   8.832  46.311  1.00  0.00    -0.190 NA
HETATM    2  C1  UNL     1       7.209   8.980  45.400  1.00  0.00     0.145 C 
HETATM    3  C2  UNL     1       6.314   9.176  44.252  1.00  0.00     0.371 C 
HETATM    4  F1  UNL     1       6.982   8.962  43.105  1.00  0.00    -0.182 F 
HETATM    5  F2  UNL     1       5.247   8.224  44.390  1.00  0.00    -0.182 F 
ENDROOT
BRANCH   3   6
HETATM    6  C3  UNL     1       5.609  10.465  44.381  1.00  0.00     0.097 A 
HETATM    7  C4  UNL     1       5.288  11.242  43.281  1.00  0.00     0.044 A 
HETATM    8  C5  UNL     1       4.513  12.394  43.543  1.00  0.00    -0.022 A 
HETATM    9  C6  UNL     1       4.145  13.218  42.487  1.00  0.00     0.012 A 
HETATM   10  C10 UNL     1       4.124  12.697  44.808  1.00  0.00    -0.011 A 
HETATM   11  C7  UNL     1       3.391  14.355  42.719  1.00  0.00     0.001 A 
HETATM   12  C8  UNL     1       3.021  14.650  44.019  1.00  0.00     0.001 A 
HETATM   13  C9  UNL     1       3.380  13.826  45.040  1.00  0.00     0.013 A 
HETATM   14  C11 UNL     1       4.476  11.891  45.893  1.00  0.00     0.100 A 
HETATM   15  N2  UNL     1       5.196  10.819  45.628  1.00  0.00    -0.363 N 
ATOM     16  H2  UNL     1       5.462  10.217  46.407  1.00  0.00     0.165 HD
ENDBRANCH   3   6
TORSDOF 1
ENDMDL
MODEL 3
REMARK VINA RESULT: -8.073665376      4.124      5.379
REMARK  1 active torsions:
REMARK  status: ('A' for Active; 'I' for Inactive)
REMARK    1  A    between atoms: C2_3  and  C3_6 
ROOT
HETATM    1  N1  UNL     1       2.535  15.718  39.376  1.00  0.00    -0.190 NA
HETATM    2  C1  UNL     1       3.314  14.975  39.782  1.00  0.00     0.145 C 
HETATM    3  C2  UNL     1       4.311  14.040  40.320  1.00  0.00     0.371 C 
HETATM    4  F1  UNL     1       4.433  12.977  39.506  1.00  0.00    -0.182 F 
HETATM    5  F2  UNL     1       5.555  14.755  40.391  1.00  0.00    -0.182 F 
ENDROOT
BRANCH   3   6
HETATM    6  C3  UNL     1       4.022  13.762  41.740  1.00  0.00     0.097 A 
HETATM    7  C4  UNL     1       4.615  12.712  42.420  1.00  0.00     0.044 A 
HETATM    8  C5  UNL     1       4.333  12.634  43.802  1.00  0.00    -0.022 A 
HETATM    9  C6  UNL     1       4.901  11.611  44.552  1.00  0.00     0.012 A 
HETATM   10  C10 UNL     1       3.524  13.544  44.399  1.00  0.00    -0.011 A 
HETATM   11  C7  UNL     1       4.636  11.510  45.907  1.00  0.00     0.001 A 
HETATM   12  C8  UNL     1       3.794  12.441  46.488  1.00  0.00     0.001 A 
HETATM   13  C9  UNL     1       3.257  13.444  45.741  1.00  0.00     0.013 A 
HETATM   14  C11 UNL     1       2.937  14.586  43.675  1.00  0.00     0.100 A 
HETATM   15  N2  UNL     1       3.214  14.644  42.387  1.00  0.00    -0.363 N 
ATOM     16  H2  UNL     1       2.796  15.397  41.842  1.00  0.00     0.165 HD
ENDBRANCH   3   6
TORSDOF 1
ENDMDL
MODEL 4
REMARK VINA RESULT: -8.041901413      1.616      1.864
REMARK  1 active torsions:
REMARK  status: ('A' for Active; 'I' for Inactive)
REMARK    1  A    between atoms: C2_3  and  C3_6 
ROOT
HETATM    1  N1  UNL     1       7.561   8.644  45.584  1.00  0.00    -0.190 NA
HETATM    2  C1  UNL     1       7.305   9.329  44.696  1.00  0.00     0.145 C 
HETATM    3  C2  UNL     1       6.953  10.202  43.568  1.00  0.00     0.371 C 
HETATM    4  F1  UNL     1       8.069  10.646  42.964  1.00  0.00    -0.182 F 
HETATM    5  F2  UNL     1       6.176   9.410  42.656  1.00  0.00    -0.182 F 
ENDROOT
BRANCH   3   6
HETATM    6  C3  UNL     1       5.984  11.223  44.008  1.00  0.00     0.097 A 
HETATM    7  C4  UNL     1       5.475  12.176  43.143  1.00  0.00     0.044 A 
HETATM    8  C5  UNL     1       4.471  13.018  43.672  1.00  0.00    -0.022 A 
HETATM    9  C6  UNL     1       3.907  13.993  42.859  1.00  0.00     0.012 A 
HETATM   10  C10 UNL     1       4.053  12.879  44.955  1.00  0.00    -0.011 A 
HETATM   11  C7  UNL     1       2.926  14.834  43.356  1.00  0.00     0.001 A 
HETATM   12  C8  UNL     1       2.529  14.682  44.672  1.00  0.00     0.001 A 
HETATM   13  C9  UNL     1       3.083  13.714  45.451  1.00  0.00     0.013 A 
HETATM   14  C11 UNL     1       4.598  11.909  45.800  1.00  0.00     0.100 A 
HETATM   15  N2  UNL     1       5.532  11.132  45.288  1.00  0.00    -0.363 N 
ATOM     16  H2  UNL     1       5.941  10.417  45.889  1.00  0.00     0.165 HD
ENDBRANCH   3   6
TORSDOF 1
ENDMDL
MODEL 5
REMARK VINA RESULT: -7.808491874      1.193      1.975
REMARK  1 active torsions:
REMARK  status: ('A' for Active; 'I' for Inactive)
REMARK    1  A    between atoms: C2_3  and  C3_6 
ROOT
HETATM    1  N1  UNL     1       7.989   8.382  43.205  1.00  0.00    -0.190 NA
HETATM    2  C1  UNL     1       7.153   8.717  43.920  1.00  0.00     0.145 C 
HETATM    3  C2  UNL     1       6.092   9.169  44.832  1.00  0.00     0.371 C 
HETATM    4  F1  UNL     1       5.300   8.135  45.166  1.00  0.00    -0.182 F 
HETATM    5  F2  UNL     1       6.744   9.692  46.000  1.00  0.00    -0.182 F 
ENDROOT
BRANCH   3   6
HETATM    6  C3  UNL     1       5.429  10.363  44.275  1.00  0.00     0.097 A 
HETATM    7  C4  UNL     1       4.679  11.221  45.061  1.00  0.00     0.044 A 
HETATM    8  C5  UNL     1       4.197  12.385  44.420  1.00  0.00    -0.022 A 
HETATM    9  C6  UNL     1       3.444  13.297  45.148  1.00  0.00     0.012 A 
HETATM   10  C10 UNL     1       4.468  12.618  43.111  1.00  0.00    -0.011 A 
HETATM   11  C7  UNL     1       2.957  14.441  44.540  1.00  0.00     0.001 A 
HETATM   12  C8  UNL     1       3.232  14.648  43.201  1.00  0.00     0.001 A 
HETATM   13  C9  UNL     1       3.982  13.750  42.506  1.00  0.00     0.013 A 
HETATM   14  C11 UNL     1       5.223  11.723  42.349  1.00  0.00     0.100 A 
HETATM   15  N2  UNL     1       5.665  10.645  42.966  1.00  0.00    -0.363 N 
ATOM     16  H2  UNL     1       6.219   9.980  42.427  1.00  0.00     0.165 HD
ENDBRANCH   3   6
TORSDOF 1
ENDMDL
