MODEL 1
REMARK VINA RESULT: -6.080100437      0.000      0.000
REMARK  2 active torsions:
REMARK  status: ('A' for Active; 'I' for Inactive)
REMARK    1  A    between atoms: C1_4  and  C2_5 
REMARK    2  A    between atoms: C1_4  and  N2_12 
ROOT
HETATM    1  N1  UNL     1       8.177  11.252  42.679  1.00  0.00    -0.384 N 
ATOM      2  H11 UNL     1       9.012  10.687  42.829  1.00  0.00     0.157 HD
ATOM      3  H12 UNL     1       8.299  12.234  42.432  1.00  0.00     0.157 HD
HETATM    4  C1  UNL     1       7.004  10.717  42.808  1.00  0.00     0.119 C 
ENDROOT
BRANCH   4   5
HETATM    5  C2  UNL     1       5.820  11.518  42.596  1.00  0.00     0.046 A 
HETATM    6  C3  UNL     1       5.412  11.907  41.336  1.00  0.00     0.018 A 
HETATM    7  C4  UNL     1       4.286  12.668  41.116  1.00  0.00     0.001 A 
HETATM    8  C5  UNL     1       3.557  13.042  42.227  1.00  0.00     0.003 A 
HETATM    9  C6  UNL     1       3.924  12.679  43.498  1.00  0.00     0.043 A 
HETATM   10  C7  UNL     1       5.051  11.919  43.695  1.00  0.00     0.130 A 
HETATM   11  F1  UNL     1       5.399  11.568  44.965  1.00  0.00    -0.205 F 
ENDBRANCH   4   5
BRANCH   4  12
HETATM   12  N2  UNL     1       6.834   9.348  43.154  1.00  0.00    -0.303 N 
HETATM   13  C8  UNL     1       6.437   8.337  42.363  1.00  0.00     0.116 A 
HETATM   14  C9  UNL     1       6.406   7.175  43.095  1.00  0.00     0.106 A 
HETATM   15  N3  UNL     1       6.789   7.482  44.345  1.00  0.00    -0.360 N 
HETATM   16  C10 UNL     1       7.044   8.802  44.359  1.00  0.00     0.189 A 
ATOM     17  H3  UNL     1       6.871   6.838  45.131  1.00  0.00     0.166 HD
ENDBRANCH   4  12
TORSDOF 2
ENDMDL
MODEL 2
REMARK VINA RESULT: -5.979504299      1.661      2.377
REMARK  2 active torsions:
REMARK  status: ('A' for Active; 'I' for Inactive)
REMARK    1  A    between atoms: C1_4  and  C2_5 
REMARK    2  A    between atoms: C1_4  and  N2_12 
ROOT
HETATM    1  N1  UNL     1       5.539   9.925  45.869  1.00  0.00    -0.384 N 
ATOM      2  H11 UNL     1       6.161   9.142  46.071  1.00  0.00     0.157 HD
ATOM      3  H12 UNL     1       4.998  10.319  46.638  1.00  0.00     0.157 HD
HETATM    4  C1  UNL     1       5.455  10.388  44.662  1.00  0.00     0.119 C 
ENDROOT
BRANCH   4   5
HETATM    5  C2  UNL     1       4.575  11.497  44.375  1.00  0.00     0.046 A 
HETATM    6  C3  UNL     1       4.539  12.106  43.136  1.00  0.00     0.018 A 
HETATM    7  C4  UNL     1       3.706  13.162  42.846  1.00  0.00     0.001 A 
HETATM    8  C5  UNL     1       2.883  13.608  43.861  1.00  0.00     0.003 A 
HETATM    9  C6  UNL     1       2.884  13.034  45.107  1.00  0.00     0.043 A 
HETATM   10  C7  UNL     1       3.723  11.980  45.376  1.00  0.00     0.130 A 
HETATM   11  F1  UNL     1       3.710  11.423  46.620  1.00  0.00    -0.205 F 
ENDBRANCH   4   5
BRANCH   4  12
HETATM   12  N2  UNL     1       6.211   9.837  43.589  1.00  0.00    -0.303 N 
HETATM   13  C8  UNL     1       7.370  10.283  43.079  1.00  0.00     0.116 A 
HETATM   14  C9  UNL     1       7.759   9.459  42.051  1.00  0.00     0.106 A 
HETATM   15  N3  UNL     1       6.826   8.501  41.935  1.00  0.00    -0.360 N 
HETATM   16  C10 UNL     1       5.898   8.748  42.876  1.00  0.00     0.189 A 
ATOM     17  H3  UNL     1       6.822   7.734  41.263  1.00  0.00     0.166 HD
ENDBRANCH   4  12
TORSDOF 2
ENDMDL
MODEL 3
REMARK VINA RESULT: -5.940790146      1.637      2.037
REMARK  2 active torsions:
REMARK  status: ('A' for Active; 'I' for Inactive)
REMARK    1  A    between atoms: C1_4  and  C2_5 
REMARK    2  A    between atoms: C1_4  and  N2_12 
ROOT
HETATM    1  N1  UNL     1       4.796  10.845  46.287  1.00  0.00    -0.384 N 
ATOM      2  H11 UNL     1       5.051  10.201  47.036  1.00  0.00     0.157 HD
ATOM      3  H12 UNL     1       4.306  11.703  46.537  1.00  0.00     0.157 HD
HETATM    4  C1  UNL     1       5.095  10.557  45.059  1.00  0.00     0.119 C 
ENDROOT
BRANCH   4   5
HETATM    5  C2  UNL     1       4.733  11.468  43.997  1.00  0.00     0.046 A 
HETATM    6  C3  UNL     1       5.403  11.493  42.791  1.00  0.00     0.018 A 
HETATM    7  C4  UNL     1       5.071  12.353  41.769  1.00  0.00     0.001 A 
HETATM    8  C5  UNL     1       4.016  13.216  41.994  1.00  0.00     0.003 A 
HETATM    9  C6  UNL     1       3.321  13.226  43.177  1.00  0.00     0.043 A 
HETATM   10  C7  UNL     1       3.669  12.359  44.184  1.00  0.00     0.130 A 
HETATM   11  F1  UNL     1       2.966  12.385  45.352  1.00  0.00    -0.205 F 
ENDBRANCH   4   5
BRANCH   4  12
HETATM   12  N2  UNL     1       5.778   9.359  44.710  1.00  0.00    -0.303 N 
HETATM   13  C8  UNL     1       5.540   8.544  43.669  1.00  0.00     0.116 A 
HETATM   14  C9  UNL     1       6.430   7.498  43.702  1.00  0.00     0.106 A 
HETATM   15  N3  UNL     1       7.218   7.679  44.774  1.00  0.00    -0.360 N 
HETATM   16  C10 UNL     1       6.806   8.811  45.370  1.00  0.00     0.189 A 
ATOM     17  H3  UNL     1       7.981   7.074  45.077  1.00  0.00     0.166 HD
ENDBRANCH   4  12
TORSDOF 2
ENDMDL
MODEL 4
REMARK VINA RESULT: -5.914113598      1.270      1.918
REMARK  2 active torsions:
REMARK  status: ('A' for Active; 'I' for Inactive)
REMARK    1  A    between atoms: C1_4  and  C2_5 
REMARK    2  A    between atoms: C1_4  and  N2_12 
ROOT
HETATM    1  N1  UNL     1       7.884  11.257  42.825  1.00  0.00    -0.384 N 
ATOM      2  H11 UNL     1       8.735  10.759  42.568  1.00  0.00     0.157 HD
ATOM      3  H12 UNL     1       7.885  12.275  42.761  1.00  0.00     0.157 HD
HETATM    4  C1  UNL     1       6.843  10.596  43.222  1.00  0.00     0.119 C 
ENDROOT
BRANCH   4   5
HETATM    5  C2  UNL     1       5.636  11.302  43.588  1.00  0.00     0.046 A 
HETATM    6  C3  UNL     1       5.084  11.209  44.850  1.00  0.00     0.018 A 
HETATM    7  C4  UNL     1       3.937  11.875  45.215  1.00  0.00     0.001 A 
HETATM    8  C5  UNL     1       3.337  12.663  44.252  1.00  0.00     0.003 A 
HETATM    9  C6  UNL     1       3.850  12.785  42.985  1.00  0.00     0.043 A 
HETATM   10  C7  UNL     1       4.996  12.112  42.641  1.00  0.00     0.130 A 
HETATM   11  F1  UNL     1       5.490  12.247  41.379  1.00  0.00    -0.205 F 
ENDBRANCH   4   5
BRANCH   4  12
HETATM   12  N2  UNL     1       6.842   9.176  43.313  1.00  0.00    -0.303 N 
HETATM   13  C8  UNL     1       6.593   8.285  42.339  1.00  0.00     0.116 A 
HETATM   14  C9  UNL     1       6.695   7.014  42.852  1.00  0.00     0.106 A 
HETATM   15  N3  UNL     1       7.011   7.134  44.151  1.00  0.00    -0.360 N 
HETATM   16  C10 UNL     1       7.095   8.451  44.410  1.00  0.00     0.189 A 
ATOM     17  H3  UNL     1       7.158   6.373  44.813  1.00  0.00     0.166 HD
ENDBRANCH   4  12
TORSDOF 2
ENDMDL
MODEL 5
REMARK VINA RESULT: -5.893290521      2.740      4.830
REMARK  2 active torsions:
REMARK  status: ('A' for Active; 'I' for Inactive)
REMARK    1  A    between atoms: C1_4  and  C2_5 
REMARK    2  A    between atoms: C1_4  and  N2_12 
ROOT
HETATM    1  N1  UNL     1       4.731  11.001  45.807  1.00  0.00    -0.384 N 
ATOM      2  H11 UNL     1       4.079  11.392  46.486  1.00  0.00     0.157 HD
ATOM      3  H12 UNL     1       5.350  10.251  46.112  1.00  0.00     0.157 HD
HETATM    4  C1  UNL     1       4.757  11.462  44.596  1.00  0.00     0.119 C 
ENDROOT
BRANCH   4   5
HETATM    5  C2  UNL     1       5.682  10.908  43.634  1.00  0.00     0.046 A 
HETATM    6  C3  UNL     1       6.975  11.372  43.507  1.00  0.00     0.018 A 
HETATM    7  C4  UNL     1       7.869  10.856  42.597  1.00  0.00     0.001 A 
HETATM    8  C5  UNL     1       7.420   9.829  41.791  1.00  0.00     0.003 A 
HETATM    9  C6  UNL     1       6.142   9.336  41.881  1.00  0.00     0.043 A 
HETATM   10  C7  UNL     1       5.266   9.865  42.796  1.00  0.00     0.130 A 
HETATM   11  F1  UNL     1       4.002   9.362  42.871  1.00  0.00    -0.205 F 
ENDBRANCH   4   5
BRANCH   4  12
HETATM   12  N2  UNL     1       3.893  12.509  44.170  1.00  0.00    -0.303 N 
HETATM   13  C8  UNL     1       3.829  13.087  42.959  1.00  0.00     0.116 A 
HETATM   14  C9  UNL     1       2.857  14.058  42.973  1.00  0.00     0.106 A 
HETATM   15  N3  UNL     1       2.324  14.070  44.205  1.00  0.00    -0.360 N 
HETATM   16  C10 UNL     1       2.966  13.125  44.914  1.00  0.00     0.189 A 
ATOM     17  H3  UNL     1       1.578  14.679  44.539  1.00  0.00     0.166 HD
ENDBRANCH   4  12
TORSDOF 2
ENDMDL
