MODEL 1
REMARK VINA RESULT: -5.378820883      0.000      0.000
REMARK  1 active torsions:
REMARK  status: ('A' for Active; 'I' for Inactive)
REMARK    1  A    between atoms: C3_6  and  C4_7 
ROOT
HETATM    1  O1  UNL     1       6.835   8.870  45.889  1.00  0.00    -0.238 OA
HETATM    2  C1  UNL     1       6.087   9.454  45.063  1.00  0.00     0.369 A 
HETATM    3  N1  UNL     1       5.766   8.930  43.869  1.00  0.00    -0.310 N 
ATOM      4  H1  UNL     1       6.064   8.035  43.479  1.00  0.00     0.170 HD
HETATM    5  C2  UNL     1       4.953   9.864  43.292  1.00  0.00     0.131 A 
HETATM    6  C3  UNL     1       4.800  10.923  44.145  1.00  0.00     0.107 A 
HETATM    7  O2  UNL     1       5.515  10.623  45.215  1.00  0.00    -0.259 OA
ENDROOT
BRANCH   6   8
HETATM    8  C4  UNL     1       3.994  12.157  43.910  1.00  0.00     0.006 A 
HETATM    9  C5  UNL     1       3.951  12.797  42.730  1.00  0.00     0.022 A 
HETATM   10  C6  UNL     1       3.168  13.922  42.650  1.00  0.00     0.050 A 
HETATM   11  S1  UNL     1       2.518  14.051  44.216  1.00  0.00    -0.113 SA
HETATM   12  C7  UNL     1       3.246  12.689  44.932  1.00  0.00     0.063 A 
ENDBRANCH   6   8
TORSDOF 1
ENDMDL
MODEL 2
REMARK VINA RESULT: -5.352780357      2.588      3.071
REMARK  1 active torsions:
REMARK  status: ('A' for Active; 'I' for Inactive)
REMARK    1  A    between atoms: C3_6  and  C4_7 
ROOT
HETATM    1  O1  UNL     1       3.537  11.944  46.895  1.00  0.00    -0.238 OA
HETATM    2  C1  UNL     1       4.052  11.799  45.757  1.00  0.00     0.369 A 
HETATM    3  N1  UNL     1       5.150  11.055  45.541  1.00  0.00    -0.310 N 
ATOM      4  H1  UNL     1       5.694  10.530  46.227  1.00  0.00     0.170 HD
HETATM    5  C2  UNL     1       5.376  11.160  44.198  1.00  0.00     0.131 A 
HETATM    6  C3  UNL     1       4.417  11.958  43.636  1.00  0.00     0.107 A 
HETATM    7  O2  UNL     1       3.631  12.323  44.633  1.00  0.00    -0.259 OA
ENDROOT
BRANCH   6   8
HETATM    8  C4  UNL     1       4.290  12.333  42.197  1.00  0.00     0.006 A 
HETATM    9  C5  UNL     1       3.656  13.439  41.775  1.00  0.00     0.022 A 
HETATM   10  C6  UNL     1       3.613  13.665  40.422  1.00  0.00     0.050 A 
HETATM   11  S1  UNL     1       4.453  12.334  39.781  1.00  0.00    -0.113 SA
HETATM   12  C7  UNL     1       4.838  11.525  41.230  1.00  0.00     0.063 A 
ENDBRANCH   6   8
TORSDOF 1
ENDMDL
MODEL 3
REMARK VINA RESULT: -5.339048859      1.748      2.122
REMARK  1 active torsions:
REMARK  status: ('A' for Active; 'I' for Inactive)
REMARK    1  A    between atoms: C3_6  and  C4_7 
ROOT
HETATM    1  O1  UNL     1       7.796   8.086  45.125  1.00  0.00    -0.238 OA
HETATM    2  C1  UNL     1       6.875   8.933  45.002  1.00  0.00     0.369 A 
HETATM    3  N1  UNL     1       5.985   9.192  45.974  1.00  0.00    -0.310 N 
ATOM      4  H1  UNL     1       5.928   8.765  46.899  1.00  0.00     0.170 HD
HETATM    5  C2  UNL     1       5.171  10.154  45.446  1.00  0.00     0.131 A 
HETATM    6  C3  UNL     1       5.586  10.454  44.177  1.00  0.00     0.107 A 
HETATM    7  O2  UNL     1       6.632   9.679  43.952  1.00  0.00    -0.259 OA
ENDROOT
BRANCH   6   8
HETATM    8  C4  UNL     1       4.978  11.450  43.245  1.00  0.00     0.006 A 
HETATM    9  C5  UNL     1       4.067  12.359  43.628  1.00  0.00     0.022 A 
HETATM   10  C6  UNL     1       3.589  13.217  42.669  1.00  0.00     0.050 A 
HETATM   11  S1  UNL     1       4.422  12.731  41.268  1.00  0.00    -0.113 SA
HETATM   12  C7  UNL     1       5.349  11.462  41.922  1.00  0.00     0.063 A 
ENDBRANCH   6   8
TORSDOF 1
ENDMDL
MODEL 4
REMARK VINA RESULT: -5.271214401      1.656      1.888
REMARK  1 active torsions:
REMARK  status: ('A' for Active; 'I' for Inactive)
REMARK    1  A    between atoms: C3_6  and  C4_7 
ROOT
HETATM    1  O1  UNL     1       7.794   7.665  44.785  1.00  0.00    -0.238 OA
HETATM    2  C1  UNL     1       6.952   8.599  44.809  1.00  0.00     0.369 A 
HETATM    3  N1  UNL     1       6.264   8.935  45.913  1.00  0.00    -0.310 N 
ATOM      4  H1  UNL     1       6.320   8.509  46.838  1.00  0.00     0.170 HD
HETATM    5  C2  UNL     1       5.472   9.976  45.518  1.00  0.00     0.131 A 
HETATM    6  C3  UNL     1       5.698  10.245  44.196  1.00  0.00     0.107 A 
HETATM    7  O2  UNL     1       6.612   9.374  43.808  1.00  0.00    -0.259 OA
ENDROOT
BRANCH   6   8
HETATM    8  C4  UNL     1       5.044  11.302  43.370  1.00  0.00     0.006 A 
HETATM    9  C5  UNL     1       5.307  11.488  42.066  1.00  0.00     0.022 A 
HETATM   10  C6  UNL     1       4.635  12.498  41.424  1.00  0.00     0.050 A 
HETATM   11  S1  UNL     1       3.660  13.155  42.652  1.00  0.00    -0.113 SA
HETATM   12  C7  UNL     1       4.122  12.144  43.943  1.00  0.00     0.063 A 
ENDBRANCH   6   8
TORSDOF 1
ENDMDL
MODEL 5
REMARK VINA RESULT: -5.237056562      2.726      3.342
REMARK  1 active torsions:
REMARK  status: ('A' for Active; 'I' for Inactive)
REMARK    1  A    between atoms: C3_6  and  C4_7 
ROOT
HETATM    1  O1  UNL     1       4.486  11.615  47.987  1.00  0.00    -0.238 OA
HETATM    2  C1  UNL     1       4.082  11.786  46.808  1.00  0.00     0.369 A 
HETATM    3  N1  UNL     1       2.888  12.327  46.515  1.00  0.00    -0.310 N 
ATOM      4  H1  UNL     1       2.176  12.660  47.165  1.00  0.00     0.170 HD
HETATM    5  C2  UNL     1       2.841  12.332  45.149  1.00  0.00     0.131 A 
HETATM    6  C3  UNL     1       3.998  11.799  44.651  1.00  0.00     0.107 A 
HETATM    7  O2  UNL     1       4.725  11.480  45.707  1.00  0.00    -0.259 OA
ENDROOT
BRANCH   6   8
HETATM    8  C4  UNL     1       4.359  11.618  43.214  1.00  0.00     0.006 A 
HETATM    9  C5  UNL     1       4.255  12.595  42.298  1.00  0.00     0.022 A 
HETATM   10  C6  UNL     1       4.621  12.294  41.010  1.00  0.00     0.050 A 
HETATM   11  S1  UNL     1       5.097  10.665  41.114  1.00  0.00    -0.113 SA
HETATM   12  C7  UNL     1       4.824  10.402  42.775  1.00  0.00     0.063 A 
ENDBRANCH   6   8
TORSDOF 1
ENDMDL
