MODEL 1
REMARK VINA RESULT: -5.913526132      0.000      0.000
REMARK  3 active torsions:
REMARK  status: ('A' for Active; 'I' for Inactive)
REMARK    1  A    between atoms: O1_2  and  C2_3 
REMARK    2  A    between atoms: C2_3  and  N3_8 
REMARK    3  A    between atoms: N3_8  and  C4_10 
ROOT
HETATM    1  C2  UNL     1       5.225   9.896  42.923  1.00  0.00     0.232 C 
HETATM    2  N1  UNL     1       5.493   8.805  43.555  1.00  0.00    -0.259 N 
ATOM      3  H1  UNL     1       5.261   7.899  43.147  1.00  0.00     0.181 HD
HETATM    4  C3  UNL     1       6.105   8.881  44.803  1.00  0.00     0.185 C 
HETATM    5  N2  UNL     1       6.633   8.937  45.839  1.00  0.00    -0.172 NA
ENDROOT
BRANCH   1   6
HETATM    6  O1  UNL     1       4.616   9.771  41.683  1.00  0.00    -0.326 OA
HETATM    7  C1  UNL     1       5.328  10.179  40.517  1.00  0.00     0.213 C 
ENDBRANCH   1   6
BRANCH   1   8
HETATM    8  N3  UNL     1       5.550  11.158  43.495  1.00  0.00    -0.319 N 
ATOM      9  H3  UNL     1       6.510  11.381  43.756  1.00  0.00     0.169 HD
BRANCH   8  10
HETATM   10  C4  UNL     1       4.489  12.117  43.698  1.00  0.00     0.074 A 
HETATM   11  C5  UNL     1       4.164  13.028  42.711  1.00  0.00     0.033 A 
HETATM   12  C6  UNL     1       3.158  13.959  42.864  1.00  0.00     0.002 A 
HETATM   13  C7  UNL     1       2.479  13.943  44.067  1.00  0.00     0.003 A 
HETATM   14  C8  UNL     1       2.800  13.031  45.064  1.00  0.00     0.044 A 
HETATM   15  C9  UNL     1       3.807  12.109  44.890  1.00  0.00     0.143 A 
HETATM   16  F1  UNL     1       4.150  11.200  45.844  1.00  0.00    -0.204 F 
ENDBRANCH   8  10
ENDBRANCH   1   8
TORSDOF 3
ENDMDL
MODEL 2
REMARK VINA RESULT: -5.786093513      1.275      1.809
REMARK  3 active torsions:
REMARK  status: ('A' for Active; 'I' for Inactive)
REMARK    1  A    between atoms: O1_2  and  C2_3 
REMARK    2  A    between atoms: C2_3  and  N3_8 
REMARK    3  A    between atoms: N3_8  and  C4_10 
ROOT
HETATM    1  C2  UNL     1       5.306   9.853  42.856  1.00  0.00     0.232 C 
HETATM    2  N1  UNL     1       5.520   8.788  43.550  1.00  0.00    -0.259 N 
ATOM      3  H1  UNL     1       5.290   7.869  43.174  1.00  0.00     0.181 HD
HETATM    4  C3  UNL     1       6.071   8.913  44.823  1.00  0.00     0.185 C 
HETATM    5  N2  UNL     1       6.549   9.009  45.880  1.00  0.00    -0.172 NA
ENDROOT
BRANCH   1   6
HETATM    6  O1  UNL     1       4.756   9.680  41.594  1.00  0.00    -0.326 OA
HETATM    7  C1  UNL     1       5.572   9.900  40.446  1.00  0.00     0.213 C 
ENDBRANCH   1   6
BRANCH   1   8
HETATM    8  N3  UNL     1       5.627  11.135  43.384  1.00  0.00    -0.319 N 
ATOM      9  H3  UNL     1       6.597  11.398  43.558  1.00  0.00     0.169 HD
BRANCH   8  10
HETATM   10  C4  UNL     1       4.550  12.054  43.667  1.00  0.00     0.074 A 
HETATM   11  C5  UNL     1       3.891  12.015  44.881  1.00  0.00     0.033 A 
HETATM   12  C6  UNL     1       2.859  12.875  45.192  1.00  0.00     0.002 A 
HETATM   13  C7  UNL     1       2.505  13.793  44.221  1.00  0.00     0.003 A 
HETATM   14  C8  UNL     1       3.163  13.839  42.999  1.00  0.00     0.044 A 
HETATM   15  C9  UNL     1       4.191  12.971  42.709  1.00  0.00     0.143 A 
HETATM   16  F1  UNL     1       4.859  12.986  41.523  1.00  0.00    -0.204 F 
ENDBRANCH   8  10
ENDBRANCH   1   8
TORSDOF 3
ENDMDL
MODEL 3
REMARK VINA RESULT: -5.758716542      2.201      3.339
REMARK  3 active torsions:
REMARK  status: ('A' for Active; 'I' for Inactive)
REMARK    1  A    between atoms: O1_2  and  C2_3 
REMARK    2  A    between atoms: C2_3  and  N3_8 
REMARK    3  A    between atoms: N3_8  and  C4_10 
ROOT
HETATM    1  C2  UNL     1       5.425  10.985  44.264  1.00  0.00     0.232 C 
HETATM    2  N1  UNL     1       5.326  11.343  45.498  1.00  0.00    -0.259 N 
ATOM      3  H1  UNL     1       6.147  11.352  46.103  1.00  0.00     0.181 HD
HETATM    4  C3  UNL     1       4.079  11.717  45.993  1.00  0.00     0.185 C 
HETATM    5  N2  UNL     1       3.044  12.050  46.408  1.00  0.00    -0.172 NA
ENDROOT
BRANCH   1   6
HETATM    6  O1  UNL     1       6.686  10.620  43.815  1.00  0.00    -0.326 OA
HETATM    7  C1  UNL     1       6.989   9.237  43.645  1.00  0.00     0.213 C 
ENDBRANCH   1   6
BRANCH   1   8
HETATM    8  N3  UNL     1       4.278  10.972  43.422  1.00  0.00    -0.319 N 
ATOM      9  H3  UNL     1       3.463  10.407  43.660  1.00  0.00     0.169 HD
BRANCH   8  10
HETATM   10  C4  UNL     1       4.293  11.777  42.223  1.00  0.00     0.074 A 
HETATM   11  C5  UNL     1       4.804  11.273  41.042  1.00  0.00     0.033 A 
HETATM   12  C6  UNL     1       4.836  12.008  39.875  1.00  0.00     0.002 A 
HETATM   13  C7  UNL     1       4.327  13.291  39.939  1.00  0.00     0.003 A 
HETATM   14  C8  UNL     1       3.811  13.804  41.122  1.00  0.00     0.044 A 
HETATM   15  C9  UNL     1       3.788  13.054  42.275  1.00  0.00     0.143 A 
HETATM   16  F1  UNL     1       3.291  13.522  43.453  1.00  0.00    -0.204 F 
ENDBRANCH   8  10
ENDBRANCH   1   8
TORSDOF 3
ENDMDL
MODEL 4
REMARK VINA RESULT: -5.714771598      3.466      4.417
REMARK  3 active torsions:
REMARK  status: ('A' for Active; 'I' for Inactive)
REMARK    1  A    between atoms: O1_2  and  C2_3 
REMARK    2  A    between atoms: C2_3  and  N3_8 
REMARK    3  A    between atoms: N3_8  and  C4_10 
ROOT
HETATM    1  C2  UNL     1       7.666   7.062  41.608  1.00  0.00     0.232 C 
HETATM    2  N1  UNL     1       8.708   6.416  41.213  1.00  0.00    -0.259 N 
ATOM      3  H1  UNL     1       8.784   6.093  40.249  1.00  0.00     0.181 HD
HETATM    4  C3  UNL     1       9.731   6.164  42.125  1.00  0.00     0.185 C 
HETATM    5  N2  UNL     1      10.597   5.968  42.876  1.00  0.00    -0.172 NA
ENDROOT
BRANCH   1   6
HETATM    6  O1  UNL     1       6.673   7.289  40.666  1.00  0.00    -0.326 OA
HETATM    7  C1  UNL     1       6.616   6.462  39.506  1.00  0.00     0.213 C 
ENDBRANCH   1   6
BRANCH   1   8
HETATM    8  N3  UNL     1       7.562   7.511  42.954  1.00  0.00    -0.319 N 
ATOM      9  H3  UNL     1       7.806   6.894  43.729  1.00  0.00     0.169 HD
BRANCH   8  10
HETATM   10  C4  UNL     1       7.104   8.858  43.200  1.00  0.00     0.074 A 
HETATM   11  C5  UNL     1       7.672   9.928  42.535  1.00  0.00     0.033 A 
HETATM   12  C6  UNL     1       7.264  11.230  42.739  1.00  0.00     0.002 A 
HETATM   13  C7  UNL     1       6.247  11.421  43.654  1.00  0.00     0.003 A 
HETATM   14  C8  UNL     1       5.671  10.352  44.327  1.00  0.00     0.044 A 
HETATM   15  C9  UNL     1       6.093   9.060  44.107  1.00  0.00     0.143 A 
HETATM   16  F1  UNL     1       5.553   7.987  44.748  1.00  0.00    -0.204 F 
ENDBRANCH   8  10
ENDBRANCH   1   8
TORSDOF 3
ENDMDL
MODEL 5
REMARK VINA RESULT: -5.672723130      2.399      3.491
REMARK  3 active torsions:
REMARK  status: ('A' for Active; 'I' for Inactive)
REMARK    1  A    between atoms: O1_2  and  C2_3 
REMARK    2  A    between atoms: C2_3  and  N3_8 
REMARK    3  A    between atoms: N3_8  and  C4_10 
ROOT
HETATM    1  C2  UNL     1       5.466  10.799  44.324  1.00  0.00     0.232 C 
HETATM    2  N1  UNL     1       5.326  11.235  45.529  1.00  0.00    -0.259 N 
ATOM      3  H1  UNL     1       6.121  11.260  46.167  1.00  0.00     0.181 HD
HETATM    4  C3  UNL     1       4.071  11.673  45.945  1.00  0.00     0.185 C 
HETATM    5  N2  UNL     1       3.030  12.059  46.293  1.00  0.00    -0.172 NA
ENDROOT
BRANCH   1   6
HETATM    6  O1  UNL     1       6.734  10.374  43.954  1.00  0.00    -0.326 OA
HETATM    7  C1  UNL     1       6.943   8.995  43.655  1.00  0.00     0.213 C 
ENDBRANCH   1   6
BRANCH   1   8
HETATM    8  N3  UNL     1       4.356  10.765  43.435  1.00  0.00    -0.319 N 
ATOM      9  H3  UNL     1       3.585  10.115  43.589  1.00  0.00     0.169 HD
BRANCH   8  10
HETATM   10  C4  UNL     1       4.344  11.671  42.310  1.00  0.00     0.074 A 
HETATM   11  C5  UNL     1       3.898  12.970  42.456  1.00  0.00     0.033 A 
HETATM   12  C6  UNL     1       3.871  13.867  41.409  1.00  0.00     0.002 A 
HETATM   13  C7  UNL     1       4.316  13.402  40.186  1.00  0.00     0.003 A 
HETATM   14  C8  UNL     1       4.765  12.097  40.031  1.00  0.00     0.044 A 
HETATM   15  C9  UNL     1       4.785  11.219  41.090  1.00  0.00     0.143 A 
HETATM   16  F1  UNL     1       5.218   9.933  40.977  1.00  0.00    -0.204 F 
ENDBRANCH   8  10
ENDBRANCH   1   8
TORSDOF 3
ENDMDL
