MODEL 1
REMARK VINA RESULT: -6.105823219      0.000      0.000
REMARK  2 active torsions:
REMARK  status: ('A' for Active; 'I' for Inactive)
REMARK    1  A    between atoms: N1_1  and  C1_4 
REMARK    2  A    between atoms: N2_8  and  C4_9 
ROOT
HETATM    1  C1  UNL     1       7.239  10.240  42.968  1.00  0.00     0.228 A 
HETATM    2  O1  UNL     1       7.628   9.053  43.412  1.00  0.00    -0.290 OA
HETATM    3  C2  UNL     1       6.557   8.316  43.640  1.00  0.00     0.163 A 
HETATM    4  C3  UNL     1       5.450   9.050  43.333  1.00  0.00     0.125 A 
HETATM    5  N2  UNL     1       5.894  10.247  42.916  1.00  0.00    -0.287 N 
ENDROOT
BRANCH   5   6
HETATM    6  C4  UNL     1       5.098  11.343  42.489  1.00  0.00     0.045 A 
HETATM    7  C5  UNL     1       5.040  11.646  41.146  1.00  0.00     0.030 A 
HETATM    8  C6  UNL     1       4.276  12.708  40.670  1.00  0.00     0.005 A 
HETATM    9  C7  UNL     1       3.561  13.477  41.545  1.00  0.00     0.042 A 
HETATM   10  C8  UNL     1       3.603  13.195  42.884  1.00  0.00     0.118 A 
HETATM   11  F1  UNL     1       2.874  13.988  43.715  1.00  0.00    -0.206 F 
HETATM   12  C9  UNL     1       4.364  12.139  43.342  1.00  0.00     0.072 A 
ENDBRANCH   5   6
BRANCH   1  13
HETATM   13  N1  UNL     1       8.071  11.161  42.665  1.00  0.00    -0.365 N 
ATOM     14  H12 UNL     1       9.004  11.342  43.035  1.00  0.00     0.159 HD
ATOM     15  H11 UNL     1       7.866  11.870  41.960  1.00  0.00     0.159 HD
ENDBRANCH   1  13
TORSDOF 2
ENDMDL
MODEL 2
REMARK VINA RESULT: -6.042952607      1.511      2.357
REMARK  2 active torsions:
REMARK  status: ('A' for Active; 'I' for Inactive)
REMARK    1  A    between atoms: N1_1  and  C1_4 
REMARK    2  A    between atoms: N2_8  and  C4_9 
ROOT
HETATM    1  C1  UNL     1       6.966  10.176  43.648  1.00  0.00     0.228 A 
HETATM    2  O1  UNL     1       7.662   9.081  43.920  1.00  0.00    -0.290 OA
HETATM    3  C2  UNL     1       7.032   8.403  44.861  1.00  0.00     0.163 A 
HETATM    4  C3  UNL     1       5.899   9.082  45.202  1.00  0.00     0.125 A 
HETATM    5  N2  UNL     1       5.875  10.185  44.436  1.00  0.00    -0.287 N 
ENDROOT
BRANCH   5   6
HETATM    6  C4  UNL     1       4.878  11.197  44.441  1.00  0.00     0.045 A 
HETATM    7  C5  UNL     1       4.224  11.486  45.619  1.00  0.00     0.030 A 
HETATM    8  C6  UNL     1       3.239  12.468  45.684  1.00  0.00     0.005 A 
HETATM    9  C7  UNL     1       2.902  13.168  44.559  1.00  0.00     0.042 A 
HETATM   10  C8  UNL     1       3.538  12.897  43.378  1.00  0.00     0.118 A 
HETATM   11  F1  UNL     1       3.169  13.621  42.286  1.00  0.00    -0.206 F 
HETATM   12  C9  UNL     1       4.514  11.923  43.328  1.00  0.00     0.072 A 
ENDBRANCH   5   6
BRANCH   1  13
HETATM   13  N1  UNL     1       7.344  11.024  42.770  1.00  0.00    -0.365 N 
ATOM     14  H12 UNL     1       8.286  11.320  42.515  1.00  0.00     0.159 HD
ATOM     15  H11 UNL     1       6.682  11.534  42.185  1.00  0.00     0.159 HD
ENDBRANCH   1  13
TORSDOF 2
ENDMDL
MODEL 3
REMARK VINA RESULT: -6.024349419      1.651      1.971
REMARK  2 active torsions:
REMARK  status: ('A' for Active; 'I' for Inactive)
REMARK    1  A    between atoms: N1_1  and  C1_4 
REMARK    2  A    between atoms: N2_8  and  C4_9 
ROOT
HETATM    1  C1  UNL     1       5.229  10.573  45.341  1.00  0.00     0.228 A 
HETATM    2  O1  UNL     1       5.957   9.547  45.759  1.00  0.00    -0.290 OA
HETATM    3  C2  UNL     1       6.581   9.022  44.720  1.00  0.00     0.163 A 
HETATM    4  C3  UNL     1       6.243   9.731  43.605  1.00  0.00     0.125 A 
HETATM    5  N2  UNL     1       5.399  10.694  44.012  1.00  0.00    -0.287 N 
ENDROOT
BRANCH   5   6
HETATM    6  C4  UNL     1       4.785  11.681  43.194  1.00  0.00     0.045 A 
HETATM    7  C5  UNL     1       5.158  11.782  41.872  1.00  0.00     0.030 A 
HETATM    8  C6  UNL     1       4.589  12.728  41.024  1.00  0.00     0.005 A 
HETATM    9  C7  UNL     1       3.637  13.585  41.503  1.00  0.00     0.042 A 
HETATM   10  C8  UNL     1       3.251  13.502  42.813  1.00  0.00     0.118 A 
HETATM   11  F1  UNL     1       2.299  14.376  43.242  1.00  0.00    -0.206 F 
HETATM   12  C9  UNL     1       3.822  12.559  43.642  1.00  0.00     0.072 A 
ENDBRANCH   5   6
BRANCH   1  13
HETATM   13  N1  UNL     1       4.516  11.273  46.138  1.00  0.00    -0.365 N 
ATOM     14  H12 UNL     1       4.781  12.067  46.721  1.00  0.00     0.159 HD
ATOM     15  H11 UNL     1       3.523  11.089  46.284  1.00  0.00     0.159 HD
ENDBRANCH   1  13
TORSDOF 2
ENDMDL
MODEL 4
REMARK VINA RESULT: -6.017114735      3.311      4.512
REMARK  2 active torsions:
REMARK  status: ('A' for Active; 'I' for Inactive)
REMARK    1  A    between atoms: N1_1  and  C1_4 
REMARK    2  A    between atoms: N2_8  and  C4_9 
ROOT
HETATM    1  C1  UNL     1       4.120  11.593  45.745  1.00  0.00     0.228 A 
HETATM    2  O1  UNL     1       3.161  12.386  46.200  1.00  0.00    -0.290 OA
HETATM    3  C2  UNL     1       2.733  13.143  45.206  1.00  0.00     0.163 A 
HETATM    4  C3  UNL     1       3.436  12.825  44.082  1.00  0.00     0.125 A 
HETATM    5  N2  UNL     1       4.298  11.857  44.437  1.00  0.00    -0.287 N 
ENDROOT
BRANCH   5   6
HETATM    6  C4  UNL     1       5.239  11.210  43.592  1.00  0.00     0.045 A 
HETATM    7  C5  UNL     1       4.836  10.119  42.853  1.00  0.00     0.030 A 
HETATM    8  C6  UNL     1       5.714   9.447  42.007  1.00  0.00     0.005 A 
HETATM    9  C7  UNL     1       7.011   9.869  41.899  1.00  0.00     0.042 A 
HETATM   10  C8  UNL     1       7.432  10.951  42.623  1.00  0.00     0.118 A 
HETATM   11  F1  UNL     1       8.731  11.333  42.480  1.00  0.00    -0.206 F 
HETATM   12  C9  UNL     1       6.551  11.608  43.456  1.00  0.00     0.072 A 
ENDBRANCH   5   6
BRANCH   1  13
HETATM   13  N1  UNL     1       4.720  10.749  46.494  1.00  0.00    -0.365 N 
ATOM     14  H12 UNL     1       5.715  10.651  46.697  1.00  0.00     0.159 HD
ATOM     15  H11 UNL     1       4.218  10.024  47.008  1.00  0.00     0.159 HD
ENDBRANCH   1  13
TORSDOF 2
ENDMDL
MODEL 5
REMARK VINA RESULT: -5.997375560      1.926      2.443
REMARK  2 active torsions:
REMARK  status: ('A' for Active; 'I' for Inactive)
REMARK    1  A    between atoms: N1_1  and  C1_4 
REMARK    2  A    between atoms: N2_8  and  C4_9 
ROOT
HETATM    1  C1  UNL     1       6.560   8.964  44.968  1.00  0.00     0.228 A 
HETATM    2  O1  UNL     1       7.391   8.077  44.440  1.00  0.00    -0.290 OA
HETATM    3  C2  UNL     1       7.399   8.235  43.129  1.00  0.00     0.163 A 
HETATM    4  C3  UNL     1       6.549   9.251  42.808  1.00  0.00     0.125 A 
HETATM    5  N2  UNL     1       6.034   9.694  43.967  1.00  0.00    -0.287 N 
ENDROOT
BRANCH   5   6
HETATM    6  C4  UNL     1       5.098  10.750  44.128  1.00  0.00     0.045 A 
HETATM    7  C5  UNL     1       4.892  11.627  43.085  1.00  0.00     0.030 A 
HETATM    8  C6  UNL     1       3.987  12.680  43.186  1.00  0.00     0.005 A 
HETATM    9  C7  UNL     1       3.279  12.860  44.342  1.00  0.00     0.042 A 
HETATM   10  C8  UNL     1       3.468  12.001  45.391  1.00  0.00     0.118 A 
HETATM   11  F1  UNL     1       2.739  12.221  46.519  1.00  0.00    -0.206 F 
HETATM   12  C9  UNL     1       4.367  10.961  45.277  1.00  0.00     0.072 A 
ENDBRANCH   5   6
BRANCH   1  13
HETATM   13  N1  UNL     1       6.354   9.041  46.227  1.00  0.00    -0.365 N 
ATOM     14  H12 UNL     1       6.221   8.296  46.911  1.00  0.00     0.159 HD
ATOM     15  H11 UNL     1       6.297   9.935  46.716  1.00  0.00     0.159 HD
ENDBRANCH   1  13
TORSDOF 2
ENDMDL
