MODEL 1
REMARK VINA RESULT: -5.118298591      0.000      0.000
REMARK  3 active torsions:
REMARK  status: ('A' for Active; 'I' for Inactive)
REMARK    1  A    between atoms: C1_2  and  N1_4 
REMARK    2  A    between atoms: N1_4  and  N2_6 
REMARK    3  A    between atoms: C2_8  and  C3_9 
ROOT
HETATM    1  N2  UNL     1       4.471  11.127  46.059  1.00  0.00    -0.307 N 
ATOM      2  H2  UNL     1       4.425  10.625  46.946  1.00  0.00     0.186 HD
HETATM    3  C2  UNL     1       3.520  11.865  45.838  1.00  0.00     0.144 C 
ENDROOT
BRANCH   1   4
HETATM    4  N1  UNL     1       5.577  10.867  45.319  1.00  0.00    -0.281 N 
ATOM      5  H1  UNL     1       6.307  11.580  45.306  1.00  0.00     0.189 HD
BRANCH   4   6
HETATM    6  C1  UNL     1       5.805   9.696  44.565  1.00  0.00     0.186 C 
HETATM    7  S1  UNL     1       6.883   8.612  45.094  1.00  0.00    -0.046 SA
HETATM    8 CL1  UNL     1       4.948   9.415  43.090  1.00  0.00    -0.050 Cl
ENDBRANCH   4   6
ENDBRANCH   1   4
BRANCH   3   9
HETATM    9  C3  UNL     1       3.326  12.689  44.667  1.00  0.00     0.091 A 
HETATM   10  C4  UNL     1       2.601  13.842  44.546  1.00  0.00     0.040 A 
HETATM   11  C5  UNL     1       2.715  14.266  43.229  1.00  0.00     0.027 A 
HETATM   12  C6  UNL     1       3.510  13.351  42.595  1.00  0.00     0.142 A 
HETATM   13  O1  UNL     1       3.844  12.452  43.462  1.00  0.00    -0.321 OA
ENDBRANCH   3   9
TORSDOF 3
ENDMDL
MODEL 2
REMARK VINA RESULT: -5.043724787      1.252      1.252
REMARK  3 active torsions:
REMARK  status: ('A' for Active; 'I' for Inactive)
REMARK    1  A    between atoms: C1_2  and  N1_4 
REMARK    2  A    between atoms: N1_4  and  N2_6 
REMARK    3  A    between atoms: C2_8  and  C3_9 
ROOT
HETATM    1  N2  UNL     1       4.483  11.168  46.022  1.00  0.00    -0.307 N 
ATOM      2  H2  UNL     1       4.431  10.664  46.907  1.00  0.00     0.186 HD
HETATM    3  C2  UNL     1       3.517  11.879  45.781  1.00  0.00     0.144 C 
ENDROOT
BRANCH   1   4
HETATM    4  N1  UNL     1       5.612  10.941  45.306  1.00  0.00    -0.281 N 
ATOM      5  H1  UNL     1       6.248  11.729  45.175  1.00  0.00     0.189 HD
BRANCH   4   6
HETATM    6  C1  UNL     1       5.983   9.709  44.725  1.00  0.00     0.186 C 
HETATM    7  S1  UNL     1       5.373   9.298  43.285  1.00  0.00    -0.046 SA
HETATM    8 CL1  UNL     1       7.077   8.645  45.538  1.00  0.00    -0.050 Cl
ENDBRANCH   4   6
ENDBRANCH   1   4
BRANCH   3   9
HETATM    9  C3  UNL     1       3.325  12.700  44.606  1.00  0.00     0.091 A 
HETATM   10  C4  UNL     1       2.613  13.860  44.484  1.00  0.00     0.040 A 
HETATM   11  C5  UNL     1       2.723  14.277  43.164  1.00  0.00     0.027 A 
HETATM   12  C6  UNL     1       3.504  13.349  42.530  1.00  0.00     0.142 A 
HETATM   13  O1  UNL     1       3.833  12.450  43.399  1.00  0.00    -0.321 OA
ENDBRANCH   3   9
TORSDOF 3
ENDMDL
MODEL 3
REMARK VINA RESULT: -4.854360013      1.006      1.009
REMARK  3 active torsions:
REMARK  status: ('A' for Active; 'I' for Inactive)
REMARK    1  A    between atoms: C1_2  and  N1_4 
REMARK    2  A    between atoms: N1_4  and  N2_6 
REMARK    3  A    between atoms: C2_8  and  C3_9 
ROOT
HETATM    1  N2  UNL     1       4.965  10.928  45.582  1.00  0.00    -0.307 N 
ATOM      2  H2  UNL     1       5.047  10.303  46.383  1.00  0.00     0.186 HD
HETATM    3  C2  UNL     1       3.918  11.560  45.531  1.00  0.00     0.144 C 
ENDROOT
BRANCH   1   4
HETATM    4  N1  UNL     1       6.034  10.923  44.747  1.00  0.00    -0.281 N 
ATOM      5  H1  UNL     1       6.555  11.795  44.653  1.00  0.00     0.189 HD
BRANCH   4   6
HETATM    6  C1  UNL     1       6.487   9.816  43.998  1.00  0.00     0.186 C 
HETATM    7  S1  UNL     1       5.995   8.331  44.406  1.00  0.00    -0.046 SA
HETATM    8 CL1  UNL     1       7.557  10.036  42.658  1.00  0.00    -0.050 Cl
ENDBRANCH   4   6
ENDBRANCH   1   4
BRANCH   3   9
HETATM    9  C3  UNL     1       3.537  12.511  44.512  1.00  0.00     0.091 A 
HETATM   10  C4  UNL     1       2.738  13.614  44.631  1.00  0.00     0.040 A 
HETATM   11  C5  UNL     1       2.666  14.211  43.379  1.00  0.00     0.027 A 
HETATM   12  C6  UNL     1       3.430  13.444  42.542  1.00  0.00     0.142 A 
HETATM   13  O1  UNL     1       3.917  12.468  43.235  1.00  0.00    -0.321 OA
ENDBRANCH   3   9
TORSDOF 3
ENDMDL
MODEL 4
REMARK VINA RESULT: -4.847130771      2.922      4.863
REMARK  3 active torsions:
REMARK  status: ('A' for Active; 'I' for Inactive)
REMARK    1  A    between atoms: C1_2  and  N1_4 
REMARK    2  A    between atoms: N1_4  and  N2_6 
REMARK    3  A    between atoms: C2_8  and  C3_9 
ROOT
HETATM    1  N2  UNL     1       5.559   9.856  45.928  1.00  0.00    -0.307 N 
ATOM      2  H2  UNL     1       5.216   9.758  46.884  1.00  0.00     0.186 HD
HETATM    3  C2  UNL     1       6.012   8.830  45.439  1.00  0.00     0.144 C 
ENDROOT
BRANCH   1   4
HETATM    4  N1  UNL     1       5.439  11.103  45.408  1.00  0.00    -0.281 N 
ATOM      5  H1  UNL     1       6.241  11.726  45.501  1.00  0.00     0.189 HD
BRANCH   4   6
HETATM    6  C1  UNL     1       4.299  11.612  44.749  1.00  0.00     0.186 C 
HETATM    7  S1  UNL     1       4.370  11.908  43.161  1.00  0.00    -0.046 SA
HETATM    8 CL1  UNL     1       2.839  11.919  45.622  1.00  0.00    -0.050 Cl
ENDBRANCH   4   6
ENDBRANCH   1   4
BRANCH   3   9
HETATM    9  C3  UNL     1       6.563   8.681  44.112  1.00  0.00     0.091 A 
HETATM   10  C4  UNL     1       6.384   7.657  43.224  1.00  0.00     0.040 A 
HETATM   11  C5  UNL     1       7.115   7.964  42.084  1.00  0.00     0.027 A 
HETATM   12  C6  UNL     1       7.714   9.171  42.323  1.00  0.00     0.142 A 
HETATM   13  O1  UNL     1       7.370   9.554  43.508  1.00  0.00    -0.321 OA
ENDBRANCH   3   9
TORSDOF 3
ENDMDL
MODEL 5
REMARK VINA RESULT: -4.736394487      0.837      1.118
REMARK  3 active torsions:
REMARK  status: ('A' for Active; 'I' for Inactive)
REMARK    1  A    between atoms: C1_2  and  N1_4 
REMARK    2  A    between atoms: N1_4  and  N2_6 
REMARK    3  A    between atoms: C2_8  and  C3_9 
ROOT
HETATM    1  N2  UNL     1       4.570  11.036  46.056  1.00  0.00    -0.307 N 
ATOM      2  H2  UNL     1       4.582  10.476  46.908  1.00  0.00     0.186 HD
HETATM    3  C2  UNL     1       3.607  11.784  45.948  1.00  0.00     0.144 C 
ENDROOT
BRANCH   1   4
HETATM    4  N1  UNL     1       5.624  10.830  45.227  1.00  0.00    -0.281 N 
ATOM      5  H1  UNL     1       6.302  11.587  45.139  1.00  0.00     0.189 HD
BRANCH   4   6
HETATM    6  C1  UNL     1       5.863   9.659  44.476  1.00  0.00     0.186 C 
HETATM    7  S1  UNL     1       6.921   8.568  45.028  1.00  0.00    -0.046 SA
HETATM    8 CL1  UNL     1       5.037   9.385  42.982  1.00  0.00    -0.050 Cl
ENDBRANCH   4   6
ENDBRANCH   1   4
BRANCH   3   9
HETATM    9  C3  UNL     1       3.337  12.685  44.851  1.00  0.00     0.091 A 
HETATM   10  C4  UNL     1       3.741  12.588  43.549  1.00  0.00     0.040 A 
HETATM   11  C5  UNL     1       3.234  13.691  42.874  1.00  0.00     0.027 A 
HETATM   12  C6  UNL     1       2.537  14.422  43.798  1.00  0.00     0.142 A 
HETATM   13  O1  UNL     1       2.621  13.806  44.931  1.00  0.00    -0.321 OA
ENDBRANCH   3   9
TORSDOF 3
ENDMDL
