MODEL 1
REMARK VINA RESULT: -8.601468343      0.000      0.000
REMARK  6 active torsions:
REMARK  status: ('A' for Active; 'I' for Inactive)
REMARK    1  A    between atoms: O1_1  and  N1_3 
REMARK    2  A    between atoms: N2_5  and  C2_6 
REMARK    3  A    between atoms: C2_6  and  C3_7 
REMARK    4  A    between atoms: C9_13  and  O2_14 
REMARK    5  A    between atoms: C10_16  and  N3_17 
REMARK    6  A    between atoms: N4_19  and  C11_21 
ROOT
HETATM    1  N1  UNL     1       7.189   8.788  46.684  1.00  0.00    -0.198 N 
HETATM    2  C1  UNL     1       7.411  10.094  46.463  1.00  0.00     0.220 A 
HETATM    3  N2  UNL     1       6.499  10.523  45.578  1.00  0.00    -0.314 N 
HETATM    4  C9  UNL     1       5.715   9.499  45.249  1.00  0.00     0.192 A 
HETATM    5  C10 UNL     1       6.133   8.369  45.943  1.00  0.00     0.200 A 
ENDROOT
BRANCH   5   6
HETATM    6  N3  UNL     1       5.572   7.071  45.880  1.00  0.00    -0.280 N 
HETATM    7  N4  UNL     1       6.038   6.154  45.199  1.00  0.00    -0.299 N 
ATOM      8  H4  UNL     1       5.579   5.242  45.203  1.00  0.00     0.187 HD
ATOM      9  H3  UNL     1       4.733   6.883  46.430  1.00  0.00     0.189 HD
BRANCH   7  10
HETATM   10  C11 UNL     1       7.198   6.345  44.415  1.00  0.00     0.048 A 
HETATM   11  C12 UNL     1       8.446   5.923  44.885  1.00  0.00     0.034 A 
HETATM   12  C13 UNL     1       9.593   6.092  44.143  1.00  0.00     0.044 A 
HETATM   13  C14 UNL     1       9.570   6.686  42.898  1.00  0.00     0.116 A 
HETATM   14  F1  UNL     1      10.710   6.848  42.174  1.00  0.00    -0.206 F 
HETATM   15  C15 UNL     1       8.343   7.104  42.431  1.00  0.00     0.044 A 
HETATM   16  C16 UNL     1       7.189   6.937  43.170  1.00  0.00     0.034 A 
ENDBRANCH   7  10
ENDBRANCH   5   6
BRANCH   1  17
HETATM   17  O1  UNL     1       7.926   7.969  47.539  1.00  0.00    -0.280 OA
ATOM     18  H1  UNL     1       7.930   7.018  47.533  1.00  0.00     0.245 HD
ENDBRANCH   1  17
BRANCH   4  19
HETATM   19  O2  UNL     1       4.650   9.562  44.350  1.00  0.00    -0.343 OA
ATOM     20  H2  UNL     1       4.121   8.821  44.079  1.00  0.00     0.219 HD
ENDBRANCH   4  19
BRANCH   3  21
HETATM   21  C2  UNL     1       6.400  11.888  45.073  1.00  0.00     0.170 C 
BRANCH  21  22
HETATM   22  C3  UNL     1       5.190  12.573  45.594  1.00  0.00    -0.040 A 
HETATM   23  C4  UNL     1       4.536  13.484  44.792  1.00  0.00     0.009 A 
HETATM   24  C5  UNL     1       3.415  14.119  45.274  1.00  0.00     0.001 A 
HETATM   25  C6  UNL     1       2.957  13.846  46.534  1.00  0.00     0.000 A 
HETATM   26  C7  UNL     1       3.595  12.939  47.354  1.00  0.00     0.001 A 
HETATM   27  C8  UNL     1       4.716  12.310  46.857  1.00  0.00     0.009 A 
ENDBRANCH  21  22
ENDBRANCH   3  21
TORSDOF 6
ENDMDL
MODEL 2
REMARK VINA RESULT: -8.285703688      2.007      3.651
REMARK  6 active torsions:
REMARK  status: ('A' for Active; 'I' for Inactive)
REMARK    1  A    between atoms: O1_1  and  N1_3 
REMARK    2  A    between atoms: N2_5  and  C2_6 
REMARK    3  A    between atoms: C2_6  and  C3_7 
REMARK    4  A    between atoms: C9_13  and  O2_14 
REMARK    5  A    between atoms: C10_16  and  N3_17 
REMARK    6  A    between atoms: N4_19  and  C11_21 
ROOT
HETATM    1  N1  UNL     1       7.060   6.546  44.436  1.00  0.00    -0.198 N 
HETATM    2  C1  UNL     1       6.554   7.613  45.076  1.00  0.00     0.220 A 
HETATM    3  N2  UNL     1       7.326   7.860  46.144  1.00  0.00    -0.314 N 
HETATM    4  C9  UNL     1       8.305   6.959  46.174  1.00  0.00     0.192 A 
HETATM    5  C10 UNL     1       8.162   6.100  45.090  1.00  0.00     0.200 A 
ENDROOT
BRANCH   5   6
HETATM    6  N3  UNL     1       8.991   5.004  44.753  1.00  0.00    -0.280 N 
HETATM    7  N4  UNL     1       9.815   5.022  43.834  1.00  0.00    -0.299 N 
ATOM      8  H4  UNL     1      10.378   4.192  43.649  1.00  0.00     0.187 HD
ATOM      9  H3  UNL     1       8.902   4.148  45.302  1.00  0.00     0.189 HD
BRANCH   7  10
HETATM   10  C11 UNL     1       9.989   6.174  43.035  1.00  0.00     0.048 A 
HETATM   11  C12 UNL     1       9.424   6.240  41.758  1.00  0.00     0.034 A 
HETATM   12  C13 UNL     1       9.574   7.350  40.957  1.00  0.00     0.044 A 
HETATM   13  C14 UNL     1      10.287   8.455  41.375  1.00  0.00     0.116 A 
HETATM   14  F1  UNL     1      10.428   9.546  40.575  1.00  0.00    -0.206 F 
HETATM   15  C15 UNL     1      10.845   8.394  42.634  1.00  0.00     0.044 A 
HETATM   16  C16 UNL     1      10.700   7.284  43.440  1.00  0.00     0.034 A 
ENDBRANCH   7  10
ENDBRANCH   5   6
BRANCH   1  17
HETATM   17  O1  UNL     1       6.542   5.967  43.278  1.00  0.00    -0.280 OA
ATOM     18  H1  UNL     1       6.789   5.122  42.921  1.00  0.00     0.245 HD
ENDBRANCH   1  17
BRANCH   4  19
HETATM   19  O2  UNL     1       9.307   6.896  47.143  1.00  0.00    -0.343 OA
ATOM     20  H2  UNL     1      10.108   7.407  47.133  1.00  0.00     0.219 HD
ENDBRANCH   4  19
BRANCH   3  21
HETATM   21  C2  UNL     1       7.112   8.940  47.101  1.00  0.00     0.170 C 
BRANCH  21  22
HETATM   22  C3  UNL     1       6.805  10.220  46.415  1.00  0.00    -0.040 A 
HETATM   23  C4  UNL     1       5.660  10.908  46.755  1.00  0.00     0.009 A 
HETATM   24  C5  UNL     1       5.376  12.095  46.120  1.00  0.00     0.001 A 
HETATM   25  C6  UNL     1       6.222  12.583  45.162  1.00  0.00     0.000 A 
HETATM   26  C7  UNL     1       7.374  11.912  44.805  1.00  0.00     0.001 A 
HETATM   27  C8  UNL     1       7.645  10.726  45.451  1.00  0.00     0.009 A 
ENDBRANCH  21  22
ENDBRANCH   3  21
TORSDOF 6
ENDMDL
MODEL 3
REMARK VINA RESULT: -8.256397640      2.944      6.160
REMARK  6 active torsions:
REMARK  status: ('A' for Active; 'I' for Inactive)
REMARK    1  A    between atoms: O1_1  and  N1_3 
REMARK    2  A    between atoms: N2_5  and  C2_6 
REMARK    3  A    between atoms: C2_6  and  C3_7 
REMARK    4  A    between atoms: C9_13  and  O2_14 
REMARK    5  A    between atoms: C10_16  and  N3_17 
REMARK    6  A    between atoms: N4_19  and  C11_21 
ROOT
HETATM    1  N1  UNL     1       8.813   6.480  45.865  1.00  0.00    -0.198 N 
HETATM    2  C1  UNL     1       9.914   6.509  45.096  1.00  0.00     0.220 A 
HETATM    3  N2  UNL     1       9.543   6.246  43.835  1.00  0.00    -0.314 N 
HETATM    4  C9  UNL     1       8.227   6.054  43.812  1.00  0.00     0.192 A 
HETATM    5  C10 UNL     1       7.727   6.199  45.102  1.00  0.00     0.200 A 
ENDROOT
BRANCH   5   6
HETATM    6  N3  UNL     1       6.380   6.074  45.516  1.00  0.00    -0.280 N 
HETATM    7  N4  UNL     1       5.621   7.034  45.681  1.00  0.00    -0.299 N 
ATOM      8  H4  UNL     1       4.660   6.868  45.982  1.00  0.00     0.187 HD
ATOM      9  H3  UNL     1       6.014   5.138  45.687  1.00  0.00     0.189 HD
BRANCH   7  10
HETATM   10  C11 UNL     1       6.062   8.358  45.461  1.00  0.00     0.048 A 
HETATM   11  C12 UNL     1       6.364   9.191  46.542  1.00  0.00     0.034 A 
HETATM   12  C13 UNL     1       6.799  10.484  46.360  1.00  0.00     0.044 A 
HETATM   13  C14 UNL     1       6.961  11.024  45.101  1.00  0.00     0.116 A 
HETATM   14  F1  UNL     1       7.392  12.303  44.932  1.00  0.00    -0.206 F 
HETATM   15  C15 UNL     1       6.665  10.206  44.032  1.00  0.00     0.044 A 
HETATM   16  C16 UNL     1       6.228   8.909  44.208  1.00  0.00     0.034 A 
ENDBRANCH   7  10
ENDBRANCH   5   6
BRANCH   1  17
HETATM   17  O1  UNL     1       8.774   6.699  47.242  1.00  0.00    -0.280 OA
ATOM     18  H1  UNL     1       8.763   7.547  47.670  1.00  0.00     0.245 HD
ENDBRANCH   1  17
BRANCH   4  19
HETATM   19  O2  UNL     1       7.479   5.758  42.673  1.00  0.00    -0.343 OA
ATOM     20  H2  UNL     1       6.909   5.005  42.575  1.00  0.00     0.219 HD
ENDBRANCH   4  19
BRANCH   3  21
HETATM   21  C2  UNL     1      10.448   6.184  42.692  1.00  0.00     0.170 C 
BRANCH  21  22
HETATM   22  C3  UNL     1      10.810   7.541  42.211  1.00  0.00    -0.040 A 
HETATM   23  C4  UNL     1       9.969   8.190  41.333  1.00  0.00     0.009 A 
HETATM   24  C5  UNL     1      10.304   9.448  40.888  1.00  0.00     0.001 A 
HETATM   25  C6  UNL     1      11.459  10.044  41.314  1.00  0.00     0.000 A 
HETATM   26  C7  UNL     1      12.316   9.414  42.193  1.00  0.00     0.001 A 
HETATM   27  C8  UNL     1      11.966   8.155  42.630  1.00  0.00     0.009 A 
ENDBRANCH  21  22
ENDBRANCH   3  21
TORSDOF 6
ENDMDL
MODEL 4
REMARK VINA RESULT: -8.083579438      1.632      2.642
REMARK  6 active torsions:
REMARK  status: ('A' for Active; 'I' for Inactive)
REMARK    1  A    between atoms: O1_1  and  N1_3 
REMARK    2  A    between atoms: N2_5  and  C2_6 
REMARK    3  A    between atoms: C2_6  and  C3_7 
REMARK    4  A    between atoms: C9_13  and  O2_14 
REMARK    5  A    between atoms: C10_16  and  N3_17 
REMARK    6  A    between atoms: N4_19  and  C11_21 
ROOT
HETATM    1  N1  UNL     1       6.909   8.197  43.124  1.00  0.00    -0.198 N 
HETATM    2  C1  UNL     1       7.152   9.500  43.340  1.00  0.00     0.220 A 
HETATM    3  N2  UNL     1       7.232   9.692  44.665  1.00  0.00    -0.314 N 
HETATM    4  C9  UNL     1       7.041   8.523  45.272  1.00  0.00     0.192 A 
HETATM    5  C10 UNL     1       6.832   7.542  44.310  1.00  0.00     0.200 A 
ENDROOT
BRANCH   5   6
HETATM    6  N3  UNL     1       6.589   6.165  44.531  1.00  0.00    -0.280 N 
HETATM    7  N4  UNL     1       7.423   5.279  44.323  1.00  0.00    -0.299 N 
ATOM      8  H4  UNL     1       7.178   4.306  44.505  1.00  0.00     0.187 HD
ATOM      9  H3  UNL     1       5.673   5.889  44.882  1.00  0.00     0.189 HD
BRANCH   7  10
HETATM   10  C11 UNL     1       8.713   5.592  43.837  1.00  0.00     0.048 A 
HETATM   11  C12 UNL     1       9.076   5.255  42.529  1.00  0.00     0.034 A 
HETATM   12  C13 UNL     1      10.323   5.549  42.026  1.00  0.00     0.044 A 
HETATM   13  C14 UNL     1      11.278   6.193  42.785  1.00  0.00     0.116 A 
HETATM   14  F1  UNL     1      12.507   6.480  42.277  1.00  0.00    -0.206 F 
HETATM   15  C15 UNL     1      10.924   6.529  44.075  1.00  0.00     0.044 A 
HETATM   16  C16 UNL     1       9.676   6.236  44.585  1.00  0.00     0.034 A 
ENDBRANCH   7  10
ENDBRANCH   5   6
BRANCH   1  17
HETATM   17  O1  UNL     1       6.753   7.592  41.877  1.00  0.00    -0.280 OA
ATOM     18  H1  UNL     1       7.360   7.655  41.149  1.00  0.00     0.245 HD
ENDBRANCH   1  17
BRANCH   4  19
HETATM   19  O2  UNL     1       7.052   8.327  46.653  1.00  0.00    -0.343 OA
ATOM     20  H2  UNL     1       6.836   7.512  47.091  1.00  0.00     0.219 HD
ENDBRANCH   4  19
BRANCH   3  21
HETATM   21  C2  UNL     1       7.484  10.974  45.311  1.00  0.00     0.170 C 
BRANCH  21  22
HETATM   22  C3  UNL     1       6.237  11.765  45.455  1.00  0.00    -0.040 A 
HETATM   23  C4  UNL     1       5.497  11.651  46.613  1.00  0.00     0.009 A 
HETATM   24  C5  UNL     1       4.340  12.384  46.746  1.00  0.00     0.001 A 
HETATM   25  C6  UNL     1       3.933  13.216  45.740  1.00  0.00     0.000 A 
HETATM   26  C7  UNL     1       4.656  13.346  44.572  1.00  0.00     0.001 A 
HETATM   27  C8  UNL     1       5.813  12.606  44.454  1.00  0.00     0.009 A 
ENDBRANCH  21  22
ENDBRANCH   3  21
TORSDOF 6
ENDMDL
MODEL 5
REMARK VINA RESULT: -8.055359898      2.971      6.296
REMARK  6 active torsions:
REMARK  status: ('A' for Active; 'I' for Inactive)
REMARK    1  A    between atoms: O1_1  and  N1_3 
REMARK    2  A    between atoms: N2_5  and  C2_6 
REMARK    3  A    between atoms: C2_6  and  C3_7 
REMARK    4  A    between atoms: C9_13  and  O2_14 
REMARK    5  A    between atoms: C10_16  and  N3_17 
REMARK    6  A    between atoms: N4_19  and  C11_21 
ROOT
HETATM    1  N1  UNL     1       8.868   6.524  45.707  1.00  0.00    -0.198 N 
HETATM    2  C1  UNL     1       9.909   6.490  44.859  1.00  0.00     0.220 A 
HETATM    3  N2  UNL     1       9.459   6.063  43.669  1.00  0.00    -0.314 N 
HETATM    4  C9  UNL     1       8.152   5.832  43.770  1.00  0.00     0.192 A 
HETATM    5  C10 UNL     1       7.741   6.119  45.067  1.00  0.00     0.200 A 
ENDROOT
BRANCH   5   6
HETATM    6  N3  UNL     1       6.433   6.008  45.593  1.00  0.00    -0.280 N 
HETATM    7  N4  UNL     1       5.679   6.970  45.768  1.00  0.00    -0.299 N 
ATOM      8  H4  UNL     1       4.747   6.814  46.153  1.00  0.00     0.187 HD
ATOM      9  H3  UNL     1       6.092   5.080  45.843  1.00  0.00     0.189 HD
BRANCH   7  10
HETATM   10  C11 UNL     1       6.086   8.283  45.443  1.00  0.00     0.048 A 
HETATM   11  C12 UNL     1       6.439   9.184  46.454  1.00  0.00     0.034 A 
HETATM   12  C13 UNL     1       6.843  10.468  46.169  1.00  0.00     0.044 A 
HETATM   13  C14 UNL     1       6.922  10.933  44.873  1.00  0.00     0.116 A 
HETATM   14  F1  UNL     1       7.324  12.205  44.603  1.00  0.00    -0.206 F 
HETATM   15  C15 UNL     1       6.576  10.049  43.874  1.00  0.00     0.044 A 
HETATM   16  C16 UNL     1       6.169   8.760  44.152  1.00  0.00     0.034 A 
ENDBRANCH   7  10
ENDBRANCH   5   6
BRANCH   1  17
HETATM   17  O1  UNL     1       8.919   6.909  47.046  1.00  0.00    -0.280 OA
ATOM     18  H1  UNL     1       8.495   6.462  47.769  1.00  0.00     0.245 HD
ENDBRANCH   1  17
BRANCH   4  19
HETATM   19  O2  UNL     1       7.337   5.376  42.734  1.00  0.00    -0.343 OA
ATOM     20  H2  UNL     1       7.063   5.895  41.987  1.00  0.00     0.219 HD
ENDBRANCH   4  19
BRANCH   3  21
HETATM   21  C2  UNL     1      10.281   5.887  42.477  1.00  0.00     0.170 C 
BRANCH  21  22
HETATM   22  C3  UNL     1       9.804   6.737  41.358  1.00  0.00    -0.040 A 
HETATM   23  C4  UNL     1       9.491   6.147  40.152  1.00  0.00     0.009 A 
HETATM   24  C5  UNL     1       9.048   6.934  39.114  1.00  0.00     0.001 A 
HETATM   25  C6  UNL     1       8.921   8.286  39.282  1.00  0.00     0.000 A 
HETATM   26  C7  UNL     1       9.229   8.899  40.479  1.00  0.00     0.001 A 
HETATM   27  C8  UNL     1       9.670   8.096  41.509  1.00  0.00     0.009 A 
ENDBRANCH  21  22
ENDBRANCH   3  21
TORSDOF 6
ENDMDL
