MODEL 1
REMARK VINA RESULT: -8.217103663      0.000      0.000
REMARK  5 active torsions:
REMARK  status: ('A' for Active; 'I' for Inactive)
REMARK    1  A    between atoms: C2_3  and  C10_16 
REMARK    2  A    between atoms: N2_4  and  O1_6 
REMARK    3  A    between atoms: O1_6  and  C3_7 
REMARK    4  A    between atoms: C3_7  and  C4_9 
REMARK    5  A    between atoms: C10_16  and  C11_20 
ROOT
HETATM    1  N1  UNL     1       7.897   8.801  47.989  1.00  0.00    -0.190 NA
HETATM    2  C1  UNL     1       7.226   8.772  47.034  1.00  0.00     0.122 C 
HETATM    3  C2  UNL     1       6.400   8.711  45.852  1.00  0.00     0.162 C 
HETATM    4  N2  UNL     1       5.900   9.791  45.440  1.00  0.00    -0.245 N 
ATOM      5  H2  UNL     1       5.317   9.741  44.604  1.00  0.00     0.196 HD
ENDROOT
BRANCH   3   6
HETATM    6  C10 UNL     1       6.187   7.458  45.213  1.00  0.00     0.083 C 
HETATM    7  N3  UNL     1       5.272   6.639  45.690  1.00  0.00    -0.396 N 
ATOM      8  H32 UNL     1       4.780   6.999  46.507  1.00  0.00     0.156 HD
ATOM      9  H31 UNL     1       5.120   5.740  45.232  1.00  0.00     0.156 HD
BRANCH   6  10
HETATM   10  C11 UNL     1       6.899   6.937  44.029  1.00  0.00     0.034 A 
HETATM   11  C12 UNL     1       7.522   5.741  43.808  1.00  0.00     0.021 A 
HETATM   12  C13 UNL     1       8.094   5.545  42.607  1.00  0.00     0.008 A 
HETATM   13  C14 UNL     1       8.017   6.549  41.692  1.00  0.00     0.050 A 
HETATM   14  S1  UNL     1       7.147   7.754  42.519  1.00  0.00    -0.100 SA
ENDBRANCH   6  10
ENDBRANCH   3   6
BRANCH   4  15
HETATM   15  O1  UNL     1       6.065  11.022  46.006  1.00  0.00    -0.194 OA
BRANCH  15  16
HETATM   16  C3  UNL     1       5.079  11.698  46.704  1.00  0.00     0.315 C 
HETATM   17  O2  UNL     1       4.896  11.366  47.898  1.00  0.00    -0.257 OA
BRANCH  16  18
HETATM   18  C4  UNL     1       4.282  12.761  46.068  1.00  0.00     0.043 A 
HETATM   19  C5  UNL     1       3.408  13.539  46.795  1.00  0.00     0.018 A 
HETATM   20  C6  UNL     1       2.646  14.539  46.239  1.00  0.00     0.003 A 
HETATM   21  C7  UNL     1       2.758  14.783  44.892  1.00  0.00     0.024 A 
HETATM   22  C8  UNL     1       3.624  14.022  44.140  1.00  0.00     0.035 A 
HETATM   23 CL1  UNL     1       3.738  14.366  42.415  1.00  0.00    -0.084 Cl
HETATM   24  C9  UNL     1       4.369  13.030  44.727  1.00  0.00     0.041 A 
ENDBRANCH  16  18
ENDBRANCH  15  16
ENDBRANCH   4  15
TORSDOF 5
ENDMDL
MODEL 2
REMARK VINA RESULT: -8.206902644      1.673      2.237
REMARK  5 active torsions:
REMARK  status: ('A' for Active; 'I' for Inactive)
REMARK    1  A    between atoms: C2_3  and  C10_16 
REMARK    2  A    between atoms: N2_4  and  O1_6 
REMARK    3  A    between atoms: O1_6  and  C3_7 
REMARK    4  A    between atoms: C3_7  and  C4_9 
REMARK    5  A    between atoms: C10_16  and  C11_20 
ROOT
HETATM    1  N1  UNL     1       7.525   9.114  47.691  1.00  0.00    -0.190 NA
HETATM    2  C1  UNL     1       6.985   8.721  46.734  1.00  0.00     0.122 C 
HETATM    3  C2  UNL     1       6.328   8.211  45.554  1.00  0.00     0.162 C 
HETATM    4  N2  UNL     1       5.575   9.001  44.925  1.00  0.00    -0.245 N 
ATOM      5  H2  UNL     1       5.114   8.635  44.092  1.00  0.00     0.196 HD
ENDROOT
BRANCH   3   6
HETATM    6  C10 UNL     1       6.553   6.865  45.157  1.00  0.00     0.083 C 
HETATM    7  N3  UNL     1       5.683   5.937  45.502  1.00  0.00    -0.396 N 
ATOM      8  H32 UNL     1       4.895   6.290  46.044  1.00  0.00     0.156 HD
ATOM      9  H31 UNL     1       5.845   4.971  45.217  1.00  0.00     0.156 HD
BRANCH   6  10
HETATM   10  C11 UNL     1       7.694   6.352  44.370  1.00  0.00     0.034 A 
HETATM   11  C12 UNL     1       7.736   5.655  43.196  1.00  0.00     0.021 A 
HETATM   12  C13 UNL     1       8.943   5.318  42.711  1.00  0.00     0.008 A 
HETATM   13  C14 UNL     1      10.043   5.692  43.420  1.00  0.00     0.050 A 
HETATM   14  S1  UNL     1       9.377   6.509  44.755  1.00  0.00    -0.100 SA
ENDBRANCH   6  10
ENDBRANCH   3   6
BRANCH   4  15
HETATM   15  O1  UNL     1       5.318  10.301  45.253  1.00  0.00    -0.194 OA
BRANCH  15  16
HETATM   16  C3  UNL     1       5.776  11.392  44.535  1.00  0.00     0.315 C 
HETATM   17  O2  UNL     1       6.985  11.392  44.207  1.00  0.00    -0.257 OA
BRANCH  16  18
HETATM   18  C4  UNL     1       4.877  12.501  44.171  1.00  0.00     0.043 A 
HETATM   19  C5  UNL     1       4.642  12.836  42.856  1.00  0.00     0.018 A 
HETATM   20  C6  UNL     1       3.812  13.864  42.476  1.00  0.00     0.003 A 
HETATM   21  C7  UNL     1       3.181  14.598  43.451  1.00  0.00     0.024 A 
HETATM   22  C8  UNL     1       3.397  14.287  44.774  1.00  0.00     0.035 A 
HETATM   23 CL1  UNL     1       2.569  15.252  45.993  1.00  0.00    -0.084 Cl
HETATM   24  C9  UNL     1       4.233  13.254  45.118  1.00  0.00     0.041 A 
ENDBRANCH  16  18
ENDBRANCH  15  16
ENDBRANCH   4  15
TORSDOF 5
ENDMDL
MODEL 3
REMARK VINA RESULT: -8.115801111      1.454      1.697
REMARK  5 active torsions:
REMARK  status: ('A' for Active; 'I' for Inactive)
REMARK    1  A    between atoms: C2_3  and  C10_16 
REMARK    2  A    between atoms: N2_4  and  O1_6 
REMARK    3  A    between atoms: O1_6  and  C3_7 
REMARK    4  A    between atoms: C3_7  and  C4_9 
REMARK    5  A    between atoms: C10_16  and  C11_20 
ROOT
HETATM    1  N1  UNL     1       8.326  11.160  44.805  1.00  0.00    -0.190 NA
HETATM    2  C1  UNL     1       7.573  10.445  45.340  1.00  0.00     0.122 C 
HETATM    3  C2  UNL     1       6.652   9.542  45.988  1.00  0.00     0.162 C 
HETATM    4  N2  UNL     1       5.847  10.037  46.822  1.00  0.00    -0.245 N 
ATOM      5  H2  UNL     1       5.200   9.393  47.276  1.00  0.00     0.196 HD
ENDROOT
BRANCH   3   6
HETATM    6  C10 UNL     1       6.689   8.158  45.666  1.00  0.00     0.083 C 
HETATM    7  N3  UNL     1       5.679   7.387  46.015  1.00  0.00    -0.396 N 
ATOM      8  H32 UNL     1       4.933   7.880  46.504  1.00  0.00     0.156 HD
ATOM      9  H31 UNL     1       5.706   6.394  45.784  1.00  0.00     0.156 HD
BRANCH   6  10
HETATM   10  C11 UNL     1       7.770   7.443  44.957  1.00  0.00     0.034 A 
HETATM   11  C12 UNL     1       8.869   6.781  45.426  1.00  0.00     0.021 A 
HETATM   12  C13 UNL     1       9.693   6.217  44.525  1.00  0.00     0.008 A 
HETATM   13  C14 UNL     1       9.378   6.342  43.207  1.00  0.00     0.050 A 
HETATM   14  S1  UNL     1       7.938   7.246  43.242  1.00  0.00    -0.100 SA
ENDBRANCH   6  10
ENDBRANCH   3   6
BRANCH   4  15
HETATM   15  O1  UNL     1       5.761  11.353  47.174  1.00  0.00    -0.194 OA
BRANCH  15  16
HETATM   16  C3  UNL     1       4.591  12.092  47.147  1.00  0.00     0.315 C 
HETATM   17  O2  UNL     1       3.901  12.105  48.192  1.00  0.00    -0.257 OA
BRANCH  16  18
HETATM   18  C4  UNL     1       4.179  12.831  45.941  1.00  0.00     0.043 A 
HETATM   19  C5  UNL     1       3.420  13.978  46.023  1.00  0.00     0.018 A 
HETATM   20  C6  UNL     1       3.015  14.695  44.922  1.00  0.00     0.003 A 
HETATM   21  C7  UNL     1       3.382  14.253  43.675  1.00  0.00     0.024 A 
HETATM   22  C8  UNL     1       4.140  13.110  43.562  1.00  0.00     0.035 A 
HETATM   23 CL1  UNL     1       4.590  12.576  41.943  1.00  0.00    -0.084 Cl
HETATM   24  C9  UNL     1       4.528  12.417  44.682  1.00  0.00     0.041 A 
ENDBRANCH  16  18
ENDBRANCH  15  16
ENDBRANCH   4  15
TORSDOF 5
ENDMDL
MODEL 4
REMARK VINA RESULT: -8.106843890      1.864      2.666
REMARK  5 active torsions:
REMARK  status: ('A' for Active; 'I' for Inactive)
REMARK    1  A    between atoms: C2_3  and  C10_16 
REMARK    2  A    between atoms: N2_4  and  O1_6 
REMARK    3  A    between atoms: O1_6  and  C3_7 
REMARK    4  A    between atoms: C3_7  and  C4_9 
REMARK    5  A    between atoms: C10_16  and  C11_20 
ROOT
HETATM    1  N1  UNL     1       8.131  11.707  44.663  1.00  0.00    -0.190 NA
HETATM    2  C1  UNL     1       7.524  11.116  45.466  1.00  0.00     0.122 C 
HETATM    3  C2  UNL     1       6.789  10.364  46.456  1.00  0.00     0.162 C 
HETATM    4  N2  UNL     1       5.848  10.955  47.048  1.00  0.00    -0.245 N 
ATOM      5  H2  UNL     1       5.332  10.419  47.746  1.00  0.00     0.196 HD
ENDROOT
BRANCH   3   6
HETATM    6  C10 UNL     1       7.149   9.014  46.716  1.00  0.00     0.083 C 
HETATM    7  N3  UNL     1       7.428   8.647  47.950  1.00  0.00    -0.396 N 
ATOM      8  H32 UNL     1       7.353   9.402  48.632  1.00  0.00     0.156 HD
ATOM      9  H31 UNL     1       7.687   7.678  48.137  1.00  0.00     0.156 HD
BRANCH   6  10
HETATM   10  C11 UNL     1       7.257   7.920  45.728  1.00  0.00     0.034 A 
HETATM   11  C12 UNL     1       6.409   7.519  44.735  1.00  0.00     0.021 A 
HETATM   12  C13 UNL     1       6.781   6.470  43.980  1.00  0.00     0.008 A 
HETATM   13  C14 UNL     1       7.974   5.878  44.254  1.00  0.00     0.050 A 
HETATM   14  S1  UNL     1       8.563   6.791  45.563  1.00  0.00    -0.100 SA
ENDBRANCH   6  10
ENDBRANCH   3   6
BRANCH   4  15
HETATM   15  O1  UNL     1       5.453  12.246  46.845  1.00  0.00    -0.194 OA
BRANCH  15  16
HETATM   16  C3  UNL     1       4.262  12.611  46.242  1.00  0.00     0.315 C 
HETATM   17  O2  UNL     1       3.248  12.675  46.974  1.00  0.00    -0.257 OA
BRANCH  16  18
HETATM   18  C4  UNL     1       4.193  12.912  44.801  1.00  0.00     0.043 A 
HETATM   19  C5  UNL     1       3.723  14.122  44.339  1.00  0.00     0.018 A 
HETATM   20  C6  UNL     1       3.643  14.440  43.004  1.00  0.00     0.003 A 
HETATM   21  C7  UNL     1       4.051  13.512  42.078  1.00  0.00     0.024 A 
HETATM   22  C8  UNL     1       4.525  12.294  42.510  1.00  0.00     0.035 A 
HETATM   23 CL1  UNL     1       5.037  11.130  41.290  1.00  0.00    -0.084 Cl
HETATM   24  C9  UNL     1       4.591  12.008  43.851  1.00  0.00     0.041 A 
ENDBRANCH  16  18
ENDBRANCH  15  16
ENDBRANCH   4  15
TORSDOF 5
ENDMDL
MODEL 5
REMARK VINA RESULT: -8.089084552      1.412      1.719
REMARK  5 active torsions:
REMARK  status: ('A' for Active; 'I' for Inactive)
REMARK    1  A    between atoms: C2_3  and  C10_16 
REMARK    2  A    between atoms: N2_4  and  O1_6 
REMARK    3  A    between atoms: O1_6  and  C3_7 
REMARK    4  A    between atoms: C3_7  and  C4_9 
REMARK    5  A    between atoms: C10_16  and  C11_20 
ROOT
HETATM    1  N1  UNL     1       7.548   9.100  47.682  1.00  0.00    -0.190 NA
HETATM    2  C1  UNL     1       6.992   8.711  46.732  1.00  0.00     0.122 C 
HETATM    3  C2  UNL     1       6.315   8.208  45.561  1.00  0.00     0.162 C 
HETATM    4  N2  UNL     1       5.535   8.994  44.961  1.00  0.00    -0.245 N 
ATOM      5  H2  UNL     1       5.060   8.632  44.134  1.00  0.00     0.196 HD
ENDROOT
BRANCH   3   6
HETATM    6  C10 UNL     1       6.551   6.870  45.140  1.00  0.00     0.083 C 
HETATM    7  N3  UNL     1       5.708   5.923  45.498  1.00  0.00    -0.396 N 
ATOM      8  H32 UNL     1       4.931   6.256  46.069  1.00  0.00     0.156 HD
ATOM      9  H31 UNL     1       5.877   4.964  45.197  1.00  0.00     0.156 HD
BRANCH   6  10
HETATM   10  C11 UNL     1       7.676   6.387  44.314  1.00  0.00     0.034 A 
HETATM   11  C12 UNL     1       7.696   5.732  43.115  1.00  0.00     0.021 A 
HETATM   12  C13 UNL     1       8.894   5.414  42.595  1.00  0.00     0.008 A 
HETATM   13  C14 UNL     1      10.007   5.764  43.294  1.00  0.00     0.050 A 
HETATM   14  S1  UNL     1       9.367   6.533  44.670  1.00  0.00    -0.100 SA
ENDBRANCH   6  10
ENDBRANCH   3   6
BRANCH   4  15
HETATM   15  O1  UNL     1       5.267  10.285  45.313  1.00  0.00    -0.194 OA
BRANCH  15  16
HETATM   16  C3  UNL     1       5.673  11.392  44.587  1.00  0.00     0.315 C 
HETATM   17  O2  UNL     1       6.836  11.375  44.125  1.00  0.00    -0.257 OA
BRANCH  16  18
HETATM   18  C4  UNL     1       4.772  12.538  44.370  1.00  0.00     0.043 A 
HETATM   19  C5  UNL     1       4.249  13.254  45.424  1.00  0.00     0.018 A 
HETATM   20  C6  UNL     1       3.406  14.327  45.263  1.00  0.00     0.003 A 
HETATM   21  C7  UNL     1       3.064  14.713  43.990  1.00  0.00     0.024 A 
HETATM   22  C8  UNL     1       3.571  14.016  42.916  1.00  0.00     0.035 A 
HETATM   23 CL1  UNL     1       3.107  14.542  41.300  1.00  0.00    -0.084 Cl
HETATM   24  C9  UNL     1       4.410  12.948  43.113  1.00  0.00     0.041 A 
ENDBRANCH  16  18
ENDBRANCH  15  16
ENDBRANCH   4  15
TORSDOF 5
ENDMDL
