MODEL 1
REMARK VINA RESULT: -7.163286176      0.000      0.000
REMARK  7 active torsions:
REMARK  status: ('A' for Active; 'I' for Inactive)
REMARK    1  A    between atoms: C2_2  and  C3_3 
REMARK    2  A    between atoms: C3_3  and  N1_4 
REMARK    3  A    between atoms: N1_4  and  C4_6 
REMARK    4  A    between atoms: C4_6  and  N2_8 
REMARK    5  A    between atoms: C7_13  and  N4_14 
REMARK    6  A    between atoms: N4_14  and  N5_16 
REMARK    7  A    between atoms: N5_16  and  C8_18 
ROOT
HETATM    1  N2  UNL     1       6.750  10.111  45.714  1.00  0.00    -0.130 N 
HETATM    2  C5  UNL     1       7.269   8.893  45.969  1.00  0.00     0.135 A 
HETATM    3  C6  UNL     1       7.073   8.579  47.299  1.00  0.00     0.124 A 
HETATM    4  N3  UNL     1       6.425   9.643  47.825  1.00  0.00    -0.199 N 
ATOM      5  H3  UNL     1       6.127   9.738  48.796  1.00  0.00     0.183 HD
HETATM    6  C7  UNL     1       6.240  10.553  46.857  1.00  0.00     0.705 A 
ENDROOT
BRANCH   6   7
HETATM    7  N4  UNL     1       5.590  11.803  47.049  1.00  0.00    -0.131 N 
ATOM      8  H4  UNL     1       6.108  12.637  47.321  1.00  0.00     0.205 HD
BRANCH   7   9
HETATM    9  N5  UNL     1       4.333  11.830  46.866  1.00  0.00    -0.287 N 
ATOM     10  H5  UNL     1       3.732  11.076  47.197  1.00  0.00     0.187 HD
BRANCH   9  11
HETATM   11  C8  UNL     1       3.799  12.955  46.179  1.00  0.00     0.048 A 
HETATM   12  C9  UNL     1       3.005  13.863  46.848  1.00  0.00     0.031 A 
HETATM   13  C10 UNL     1       2.511  14.943  46.125  1.00  0.00     0.002 A 
HETATM   14  C11 UNL     1       2.799  15.106  44.792  1.00  0.00     0.000 A 
HETATM   15  C12 UNL     1       3.587  14.206  44.125  1.00  0.00     0.002 A 
HETATM   16  C13 UNL     1       4.094  13.112  44.834  1.00  0.00     0.031 A 
ENDBRANCH   9  11
ENDBRANCH   7   9
ENDBRANCH   6   7
BRANCH   1  17
HETATM   17  C4  UNL     1       6.740  10.810  44.460  1.00  0.00     0.193 C 
HETATM   18  S1  UNL     1       5.879  10.254  43.208  1.00  0.00    -0.040 SA
BRANCH  17  19
HETATM   19  N1  UNL     1       7.509  11.998  44.360  1.00  0.00    -0.366 N 
ATOM     20  H1  UNL     1       7.071  12.889  44.127  1.00  0.00     0.161 HD
BRANCH  19  21
HETATM   21  C3  UNL     1       8.936  11.907  44.602  1.00  0.00     0.121 C 
BRANCH  21  22
HETATM   22  C2  UNL     1       9.599  13.264  44.549  1.00  0.00     0.015 C 
HETATM   23  C1  UNL     1      10.947  13.229  43.914  1.00  0.00     0.006 C 
ENDBRANCH  21  22
ENDBRANCH  19  21
ENDBRANCH  17  19
ENDBRANCH   1  17
TORSDOF 7
ENDMDL
MODEL 2
REMARK VINA RESULT: -7.025215717      1.255      1.593
REMARK  7 active torsions:
REMARK  status: ('A' for Active; 'I' for Inactive)
REMARK    1  A    between atoms: C2_2  and  C3_3 
REMARK    2  A    between atoms: C3_3  and  N1_4 
REMARK    3  A    between atoms: N1_4  and  C4_6 
REMARK    4  A    between atoms: C4_6  and  N2_8 
REMARK    5  A    between atoms: C7_13  and  N4_14 
REMARK    6  A    between atoms: N4_14  and  N5_16 
REMARK    7  A    between atoms: N5_16  and  C8_18 
ROOT
HETATM    1  N2  UNL     1       7.579   9.211  45.153  1.00  0.00    -0.130 N 
HETATM    2  C5  UNL     1       7.923   7.917  44.988  1.00  0.00     0.135 A 
HETATM    3  C6  UNL     1       7.757   7.243  46.181  1.00  0.00     0.124 A 
HETATM    4  N3  UNL     1       7.307   8.170  47.057  1.00  0.00    -0.199 N 
ATOM      5  H3  UNL     1       7.082   8.003  48.037  1.00  0.00     0.183 HD
HETATM    6  C7  UNL     1       7.207   9.346  46.419  1.00  0.00     0.705 A 
ENDROOT
BRANCH   6   7
HETATM    7  N4  UNL     1       6.763  10.551  47.031  1.00  0.00    -0.131 N 
ATOM      8  H4  UNL     1       7.369  11.368  47.102  1.00  0.00     0.205 HD
BRANCH   7   9
HETATM    9  N5  UNL     1       5.577  10.561  47.485  1.00  0.00    -0.287 N 
ATOM     10  H5  UNL     1       5.237   9.820  48.098  1.00  0.00     0.187 HD
BRANCH   9  11
HETATM   11  C8  UNL     1       4.742  11.648  47.104  1.00  0.00     0.048 A 
HETATM   12  C9  UNL     1       3.761  12.102  47.959  1.00  0.00     0.031 A 
HETATM   13  C10 UNL     1       2.976  13.167  47.533  1.00  0.00     0.002 A 
HETATM   14  C11 UNL     1       3.166  13.751  46.304  1.00  0.00     0.000 A 
HETATM   15  C12 UNL     1       4.140  13.302  45.452  1.00  0.00     0.002 A 
HETATM   16  C13 UNL     1       4.940  12.231  45.862  1.00  0.00     0.031 A 
ENDBRANCH   9  11
ENDBRANCH   7   9
ENDBRANCH   6   7
BRANCH   1  17
HETATM   17  C4  UNL     1       7.603  10.252  44.164  1.00  0.00     0.193 C 
HETATM   18  S1  UNL     1       6.409  10.397  43.082  1.00  0.00    -0.040 SA
BRANCH  17  19
HETATM   19  N1  UNL     1       8.706  11.144  44.173  1.00  0.00    -0.366 N 
ATOM     20  H1  UNL     1       9.617  10.856  43.814  1.00  0.00     0.161 HD
BRANCH  19  21
HETATM   21  C3  UNL     1       8.500  12.477  44.707  1.00  0.00     0.121 C 
BRANCH  21  22
HETATM   22  C2  UNL     1       9.759  13.309  44.636  1.00  0.00     0.015 C 
HETATM   23  C1  UNL     1      10.849  12.650  43.862  1.00  0.00     0.006 C 
ENDBRANCH  21  22
ENDBRANCH  19  21
ENDBRANCH  17  19
ENDBRANCH   1  17
TORSDOF 7
ENDMDL
MODEL 3
REMARK VINA RESULT: -6.830318558      1.252      1.682
REMARK  7 active torsions:
REMARK  status: ('A' for Active; 'I' for Inactive)
REMARK    1  A    between atoms: C2_2  and  C3_3 
REMARK    2  A    between atoms: C3_3  and  N1_4 
REMARK    3  A    between atoms: N1_4  and  C4_6 
REMARK    4  A    between atoms: C4_6  and  N2_8 
REMARK    5  A    between atoms: C7_13  and  N4_14 
REMARK    6  A    between atoms: N4_14  and  N5_16 
REMARK    7  A    between atoms: N5_16  and  C8_18 
ROOT
HETATM    1  N2  UNL     1       7.080  10.151  45.758  1.00  0.00    -0.130 N 
HETATM    2  C5  UNL     1       7.228   9.063  46.541  1.00  0.00     0.135 A 
HETATM    3  C6  UNL     1       6.480   9.219  47.691  1.00  0.00     0.124 A 
HETATM    4  N3  UNL     1       5.885  10.428  47.569  1.00  0.00    -0.199 N 
ATOM      5  H3  UNL     1       5.258  10.854  48.251  1.00  0.00     0.183 HD
HETATM    6  C7  UNL     1       6.259  10.971  46.401  1.00  0.00     0.705 A 
ENDROOT
BRANCH   6   7
HETATM    7  N4  UNL     1       5.825  12.244  45.938  1.00  0.00    -0.131 N 
ATOM      8  H4  UNL     1       6.474  13.023  45.832  1.00  0.00     0.205 HD
BRANCH   7   9
HETATM    9  N5  UNL     1       4.590  12.364  45.662  1.00  0.00    -0.287 N 
ATOM     10  H5  UNL     1       3.869  12.077  46.323  1.00  0.00     0.187 HD
BRANCH   9  11
HETATM   11  C8  UNL     1       4.256  12.915  44.394  1.00  0.00     0.048 A 
HETATM   12  C9  UNL     1       3.526  14.083  44.315  1.00  0.00     0.031 A 
HETATM   13  C10 UNL     1       3.229  14.574  43.049  1.00  0.00     0.002 A 
HETATM   14  C11 UNL     1       3.645  13.925  41.913  1.00  0.00     0.000 A 
HETATM   15  C12 UNL     1       4.370  12.765  41.987  1.00  0.00     0.002 A 
HETATM   16  C13 UNL     1       4.680  12.254  43.252  1.00  0.00     0.031 A 
ENDBRANCH   9  11
ENDBRANCH   7   9
ENDBRANCH   6   7
BRANCH   1  17
HETATM   17  C4  UNL     1       7.684  10.392  44.478  1.00  0.00     0.193 C 
HETATM   18  S1  UNL     1       7.062   9.744  43.132  1.00  0.00    -0.040 SA
BRANCH  17  19
HETATM   19  N1  UNL     1       8.838  11.216  44.438  1.00  0.00    -0.366 N 
ATOM     20  H1  UNL     1       9.757  10.823  44.232  1.00  0.00     0.161 HD
BRANCH  19  21
HETATM   21  C3  UNL     1       8.672  12.633  44.697  1.00  0.00     0.121 C 
BRANCH  21  22
HETATM   22  C2  UNL     1       9.984  13.377  44.599  1.00  0.00     0.015 C 
HETATM   23  C1  UNL     1      10.999  12.661  43.776  1.00  0.00     0.006 C 
ENDBRANCH  21  22
ENDBRANCH  19  21
ENDBRANCH  17  19
ENDBRANCH   1  17
TORSDOF 7
ENDMDL
MODEL 4
REMARK VINA RESULT: -6.806416269      2.076      3.049
REMARK  7 active torsions:
REMARK  status: ('A' for Active; 'I' for Inactive)
REMARK    1  A    between atoms: C2_2  and  C3_3 
REMARK    2  A    between atoms: C3_3  and  N1_4 
REMARK    3  A    between atoms: N1_4  and  C4_6 
REMARK    4  A    between atoms: C4_6  and  N2_8 
REMARK    5  A    between atoms: C7_13  and  N4_14 
REMARK    6  A    between atoms: N4_14  and  N5_16 
REMARK    7  A    between atoms: N5_16  and  C8_18 
ROOT
HETATM    1  N2  UNL     1       7.323   9.245  44.503  1.00  0.00    -0.130 N 
HETATM    2  C5  UNL     1       8.265   8.320  44.227  1.00  0.00     0.135 A 
HETATM    3  C6  UNL     1       7.976   7.718  43.019  1.00  0.00     0.124 A 
HETATM    4  N3  UNL     1       6.840   8.309  42.587  1.00  0.00    -0.199 N 
ATOM      5  H3  UNL     1       6.350   8.095  41.718  1.00  0.00     0.183 HD
HETATM    6  C7  UNL     1       6.463   9.224  43.493  1.00  0.00     0.705 A 
ENDROOT
BRANCH   6   7
HETATM    7  N4  UNL     1       5.307  10.042  43.368  1.00  0.00    -0.131 N 
ATOM      8  H4  UNL     1       4.425   9.791  43.814  1.00  0.00     0.205 HD
BRANCH   7   9
HETATM    9  N5  UNL     1       5.424  11.100  42.675  1.00  0.00    -0.287 N 
ATOM     10  H5  UNL     1       6.009  11.125  41.840  1.00  0.00     0.187 HD
BRANCH   9  11
HETATM   11  C8  UNL     1       4.707  12.248  43.111  1.00  0.00     0.048 A 
HETATM   12  C9  UNL     1       4.211  13.148  42.191  1.00  0.00     0.031 A 
HETATM   13  C10 UNL     1       3.519  14.251  42.676  1.00  0.00     0.002 A 
HETATM   14  C11 UNL     1       3.331  14.445  44.022  1.00  0.00     0.000 A 
HETATM   15  C12 UNL     1       3.822  13.553  44.939  1.00  0.00     0.002 A 
HETATM   16  C13 UNL     1       4.522  12.436  44.472  1.00  0.00     0.031 A 
ENDBRANCH   9  11
ENDBRANCH   7   9
ENDBRANCH   6   7
BRANCH   1  17
HETATM   17  C4  UNL     1       7.248  10.096  45.658  1.00  0.00     0.193 C 
HETATM   18  S1  UNL     1       6.686   9.534  47.067  1.00  0.00    -0.040 SA
BRANCH  17  19
HETATM   19  N1  UNL     1       7.685  11.438  45.517  1.00  0.00    -0.366 N 
ATOM     20  H1  UNL     1       7.305  12.179  46.107  1.00  0.00     0.161 HD
BRANCH  19  21
HETATM   21  C3  UNL     1       8.687  11.725  44.509  1.00  0.00     0.121 C 
BRANCH  21  22
HETATM   22  C2  UNL     1       9.344  13.066  44.740  1.00  0.00     0.015 C 
HETATM   23  C1  UNL     1      10.713  13.152  44.158  1.00  0.00     0.006 C 
ENDBRANCH  21  22
ENDBRANCH  19  21
ENDBRANCH  17  19
ENDBRANCH   1  17
TORSDOF 7
ENDMDL
MODEL 5
REMARK VINA RESULT: -6.706828036      1.718      5.003
REMARK  7 active torsions:
REMARK  status: ('A' for Active; 'I' for Inactive)
REMARK    1  A    between atoms: C2_2  and  C3_3 
REMARK    2  A    between atoms: C3_3  and  N1_4 
REMARK    3  A    between atoms: N1_4  and  C4_6 
REMARK    4  A    between atoms: C4_6  and  N2_8 
REMARK    5  A    between atoms: C7_13  and  N4_14 
REMARK    6  A    between atoms: N4_14  and  N5_16 
REMARK    7  A    between atoms: N5_16  and  C8_18 
ROOT
HETATM    1  N2  UNL     1       5.499  11.696  46.169  1.00  0.00    -0.130 N 
HETATM    2  C5  UNL     1       4.502  12.482  46.624  1.00  0.00     0.135 A 
HETATM    3  C6  UNL     1       4.084  12.023  47.857  1.00  0.00     0.124 A 
HETATM    4  N3  UNL     1       4.857  10.946  48.120  1.00  0.00    -0.199 N 
ATOM      5  H3  UNL     1       4.807  10.367  48.958  1.00  0.00     0.183 HD
HETATM    6  C7  UNL     1       5.702  10.766  47.093  1.00  0.00     0.705 A 
ENDROOT
BRANCH   6   7
HETATM    7  N4  UNL     1       6.665   9.723  47.026  1.00  0.00    -0.131 N 
ATOM      8  H4  UNL     1       7.656   9.899  47.193  1.00  0.00     0.205 HD
BRANCH   7   9
HETATM    9  N5  UNL     1       6.235   8.560  46.748  1.00  0.00    -0.287 N 
ATOM     10  H5  UNL     1       5.505   8.117  47.306  1.00  0.00     0.187 HD
BRANCH   9  11
HETATM   11  C8  UNL     1       6.812   7.902  45.627  1.00  0.00     0.048 A 
HETATM   12  C9  UNL     1       6.226   6.764  45.113  1.00  0.00     0.031 A 
HETATM   13  C10 UNL     1       6.835   6.164  44.017  1.00  0.00     0.002 A 
HETATM   14  C11 UNL     1       7.980   6.680  43.462  1.00  0.00     0.000 A 
HETATM   15  C12 UNL     1       8.566   7.809  43.970  1.00  0.00     0.002 A 
HETATM   16  C13 UNL     1       7.969   8.428  45.073  1.00  0.00     0.031 A 
ENDBRANCH   9  11
ENDBRANCH   7   9
ENDBRANCH   6   7
BRANCH   1  17
HETATM   17  C4  UNL     1       6.214  11.825  44.930  1.00  0.00     0.193 C 
HETATM   18  S1  UNL     1       5.750  11.003  43.616  1.00  0.00    -0.040 SA
BRANCH  17  19
HETATM   19  N1  UNL     1       7.334  12.694  44.902  1.00  0.00    -0.366 N 
ATOM     20  H1  UNL     1       7.226  13.695  45.071  1.00  0.00     0.161 HD
BRANCH  19  21
HETATM   21  C3  UNL     1       8.636  12.118  44.628  1.00  0.00     0.121 C 
BRANCH  21  22
HETATM   22  C2  UNL     1       9.719  13.172  44.598  1.00  0.00     0.015 C 
HETATM   23  C1  UNL     1      10.933  12.738  43.852  1.00  0.00     0.006 C 
ENDBRANCH  21  22
ENDBRANCH  19  21
ENDBRANCH  17  19
ENDBRANCH   1  17
TORSDOF 7
ENDMDL
