MODEL 1
REMARK VINA RESULT: -9.254615087      0.000      0.000
REMARK  8 active torsions:
REMARK  status: ('A' for Active; 'I' for Inactive)
REMARK    1  A    between atoms: O1_2  and  C2_3 
REMARK    2  A    between atoms: C4_5  and  O2_6 
REMARK    3  A    between atoms: C6_8  and  C7_9 
REMARK    4  A    between atoms: C7_9  and  C8_11 
REMARK    5  A    between atoms: C8_11  and  S1_13 
REMARK    6  A    between atoms: C12_17  and  C13_18 
REMARK       I    between atoms: C13_18  and  N2_20 
REMARK    7  A    between atoms: N2_20  and  C14_22 
REMARK    8  A    between atoms: C17_25  and  C18_26 
ROOT
HETATM    1  S1  UNL     1      -1.404  36.158  53.839  1.00  0.00    -0.038 SA
HETATM    2  C10 UNL     1      -1.476  37.671  54.715  1.00  0.00     0.134 C 
HETATM    3  N1  UNL     1      -1.516  38.698  55.290  1.00  0.00    -0.184 NA
ENDROOT
BRANCH   1   4
HETATM    4  C8  UNL     1      -0.080  35.075  54.486  1.00  0.00     0.133 C 
HETATM    5  C9  UNL     1       0.282  35.524  55.893  1.00  0.00     0.031 C 
BRANCH   4   6
HETATM    6  C7  UNL     1       1.091  35.237  53.607  1.00  0.00     0.176 C 
HETATM    7  O3  UNL     1       0.906  35.693  52.443  1.00  0.00    -0.291 OA
BRANCH   6   8
HETATM    8  C6  UNL     1       2.456  34.887  54.033  1.00  0.00     0.045 A 
HETATM    9  C4  UNL     1       3.052  33.746  53.519  1.00  0.00     0.084 A 
HETATM   10  C3  UNL     1       4.325  33.399  53.891  1.00  0.00     0.075 A 
HETATM   11  C2  UNL     1       5.051  34.196  54.803  1.00  0.00     0.086 A 
HETATM   12  C12 UNL     1       4.476  35.315  55.309  1.00  0.00     0.066 A 
HETATM   13  C11 UNL     1       3.154  35.665  54.916  1.00  0.00     0.038 A 
BRANCH   9  14
HETATM   14  O2  UNL     1       2.322  32.992  52.637  1.00  0.00    -0.355 OA
HETATM   15  C5  UNL     1       2.830  32.084  51.703  1.00  0.00     0.210 C 
ENDBRANCH   9  14
BRANCH  11  16
HETATM   16  O1  UNL     1       6.325  33.807  55.143  1.00  0.00    -0.355 OA
HETATM   17  C1  UNL     1       6.961  32.788  54.414  1.00  0.00     0.210 C 
ENDBRANCH  11  16
BRANCH  12  18
HETATM   18  C13 UNL     1       5.122  36.198  56.258  1.00  0.00     0.259 C 
HETATM   19  O4  UNL     1       4.328  37.057  56.806  1.00  0.00    -0.267 OA
HETATM   20  N2  UNL     1       6.471  36.173  56.583  1.00  0.00    -0.320 N 
ATOM     21  H2  UNL     1       7.034  35.459  56.120  1.00  0.00     0.169 HD
BRANCH  20  22
HETATM   22  C14 UNL     1       7.163  37.033  57.493  1.00  0.00     0.073 A 
HETATM   23  C15 UNL     1       8.040  37.995  57.105  1.00  0.00     0.033 A 
HETATM   24  C16 UNL     1       8.705  38.797  58.066  1.00  0.00     0.010 A 
HETATM   25  C17 UNL     1       8.500  38.648  59.413  1.00  0.00    -0.048 A 
HETATM   26  C22 UNL     1       7.602  37.659  59.764  1.00  0.00     0.052 A 
HETATM   27  C23 UNL     1       6.955  36.880  58.863  1.00  0.00     0.143 A 
HETATM   28  F1  UNL     1       6.095  35.947  59.315  1.00  0.00    -0.204 F 
BRANCH  25  29
HETATM   29  C18 UNL     1       9.217  39.505  60.369  1.00  0.00    -0.024 C 
HETATM   30  C19 UNL     1       9.164  38.778  61.722  1.00  0.00     0.019 C 
HETATM   31  C20 UNL     1      10.678  39.591  59.957  1.00  0.00     0.019 C 
HETATM   32  C21 UNL     1       8.645  40.874  60.536  1.00  0.00     0.019 C 
ENDBRANCH  25  29
ENDBRANCH  20  22
ENDBRANCH  12  18
ENDBRANCH   6   8
ENDBRANCH   4   6
ENDBRANCH   1   4
TORSDOF 8
ENDMDL
MODEL 2
REMARK VINA RESULT: -9.090782209      0.970      1.490
REMARK  8 active torsions:
REMARK  status: ('A' for Active; 'I' for Inactive)
REMARK    1  A    between atoms: O1_2  and  C2_3 
REMARK    2  A    between atoms: C4_5  and  O2_6 
REMARK    3  A    between atoms: C6_8  and  C7_9 
REMARK    4  A    between atoms: C7_9  and  C8_11 
REMARK    5  A    between atoms: C8_11  and  S1_13 
REMARK    6  A    between atoms: C12_17  and  C13_18 
REMARK       I    between atoms: C13_18  and  N2_20 
REMARK    7  A    between atoms: N2_20  and  C14_22 
REMARK    8  A    between atoms: C17_25  and  C18_26 
ROOT
HETATM    1  S1  UNL     1      -1.295  36.120  53.774  1.00  0.00    -0.038 SA
HETATM    2  C10 UNL     1      -1.466  37.605  54.684  1.00  0.00     0.134 C 
HETATM    3  N1  UNL     1      -1.573  38.614  55.282  1.00  0.00    -0.184 NA
ENDROOT
BRANCH   1   4
HETATM    4  C8  UNL     1       0.026  35.061  54.468  1.00  0.00     0.133 C 
HETATM    5  C9  UNL     1       0.396  35.577  55.851  1.00  0.00     0.031 C 
BRANCH   4   6
HETATM    6  C7  UNL     1       1.194  35.173  53.578  1.00  0.00     0.176 C 
HETATM    7  O3  UNL     1       1.024  35.673  52.430  1.00  0.00    -0.291 OA
BRANCH   6   8
HETATM    8  C6  UNL     1       2.539  34.726  53.975  1.00  0.00     0.045 A 
HETATM    9  C4  UNL     1       3.115  33.652  53.315  1.00  0.00     0.084 A 
HETATM   10  C3  UNL     1       4.369  33.218  53.658  1.00  0.00     0.075 A 
HETATM   11  C2  UNL     1       5.096  33.855  54.687  1.00  0.00     0.086 A 
HETATM   12  C12 UNL     1       4.540  34.907  55.337  1.00  0.00     0.066 A 
HETATM   13  C11 UNL     1       3.238  35.350  54.973  1.00  0.00     0.038 A 
BRANCH   9  14
HETATM   14  O2  UNL     1       2.386  33.053  52.321  1.00  0.00    -0.355 OA
HETATM   15  C5  UNL     1       1.939  31.729  52.302  1.00  0.00     0.210 C 
ENDBRANCH   9  14
BRANCH  11  16
HETATM   16  O1  UNL     1       6.350  33.383  54.993  1.00  0.00    -0.355 OA
HETATM   17  C1  UNL     1       6.953  32.419  54.167  1.00  0.00     0.210 C 
ENDBRANCH  11  16
BRANCH  12  18
HETATM   18  C13 UNL     1       5.188  35.627  56.413  1.00  0.00     0.259 C 
HETATM   19  O4  UNL     1       4.544  35.597  57.533  1.00  0.00    -0.267 OA
HETATM   20  N2  UNL     1       6.391  36.310  56.309  1.00  0.00    -0.320 N 
ATOM     21  H2  UNL     1       6.850  36.279  55.398  1.00  0.00     0.169 HD
BRANCH  20  22
HETATM   22  C14 UNL     1       7.063  37.053  57.331  1.00  0.00     0.073 A 
HETATM   23  C15 UNL     1       6.714  37.018  58.643  1.00  0.00     0.033 A 
HETATM   24  C16 UNL     1       7.414  37.798  59.598  1.00  0.00     0.010 A 
HETATM   25  C17 UNL     1       8.461  38.614  59.253  1.00  0.00    -0.048 A 
HETATM   26  C22 UNL     1       8.781  38.620  57.909  1.00  0.00     0.052 A 
HETATM   27  C23 UNL     1       8.126  37.883  56.979  1.00  0.00     0.143 A 
HETATM   28  F1  UNL     1       8.525  37.960  55.695  1.00  0.00    -0.204 F 
BRANCH  25  29
HETATM   29  C18 UNL     1       9.152  39.404  60.282  1.00  0.00    -0.024 C 
HETATM   30  C19 UNL     1      10.607  39.546  59.810  1.00  0.00     0.019 C 
HETATM   31  C20 UNL     1       8.549  40.800  60.320  1.00  0.00     0.019 C 
HETATM   32  C21 UNL     1       9.146  38.800  61.647  1.00  0.00     0.019 C 
ENDBRANCH  25  29
ENDBRANCH  20  22
ENDBRANCH  12  18
ENDBRANCH   6   8
ENDBRANCH   4   6
ENDBRANCH   1   4
TORSDOF 8
ENDMDL
MODEL 3
REMARK VINA RESULT: -8.529355880      4.374     10.073
REMARK  8 active torsions:
REMARK  status: ('A' for Active; 'I' for Inactive)
REMARK    1  A    between atoms: O1_2  and  C2_3 
REMARK    2  A    between atoms: C4_5  and  O2_6 
REMARK    3  A    between atoms: C6_8  and  C7_9 
REMARK    4  A    between atoms: C7_9  and  C8_11 
REMARK    5  A    between atoms: C8_11  and  S1_13 
REMARK    6  A    between atoms: C12_17  and  C13_18 
REMARK       I    between atoms: C13_18  and  N2_20 
REMARK    7  A    between atoms: N2_20  and  C14_22 
REMARK    8  A    between atoms: C17_25  and  C18_26 
ROOT
HETATM    1  S1  UNL     1      12.667  40.659  59.974  1.00  0.00    -0.038 SA
HETATM    2  C10 UNL     1      13.197  42.187  59.307  1.00  0.00     0.134 C 
HETATM    3  N1  UNL     1      13.543  43.225  58.871  1.00  0.00    -0.184 NA
ENDROOT
BRANCH   1   4
HETATM    4  C8  UNL     1      11.444  39.844  58.884  1.00  0.00     0.133 C 
HETATM    5  C9  UNL     1      11.603  40.386  57.471  1.00  0.00     0.031 C 
BRANCH   4   6
HETATM    6  C7  UNL     1      10.104  40.189  59.389  1.00  0.00     0.176 C 
HETATM    7  O3  UNL     1       9.779  41.409  59.436  1.00  0.00    -0.291 OA
BRANCH   6   8
HETATM    8  C6  UNL     1       9.140  39.172  59.840  1.00  0.00     0.045 A 
HETATM    9  C4  UNL     1       9.168  38.753  61.161  1.00  0.00     0.084 A 
HETATM   10  C3  UNL     1       8.278  37.813  61.611  1.00  0.00     0.075 A 
HETATM   11  C2  UNL     1       7.318  37.254  60.739  1.00  0.00     0.086 A 
HETATM   12  C12 UNL     1       7.284  37.658  59.444  1.00  0.00     0.066 A 
HETATM   13  C11 UNL     1       8.212  38.635  58.989  1.00  0.00     0.038 A 
BRANCH   9  14
HETATM   14  O2  UNL     1      10.110  39.313  61.983  1.00  0.00    -0.355 OA
HETATM   15  C5  UNL     1      10.567  38.793  63.197  1.00  0.00     0.210 C 
ENDBRANCH   9  14
BRANCH  11  16
HETATM   16  O1  UNL     1       6.447  36.315  61.238  1.00  0.00    -0.355 OA
HETATM   17  C1  UNL     1       6.447  36.025  62.613  1.00  0.00     0.210 C 
ENDBRANCH  11  16
BRANCH  12  18
HETATM   18  C13 UNL     1       6.352  37.145  58.462  1.00  0.00     0.259 C 
HETATM   19  O4  UNL     1       5.110  37.287  58.788  1.00  0.00    -0.267 OA
HETATM   20  N2  UNL     1       6.704  36.541  57.264  1.00  0.00    -0.320 N 
ATOM     21  H2  UNL     1       7.703  36.475  57.068  1.00  0.00     0.169 HD
BRANCH  20  22
HETATM   22  C14 UNL     1       5.828  35.998  56.272  1.00  0.00     0.073 A 
HETATM   23  C15 UNL     1       4.474  35.982  56.386  1.00  0.00     0.033 A 
HETATM   24  C16 UNL     1       3.670  35.409  55.370  1.00  0.00     0.010 A 
HETATM   25  C17 UNL     1       4.206  34.850  54.238  1.00  0.00    -0.048 A 
HETATM   26  C22 UNL     1       5.585  34.886  54.163  1.00  0.00     0.052 A 
HETATM   27  C23 UNL     1       6.374  35.429  55.122  1.00  0.00     0.143 A 
HETATM   28  F1  UNL     1       7.709  35.416  54.945  1.00  0.00    -0.204 F 
BRANCH  25  29
HETATM   29  C18 UNL     1       3.327  34.265  53.214  1.00  0.00    -0.024 C 
HETATM   30  C19 UNL     1       3.864  34.750  51.860  1.00  0.00     0.019 C 
HETATM   31  C20 UNL     1       3.471  32.752  53.245  1.00  0.00     0.019 C 
HETATM   32  C21 UNL     1       1.889  34.651  53.328  1.00  0.00     0.019 C 
ENDBRANCH  25  29
ENDBRANCH  20  22
ENDBRANCH  12  18
ENDBRANCH   6   8
ENDBRANCH   4   6
ENDBRANCH   1   4
TORSDOF 8
ENDMDL
MODEL 4
REMARK VINA RESULT: -8.494270103      3.922      9.404
REMARK  8 active torsions:
REMARK  status: ('A' for Active; 'I' for Inactive)
REMARK    1  A    between atoms: O1_2  and  C2_3 
REMARK    2  A    between atoms: C4_5  and  O2_6 
REMARK    3  A    between atoms: C6_8  and  C7_9 
REMARK    4  A    between atoms: C7_9  and  C8_11 
REMARK    5  A    between atoms: C8_11  and  S1_13 
REMARK    6  A    between atoms: C12_17  and  C13_18 
REMARK       I    between atoms: C13_18  and  N2_20 
REMARK    7  A    between atoms: N2_20  and  C14_22 
REMARK    8  A    between atoms: C17_25  and  C18_26 
ROOT
HETATM    1  S1  UNL     1       8.260  41.808  59.865  1.00  0.00    -0.038 SA
HETATM    2  C10 UNL     1       7.452  43.246  59.280  1.00  0.00     0.134 C 
HETATM    3  N1  UNL     1       6.897  44.202  58.876  1.00  0.00    -0.184 NA
ENDROOT
BRANCH   1   4
HETATM    4  C8  UNL     1       9.869  41.560  59.029  1.00  0.00     0.133 C 
HETATM    5  C9  UNL     1       9.760  42.051  57.593  1.00  0.00     0.031 C 
BRANCH   4   6
HETATM    6  C7  UNL     1      10.147  40.114  59.029  1.00  0.00     0.176 C 
HETATM    7  O3  UNL     1      11.263  39.721  58.585  1.00  0.00    -0.291 OA
BRANCH   6   8
HETATM    8  C6  UNL     1       9.180  39.119  59.521  1.00  0.00     0.045 A 
HETATM    9  C4  UNL     1       9.224  38.736  60.852  1.00  0.00     0.084 A 
HETATM   10  C3  UNL     1       8.331  37.817  61.340  1.00  0.00     0.075 A 
HETATM   11  C2  UNL     1       7.353  37.246  60.498  1.00  0.00     0.086 A 
HETATM   12  C12 UNL     1       7.302  37.616  59.194  1.00  0.00     0.066 A 
HETATM   13  C11 UNL     1       8.234  38.570  58.699  1.00  0.00     0.038 A 
BRANCH   9  14
HETATM   14  O2  UNL     1      10.184  39.308  61.645  1.00  0.00    -0.355 OA
HETATM   15  C5  UNL     1      10.541  38.909  62.936  1.00  0.00     0.210 C 
ENDBRANCH   9  14
BRANCH  11  16
HETATM   16  O1  UNL     1       6.480  36.330  61.036  1.00  0.00    -0.355 OA
HETATM   17  C1  UNL     1       6.516  36.057  62.414  1.00  0.00     0.210 C 
ENDBRANCH  11  16
BRANCH  12  18
HETATM   18  C13 UNL     1       6.351  37.087  58.240  1.00  0.00     0.259 C 
HETATM   19  O4  UNL     1       5.115  37.243  58.585  1.00  0.00    -0.267 OA
HETATM   20  N2  UNL     1       6.678  36.454  57.050  1.00  0.00    -0.320 N 
ATOM     21  H2  UNL     1       7.673  36.378  56.838  1.00  0.00     0.169 HD
BRANCH  20  22
HETATM   22  C14 UNL     1       5.781  35.894  56.085  1.00  0.00     0.073 A 
HETATM   23  C15 UNL     1       4.428  35.926  56.204  1.00  0.00     0.033 A 
HETATM   24  C16 UNL     1       3.602  35.332  55.217  1.00  0.00     0.010 A 
HETATM   25  C17 UNL     1       4.116  34.707  54.110  1.00  0.00    -0.048 A 
HETATM   26  C22 UNL     1       5.495  34.697  54.030  1.00  0.00     0.052 A 
HETATM   27  C23 UNL     1       6.304  35.258  54.961  1.00  0.00     0.143 A 
HETATM   28  F1  UNL     1       7.638  35.195  54.781  1.00  0.00    -0.204 F 
BRANCH  25  29
HETATM   29  C18 UNL     1       3.215  34.105  53.117  1.00  0.00    -0.024 C 
HETATM   30  C19 UNL     1       3.684  34.615  51.746  1.00  0.00     0.019 C 
HETATM   31  C20 UNL     1       3.404  32.596  53.128  1.00  0.00     0.019 C 
HETATM   32  C21 UNL     1       1.772  34.447  53.289  1.00  0.00     0.019 C 
ENDBRANCH  25  29
ENDBRANCH  20  22
ENDBRANCH  12  18
ENDBRANCH   6   8
ENDBRANCH   4   6
ENDBRANCH   1   4
TORSDOF 8
ENDMDL
MODEL 5
REMARK VINA RESULT: -8.425576762      4.163      9.858
REMARK  8 active torsions:
REMARK  status: ('A' for Active; 'I' for Inactive)
REMARK    1  A    between atoms: O1_2  and  C2_3 
REMARK    2  A    between atoms: C4_5  and  O2_6 
REMARK    3  A    between atoms: C6_8  and  C7_9 
REMARK    4  A    between atoms: C7_9  and  C8_11 
REMARK    5  A    between atoms: C8_11  and  S1_13 
REMARK    6  A    between atoms: C12_17  and  C13_18 
REMARK       I    between atoms: C13_18  and  N2_20 
REMARK    7  A    between atoms: N2_20  and  C14_22 
REMARK    8  A    between atoms: C17_25  and  C18_26 
ROOT
HETATM    1  S1  UNL     1      11.601  42.077  58.461  1.00  0.00    -0.038 SA
HETATM    2  C10 UNL     1      12.088  42.166  60.139  1.00  0.00     0.134 C 
HETATM    3  N1  UNL     1      12.429  42.212  61.265  1.00  0.00    -0.184 NA
ENDROOT
BRANCH   1   4
HETATM    4  C8  UNL     1      10.021  41.176  58.271  1.00  0.00     0.133 C 
HETATM    5  C9  UNL     1       9.004  41.754  59.244  1.00  0.00     0.031 C 
BRANCH   4   6
HETATM    6  C7  UNL     1      10.273  39.766  58.613  1.00  0.00     0.176 C 
HETATM    7  O3  UNL     1      11.428  39.298  58.401  1.00  0.00    -0.291 OA
BRANCH   6   8
HETATM    8  C6  UNL     1       9.237  38.890  59.185  1.00  0.00     0.045 A 
HETATM    9  C4  UNL     1       9.242  38.641  60.549  1.00  0.00     0.084 A 
HETATM   10  C3  UNL     1       8.286  37.835  61.111  1.00  0.00     0.075 A 
HETATM   11  C2  UNL     1       7.281  37.246  60.314  1.00  0.00     0.086 A 
HETATM   12  C12 UNL     1       7.269  37.486  58.979  1.00  0.00     0.066 A 
HETATM   13  C11 UNL     1       8.266  38.323  58.406  1.00  0.00     0.038 A 
BRANCH   9  14
HETATM   14  O2  UNL     1      10.230  39.227  61.297  1.00  0.00    -0.355 OA
HETATM   15  C5  UNL     1      10.452  39.048  62.665  1.00  0.00     0.210 C 
ENDBRANCH   9  14
BRANCH  11  16
HETATM   16  O1  UNL     1       6.344  36.447  60.925  1.00  0.00    -0.355 OA
HETATM   17  C1  UNL     1       6.513  36.078  62.270  1.00  0.00     0.210 C 
ENDBRANCH  11  16
BRANCH  12  18
HETATM   18  C13 UNL     1       6.294  36.925  58.066  1.00  0.00     0.259 C 
HETATM   19  O4  UNL     1       5.073  37.016  58.477  1.00  0.00    -0.267 OA
HETATM   20  N2  UNL     1       6.588  36.327  56.850  1.00  0.00    -0.320 N 
ATOM     21  H2  UNL     1       7.573  36.302  56.585  1.00  0.00     0.169 HD
BRANCH  20  22
HETATM   22  C14 UNL     1       5.669  35.740  55.923  1.00  0.00     0.073 A 
HETATM   23  C15 UNL     1       4.320  35.883  56.003  1.00  0.00     0.033 A 
HETATM   24  C16 UNL     1       3.470  35.254  55.060  1.00  0.00     0.010 A 
HETATM   25  C17 UNL     1       3.955  34.482  54.035  1.00  0.00    -0.048 A 
HETATM   26  C22 UNL     1       5.330  34.362  53.992  1.00  0.00     0.052 A 
HETATM   27  C23 UNL     1       6.163  34.954  54.883  1.00  0.00     0.143 A 
HETATM   28  F1  UNL     1       7.491  34.775  54.745  1.00  0.00    -0.204 F 
BRANCH  25  29
HETATM   29  C18 UNL     1       3.029  33.850  53.084  1.00  0.00    -0.024 C 
HETATM   30  C19 UNL     1       3.407  34.387  51.695  1.00  0.00     0.019 C 
HETATM   31  C20 UNL     1       3.280  32.350  53.074  1.00  0.00     0.019 C 
HETATM   32  C21 UNL     1       1.585  34.132  53.333  1.00  0.00     0.019 C 
ENDBRANCH  25  29
ENDBRANCH  20  22
ENDBRANCH  12  18
ENDBRANCH   6   8
ENDBRANCH   4   6
ENDBRANCH   1   4
TORSDOF 8
ENDMDL
