MODEL 1
REMARK VINA RESULT: -9.314185677      0.000      0.000
REMARK  9 active torsions:
REMARK  status: ('A' for Active; 'I' for Inactive)
REMARK    1  A    between atoms: O1_2  and  C2_3 
REMARK    2  A    between atoms: C2_3  and  C3_5 
REMARK    3  A    between atoms: C3_5  and  C4_6 
REMARK    4  A    between atoms: C3_5  and  C6_11 
REMARK    5  A    between atoms: C6_11  and  C7_13 
REMARK    6  A    between atoms: C7_13  and  S1_14 
REMARK    7  A    between atoms: S1_14  and  C8_15 
REMARK    8  A    between atoms: C11_18  and  C12_19 
REMARK    9  A    between atoms: N2_26  and  C18_27 
ROOT
HETATM    1  C8  UNL     1      11.711  41.111  60.184  1.00  0.00     0.077 A 
HETATM    2  C9  UNL     1      11.699  40.647  61.464  1.00  0.00     0.040 A 
HETATM    3  C10 UNL     1      10.693  39.722  61.496  1.00  0.00     0.034 A 
HETATM    4  C11 UNL     1      10.092  39.632  60.208  1.00  0.00     0.050 A 
HETATM    5  N2  UNL     1      10.742  40.504  59.419  1.00  0.00    -0.313 N 
ENDROOT
BRANCH   1   6
HETATM    6  S1  UNL     1      12.884  42.361  59.619  1.00  0.00    -0.104 SA
BRANCH   6   7
HETATM    7  C7  UNL     1      13.717  41.837  58.102  1.00  0.00     0.160 C 
BRANCH   7   8
HETATM    8  C6  UNL     1      14.209  43.014  57.341  1.00  0.00     0.155 C 
HETATM    9  O3  UNL     1      15.251  43.539  57.729  1.00  0.00    -0.296 OA
BRANCH   8  10
HETATM   10  C3  UNL     1      13.551  43.605  56.158  1.00  0.00     0.200 C 
BRANCH  10  11
HETATM   11  C2  UNL     1      13.425  45.074  56.388  1.00  0.00     0.275 C 
HETATM   12  O2  UNL     1      12.823  45.490  57.410  1.00  0.00    -0.264 OA
BRANCH  11  13
HETATM   13  O1  UNL     1      13.936  46.019  55.535  1.00  0.00    -0.326 OA
HETATM   14  C1  UNL     1      13.202  46.689  54.529  1.00  0.00     0.213 C 
ENDBRANCH  11  13
ENDBRANCH  10  11
BRANCH  10  15
HETATM   15  C4  UNL     1      14.168  43.309  54.869  1.00  0.00    -0.003 C 
HETATM   16  C5  UNL     1      13.369  43.043  53.637  1.00  0.00     0.064 C 
HETATM   17  N1  UNL     1      15.427  43.283  54.735  1.00  0.00    -0.405 N 
ATOM     18  H12 UNL     1      15.974  43.465  55.576  1.00  0.00     0.155 HD
ATOM     19  H11 UNL     1      15.858  43.076  53.834  1.00  0.00     0.155 HD
ENDBRANCH  10  15
ENDBRANCH   8  10
ENDBRANCH   7   8
ENDBRANCH   6   7
ENDBRANCH   1   6
BRANCH   5  20
HETATM   20  C18 UNL     1      10.528  40.879  58.043  1.00  0.00    -0.004 C 
HETATM   21  C19 UNL     1       9.298  41.665  57.807  1.00  0.00     0.053 C 
HETATM   22  C20 UNL     1       9.574  43.106  57.316  1.00  0.00     0.006 C 
HETATM   23  C21 UNL     1      10.345  43.136  56.048  1.00  0.00     0.000 C 
HETATM   24  C22 UNL     1       9.767  42.190  55.003  1.00  0.00     0.000 C 
HETATM   25  C23 UNL     1      10.701  41.021  54.894  1.00  0.00     0.000 C 
HETATM   26  C24 UNL     1      10.238  39.848  55.757  1.00  0.00     0.006 C 
HETATM   27  C25 UNL     1      10.936  39.838  57.065  1.00  0.00     0.053 C 
ENDBRANCH   5  20
BRANCH   4  28
HETATM   28  C12 UNL     1       8.960  38.777  59.987  1.00  0.00    -0.006 A 
HETATM   29  C13 UNL     1       8.361  38.172  61.099  1.00  0.00     0.014 A 
HETATM   30  C14 UNL     1       7.331  37.274  60.989  1.00  0.00     0.004 A 
HETATM   31  C15 UNL     1       6.829  36.921  59.759  1.00  0.00     0.042 A 
HETATM   32  C16 UNL     1       7.385  37.489  58.658  1.00  0.00     0.117 A 
HETATM   33  F1  UNL     1       6.912  37.160  57.438  1.00  0.00    -0.206 F 
HETATM   34  C17 UNL     1       8.447  38.411  58.799  1.00  0.00     0.056 A 
ENDBRANCH   4  28
TORSDOF 9
ENDMDL
MODEL 2
REMARK VINA RESULT: -9.311033650      2.073      3.844
REMARK  9 active torsions:
REMARK  status: ('A' for Active; 'I' for Inactive)
REMARK    1  A    between atoms: O1_2  and  C2_3 
REMARK    2  A    between atoms: C2_3  and  C3_5 
REMARK    3  A    between atoms: C3_5  and  C4_6 
REMARK    4  A    between atoms: C3_5  and  C6_11 
REMARK    5  A    between atoms: C6_11  and  C7_13 
REMARK    6  A    between atoms: C7_13  and  S1_14 
REMARK    7  A    between atoms: S1_14  and  C8_15 
REMARK    8  A    between atoms: C11_18  and  C12_19 
REMARK    9  A    between atoms: N2_26  and  C18_27 
ROOT
HETATM    1  C8  UNL     1      10.338  39.708  55.685  1.00  0.00     0.077 A 
HETATM    2  C9  UNL     1       9.475  39.033  54.877  1.00  0.00     0.040 A 
HETATM    3  C10 UNL     1       8.615  38.398  55.730  1.00  0.00     0.034 A 
HETATM    4  C11 UNL     1       8.972  38.702  57.075  1.00  0.00     0.050 A 
HETATM    5  N2  UNL     1      10.043  39.512  57.014  1.00  0.00    -0.313 N 
ENDROOT
BRANCH   1   6
HETATM    6  S1  UNL     1      11.678  40.726  55.032  1.00  0.00    -0.104 SA
BRANCH   6   7
HETATM    7  C7  UNL     1      11.076  42.354  54.528  1.00  0.00     0.160 C 
BRANCH   7   8
HETATM    8  C6  UNL     1      11.813  43.429  55.239  1.00  0.00     0.155 C 
HETATM    9  O3  UNL     1      11.148  44.227  55.897  1.00  0.00    -0.296 OA
BRANCH   8  10
HETATM   10  C3  UNL     1      13.278  43.620  55.221  1.00  0.00     0.200 C 
BRANCH  10  11
HETATM   11  C2  UNL     1      13.642  44.265  53.927  1.00  0.00     0.275 C 
HETATM   12  O2  UNL     1      13.184  45.403  53.652  1.00  0.00    -0.264 OA
BRANCH  11  13
HETATM   13  O1  UNL     1      14.463  43.682  52.995  1.00  0.00    -0.326 OA
HETATM   14  C1  UNL     1      14.025  42.925  51.884  1.00  0.00     0.213 C 
ENDBRANCH  11  13
ENDBRANCH  10  11
BRANCH  10  15
HETATM   15  C4  UNL     1      13.844  44.335  56.361  1.00  0.00    -0.003 C 
HETATM   16  C5  UNL     1      14.213  43.652  57.635  1.00  0.00     0.064 C 
HETATM   17  N1  UNL     1      14.064  45.581  56.310  1.00  0.00    -0.405 N 
ATOM     18  H12 UNL     1      13.812  46.048  55.439  1.00  0.00     0.155 HD
ATOM     19  H11 UNL     1      14.459  46.081  57.106  1.00  0.00     0.155 HD
ENDBRANCH  10  15
ENDBRANCH   8  10
ENDBRANCH   7   8
ENDBRANCH   6   7
ENDBRANCH   1   6
BRANCH   5  20
HETATM   20  C18 UNL     1      10.859  40.084  58.057  1.00  0.00    -0.004 C 
HETATM   21  C19 UNL     1      10.656  41.533  58.267  1.00  0.00     0.053 C 
HETATM   22  C20 UNL     1      10.061  41.876  59.654  1.00  0.00     0.006 C 
HETATM   23  C21 UNL     1      10.917  41.402  60.771  1.00  0.00     0.000 C 
HETATM   24  C22 UNL     1      12.379  41.783  60.575  1.00  0.00     0.000 C 
HETATM   25  C23 UNL     1      13.121  40.531  60.213  1.00  0.00     0.000 C 
HETATM   26  C24 UNL     1      13.281  40.389  58.700  1.00  0.00     0.006 C 
HETATM   27  C25 UNL     1      12.229  39.514  58.131  1.00  0.00     0.053 C 
ENDBRANCH   5  20
BRANCH   4  28
HETATM   28  C12 UNL     1       8.265  38.105  58.173  1.00  0.00    -0.006 A 
HETATM   29  C13 UNL     1       7.096  37.387  57.893  1.00  0.00     0.014 A 
HETATM   30  C14 UNL     1       6.303  36.851  58.875  1.00  0.00     0.004 A 
HETATM   31  C15 UNL     1       6.626  36.997  60.203  1.00  0.00     0.042 A 
HETATM   32  C16 UNL     1       7.754  37.688  60.512  1.00  0.00     0.117 A 
HETATM   33  F1  UNL     1       8.094  37.847  61.808  1.00  0.00    -0.206 F 
HETATM   34  C17 UNL     1       8.553  38.231  59.481  1.00  0.00     0.056 A 
ENDBRANCH   4  28
TORSDOF 9
ENDMDL
MODEL 3
REMARK VINA RESULT: -9.241051588      1.316      1.657
REMARK  9 active torsions:
REMARK  status: ('A' for Active; 'I' for Inactive)
REMARK    1  A    between atoms: O1_2  and  C2_3 
REMARK    2  A    between atoms: C2_3  and  C3_5 
REMARK    3  A    between atoms: C3_5  and  C4_6 
REMARK    4  A    between atoms: C3_5  and  C6_11 
REMARK    5  A    between atoms: C6_11  and  C7_13 
REMARK    6  A    between atoms: C7_13  and  S1_14 
REMARK    7  A    between atoms: S1_14  and  C8_15 
REMARK    8  A    between atoms: C11_18  and  C12_19 
REMARK    9  A    between atoms: N2_26  and  C18_27 
ROOT
HETATM    1  C8  UNL     1      12.229  40.779  59.427  1.00  0.00     0.077 A 
HETATM    2  C9  UNL     1      12.478  40.815  60.765  1.00  0.00     0.040 A 
HETATM    3  C10 UNL     1      11.468  40.089  61.333  1.00  0.00     0.034 A 
HETATM    4  C11 UNL     1      10.599  39.609  60.312  1.00  0.00     0.050 A 
HETATM    5  N2  UNL     1      11.095  40.054  59.145  1.00  0.00    -0.313 N 
ENDROOT
BRANCH   1   6
HETATM    6  S1  UNL     1      13.298  41.595  58.223  1.00  0.00    -0.104 SA
BRANCH   6   7
HETATM    7  C7  UNL     1      12.792  43.310  57.955  1.00  0.00     0.160 C 
BRANCH   7   8
HETATM    8  C6  UNL     1      13.512  43.894  56.795  1.00  0.00     0.155 C 
HETATM    9  O3  UNL     1      14.500  44.585  57.037  1.00  0.00    -0.296 OA
BRANCH   8  10
HETATM   10  C3  UNL     1      13.140  43.715  55.377  1.00  0.00     0.200 C 
BRANCH  10  11
HETATM   11  C2  UNL     1      12.766  45.050  54.827  1.00  0.00     0.275 C 
HETATM   12  O2  UNL     1      13.238  45.418  53.721  1.00  0.00    -0.264 OA
BRANCH  11  13
HETATM   13  O1  UNL     1      11.923  45.922  55.467  1.00  0.00    -0.326 OA
HETATM   14  C1  UNL     1      10.551  45.689  55.722  1.00  0.00     0.213 C 
ENDBRANCH  11  13
ENDBRANCH  10  11
BRANCH  10  15
HETATM   15  C4  UNL     1      14.125  43.040  54.538  1.00  0.00    -0.003 C 
HETATM   16  C5  UNL     1      13.787  41.856  53.695  1.00  0.00     0.064 C 
HETATM   17  N1  UNL     1      15.323  43.447  54.477  1.00  0.00    -0.405 N 
ATOM     18  H12 UNL     1      15.554  44.256  55.053  1.00  0.00     0.155 HD
ATOM     19  H11 UNL     1      16.011  42.975  53.891  1.00  0.00     0.155 HD
ENDBRANCH  10  15
ENDBRANCH   8  10
ENDBRANCH   7   8
ENDBRANCH   6   7
ENDBRANCH   1   6
BRANCH   5  20
HETATM   20  C18 UNL     1      10.601  39.928  57.796  1.00  0.00    -0.004 C 
HETATM   21  C19 UNL     1       9.561  40.913  57.430  1.00  0.00     0.053 C 
HETATM   22  C20 UNL     1      10.005  41.893  56.318  1.00  0.00     0.006 C 
HETATM   23  C21 UNL     1      10.386  41.193  55.065  1.00  0.00     0.000 C 
HETATM   24  C22 UNL     1       9.348  40.160  54.647  1.00  0.00     0.000 C 
HETATM   25  C23 UNL     1       9.932  38.805  54.922  1.00  0.00     0.000 C 
HETATM   26  C24 UNL     1       9.474  38.258  56.273  1.00  0.00     0.006 C 
HETATM   27  C25 UNL     1      10.483  38.523  57.327  1.00  0.00     0.053 C 
ENDBRANCH   5  20
BRANCH   4  28
HETATM   28  C12 UNL     1       9.415  38.870  60.647  1.00  0.00    -0.006 A 
HETATM   29  C13 UNL     1       9.441  38.061  61.791  1.00  0.00     0.014 A 
HETATM   30  C14 UNL     1       8.395  37.252  62.150  1.00  0.00     0.004 A 
HETATM   31  C15 UNL     1       7.250  37.198  61.391  1.00  0.00     0.042 A 
HETATM   32  C16 UNL     1       7.189  37.969  60.275  1.00  0.00     0.117 A 
HETATM   33  F1  UNL     1       6.076  37.934  59.512  1.00  0.00    -0.206 F 
HETATM   34  C17 UNL     1       8.282  38.794  59.926  1.00  0.00     0.056 A 
ENDBRANCH   4  28
TORSDOF 9
ENDMDL
MODEL 4
REMARK VINA RESULT: -9.218068771      2.259      4.209
REMARK  9 active torsions:
REMARK  status: ('A' for Active; 'I' for Inactive)
REMARK    1  A    between atoms: O1_2  and  C2_3 
REMARK    2  A    between atoms: C2_3  and  C3_5 
REMARK    3  A    between atoms: C3_5  and  C4_6 
REMARK    4  A    between atoms: C3_5  and  C6_11 
REMARK    5  A    between atoms: C6_11  and  C7_13 
REMARK    6  A    between atoms: C7_13  and  S1_14 
REMARK    7  A    between atoms: S1_14  and  C8_15 
REMARK    8  A    between atoms: C11_18  and  C12_19 
REMARK    9  A    between atoms: N2_26  and  C18_27 
ROOT
HETATM    1  C8  UNL     1      11.051  40.308  55.650  1.00  0.00     0.077 A 
HETATM    2  C9  UNL     1      10.388  39.770  54.589  1.00  0.00     0.040 A 
HETATM    3  C10 UNL     1       9.389  39.017  55.142  1.00  0.00     0.034 A 
HETATM    4  C11 UNL     1       9.457  39.109  56.561  1.00  0.00     0.050 A 
HETATM    5  N2  UNL     1      10.496  39.912  56.844  1.00  0.00    -0.313 N 
ENDROOT
BRANCH   1   6
HETATM    6  S1  UNL     1      12.469  41.406  55.447  1.00  0.00    -0.104 SA
BRANCH   6   7
HETATM    7  C7  UNL     1      12.058  42.815  54.390  1.00  0.00     0.160 C 
BRANCH   7   8
HETATM    8  C6  UNL     1      10.789  43.448  54.829  1.00  0.00     0.155 C 
HETATM    9  O3  UNL     1       9.801  43.283  54.115  1.00  0.00    -0.296 OA
BRANCH   8  10
HETATM   10  C3  UNL     1      10.614  44.258  56.052  1.00  0.00     0.200 C 
BRANCH  10  11
HETATM   11  C2  UNL     1      11.755  45.215  56.137  1.00  0.00     0.275 C 
HETATM   12  O2  UNL     1      12.550  45.145  57.108  1.00  0.00    -0.264 OA
BRANCH  11  13
HETATM   13  O1  UNL     1      11.995  46.190  55.202  1.00  0.00    -0.326 OA
HETATM   14  C1  UNL     1      13.218  46.377  54.517  1.00  0.00     0.213 C 
ENDBRANCH  11  13
ENDBRANCH  10  11
BRANCH  10  15
HETATM   15  C4  UNL     1       9.328  44.933  56.193  1.00  0.00    -0.003 C 
HETATM   16  C5  UNL     1       8.281  44.477  57.153  1.00  0.00     0.064 C 
HETATM   17  N1  UNL     1       9.049  45.961  55.508  1.00  0.00    -0.405 N 
ATOM     18  H12 UNL     1       9.764  46.273  54.852  1.00  0.00     0.155 HD
ATOM     19  H11 UNL     1       8.150  46.433  55.606  1.00  0.00     0.155 HD
ENDBRANCH  10  15
ENDBRANCH   8  10
ENDBRANCH   7   8
ENDBRANCH   6   7
ENDBRANCH   1   6
BRANCH   5  20
HETATM   20  C18 UNL     1      11.068  40.313  58.107  1.00  0.00    -0.004 C 
HETATM   21  C19 UNL     1      10.653  41.654  58.568  1.00  0.00     0.053 C 
HETATM   22  C20 UNL     1       9.819  41.627  59.871  1.00  0.00     0.006 C 
HETATM   23  C21 UNL     1      10.552  40.999  61.000  1.00  0.00     0.000 C 
HETATM   24  C22 UNL     1      11.966  41.547  61.142  1.00  0.00     0.000 C 
HETATM   25  C23 UNL     1      12.907  40.479  60.667  1.00  0.00     0.000 C 
HETATM   26  C24 UNL     1      13.309  40.690  59.207  1.00  0.00     0.006 C 
HETATM   27  C25 UNL     1      12.472  39.869  58.300  1.00  0.00     0.053 C 
ENDBRANCH   5  20
BRANCH   4  28
HETATM   28  C12 UNL     1       8.557  38.354  57.387  1.00  0.00    -0.006 A 
HETATM   29  C13 UNL     1       7.570  37.585  56.758  1.00  0.00     0.014 A 
HETATM   30  C14 UNL     1       6.610  36.897  57.455  1.00  0.00     0.004 A 
HETATM   31  C15 UNL     1       6.574  36.931  58.829  1.00  0.00     0.042 A 
HETATM   32  C16 UNL     1       7.516  37.667  59.473  1.00  0.00     0.117 A 
HETATM   33  F1  UNL     1       7.503  37.718  60.821  1.00  0.00    -0.206 F 
HETATM   34  C17 UNL     1       8.494  38.368  58.731  1.00  0.00     0.056 A 
ENDBRANCH   4  28
TORSDOF 9
ENDMDL
MODEL 5
REMARK VINA RESULT: -9.138393826      1.866      3.694
REMARK  9 active torsions:
REMARK  status: ('A' for Active; 'I' for Inactive)
REMARK    1  A    between atoms: O1_2  and  C2_3 
REMARK    2  A    between atoms: C2_3  and  C3_5 
REMARK    3  A    between atoms: C3_5  and  C4_6 
REMARK    4  A    between atoms: C3_5  and  C6_11 
REMARK    5  A    between atoms: C6_11  and  C7_13 
REMARK    6  A    between atoms: C7_13  and  S1_14 
REMARK    7  A    between atoms: S1_14  and  C8_15 
REMARK    8  A    between atoms: C11_18  and  C12_19 
REMARK    9  A    between atoms: N2_26  and  C18_27 
ROOT
HETATM    1  C8  UNL     1      10.444  39.714  55.740  1.00  0.00     0.077 A 
HETATM    2  C9  UNL     1       9.704  39.078  54.789  1.00  0.00     0.040 A 
HETATM    3  C10 UNL     1       8.746  38.396  55.485  1.00  0.00     0.034 A 
HETATM    4  C11 UNL     1       8.916  38.629  56.880  1.00  0.00     0.050 A 
HETATM    5  N2  UNL     1       9.975  39.446  57.005  1.00  0.00    -0.313 N 
ENDROOT
BRANCH   1   6
HETATM    6  S1  UNL     1      11.848  40.771  55.326  1.00  0.00    -0.104 SA
BRANCH   6   7
HETATM    7  C7  UNL     1      11.828  42.294  56.300  1.00  0.00     0.160 C 
BRANCH   7   8
HETATM    8  C6  UNL     1      12.852  43.248  55.803  1.00  0.00     0.155 C 
HETATM    9  O3  UNL     1      13.787  43.512  56.557  1.00  0.00    -0.296 OA
BRANCH   8  10
HETATM   10  C3  UNL     1      12.840  43.905  54.481  1.00  0.00     0.200 C 
BRANCH  10  11
HETATM   11  C2  UNL     1      12.682  45.373  54.698  1.00  0.00     0.275 C 
HETATM   12  O2  UNL     1      13.314  46.178  53.968  1.00  0.00    -0.264 OA
BRANCH  11  13
HETATM   13  O1  UNL     1      11.874  45.911  55.667  1.00  0.00    -0.326 OA
HETATM   14  C1  UNL     1      10.461  45.854  55.672  1.00  0.00     0.213 C 
ENDBRANCH  11  13
ENDBRANCH  10  11
BRANCH  10  15
HETATM   15  C4  UNL     1      13.971  43.606  53.608  1.00  0.00    -0.003 C 
HETATM   16  C5  UNL     1      13.801  43.229  52.174  1.00  0.00     0.064 C 
HETATM   17  N1  UNL     1      15.162  43.669  54.032  1.00  0.00    -0.405 N 
ATOM     18  H12 UNL     1      15.278  43.926  55.012  1.00  0.00     0.155 HD
ATOM     19  H11 UNL     1      15.952  43.460  53.423  1.00  0.00     0.155 HD
ENDBRANCH  10  15
ENDBRANCH   8  10
ENDBRANCH   7   8
ENDBRANCH   6   7
ENDBRANCH   1   6
BRANCH   5  20
HETATM   20  C18 UNL     1      10.638  39.965  58.176  1.00  0.00    -0.004 C 
HETATM   21  C19 UNL     1      11.610  39.037  58.791  1.00  0.00     0.053 C 
HETATM   22  C20 UNL     1      13.071  39.543  58.728  1.00  0.00     0.006 C 
HETATM   23  C21 UNL     1      13.247  40.852  59.407  1.00  0.00     0.000 C 
HETATM   24  C22 UNL     1      12.609  40.870  60.791  1.00  0.00     0.000 C 
HETATM   25  C23 UNL     1      11.372  41.714  60.700  1.00  0.00     0.000 C 
HETATM   26  C24 UNL     1      10.123  40.861  60.480  1.00  0.00     0.006 C 
HETATM   27  C25 UNL     1       9.765  40.799  59.043  1.00  0.00     0.053 C 
ENDBRANCH   5  20
BRANCH   4  28
HETATM   28  C12 UNL     1       8.075  37.972  57.839  1.00  0.00    -0.006 A 
HETATM   29  C13 UNL     1       6.949  37.283  57.370  1.00  0.00     0.014 A 
HETATM   30  C14 UNL     1       6.038  36.694  58.209  1.00  0.00     0.004 A 
HETATM   31  C15 UNL     1       6.192  36.754  59.573  1.00  0.00     0.042 A 
HETATM   32  C16 UNL     1       7.273  37.414  60.064  1.00  0.00     0.117 A 
HETATM   33  F1  UNL     1       7.448  37.488  61.401  1.00  0.00    -0.206 F 
HETATM   34  C17 UNL     1       8.197  38.013  59.179  1.00  0.00     0.056 A 
ENDBRANCH   4  28
TORSDOF 9
ENDMDL
