MODEL 1
REMARK VINA RESULT: -8.683455786      0.000      0.000
REMARK  9 active torsions:
REMARK  status: ('A' for Active; 'I' for Inactive)
REMARK    1  A    between atoms: C2_2  and  C3_3 
REMARK    2  A    between atoms: C3_3  and  O1_4 
REMARK    3  A    between atoms: O1_4  and  N1_5 
REMARK    4  A    between atoms: N1_5  and  C4_6 
REMARK    5  A    between atoms: C4_6  and  C6_8 
REMARK    6  A    between atoms: C6_8  and  S1_9 
REMARK    7  A    between atoms: S1_9  and  C7_10 
REMARK    8  A    between atoms: C8_15  and  C9_16 
REMARK    9  A    between atoms: C12_19  and  C13_20 
REMARK       I    between atoms: C13_20  and  N4_22 
ROOT
HETATM    1  C7  UNL     1      12.438  41.295  60.224  1.00  0.00     0.204 A 
HETATM    2  N2  UNL     1      12.439  41.516  61.534  1.00  0.00    -0.272 N 
ATOM      3  H2  UNL     1      12.991  42.232  62.007  1.00  0.00     0.189 HD
HETATM    4  N3  UNL     1      11.637  40.689  62.122  1.00  0.00    -0.281 N 
ATOM      5  H3  UNL     1      11.454  40.640  63.124  1.00  0.00     0.189 HD
HETATM    6  C8  UNL     1      11.088  39.904  61.180  1.00  0.00     0.145 A 
HETATM    7  O3  UNL     1      11.603  40.297  60.022  1.00  0.00    -0.272 OA
ENDROOT
BRANCH   1   8
HETATM    8  S1  UNL     1      13.372  42.181  59.011  1.00  0.00    -0.067 SA
BRANCH   8   9
HETATM    9  C6  UNL     1      12.834  42.007  57.331  1.00  0.00     0.070 C 
HETATM   10  C17 UNL     1      12.308  40.630  56.960  1.00  0.00     0.028 C 
HETATM   11  C18 UNL     1      11.631  40.799  55.603  1.00  0.00     0.002 C 
HETATM   12  C19 UNL     1      12.588  41.211  54.531  1.00  0.00     0.000 C 
HETATM   13  C20 UNL     1      13.634  42.184  54.921  1.00  0.00     0.002 C 
HETATM   14  C21 UNL     1      13.946  42.286  56.370  1.00  0.00     0.028 C 
BRANCH   9  15
HETATM   15  C4  UNL     1      11.659  42.955  57.119  1.00  0.00     0.110 C 
HETATM   16  C5  UNL     1      12.028  44.255  56.442  1.00  0.00     0.084 C 
BRANCH  15  17
HETATM   17  N1  UNL     1      10.545  42.754  57.444  1.00  0.00    -0.289 NA
BRANCH  17  18
HETATM   18  O1  UNL     1       9.362  42.546  57.852  1.00  0.00    -0.209 OA
BRANCH  18  19
HETATM   19  C3  UNL     1       8.916  42.290  59.179  1.00  0.00     0.217 C 
BRANCH  19  20
HETATM   20  C2  UNL     1       7.511  42.742  59.464  1.00  0.00     0.025 C 
HETATM   21  C1  UNL     1       7.254  44.098  58.818  1.00  0.00     0.007 C 
ENDBRANCH  19  20
ENDBRANCH  18  19
ENDBRANCH  17  18
ENDBRANCH  15  17
ENDBRANCH   9  15
ENDBRANCH   8   9
ENDBRANCH   1   8
BRANCH   6  22
HETATM   22  C9  UNL     1      10.104  38.862  61.495  1.00  0.00     0.064 C 
HETATM   23  C10 UNL     1       9.662  38.932  62.944  1.00  0.00     0.014 C 
HETATM   24  C11 UNL     1       9.002  37.668  63.301  1.00  0.00     0.016 C 
HETATM   25  C12 UNL     1       8.283  36.920  62.233  1.00  0.00     0.096 C 
HETATM   26  C15 UNL     1       8.075  37.606  60.941  1.00  0.00     0.096 C 
HETATM   27 CL1  UNL     1       6.332  38.015  60.757  1.00  0.00    -0.124 Cl
HETATM   28  C16 UNL     1       8.843  38.872  60.684  1.00  0.00     0.034 C 
BRANCH  25  29
HETATM   29  C13 UNL     1       7.022  36.345  62.778  1.00  0.00     0.222 C 
HETATM   30  O2  UNL     1       6.483  35.410  62.144  1.00  0.00    -0.273 OA
HETATM   31  N4  UNL     1       6.398  36.792  63.964  1.00  0.00    -0.365 N 
HETATM   32  C14 UNL     1       5.166  36.144  64.429  1.00  0.00     0.149 C 
ATOM     33  H4  UNL     1       6.802  37.563  64.495  1.00  0.00     0.161 HD
ENDBRANCH  25  29
ENDBRANCH   6  22
TORSDOF 9
ENDMDL
MODEL 2
REMARK VINA RESULT: -8.480267570      2.415      3.180
REMARK  9 active torsions:
REMARK  status: ('A' for Active; 'I' for Inactive)
REMARK    1  A    between atoms: C2_2  and  C3_3 
REMARK    2  A    between atoms: C3_3  and  O1_4 
REMARK    3  A    between atoms: O1_4  and  N1_5 
REMARK    4  A    between atoms: N1_5  and  C4_6 
REMARK    5  A    between atoms: C4_6  and  C6_8 
REMARK    6  A    between atoms: C6_8  and  S1_9 
REMARK    7  A    between atoms: S1_9  and  C7_10 
REMARK    8  A    between atoms: C8_15  and  C9_16 
REMARK    9  A    between atoms: C12_19  and  C13_20 
REMARK       I    between atoms: C13_20  and  N4_22 
ROOT
HETATM    1  C7  UNL     1      13.078  43.042  58.344  1.00  0.00     0.204 A 
HETATM    2  N2  UNL     1      13.751  42.509  59.358  1.00  0.00    -0.272 N 
ATOM      3  H2  UNL     1      14.711  42.742  59.610  1.00  0.00     0.189 HD
HETATM    4  N3  UNL     1      13.007  41.651  59.978  1.00  0.00    -0.281 N 
ATOM      5  H3  UNL     1      13.280  41.097  60.789  1.00  0.00     0.189 HD
HETATM    6  C8  UNL     1      11.813  41.617  59.364  1.00  0.00     0.145 A 
HETATM    7  O3  UNL     1      11.887  42.481  58.359  1.00  0.00    -0.272 OA
ENDROOT
BRANCH   1   8
HETATM    8  S1  UNL     1      13.678  44.266  57.216  1.00  0.00    -0.067 SA
BRANCH   8   9
HETATM    9  C6  UNL     1      13.041  44.185  55.564  1.00  0.00     0.070 C 
HETATM   10  C17 UNL     1      11.961  43.141  55.338  1.00  0.00     0.028 C 
HETATM   11  C18 UNL     1      11.359  43.457  53.972  1.00  0.00     0.002 C 
HETATM   12  C19 UNL     1      12.350  43.316  52.862  1.00  0.00     0.000 C 
HETATM   13  C20 UNL     1      13.728  43.777  53.148  1.00  0.00     0.002 C 
HETATM   14  C21 UNL     1      14.120  43.869  54.578  1.00  0.00     0.028 C 
BRANCH   9  15
HETATM   15  C4  UNL     1      12.375  45.523  55.257  1.00  0.00     0.110 C 
HETATM   16  C5  UNL     1      13.269  46.506  54.537  1.00  0.00     0.084 C 
BRANCH  15  17
HETATM   17  N1  UNL     1      11.273  45.824  55.542  1.00  0.00    -0.289 NA
BRANCH  17  18
HETATM   18  O1  UNL     1      10.100  46.140  55.908  1.00  0.00    -0.209 OA
BRANCH  18  19
HETATM   19  C3  UNL     1       8.863  45.563  55.508  1.00  0.00     0.217 C 
BRANCH  19  20
HETATM   20  C2  UNL     1       7.853  45.422  56.613  1.00  0.00     0.025 C 
HETATM   21  C1  UNL     1       6.555  46.125  56.231  1.00  0.00     0.007 C 
ENDBRANCH  19  20
ENDBRANCH  18  19
ENDBRANCH  17  18
ENDBRANCH  15  17
ENDBRANCH   9  15
ENDBRANCH   8   9
ENDBRANCH   1   8
BRANCH   6  22
HETATM   22  C9  UNL     1      10.712  40.764  59.824  1.00  0.00     0.064 C 
HETATM   23  C10 UNL     1      10.261  39.803  58.742  1.00  0.00     0.014 C 
HETATM   24  C11 UNL     1       8.942  39.263  59.104  1.00  0.00     0.016 C 
HETATM   25  C12 UNL     1       8.606  39.128  60.549  1.00  0.00     0.096 C 
HETATM   26  C15 UNL     1       9.700  39.318  61.524  1.00  0.00     0.096 C 
HETATM   27 CL1  UNL     1      10.121  37.733  62.264  1.00  0.00    -0.124 Cl
HETATM   28  C16 UNL     1      10.988  39.918  61.031  1.00  0.00     0.034 C 
BRANCH  25  29
HETATM   29  C13 UNL     1       7.858  37.862  60.778  1.00  0.00     0.222 C 
HETATM   30  O2  UNL     1       7.559  37.169  59.780  1.00  0.00    -0.273 OA
HETATM   31  N4  UNL     1       7.465  37.397  62.053  1.00  0.00    -0.365 N 
HETATM   32  C14 UNL     1       6.747  36.122  62.175  1.00  0.00     0.149 C 
ATOM     33  H4  UNL     1       7.678  37.946  62.886  1.00  0.00     0.161 HD
ENDBRANCH  25  29
ENDBRANCH   6  22
TORSDOF 9
ENDMDL
MODEL 3
REMARK VINA RESULT: -8.475475918      2.433      3.071
REMARK  9 active torsions:
REMARK  status: ('A' for Active; 'I' for Inactive)
REMARK    1  A    between atoms: C2_2  and  C3_3 
REMARK    2  A    between atoms: C3_3  and  O1_4 
REMARK    3  A    between atoms: O1_4  and  N1_5 
REMARK    4  A    between atoms: N1_5  and  C4_6 
REMARK    5  A    between atoms: C4_6  and  C6_8 
REMARK    6  A    between atoms: C6_8  and  S1_9 
REMARK    7  A    between atoms: S1_9  and  C7_10 
REMARK    8  A    between atoms: C8_15  and  C9_16 
REMARK    9  A    between atoms: C12_19  and  C13_20 
REMARK       I    between atoms: C13_20  and  N4_22 
ROOT
HETATM    1  C7  UNL     1      13.397  42.790  58.186  1.00  0.00     0.204 A 
HETATM    2  N2  UNL     1      14.385  42.041  58.664  1.00  0.00    -0.272 N 
ATOM      3  H2  UNL     1      15.379  42.229  58.533  1.00  0.00     0.189 HD
HETATM    4  N3  UNL     1      13.899  41.037  59.319  1.00  0.00    -0.281 N 
ATOM      5  H3  UNL     1      14.438  40.307  59.784  1.00  0.00     0.189 HD
HETATM    6  C8  UNL     1      12.559  41.125  59.279  1.00  0.00     0.145 A 
HETATM    7  O3  UNL     1      12.280  42.211  58.571  1.00  0.00    -0.272 OA
ENDROOT
BRANCH   1   8
HETATM    8  S1  UNL     1      13.572  44.271  57.233  1.00  0.00    -0.067 SA
BRANCH   8   9
HETATM    9  C6  UNL     1      12.986  44.197  55.561  1.00  0.00     0.070 C 
HETATM   10  C17 UNL     1      11.906  43.161  55.300  1.00  0.00     0.028 C 
HETATM   11  C18 UNL     1      11.349  43.484  53.917  1.00  0.00     0.002 C 
HETATM   12  C19 UNL     1      12.373  43.338  52.837  1.00  0.00     0.000 C 
HETATM   13  C20 UNL     1      13.744  43.788  53.167  1.00  0.00     0.002 C 
HETATM   14  C21 UNL     1      14.093  43.874  54.608  1.00  0.00     0.028 C 
BRANCH   9  15
HETATM   15  C4  UNL     1      12.340  45.540  55.237  1.00  0.00     0.110 C 
HETATM   16  C5  UNL     1      13.249  46.502  54.507  1.00  0.00     0.084 C 
BRANCH  15  17
HETATM   17  N1  UNL     1      11.241  45.860  55.514  1.00  0.00    -0.289 NA
BRANCH  17  18
HETATM   18  O1  UNL     1      10.066  46.179  55.869  1.00  0.00    -0.209 OA
BRANCH  18  19
HETATM   19  C3  UNL     1       8.834  45.575  55.492  1.00  0.00     0.217 C 
BRANCH  19  20
HETATM   20  C2  UNL     1       7.832  45.452  56.607  1.00  0.00     0.025 C 
HETATM   21  C1  UNL     1       6.523  46.128  56.214  1.00  0.00     0.007 C 
ENDBRANCH  19  20
ENDBRANCH  18  19
ENDBRANCH  17  18
ENDBRANCH  15  17
ENDBRANCH   9  15
ENDBRANCH   8   9
ENDBRANCH   1   8
BRANCH   6  22
HETATM   22  C9  UNL     1      11.684  40.156  59.947  1.00  0.00     0.064 C 
HETATM   23  C10 UNL     1      11.474  40.507  61.407  1.00  0.00     0.014 C 
HETATM   24  C11 UNL     1      10.934  39.332  62.106  1.00  0.00     0.016 C 
HETATM   25  C12 UNL     1      10.088  38.378  61.336  1.00  0.00     0.096 C 
HETATM   26  C15 UNL     1       9.649  38.792  59.987  1.00  0.00     0.096 C 
HETATM   27 CL1  UNL     1       7.883  39.136  60.015  1.00  0.00    -0.124 Cl
HETATM   28  C16 UNL     1      10.311  39.990  59.367  1.00  0.00     0.034 C 
BRANCH  25  29
HETATM   29  C13 UNL     1       8.955  37.910  62.181  1.00  0.00     0.222 C 
HETATM   30  O2  UNL     1       8.853  38.380  63.336  1.00  0.00    -0.273 OA
HETATM   31  N4  UNL     1       7.992  36.967  61.758  1.00  0.00    -0.365 N 
HETATM   32  C14 UNL     1       6.899  36.586  62.660  1.00  0.00     0.149 C 
ATOM     33  H4  UNL     1       8.056  36.552  60.828  1.00  0.00     0.161 HD
ENDBRANCH  25  29
ENDBRANCH   6  22
TORSDOF 9
ENDMDL
MODEL 4
REMARK VINA RESULT: -8.318424874      0.587      1.333
REMARK  9 active torsions:
REMARK  status: ('A' for Active; 'I' for Inactive)
REMARK    1  A    between atoms: C2_2  and  C3_3 
REMARK    2  A    between atoms: C3_3  and  O1_4 
REMARK    3  A    between atoms: O1_4  and  N1_5 
REMARK    4  A    between atoms: N1_5  and  C4_6 
REMARK    5  A    between atoms: C4_6  and  C6_8 
REMARK    6  A    between atoms: C6_8  and  S1_9 
REMARK    7  A    between atoms: S1_9  and  C7_10 
REMARK    8  A    between atoms: C8_15  and  C9_16 
REMARK    9  A    between atoms: C12_19  and  C13_20 
REMARK       I    between atoms: C13_20  and  N4_22 
ROOT
HETATM    1  C7  UNL     1      12.648  41.167  59.843  1.00  0.00     0.204 A 
HETATM    2  N2  UNL     1      12.477  41.637  61.073  1.00  0.00    -0.272 N 
ATOM      3  H2  UNL     1      12.944  42.458  61.457  1.00  0.00     0.189 HD
HETATM    4  N3  UNL     1      11.629  40.897  61.713  1.00  0.00    -0.281 N 
ATOM      5  H3  UNL     1      11.322  41.034  62.676  1.00  0.00     0.189 HD
HETATM    6  C8  UNL     1      11.226  39.918  60.886  1.00  0.00     0.145 A 
HETATM    7  O3  UNL     1      11.873  40.107  59.744  1.00  0.00    -0.272 OA
ENDROOT
BRANCH   1   8
HETATM    8  S1  UNL     1      13.704  41.850  58.598  1.00  0.00    -0.067 SA
BRANCH   8   9
HETATM    9  C6  UNL     1      12.895  42.528  57.174  1.00  0.00     0.070 C 
HETATM   10  C17 UNL     1      13.611  42.298  55.853  1.00  0.00     0.028 C 
HETATM   11  C18 UNL     1      12.608  42.678  54.768  1.00  0.00     0.002 C 
HETATM   12  C19 UNL     1      12.227  44.123  54.819  1.00  0.00     0.000 C 
HETATM   13  C20 UNL     1      12.062  44.712  56.167  1.00  0.00     0.002 C 
HETATM   14  C21 UNL     1      12.734  44.011  57.292  1.00  0.00     0.028 C 
BRANCH   9  15
HETATM   15  C4  UNL     1      11.549  41.827  57.027  1.00  0.00     0.110 C 
HETATM   16  C5  UNL     1      11.609  40.530  56.253  1.00  0.00     0.084 C 
BRANCH  15  17
HETATM   17  N1  UNL     1      10.520  42.218  57.447  1.00  0.00    -0.289 NA
BRANCH  17  18
HETATM   18  O1  UNL     1       9.398  42.580  57.916  1.00  0.00    -0.209 OA
BRANCH  18  19
HETATM   19  C3  UNL     1       8.910  42.443  59.245  1.00  0.00     0.217 C 
BRANCH  19  20
HETATM   20  C2  UNL     1       7.459  42.797  59.417  1.00  0.00     0.025 C 
HETATM   21  C1  UNL     1       7.172  44.155  58.788  1.00  0.00     0.007 C 
ENDBRANCH  19  20
ENDBRANCH  18  19
ENDBRANCH  17  18
ENDBRANCH  15  17
ENDBRANCH   9  15
ENDBRANCH   8   9
ENDBRANCH   1   8
BRANCH   6  22
HETATM   22  C9  UNL     1      10.240  38.908  61.281  1.00  0.00     0.064 C 
HETATM   23  C10 UNL     1       9.831  39.064  62.733  1.00  0.00     0.014 C 
HETATM   24  C11 UNL     1       9.166  37.830  63.176  1.00  0.00     0.016 C 
HETATM   25  C12 UNL     1       8.416  37.030  62.169  1.00  0.00     0.096 C 
HETATM   26  C15 UNL     1       8.185  37.645  60.844  1.00  0.00     0.096 C 
HETATM   27 CL1  UNL     1       6.444  38.062  60.676  1.00  0.00    -0.124 Cl
HETATM   28  C16 UNL     1       8.960  38.886  60.499  1.00  0.00     0.034 C 
BRANCH  25  29
HETATM   29  C13 UNL     1       7.162  36.502  62.773  1.00  0.00     0.222 C 
HETATM   30  O2  UNL     1       6.520  35.641  62.130  1.00  0.00    -0.273 OA
HETATM   31  N4  UNL     1       6.653  36.914  64.024  1.00  0.00    -0.365 N 
HETATM   32  C14 UNL     1       5.417  36.316  64.543  1.00  0.00     0.149 C 
ATOM     33  H4  UNL     1       7.143  37.626  64.566  1.00  0.00     0.161 HD
ENDBRANCH  25  29
ENDBRANCH   6  22
TORSDOF 9
ENDMDL
MODEL 5
REMARK VINA RESULT: -8.257272366      1.238      1.678
REMARK  9 active torsions:
REMARK  status: ('A' for Active; 'I' for Inactive)
REMARK    1  A    between atoms: C2_2  and  C3_3 
REMARK    2  A    between atoms: C3_3  and  O1_4 
REMARK    3  A    between atoms: O1_4  and  N1_5 
REMARK    4  A    between atoms: N1_5  and  C4_6 
REMARK    5  A    between atoms: C4_6  and  C6_8 
REMARK    6  A    between atoms: C6_8  and  S1_9 
REMARK    7  A    between atoms: S1_9  and  C7_10 
REMARK    8  A    between atoms: C8_15  and  C9_16 
REMARK    9  A    between atoms: C12_19  and  C13_20 
REMARK       I    between atoms: C13_20  and  N4_22 
ROOT
HETATM    1  C7  UNL     1      12.359  41.425  60.236  1.00  0.00     0.204 A 
HETATM    2  N2  UNL     1      12.467  41.533  61.556  1.00  0.00    -0.272 N 
ATOM      3  H2  UNL     1      13.066  42.201  62.042  1.00  0.00     0.189 HD
HETATM    4  N3  UNL     1      11.701  40.665  62.133  1.00  0.00    -0.281 N 
ATOM      5  H3  UNL     1      11.597  40.532  63.138  1.00  0.00     0.189 HD
HETATM    6  C8  UNL     1      11.066  39.969  61.174  1.00  0.00     0.145 A 
HETATM    7  O3  UNL     1      11.495  40.457  60.017  1.00  0.00    -0.272 OA
ENDROOT
BRANCH   1   8
HETATM    8  S1  UNL     1      13.209  42.404  59.032  1.00  0.00    -0.067 SA
BRANCH   8   9
HETATM    9  C6  UNL     1      12.771  42.113  57.339  1.00  0.00     0.070 C 
HETATM   10  C17 UNL     1      12.443  40.670  56.995  1.00  0.00     0.028 C 
HETATM   11  C18 UNL     1      11.809  40.710  55.608  1.00  0.00     0.002 C 
HETATM   12  C19 UNL     1      12.751  41.212  54.560  1.00  0.00     0.000 C 
HETATM   13  C20 UNL     1      13.644  42.324  54.958  1.00  0.00     0.002 C 
HETATM   14  C21 UNL     1      13.878  42.507  56.413  1.00  0.00     0.028 C 
BRANCH   9  15
HETATM   15  C4  UNL     1      11.493  42.894  57.049  1.00  0.00     0.110 C 
HETATM   16  C5  UNL     1      10.230  42.206  57.516  1.00  0.00     0.084 C 
BRANCH  15  17
HETATM   17  N1  UNL     1      11.431  43.937  56.505  1.00  0.00    -0.289 NA
BRANCH  17  18
HETATM   18  O1  UNL     1      11.362  45.087  55.975  1.00  0.00    -0.209 OA
BRANCH  18  19
HETATM   19  C3  UNL     1      10.210  45.894  55.762  1.00  0.00     0.217 C 
BRANCH  19  20
HETATM   20  C2  UNL     1       8.959  45.124  55.440  1.00  0.00     0.025 C 
HETATM   21  C1  UNL     1       7.846  45.501  56.411  1.00  0.00     0.007 C 
ENDBRANCH  19  20
ENDBRANCH  18  19
ENDBRANCH  17  18
ENDBRANCH  15  17
ENDBRANCH   9  15
ENDBRANCH   8   9
ENDBRANCH   1   8
BRANCH   6  22
HETATM   22  C9  UNL     1      10.094  38.914  61.477  1.00  0.00     0.064 C 
HETATM   23  C10 UNL     1       9.648  38.965  62.925  1.00  0.00     0.014 C 
HETATM   24  C11 UNL     1       9.001  37.690  63.269  1.00  0.00     0.016 C 
HETATM   25  C12 UNL     1       8.294  36.943  62.192  1.00  0.00     0.096 C 
HETATM   26  C15 UNL     1       8.081  37.639  60.906  1.00  0.00     0.096 C 
HETATM   27 CL1  UNL     1       6.334  38.029  60.721  1.00  0.00    -0.124 Cl
HETATM   28  C16 UNL     1       8.835  38.917  60.663  1.00  0.00     0.034 C 
BRANCH  25  29
HETATM   29  C13 UNL     1       7.038  36.349  62.728  1.00  0.00     0.222 C 
HETATM   30  O2  UNL     1       6.506  35.421  62.079  1.00  0.00    -0.273 OA
HETATM   31  N4  UNL     1       6.412  36.770  63.922  1.00  0.00    -0.365 N 
HETATM   32  C14 UNL     1       5.186  36.104  64.377  1.00  0.00     0.149 C 
ATOM     33  H4  UNL     1       6.811  37.535  64.467  1.00  0.00     0.161 HD
ENDBRANCH  25  29
ENDBRANCH   6  22
TORSDOF 9
ENDMDL
