MODEL 1
REMARK VINA RESULT: -9.436267758      0.000      0.000
REMARK  15 active torsions:
REMARK  status: ('A' for Active; 'I' for Inactive)
REMARK    1  A    between atoms: C2_2  and  N1_3 
REMARK    2  A    between atoms: C2_2  and  N14_48 
REMARK    3  A    between atoms: N1_3  and  C3_5 
REMARK    4  A    between atoms: C4_8  and  N3_9 
REMARK    5  A    between atoms: C7_16  and  C8_17 
REMARK    6  A    between atoms: C8_17  and  O2_19 
REMARK    7  A    between atoms: O2_19  and  C9_20 
REMARK    8  A    between atoms: C9_20  and  C10_21 
REMARK    9  A    between atoms: C10_21  and  C11_22 
REMARK   10  A    between atoms: C11_22  and  N5_23 
REMARK   11  A    between atoms: C13_25  and  C14_26 
REMARK   12  A    between atoms: C14_26  and  N6_27 
REMARK   13  A    between atoms: C14_26  and  O3_31 
REMARK   14  A    between atoms: N10_39  and  C15_40 
REMARK   15  A    between atoms: C16_43  and  N13_44 
REMARK       I    between atoms: N14_48  and  C17_50 
ROOT
HETATM    1  C3  UNL     1      68.254  57.608  39.650  1.00  0.00     0.139 A 
HETATM    2  N2  UNL     1      67.453  56.663  39.065  1.00  0.00    -0.176 N 
ATOM      3  H2  UNL     1      67.670  56.359  38.115  1.00  0.00     0.186 HD
HETATM    4  C4  UNL     1      66.404  56.125  39.685  1.00  0.00     0.679 A 
HETATM    5  N4  UNL     1      66.084  56.494  40.925  1.00  0.00    -0.174 N 
ATOM      6  H4  UNL     1      65.277  56.071  41.384  1.00  0.00     0.186 HD
HETATM    7  C5  UNL     1      66.803  57.404  41.569  1.00  0.00     0.156 A 
HETATM    8  C6  UNL     1      67.910  57.988  40.946  1.00  0.00     0.089 A 
HETATM    9  C7  UNL     1      68.426  58.868  41.833  1.00  0.00     0.141 A 
HETATM   10  N9  UNL     1      67.626  58.788  42.955  1.00  0.00    -0.289 N 
ATOM     11  H9  UNL     1      67.770  59.338  43.802  1.00  0.00     0.187 HD
HETATM   12  N10 UNL     1      66.672  57.927  42.799  1.00  0.00    -0.249 N 
ENDROOT
BRANCH   9  13
HETATM   13  C8  UNL     1      69.535  59.781  41.707  1.00  0.00     0.312 C 
HETATM   14  O1  UNL     1      69.502  60.930  41.321  1.00  0.00    -0.258 OA
BRANCH  13  15
HETATM   15  O2  UNL     1      70.816  59.298  42.073  1.00  0.00    -0.316 OA
BRANCH  15  16
HETATM   16  C9  UNL     1      71.341  59.660  43.332  1.00  0.00     0.180 C 
BRANCH  16  17
HETATM   17  C10 UNL     1      71.832  58.423  44.022  1.00  0.00     0.048 C 
BRANCH  17  18
HETATM   18  C11 UNL     1      70.832  58.004  45.105  1.00  0.00     0.152 C 
BRANCH  18  19
HETATM   19  N5  UNL     1      71.590  57.681  46.318  1.00  0.00    -0.287 N 
HETATM   20  C12 UNL     1      71.466  58.299  47.503  1.00  0.00     0.142 A 
HETATM   21  C13 UNL     1      72.351  57.693  48.360  1.00  0.00     0.099 A 
HETATM   22  N7  UNL     1      72.961  56.737  47.634  1.00  0.00    -0.285 N 
HETATM   23  N8  UNL     1      72.514  56.719  46.406  1.00  0.00    -0.241 N 
ATOM     24  H7  UNL     1      73.679  56.109  47.996  1.00  0.00     0.188 HD
ATOM     25  H8  UNL     1      72.812  56.092  45.659  1.00  0.00     0.208 HD
BRANCH  21  26
HETATM   26  C14 UNL     1      72.611  57.995  49.783  1.00  0.00     0.370 C 
BRANCH  26  27
HETATM   27  N6  UNL     1      73.890  57.424  50.138  1.00  0.00    -0.047 N 
ATOM     28  H63 UNL     1      74.546  57.409  49.357  1.00  0.00     0.277 HD
ATOM     29  H62 UNL     1      74.431  58.025  50.760  1.00  0.00     0.277 HD
ATOM     30  H61 UNL     1      73.725  56.497  50.531  1.00  0.00     0.277 HD
ENDBRANCH  26  27
BRANCH  26  31
HETATM   31  O3  UNL     1      71.615  57.416  50.573  1.00  0.00    -0.365 OA
ATOM     32  H3  UNL     1      71.971  56.665  51.033  1.00  0.00     0.212 HD
ENDBRANCH  26  31
ENDBRANCH  21  26
ENDBRANCH  18  19
ENDBRANCH  17  18
ENDBRANCH  16  17
ENDBRANCH  15  16
ENDBRANCH  13  15
ENDBRANCH   9  13
BRANCH   1  33
HETATM   33  N1  UNL     1      69.346  58.106  38.943  1.00  0.00    -0.331 N 
ATOM     34  H1  UNL     1      70.232  57.619  39.084  1.00  0.00     0.168 HD
BRANCH  33  35
HETATM   35  C2  UNL     1      69.375  59.115  38.127  1.00  0.00     0.082 C 
HETATM   36  C1  UNL     1      70.392  60.169  38.147  1.00  0.00     0.089 C 
BRANCH  35  37
HETATM   37  N14 UNL     1      68.334  59.149  37.170  1.00  0.00    -0.301 N 
HETATM   38  C17 UNL     1      68.180  58.187  36.154  1.00  0.00     0.334 C 
HETATM   39  N15 UNL     1      67.084  58.303  35.210  1.00  0.00    -0.040 NA
HETATM   40  O4  UNL     1      68.978  57.235  36.056  1.00  0.00    -0.251 OA
ATOM     41  H14 UNL     1      67.659  59.911  37.219  1.00  0.00     0.171 HD
ENDBRANCH  35  37
ENDBRANCH  33  35
ENDBRANCH   1  33
BRANCH  12  42
HETATM   42  C15 UNL     1      65.647  57.589  43.779  1.00  0.00     0.266 C 
HETATM   43  N11 UNL     1      65.750  58.312  45.018  1.00  0.00    -0.115 NA
HETATM   44  N12 UNL     1      65.343  57.132  45.677  1.00  0.00    -0.109 NA
HETATM   45  C16 UNL     1      66.021  56.395  44.620  1.00  0.00     0.333 C 
BRANCH  45  46
HETATM   46  N13 UNL     1      67.438  56.303  44.938  1.00  0.00    -0.057 N 
ATOM     47 3H13 UNL     1      67.740  55.330  44.935  1.00  0.00     0.276 HD
ATOM     48 2H13 UNL     1      67.999  56.663  44.166  1.00  0.00     0.276 HD
ATOM     49 1H13 UNL     1      67.703  56.756  45.812  1.00  0.00     0.276 HD
ENDBRANCH  45  46
ENDBRANCH  12  42
BRANCH   4  50
HETATM   50  N3  UNL     1      65.711  55.230  39.028  1.00  0.00    -0.234 N 
ATOM     51  H32 UNL     1      64.692  55.199  39.071  1.00  0.00     0.174 HD
ATOM     52  H31 UNL     1      66.230  54.557  38.465  1.00  0.00     0.174 HD
ENDBRANCH   4  50
TORSDOF 15
ENDMDL
MODEL 2
REMARK VINA RESULT: -9.147338074      1.286      1.361
REMARK  15 active torsions:
REMARK  status: ('A' for Active; 'I' for Inactive)
REMARK    1  A    between atoms: C2_2  and  N1_3 
REMARK    2  A    between atoms: C2_2  and  N14_48 
REMARK    3  A    between atoms: N1_3  and  C3_5 
REMARK    4  A    between atoms: C4_8  and  N3_9 
REMARK    5  A    between atoms: C7_16  and  C8_17 
REMARK    6  A    between atoms: C8_17  and  O2_19 
REMARK    7  A    between atoms: O2_19  and  C9_20 
REMARK    8  A    between atoms: C9_20  and  C10_21 
REMARK    9  A    between atoms: C10_21  and  C11_22 
REMARK   10  A    between atoms: C11_22  and  N5_23 
REMARK   11  A    between atoms: C13_25  and  C14_26 
REMARK   12  A    between atoms: C14_26  and  N6_27 
REMARK   13  A    between atoms: C14_26  and  O3_31 
REMARK   14  A    between atoms: N10_39  and  C15_40 
REMARK   15  A    between atoms: C16_43  and  N13_44 
REMARK       I    between atoms: N14_48  and  C17_50 
ROOT
HETATM    1  C3  UNL     1      68.351  57.532  39.719  1.00  0.00     0.139 A 
HETATM    2  N2  UNL     1      67.681  56.454  39.205  1.00  0.00    -0.176 N 
ATOM      3  H2  UNL     1      67.967  56.089  38.295  1.00  0.00     0.186 HD
HETATM    4  C4  UNL     1      66.673  55.861  39.843  1.00  0.00     0.679 A 
HETATM    5  N4  UNL     1      66.267  56.304  41.032  1.00  0.00    -0.174 N 
ATOM      6  H4  UNL     1      65.493  55.838  41.506  1.00  0.00     0.186 HD
HETATM    7  C5  UNL     1      66.856  57.344  41.607  1.00  0.00     0.156 A 
HETATM    8  C6  UNL     1      67.917  57.989  40.962  1.00  0.00     0.089 A 
HETATM    9  C7  UNL     1      68.299  59.000  41.775  1.00  0.00     0.141 A 
HETATM   10  N9  UNL     1      67.469  58.934  42.877  1.00  0.00    -0.289 N 
ATOM     11  H9  UNL     1      67.518  59.572  43.671  1.00  0.00     0.187 HD
HETATM   12  N10 UNL     1      66.621  57.961  42.777  1.00  0.00    -0.249 N 
ENDROOT
BRANCH   9  13
HETATM   13  C8  UNL     1      69.305  60.016  41.595  1.00  0.00     0.312 C 
HETATM   14  O1  UNL     1      69.132  61.208  41.465  1.00  0.00    -0.258 OA
BRANCH  13  15
HETATM   15  O2  UNL     1      70.656  59.590  41.563  1.00  0.00    -0.316 OA
BRANCH  15  16
HETATM   16  C9  UNL     1      71.540  60.069  42.553  1.00  0.00     0.180 C 
BRANCH  16  17
HETATM   17  C10 UNL     1      71.197  59.417  43.859  1.00  0.00     0.048 C 
BRANCH  17  18
HETATM   18  C11 UNL     1      71.700  57.970  43.862  1.00  0.00     0.152 C 
BRANCH  18  19
HETATM   19  N5  UNL     1      72.116  57.639  45.229  1.00  0.00    -0.287 N 
HETATM   20  C12 UNL     1      72.817  56.552  45.589  1.00  0.00     0.142 A 
HETATM   21  C13 UNL     1      72.991  56.626  46.949  1.00  0.00     0.099 A 
HETATM   22  N7  UNL     1      72.380  57.763  47.331  1.00  0.00    -0.285 N 
HETATM   23  N8  UNL     1      71.849  58.381  46.307  1.00  0.00    -0.241 N 
ATOM     24  H7  UNL     1      72.336  58.099  48.292  1.00  0.00     0.188 HD
ATOM     25  H8  UNL     1      71.332  59.260  46.329  1.00  0.00     0.208 HD
BRANCH  21  26
HETATM   26  C14 UNL     1      73.693  55.681  47.842  1.00  0.00     0.370 C 
BRANCH  26  27
HETATM   27  N6  UNL     1      75.026  56.188  48.074  1.00  0.00    -0.047 N 
ATOM     28  H63 UNL     1      75.652  55.484  48.467  1.00  0.00     0.277 HD
ATOM     29  H62 UNL     1      75.539  56.359  47.209  1.00  0.00     0.277 HD
ATOM     30  H61 UNL     1      74.952  57.020  48.659  1.00  0.00     0.277 HD
ENDBRANCH  26  27
BRANCH  26  31
HETATM   31  O3  UNL     1      73.778  54.431  47.225  1.00  0.00    -0.365 OA
ATOM     32  H3  UNL     1      73.917  53.761  47.884  1.00  0.00     0.212 HD
ENDBRANCH  26  31
ENDBRANCH  21  26
ENDBRANCH  18  19
ENDBRANCH  17  18
ENDBRANCH  16  17
ENDBRANCH  15  16
ENDBRANCH  13  15
ENDBRANCH   9  13
BRANCH   1  33
HETATM   33  N1  UNL     1      69.409  58.083  38.999  1.00  0.00    -0.331 N 
ATOM     34  H1  UNL     1      70.326  57.668  39.163  1.00  0.00     0.168 HD
BRANCH  33  35
HETATM   35  C2  UNL     1      69.370  59.059  38.145  1.00  0.00     0.082 C 
HETATM   36  C1  UNL     1      70.366  60.130  38.065  1.00  0.00     0.089 C 
BRANCH  35  37
HETATM   37  N14 UNL     1      68.274  59.038  37.252  1.00  0.00    -0.301 N 
HETATM   38  C17 UNL     1      68.181  58.163  36.154  1.00  0.00     0.334 C 
HETATM   39  N15 UNL     1      67.020  58.214  35.285  1.00  0.00    -0.040 NA
HETATM   40  O4  UNL     1      69.089  57.342  35.921  1.00  0.00    -0.251 OA
ATOM     41  H14 UNL     1      67.508  59.694  37.412  1.00  0.00     0.171 HD
ENDBRANCH  35  37
ENDBRANCH  33  35
ENDBRANCH   1  33
BRANCH  12  42
HETATM   42  C15 UNL     1      65.602  57.602  43.754  1.00  0.00     0.266 C 
HETATM   43  N11 UNL     1      65.679  58.335  44.989  1.00  0.00    -0.115 NA
HETATM   44  N12 UNL     1      65.302  57.149  45.654  1.00  0.00    -0.109 NA
HETATM   45  C16 UNL     1      66.005  56.424  44.605  1.00  0.00     0.333 C 
BRANCH  45  46
HETATM   46  N13 UNL     1      67.422  56.373  44.930  1.00  0.00    -0.057 N 
ATOM     47 3H13 UNL     1      67.964  56.888  44.237  1.00  0.00     0.276 HD
ATOM     48 2H13 UNL     1      67.616  56.937  45.758  1.00  0.00     0.276 HD
ATOM     49 1H13 UNL     1      67.794  55.431  45.045  1.00  0.00     0.276 HD
ENDBRANCH  45  46
ENDBRANCH  12  42
BRANCH   4  50
HETATM   50  N3  UNL     1      66.108  54.837  39.256  1.00  0.00    -0.234 N 
ATOM     51  H32 UNL     1      66.655  54.112  38.792  1.00  0.00     0.174 HD
ATOM     52  H31 UNL     1      65.090  54.788  39.278  1.00  0.00     0.174 HD
ENDBRANCH   4  50
TORSDOF 15
ENDMDL
MODEL 3
REMARK VINA RESULT: -9.138487993      2.015      2.828
REMARK  15 active torsions:
REMARK  status: ('A' for Active; 'I' for Inactive)
REMARK    1  A    between atoms: C2_2  and  N1_3 
REMARK    2  A    between atoms: C2_2  and  N14_48 
REMARK    3  A    between atoms: N1_3  and  C3_5 
REMARK    4  A    between atoms: C4_8  and  N3_9 
REMARK    5  A    between atoms: C7_16  and  C8_17 
REMARK    6  A    between atoms: C8_17  and  O2_19 
REMARK    7  A    between atoms: O2_19  and  C9_20 
REMARK    8  A    between atoms: C9_20  and  C10_21 
REMARK    9  A    between atoms: C10_21  and  C11_22 
REMARK   10  A    between atoms: C11_22  and  N5_23 
REMARK   11  A    between atoms: C13_25  and  C14_26 
REMARK   12  A    between atoms: C14_26  and  N6_27 
REMARK   13  A    between atoms: C14_26  and  O3_31 
REMARK   14  A    between atoms: N10_39  and  C15_40 
REMARK   15  A    between atoms: C16_43  and  N13_44 
REMARK       I    between atoms: N14_48  and  C17_50 
ROOT
HETATM    1  C3  UNL     1      66.966  56.395  39.425  1.00  0.00     0.139 A 
HETATM    2  N2  UNL     1      66.275  55.213  39.402  1.00  0.00    -0.176 N 
ATOM      3  H2  UNL     1      66.296  54.650  38.552  1.00  0.00     0.186 HD
HETATM    4  C4  UNL     1      65.577  54.767  40.446  1.00  0.00     0.679 A 
HETATM    5  N4  UNL     1      65.520  55.471  41.577  1.00  0.00    -0.174 N 
ATOM      6  H4  UNL     1      64.981  55.114  42.365  1.00  0.00     0.186 HD
HETATM    7  C5  UNL     1      66.158  56.628  41.689  1.00  0.00     0.156 A 
HETATM    8  C6  UNL     1      66.899  57.123  40.611  1.00  0.00     0.089 A 
HETATM    9  C7  UNL     1      67.417  58.305  41.016  1.00  0.00     0.141 A 
HETATM   10  N9  UNL     1      66.982  58.484  42.314  1.00  0.00    -0.289 N 
ATOM     11  H9  UNL     1      67.215  59.293  42.891  1.00  0.00     0.187 HD
HETATM   12  N10 UNL     1      66.241  57.498  42.708  1.00  0.00    -0.249 N 
ENDROOT
BRANCH   9  13
HETATM   13  C8  UNL     1      68.217  59.270  40.303  1.00  0.00     0.312 C 
HETATM   14  O1  UNL     1      67.823  60.168  39.591  1.00  0.00    -0.258 OA
BRANCH  13  15
HETATM   15  O2  UNL     1      69.624  59.171  40.439  1.00  0.00    -0.316 OA
BRANCH  15  16
HETATM   16  C9  UNL     1      70.428  60.202  39.910  1.00  0.00     0.180 C 
BRANCH  16  17
HETATM   17  C10 UNL     1      71.448  60.593  40.937  1.00  0.00     0.048 C 
BRANCH  17  18
HETATM   18  C11 UNL     1      70.771  60.750  42.302  1.00  0.00     0.152 C 
BRANCH  18  19
HETATM   19  N5  UNL     1      71.388  59.791  43.225  1.00  0.00    -0.287 N 
HETATM   20  C12 UNL     1      70.727  58.892  43.971  1.00  0.00     0.142 A 
HETATM   21  C13 UNL     1      71.673  58.199  44.687  1.00  0.00     0.099 A 
HETATM   22  N7  UNL     1      72.858  58.727  44.325  1.00  0.00    -0.285 N 
HETATM   23  N8  UNL     1      72.701  59.684  43.448  1.00  0.00    -0.241 N 
ATOM     24  H7  UNL     1      73.760  58.420  44.688  1.00  0.00     0.188 HD
ATOM     25  H8  UNL     1      73.439  60.242  43.018  1.00  0.00     0.208 HD
BRANCH  21  26
HETATM   26  C14 UNL     1      71.476  57.102  45.656  1.00  0.00     0.370 C 
BRANCH  26  27
HETATM   27  N6  UNL     1      72.757  56.479  45.897  1.00  0.00    -0.047 N 
ATOM     28  H63 UNL     1      73.447  56.706  45.180  1.00  0.00     0.277 HD
ATOM     29  H62 UNL     1      73.249  56.885  46.693  1.00  0.00     0.277 HD
ATOM     30  H61 UNL     1      72.608  55.475  45.997  1.00  0.00     0.277 HD
ENDBRANCH  26  27
BRANCH  26  31
HETATM   31  O3  UNL     1      70.599  56.156  45.120  1.00  0.00    -0.365 OA
ATOM     32  H3  UNL     1      70.937  55.283  45.280  1.00  0.00     0.212 HD
ENDBRANCH  26  31
ENDBRANCH  21  26
ENDBRANCH  18  19
ENDBRANCH  17  18
ENDBRANCH  16  17
ENDBRANCH  15  16
ENDBRANCH  13  15
ENDBRANCH   9  13
BRANCH   1  33
HETATM   33  N1  UNL     1      67.691  56.781  38.299  1.00  0.00    -0.331 N 
ATOM     34  H1  UNL     1      67.214  57.411  37.654  1.00  0.00     0.168 HD
BRANCH  33  35
HETATM   35  C2  UNL     1      68.898  56.437  37.971  1.00  0.00     0.082 C 
HETATM   36  C1  UNL     1      69.390  55.057  37.951  1.00  0.00     0.089 C 
BRANCH  35  37
HETATM   37  N14 UNL     1      69.755  57.503  37.613  1.00  0.00    -0.301 N 
HETATM   38  C17 UNL     1      69.529  58.346  36.509  1.00  0.00     0.334 C 
HETATM   39  N15 UNL     1      70.465  59.414  36.212  1.00  0.00    -0.040 NA
HETATM   40  O4  UNL     1      68.530  58.184  35.783  1.00  0.00    -0.251 OA
ATOM     41  H14 UNL     1      70.583  57.670  38.186  1.00  0.00     0.171 HD
ENDBRANCH  35  37
ENDBRANCH  33  35
ENDBRANCH   1  33
BRANCH  12  42
HETATM   42  C15 UNL     1      65.616  57.360  44.017  1.00  0.00     0.266 C 
HETATM   43  N11 UNL     1      65.970  58.390  44.956  1.00  0.00    -0.115 NA
HETATM   44  N12 UNL     1      65.959  57.401  45.962  1.00  0.00    -0.109 NA
HETATM   45  C16 UNL     1      66.398  56.461  44.941  1.00  0.00     0.333 C 
BRANCH  45  46
HETATM   46  N13 UNL     1      67.842  56.558  44.794  1.00  0.00    -0.057 N 
ATOM     47 3H13 UNL     1      68.085  57.331  44.175  1.00  0.00     0.276 HD
ATOM     48 2H13 UNL     1      68.265  56.889  45.662  1.00  0.00     0.276 HD
ATOM     49 1H13 UNL     1      68.293  55.698  44.484  1.00  0.00     0.276 HD
ENDBRANCH  45  46
ENDBRANCH  12  42
BRANCH   4  50
HETATM   50  N3  UNL     1      64.957  53.623  40.311  1.00  0.00    -0.234 N 
ATOM     51  H32 UNL     1      65.185  52.971  39.560  1.00  0.00     0.174 HD
ATOM     52  H31 UNL     1      64.229  53.401  40.990  1.00  0.00     0.174 HD
ENDBRANCH   4  50
TORSDOF 15
ENDMDL
MODEL 4
REMARK VINA RESULT: -9.100588749      2.130      2.843
REMARK  15 active torsions:
REMARK  status: ('A' for Active; 'I' for Inactive)
REMARK    1  A    between atoms: C2_2  and  N1_3 
REMARK    2  A    between atoms: C2_2  and  N14_48 
REMARK    3  A    between atoms: N1_3  and  C3_5 
REMARK    4  A    between atoms: C4_8  and  N3_9 
REMARK    5  A    between atoms: C7_16  and  C8_17 
REMARK    6  A    between atoms: C8_17  and  O2_19 
REMARK    7  A    between atoms: O2_19  and  C9_20 
REMARK    8  A    between atoms: C9_20  and  C10_21 
REMARK    9  A    between atoms: C10_21  and  C11_22 
REMARK   10  A    between atoms: C11_22  and  N5_23 
REMARK   11  A    between atoms: C13_25  and  C14_26 
REMARK   12  A    between atoms: C14_26  and  N6_27 
REMARK   13  A    between atoms: C14_26  and  O3_31 
REMARK   14  A    between atoms: N10_39  and  C15_40 
REMARK   15  A    between atoms: C16_43  and  N13_44 
REMARK       I    between atoms: N14_48  and  C17_50 
ROOT
HETATM    1  C3  UNL     1      68.458  56.344  39.388  1.00  0.00     0.139 A 
HETATM    2  N2  UNL     1      68.079  55.028  39.341  1.00  0.00    -0.176 N 
ATOM      3  H2  UNL     1      68.447  54.439  38.593  1.00  0.00     0.186 HD
HETATM    4  C4  UNL     1      67.250  54.485  40.232  1.00  0.00     0.679 A 
HETATM    5  N4  UNL     1      66.746  55.217  41.225  1.00  0.00    -0.174 N 
ATOM      6  H4  UNL     1      66.113  54.785  41.898  1.00  0.00     0.186 HD
HETATM    7  C5  UNL     1      67.056  56.501  41.348  1.00  0.00     0.156 A 
HETATM    8  C6  UNL     1      67.923  57.100  40.428  1.00  0.00     0.089 A 
HETATM    9  C7  UNL     1      68.040  58.394  40.803  1.00  0.00     0.141 A 
HETATM   10  N9  UNL     1      67.253  58.535  41.928  1.00  0.00    -0.289 N 
ATOM     11  H9  UNL     1      67.141  59.409  42.444  1.00  0.00     0.187 HD
HETATM   12  N10 UNL     1      66.674  57.422  42.247  1.00  0.00    -0.249 N 
ENDROOT
BRANCH   9  13
HETATM   13  C8  UNL     1      68.761  59.483  40.192  1.00  0.00     0.312 C 
HETATM   14  O1  UNL     1      68.296  60.477  39.678  1.00  0.00    -0.258 OA
BRANCH  13  15
HETATM   15  O2  UNL     1      70.176  59.398  40.184  1.00  0.00    -0.316 OA
BRANCH  15  16
HETATM   16  C9  UNL     1      70.922  60.570  39.938  1.00  0.00     0.180 C 
BRANCH  16  17
HETATM   17  C10 UNL     1      71.811  60.831  41.117  1.00  0.00     0.048 C 
BRANCH  17  18
HETATM   18  C11 UNL     1      70.980  60.809  42.404  1.00  0.00     0.152 C 
BRANCH  18  19
HETATM   19  N5  UNL     1      71.557  59.798  43.297  1.00  0.00    -0.287 N 
HETATM   20  C12 UNL     1      70.860  58.943  44.062  1.00  0.00     0.142 A 
HETATM   21  C13 UNL     1      71.778  58.176  44.736  1.00  0.00     0.099 A 
HETATM   22  N7  UNL     1      72.984  58.617  44.333  1.00  0.00    -0.285 N 
HETATM   23  N8  UNL     1      72.867  59.592  43.469  1.00  0.00    -0.241 N 
ATOM     24  H7  UNL     1      73.874  58.241  44.660  1.00  0.00     0.188 HD
ATOM     25  H8  UNL     1      73.627  60.097  43.015  1.00  0.00     0.208 HD
BRANCH  21  26
HETATM   26  C14 UNL     1      71.535  57.088  45.706  1.00  0.00     0.370 C 
BRANCH  26  27
HETATM   27  N6  UNL     1      72.786  56.398  45.929  1.00  0.00    -0.047 N 
ATOM     28  H63 UNL     1      73.205  56.052  45.065  1.00  0.00     0.277 HD
ATOM     29  H62 UNL     1      73.539  57.027  46.205  1.00  0.00     0.277 HD
ATOM     30  H61 UNL     1      72.622  55.657  46.611  1.00  0.00     0.277 HD
ENDBRANCH  26  27
BRANCH  26  31
HETATM   31  O3  UNL     1      70.604  56.190  45.178  1.00  0.00    -0.365 OA
ATOM     32  H3  UNL     1      70.612  55.388  45.687  1.00  0.00     0.212 HD
ENDBRANCH  26  31
ENDBRANCH  21  26
ENDBRANCH  18  19
ENDBRANCH  17  18
ENDBRANCH  16  17
ENDBRANCH  15  16
ENDBRANCH  13  15
ENDBRANCH   9  13
BRANCH   1  33
HETATM   33  N1  UNL     1      69.346  56.830  38.431  1.00  0.00    -0.331 N 
ATOM     34  H1  UNL     1      70.325  56.880  38.711  1.00  0.00     0.168 HD
BRANCH  33  35
HETATM   35  C2  UNL     1      69.079  57.228  37.225  1.00  0.00     0.082 C 
HETATM   36  C1  UNL     1      68.009  58.168  36.880  1.00  0.00     0.089 C 
BRANCH  35  37
HETATM   37  N14 UNL     1      69.909  56.692  36.212  1.00  0.00    -0.301 N 
HETATM   38  C17 UNL     1      69.898  55.337  35.835  1.00  0.00     0.334 C 
HETATM   39  N15 UNL     1      70.788  54.872  34.787  1.00  0.00    -0.040 NA
HETATM   40  O4  UNL     1      69.129  54.530  36.392  1.00  0.00    -0.251 OA
ATOM     41  H14 UNL     1      70.549  57.323  35.730  1.00  0.00     0.171 HD
ENDBRANCH  35  37
ENDBRANCH  33  35
ENDBRANCH   1  33
BRANCH  12  42
HETATM   42  C15 UNL     1      65.776  57.210  43.376  1.00  0.00     0.266 C 
HETATM   43  N11 UNL     1      65.653  58.340  44.256  1.00  0.00    -0.115 NA
HETATM   44  N12 UNL     1      65.591  57.427  45.330  1.00  0.00    -0.109 NA
HETATM   45  C16 UNL     1      66.465  56.562  44.550  1.00  0.00     0.333 C 
BRANCH  45  46
HETATM   46  N13 UNL     1      67.844  56.981  44.744  1.00  0.00    -0.057 N 
ATOM     47 3H13 UNL     1      68.358  56.933  43.864  1.00  0.00     0.276 HD
ATOM     48 2H13 UNL     1      67.890  57.985  44.918  1.00  0.00     0.276 HD
ATOM     49 1H13 UNL     1      68.341  56.471  45.474  1.00  0.00     0.276 HD
ENDBRANCH  45  46
ENDBRANCH  12  42
BRANCH   4  50
HETATM   50  N3  UNL     1      66.959  53.218  40.089  1.00  0.00    -0.234 N 
ATOM     51  H32 UNL     1      67.442  52.626  39.413  1.00  0.00     0.174 HD
ATOM     52  H31 UNL     1      66.224  52.836  40.683  1.00  0.00     0.174 HD
ENDBRANCH   4  50
TORSDOF 15
ENDMDL
MODEL 5
REMARK VINA RESULT: -9.016716514      1.537      1.809
REMARK  15 active torsions:
REMARK  status: ('A' for Active; 'I' for Inactive)
REMARK    1  A    between atoms: C2_2  and  N1_3 
REMARK    2  A    between atoms: C2_2  and  N14_48 
REMARK    3  A    between atoms: N1_3  and  C3_5 
REMARK    4  A    between atoms: C4_8  and  N3_9 
REMARK    5  A    between atoms: C7_16  and  C8_17 
REMARK    6  A    between atoms: C8_17  and  O2_19 
REMARK    7  A    between atoms: O2_19  and  C9_20 
REMARK    8  A    between atoms: C9_20  and  C10_21 
REMARK    9  A    between atoms: C10_21  and  C11_22 
REMARK   10  A    between atoms: C11_22  and  N5_23 
REMARK   11  A    between atoms: C13_25  and  C14_26 
REMARK   12  A    between atoms: C14_26  and  N6_27 
REMARK   13  A    between atoms: C14_26  and  O3_31 
REMARK   14  A    between atoms: N10_39  and  C15_40 
REMARK   15  A    between atoms: C16_43  and  N13_44 
REMARK       I    between atoms: N14_48  and  C17_50 
ROOT
HETATM    1  C3  UNL     1      68.463  57.335  39.374  1.00  0.00     0.139 A 
HETATM    2  N2  UNL     1      67.912  56.117  39.075  1.00  0.00    -0.176 N 
ATOM      3  H2  UNL     1      68.204  55.645  38.218  1.00  0.00     0.186 HD
HETATM    4  C4  UNL     1      67.012  55.522  39.857  1.00  0.00     0.679 A 
HETATM    5  N4  UNL     1      66.602  56.102  40.984  1.00  0.00    -0.174 N 
ATOM      6  H4  UNL     1      65.911  55.632  41.570  1.00  0.00     0.186 HD
HETATM    7  C5  UNL     1      67.080  57.283  41.354  1.00  0.00     0.156 A 
HETATM    8  C6  UNL     1      68.026  57.933  40.554  1.00  0.00     0.089 A 
HETATM    9  C7  UNL     1      68.312  59.100  41.176  1.00  0.00     0.141 A 
HETATM   10  N9  UNL     1      67.542  59.117  42.321  1.00  0.00    -0.289 N 
ATOM     11  H9  UNL     1      67.543  59.877  43.002  1.00  0.00     0.187 HD
HETATM   12  N10 UNL     1      66.818  58.049  42.425  1.00  0.00    -0.249 N 
ENDROOT
BRANCH   9  13
HETATM   13  C8  UNL     1      69.177  60.183  40.779  1.00  0.00     0.312 C 
HETATM   14  O1  UNL     1      69.274  60.682  39.680  1.00  0.00    -0.258 OA
BRANCH  13  15
HETATM   15  O2  UNL     1      70.016  60.739  41.777  1.00  0.00    -0.316 OA
BRANCH  15  16
HETATM   16  C9  UNL     1      71.239  60.099  42.066  1.00  0.00     0.180 C 
BRANCH  16  17
HETATM   17  C10 UNL     1      71.228  59.664  43.501  1.00  0.00     0.048 C 
BRANCH  17  18
HETATM   18  C11 UNL     1      71.201  58.135  43.578  1.00  0.00     0.152 C 
BRANCH  18  19
HETATM   19  N5  UNL     1      71.683  57.741  44.906  1.00  0.00    -0.287 N 
HETATM   20  C12 UNL     1      71.315  58.303  46.068  1.00  0.00     0.142 A 
HETATM   21  C13 UNL     1      71.996  57.642  47.061  1.00  0.00     0.099 A 
HETATM   22  N7  UNL     1      72.740  56.713  46.432  1.00  0.00    -0.285 N 
HETATM   23  N8  UNL     1      72.562  56.761  45.137  1.00  0.00    -0.241 N 
ATOM     24  H7  UNL     1      73.362  56.057  46.904  1.00  0.00     0.188 HD
ATOM     25  H8  UNL     1      73.008  56.166  44.440  1.00  0.00     0.208 HD
BRANCH  21  26
HETATM   26  C14 UNL     1      71.951  57.871  48.520  1.00  0.00     0.370 C 
BRANCH  26  27
HETATM   27  N6  UNL     1      71.224  59.097  48.760  1.00  0.00    -0.047 N 
ATOM     28  H63 UNL     1      71.756  59.767  49.317  1.00  0.00     0.277 HD
ATOM     29  H62 UNL     1      71.123  59.666  47.920  1.00  0.00     0.277 HD
ATOM     30  H61 UNL     1      70.328  58.856  49.184  1.00  0.00     0.277 HD
ENDBRANCH  26  27
BRANCH  26  31
HETATM   31  O3  UNL     1      73.251  58.004  49.012  1.00  0.00    -0.365 OA
ATOM     32  H3  UNL     1      73.263  58.654  49.705  1.00  0.00     0.212 HD
ENDBRANCH  26  31
ENDBRANCH  21  26
ENDBRANCH  18  19
ENDBRANCH  17  18
ENDBRANCH  16  17
ENDBRANCH  15  16
ENDBRANCH  13  15
ENDBRANCH   9  13
BRANCH   1  33
HETATM   33  N1  UNL     1      69.415  57.880  38.516  1.00  0.00    -0.331 N 
ATOM     34  H1  UNL     1      70.190  58.372  38.961  1.00  0.00     0.168 HD
BRANCH  33  35
HETATM   35  C2  UNL     1      69.437  57.838  37.219  1.00  0.00     0.082 C 
HETATM   36  C1  UNL     1      68.484  58.536  36.351  1.00  0.00     0.089 C 
BRANCH  35  37
HETATM   37  N14 UNL     1      70.472  57.056  36.655  1.00  0.00    -0.301 N 
HETATM   38  C17 UNL     1      70.367  55.671  36.433  1.00  0.00     0.334 C 
HETATM   39  N15 UNL     1      71.482  54.946  35.854  1.00  0.00    -0.040 NA
HETATM   40  O4  UNL     1      69.323  55.059  36.730  1.00  0.00    -0.251 OA
ATOM     41  H14 UNL     1      71.341  57.522  36.396  1.00  0.00     0.171 HD
ENDBRANCH  35  37
ENDBRANCH  33  35
ENDBRANCH   1  33
BRANCH  12  42
HETATM   42  C15 UNL     1      65.891  57.738  43.505  1.00  0.00     0.266 C 
HETATM   43  N11 UNL     1      65.870  58.707  44.568  1.00  0.00    -0.115 NA
HETATM   44  N12 UNL     1      65.706  57.634  45.470  1.00  0.00    -0.109 NA
HETATM   45  C16 UNL     1      66.499  56.833  44.547  1.00  0.00     0.333 C 
BRANCH  45  46
HETATM   46  N13 UNL     1      67.911  57.073  44.802  1.00  0.00    -0.057 N 
ATOM     47 3H13 UNL     1      68.482  56.618  44.091  1.00  0.00     0.276 HD
ATOM     48 2H13 UNL     1      68.145  58.048  44.615  1.00  0.00     0.276 HD
ATOM     49 1H13 UNL     1      68.222  56.805  45.735  1.00  0.00     0.276 HD
ENDBRANCH  45  46
ENDBRANCH  12  42
BRANCH   4  50
HETATM   50  N3  UNL     1      66.555  54.359  39.471  1.00  0.00    -0.234 N 
ATOM     51  H32 UNL     1      67.161  53.544  39.380  1.00  0.00     0.174 HD
ATOM     52  H31 UNL     1      65.559  54.293  39.260  1.00  0.00     0.174 HD
ENDBRANCH   4  50
TORSDOF 15
ENDMDL
