MODEL 1
REMARK VINA RESULT: -9.269614832      0.000      0.000
REMARK  12 active torsions:
REMARK  status: ('A' for Active; 'I' for Inactive)
REMARK    1  A    between atoms: N1_2  and  C2_3 
REMARK    2  A    between atoms: N1_2  and  N13_43 
REMARK    3  A    between atoms: C3_6  and  N3_7 
REMARK    4  A    between atoms: N5_13  and  C5_15 
REMARK    5  A    between atoms: C5_15  and  C6_16 
REMARK    6  A    between atoms: C6_16  and  N6_17 
REMARK    7  A    between atoms: N6_17  and  C7_19 
REMARK    8  A    between atoms: C9_21  and  N7_22 
REMARK    9  A    between atoms: N7_22  and  C10_24 
REMARK   10  A    between atoms: C10_24  and  N8_25 
REMARK   11  A    between atoms: C10_24  and  C11_29 
REMARK   12  A    between atoms: C16_50  and  O3_51 
ROOT
HETATM    1  C2  UNL     1      70.270  57.632  44.032  1.00  0.00     0.729 A 
HETATM    2  N2  UNL     1      69.625  58.642  43.359  1.00  0.00    -0.020 N 
ATOM      3  H2  UNL     1      70.085  59.549  43.285  1.00  0.00     0.203 HD
HETATM    4  C3  UNL     1      68.427  58.490  42.798  1.00  0.00     0.705 A 
HETATM    5  N4  UNL     1      67.850  57.274  42.916  1.00  0.00    -0.022 N 
ATOM      6  H4  UNL     1      66.931  57.135  42.494  1.00  0.00     0.203 HD
HETATM    7  C4  UNL     1      68.412  56.244  43.553  1.00  0.00     0.707 A 
HETATM    8  N5  UNL     1      67.890  55.072  43.684  1.00  0.00    -0.224 N 
ATOM      9  H5  UNL     1      68.408  54.356  44.193  1.00  0.00     0.177 HD
HETATM   10  N12 UNL     1      69.656  56.457  44.116  1.00  0.00    -0.020 N 
ATOM     11  H12 UNL     1      70.114  55.691  44.610  1.00  0.00     0.203 HD
ENDROOT
BRANCH   8  12
HETATM   12  C5  UNL     1      66.616  54.744  43.143  1.00  0.00     0.157 C 
BRANCH  12  13
HETATM   13  C6  UNL     1      66.710  53.829  41.932  1.00  0.00     0.141 C 
BRANCH  13  14
HETATM   14  N6  UNL     1      67.802  54.154  41.063  1.00  0.00    -0.375 N 
ATOM     15  H6  UNL     1      68.721  53.731  41.194  1.00  0.00     0.161 HD
BRANCH  14  16
HETATM   16  C7  UNL     1      67.586  55.008  40.098  1.00  0.00     0.102 A 
HETATM   17  C8  UNL     1      68.644  55.641  39.487  1.00  0.00     0.077 A 
HETATM   18  C9  UNL     1      68.464  56.562  38.452  1.00  0.00     0.034 A 
HETATM   19  C13 UNL     1      67.160  56.791  38.088  1.00  0.00     0.046 A 
HETATM   20  C14 UNL     1      66.096  56.157  38.701  1.00  0.00     0.092 A 
HETATM   21  N11 UNL     1      66.334  55.284  39.687  1.00  0.00    -0.352 N 
ATOM     22  H11 UNL     1      65.548  54.817  40.139  1.00  0.00     0.166 HD
BRANCH  18  23
HETATM   23  N7  UNL     1      69.540  57.209  37.836  1.00  0.00    -0.357 N 
ATOM     24  H7  UNL     1      70.418  56.704  37.710  1.00  0.00     0.162 HD
BRANCH  23  25
HETATM   25  C10 UNL     1      69.441  58.563  37.379  1.00  0.00     0.352 C 
BRANCH  25  26
HETATM   26  N8  UNL     1      70.261  58.772  36.215  1.00  0.00    -0.051 N 
ATOM     27  H83 UNL     1      70.171  58.007  35.547  1.00  0.00     0.277 HD
ATOM     28  H82 UNL     1      69.902  59.528  35.633  1.00  0.00     0.277 HD
ATOM     29  H81 UNL     1      71.234  58.929  36.480  1.00  0.00     0.277 HD
ENDBRANCH  25  26
BRANCH  25  30
HETATM   30  C11 UNL     1      69.813  59.553  38.420  1.00  0.00     0.157 A 
HETATM   31  N9  UNL     1      69.851  60.886  38.253  1.00  0.00    -0.240 N 
HETATM   32  O1  UNL     1      70.216  61.426  39.361  1.00  0.00    -0.179 OA
ATOM     33  H9  UNL     1      69.628  61.385  37.392  1.00  0.00     0.196 HD
HETATM   34  C12 UNL     1      70.425  60.500  40.266  1.00  0.00     0.388 A 
HETATM   35  O2  UNL     1      70.790  60.714  41.446  1.00  0.00    -0.236 OA
HETATM   36  N10 UNL     1      70.176  59.326  39.688  1.00  0.00    -0.286 N 
ATOM     37  H10 UNL     1      70.251  58.411  40.135  1.00  0.00     0.172 HD
ENDBRANCH  25  30
ENDBRANCH  23  25
ENDBRANCH  18  23
ENDBRANCH  14  16
ENDBRANCH  13  14
ENDBRANCH  12  13
ENDBRANCH   8  12
BRANCH   4  38
HETATM   38  N3  UNL     1      67.834  59.462  42.166  1.00  0.00    -0.234 N 
ATOM     39  H32 UNL     1      67.688  59.425  41.157  1.00  0.00     0.174 HD
ATOM     40  H31 UNL     1      67.494  60.293  42.650  1.00  0.00     0.174 HD
ENDBRANCH   4  38
BRANCH   1  41
HETATM   41  N1  UNL     1      71.537  57.953  44.569  1.00  0.00    -0.102 N 
HETATM   42  C1  UNL     1      72.345  58.964  43.852  1.00  0.00     0.200 C 
BRANCH  41  43
HETATM   43  N13 UNL     1      72.099  57.407  45.714  1.00  0.00    -0.139 N 
HETATM   44  N14 UNL     1      72.804  56.320  45.856  1.00  0.00    -0.217 N 
HETATM   45  N15 UNL     1      73.177  56.104  47.089  1.00  0.00    -0.268 N 
ATOM     46  H14 UNL     1      73.042  55.701  45.081  1.00  0.00     0.210 HD
HETATM   47  C15 UNL     1      72.703  57.091  47.828  1.00  0.00     0.186 A 
ATOM     48  H15 UNL     1      73.733  55.317  47.421  1.00  0.00     0.190 HD
HETATM   49  N16 UNL     1      72.844  57.296  49.227  1.00  0.00    -0.076 NA
HETATM   50  C16 UNL     1      72.009  57.935  46.963  1.00  0.00     0.224 A 
BRANCH  50  51
HETATM   51  O3  UNL     1      71.371  59.081  47.366  1.00  0.00    -0.341 OA
ATOM     52  H3  UNL     1      70.966  59.272  48.205  1.00  0.00     0.219 HD
ENDBRANCH  50  51
ENDBRANCH  41  43
ENDBRANCH   1  41
TORSDOF 12
ENDMDL
MODEL 2
REMARK VINA RESULT: -9.193707415      0.836      1.065
REMARK  12 active torsions:
REMARK  status: ('A' for Active; 'I' for Inactive)
REMARK    1  A    between atoms: N1_2  and  C2_3 
REMARK    2  A    between atoms: N1_2  and  N13_43 
REMARK    3  A    between atoms: C3_6  and  N3_7 
REMARK    4  A    between atoms: N5_13  and  C5_15 
REMARK    5  A    between atoms: C5_15  and  C6_16 
REMARK    6  A    between atoms: C6_16  and  N6_17 
REMARK    7  A    between atoms: N6_17  and  C7_19 
REMARK    8  A    between atoms: C9_21  and  N7_22 
REMARK    9  A    between atoms: N7_22  and  C10_24 
REMARK   10  A    between atoms: C10_24  and  N8_25 
REMARK   11  A    between atoms: C10_24  and  C11_29 
REMARK   12  A    between atoms: C16_50  and  O3_51 
ROOT
HETATM    1  C2  UNL     1      70.136  57.581  43.979  1.00  0.00     0.729 A 
HETATM    2  N2  UNL     1      69.454  58.575  43.318  1.00  0.00    -0.020 N 
ATOM      3  H2  UNL     1      69.894  59.491  43.229  1.00  0.00     0.203 HD
HETATM    4  C3  UNL     1      68.246  58.397  42.789  1.00  0.00     0.705 A 
HETATM    5  N4  UNL     1      67.696  57.170  42.927  1.00  0.00    -0.022 N 
ATOM      6  H4  UNL     1      66.770  57.011  42.529  1.00  0.00     0.203 HD
HETATM    7  C4  UNL     1      68.294  56.154  43.554  1.00  0.00     0.707 A 
HETATM    8  N5  UNL     1      67.800  54.973  43.704  1.00  0.00    -0.224 N 
ATOM      9  H5  UNL     1      68.344  54.270  44.203  1.00  0.00     0.177 HD
HETATM   10  N12 UNL     1      69.548  56.395  44.085  1.00  0.00    -0.020 N 
ATOM     11  H12 UNL     1      70.033  55.641  44.570  1.00  0.00     0.203 HD
ENDROOT
BRANCH   8  12
HETATM   12  C5  UNL     1      66.519  54.617  43.197  1.00  0.00     0.157 C 
BRANCH  12  13
HETATM   13  C6  UNL     1      66.597  53.895  41.862  1.00  0.00     0.141 C 
BRANCH  13  14
HETATM   14  N6  UNL     1      66.417  54.766  40.738  1.00  0.00    -0.375 N 
ATOM     15  H6  UNL     1      65.601  55.375  40.671  1.00  0.00     0.161 HD
BRANCH  14  16
HETATM   16  C7  UNL     1      67.329  54.757  39.803  1.00  0.00     0.102 A 
HETATM   17  C8  UNL     1      67.851  55.942  39.338  1.00  0.00     0.077 A 
HETATM   18  C9  UNL     1      68.828  55.986  38.338  1.00  0.00     0.034 A 
HETATM   19  C13 UNL     1      69.228  54.765  37.855  1.00  0.00     0.046 A 
HETATM   20  C14 UNL     1      68.705  53.573  38.321  1.00  0.00     0.092 A 
HETATM   21  N11 UNL     1      67.772  53.599  39.279  1.00  0.00    -0.352 N 
ATOM     22  H11 UNL     1      67.386  52.719  39.622  1.00  0.00     0.166 HD
BRANCH  18  23
HETATM   23  N7  UNL     1      69.352  57.191  37.863  1.00  0.00    -0.357 N 
ATOM     24  H7  UNL     1      70.224  57.181  37.333  1.00  0.00     0.162 HD
BRANCH  23  25
HETATM   25  C10 UNL     1      68.694  58.442  38.101  1.00  0.00     0.352 C 
BRANCH  25  26
HETATM   26  N8  UNL     1      68.131  58.964  36.885  1.00  0.00    -0.051 N 
ATOM     27  H83 UNL     1      67.714  58.228  36.315  1.00  0.00     0.277 HD
ATOM     28  H82 UNL     1      67.291  59.514  37.064  1.00  0.00     0.277 HD
ATOM     29  H81 UNL     1      68.826  59.497  36.361  1.00  0.00     0.277 HD
ENDBRANCH  25  26
BRANCH  25  30
HETATM   30  C11 UNL     1      69.593  59.463  38.697  1.00  0.00     0.157 A 
HETATM   31  N9  UNL     1      69.917  60.640  38.137  1.00  0.00    -0.240 N 
HETATM   32  O1  UNL     1      70.713  61.264  38.931  1.00  0.00    -0.179 OA
ATOM     33  H9  UNL     1      69.587  60.982  37.235  1.00  0.00     0.196 HD
HETATM   34  C12 UNL     1      70.935  60.544  40.004  1.00  0.00     0.388 A 
HETATM   35  O2  UNL     1      71.669  60.881  40.962  1.00  0.00    -0.236 OA
HETATM   36  N10 UNL     1      70.239  59.415  39.868  1.00  0.00    -0.286 N 
ATOM     37  H10 UNL     1      70.206  58.648  40.539  1.00  0.00     0.172 HD
ENDBRANCH  25  30
ENDBRANCH  23  25
ENDBRANCH  18  23
ENDBRANCH  14  16
ENDBRANCH  13  14
ENDBRANCH  12  13
ENDBRANCH   8  12
BRANCH   4  38
HETATM   38  N3  UNL     1      67.618  59.353  42.167  1.00  0.00    -0.234 N 
ATOM     39  H32 UNL     1      67.452  60.255  42.613  1.00  0.00     0.174 HD
ATOM     40  H31 UNL     1      67.269  59.239  41.215  1.00  0.00     0.174 HD
ENDBRANCH   4  38
BRANCH   1  41
HETATM   41  N1  UNL     1      71.410  57.930  44.483  1.00  0.00    -0.102 N 
HETATM   42  C1  UNL     1      72.168  58.972  43.755  1.00  0.00     0.200 C 
BRANCH  41  43
HETATM   43  N13 UNL     1      72.021  57.386  45.603  1.00  0.00    -0.139 N 
HETATM   44  N14 UNL     1      72.732  56.300  45.715  1.00  0.00    -0.217 N 
HETATM   45  N15 UNL     1      73.157  56.085  46.932  1.00  0.00    -0.268 N 
ATOM     46  H14 UNL     1      72.937  55.680  44.932  1.00  0.00     0.210 HD
HETATM   47  C15 UNL     1      72.715  57.073  47.689  1.00  0.00     0.186 A 
ATOM     48  H15 UNL     1      73.728  55.299  47.240  1.00  0.00     0.190 HD
HETATM   49  N16 UNL     1      72.915  57.279  49.081  1.00  0.00    -0.076 NA
HETATM   50  C16 UNL     1      71.984  57.915  46.854  1.00  0.00     0.224 A 
BRANCH  50  51
HETATM   51  O3  UNL     1      71.363  59.062  47.283  1.00  0.00    -0.341 OA
ATOM     52  H3  UNL     1      70.579  59.477  46.942  1.00  0.00     0.219 HD
ENDBRANCH  50  51
ENDBRANCH  41  43
ENDBRANCH   1  41
TORSDOF 12
ENDMDL
MODEL 3
REMARK VINA RESULT: -9.090384354      2.629      6.482
REMARK  12 active torsions:
REMARK  status: ('A' for Active; 'I' for Inactive)
REMARK    1  A    between atoms: N1_2  and  C2_3 
REMARK    2  A    between atoms: N1_2  and  N13_43 
REMARK    3  A    between atoms: C3_6  and  N3_7 
REMARK    4  A    between atoms: N5_13  and  C5_15 
REMARK    5  A    between atoms: C5_15  and  C6_16 
REMARK    6  A    between atoms: C6_16  and  N6_17 
REMARK    7  A    between atoms: N6_17  and  C7_19 
REMARK    8  A    between atoms: C9_21  and  N7_22 
REMARK    9  A    between atoms: N7_22  and  C10_24 
REMARK   10  A    between atoms: C10_24  and  N8_25 
REMARK   11  A    between atoms: C10_24  and  C11_29 
REMARK   12  A    between atoms: C16_50  and  O3_51 
ROOT
HETATM    1  C2  UNL     1      66.948  55.490  42.826  1.00  0.00     0.729 A 
HETATM    2  N2  UNL     1      66.213  56.490  43.419  1.00  0.00    -0.020 N 
ATOM      3  H2  UNL     1      65.241  56.614  43.133  1.00  0.00     0.203 HD
HETATM    4  C3  UNL     1      66.711  57.303  44.347  1.00  0.00     0.705 A 
HETATM    5  N4  UNL     1      68.001  57.107  44.699  1.00  0.00    -0.022 N 
ATOM      6  H4  UNL     1      68.404  57.719  45.409  1.00  0.00     0.203 HD
HETATM    7  C4  UNL     1      68.779  56.159  44.171  1.00  0.00     0.707 A 
HETATM    8  N5  UNL     1      70.012  55.945  44.483  1.00  0.00    -0.224 N 
ATOM      9  H5  UNL     1      70.514  55.191  44.014  1.00  0.00     0.177 HD
HETATM   10  N12 UNL     1      68.211  55.343  43.211  1.00  0.00    -0.020 N 
ATOM     11  H12 UNL     1      68.776  54.609  42.786  1.00  0.00     0.203 HD
ENDROOT
BRANCH   8  12
HETATM   12  C5  UNL     1      70.694  56.723  45.458  1.00  0.00     0.157 C 
BRANCH  12  13
HETATM   13  C6  UNL     1      71.710  57.673  44.844  1.00  0.00     0.141 C 
BRANCH  13  14
HETATM   14  N6  UNL     1      71.195  58.995  44.641  1.00  0.00    -0.375 N 
ATOM     15  H6  UNL     1      70.817  59.536  45.418  1.00  0.00     0.161 HD
BRANCH  14  16
HETATM   16  C7  UNL     1      71.225  59.486  43.430  1.00  0.00     0.102 A 
HETATM   17  C8  UNL     1      70.464  58.916  42.436  1.00  0.00     0.077 A 
HETATM   18  C9  UNL     1      70.462  59.404  41.126  1.00  0.00     0.034 A 
HETATM   19  C13 UNL     1      71.272  60.489  40.902  1.00  0.00     0.046 A 
HETATM   20  C14 UNL     1      72.038  61.063  41.900  1.00  0.00     0.092 A 
HETATM   21  N11 UNL     1      71.996  60.549  43.134  1.00  0.00    -0.352 N 
ATOM     22  H11 UNL     1      72.562  60.973  43.869  1.00  0.00     0.166 HD
BRANCH  18  23
HETATM   23  N7  UNL     1      69.692  58.820  40.116  1.00  0.00    -0.357 N 
ATOM     24  H7  UNL     1      69.343  57.869  40.243  1.00  0.00     0.162 HD
BRANCH  23  25
HETATM   25  C10 UNL     1      69.381  59.523  38.907  1.00  0.00     0.352 C 
BRANCH  25  26
HETATM   26  N8  UNL     1      67.974  59.810  38.828  1.00  0.00    -0.051 N 
ATOM     27  H83 UNL     1      67.704  60.551  39.475  1.00  0.00     0.277 HD
ATOM     28  H82 UNL     1      67.733  60.274  37.953  1.00  0.00     0.277 HD
ATOM     29  H81 UNL     1      67.421  58.965  38.972  1.00  0.00     0.277 HD
ENDBRANCH  25  26
BRANCH  25  30
HETATM   30  C11 UNL     1      69.795  58.784  37.687  1.00  0.00     0.157 A 
HETATM   31  N9  UNL     1      70.296  59.339  36.570  1.00  0.00    -0.240 N 
HETATM   32  O1  UNL     1      70.539  58.402  35.723  1.00  0.00    -0.179 OA
ATOM     33  H9  UNL     1      70.457  60.334  36.420  1.00  0.00     0.196 HD
HETATM   34  C12 UNL     1      70.216  57.238  36.234  1.00  0.00     0.388 A 
HETATM   35  O2  UNL     1      70.336  56.136  35.651  1.00  0.00    -0.236 OA
HETATM   36  N10 UNL     1      69.749  57.466  37.461  1.00  0.00    -0.286 N 
ATOM     37  H10 UNL     1      69.415  56.757  38.115  1.00  0.00     0.172 HD
ENDBRANCH  25  30
ENDBRANCH  23  25
ENDBRANCH  18  23
ENDBRANCH  14  16
ENDBRANCH  13  14
ENDBRANCH  12  13
ENDBRANCH   8  12
BRANCH   4  38
HETATM   38  N3  UNL     1      65.996  58.244  44.895  1.00  0.00    -0.234 N 
ATOM     39  H32 UNL     1      65.327  58.785  44.349  1.00  0.00     0.174 HD
ATOM     40  H31 UNL     1      66.077  58.475  45.885  1.00  0.00     0.174 HD
ENDBRANCH   4  38
BRANCH   1  41
HETATM   41  N1  UNL     1      66.273  54.713  41.858  1.00  0.00    -0.102 N 
HETATM   42  C1  UNL     1      65.642  53.455  42.314  1.00  0.00     0.200 C 
BRANCH  41  43
HETATM   43  N13 UNL     1      66.144  55.019  40.511  1.00  0.00    -0.139 N 
HETATM   44  N14 UNL     1      65.538  54.361  39.564  1.00  0.00    -0.217 N 
HETATM   45  N15 UNL     1      65.616  54.945  38.398  1.00  0.00    -0.268 N 
ATOM     46  H14 UNL     1      65.050  53.478  39.718  1.00  0.00     0.210 HD
HETATM   47  C15 UNL     1      66.311  56.057  38.555  1.00  0.00     0.186 A 
ATOM     48  H15 UNL     1      65.214  54.604  37.526  1.00  0.00     0.190 HD
HETATM   49  N16 UNL     1      66.661  57.027  37.577  1.00  0.00    -0.076 NA
HETATM   50  C16 UNL     1      66.658  56.121  39.903  1.00  0.00     0.224 A 
BRANCH  50  51
HETATM   51  O3  UNL     1      67.389  57.143  40.454  1.00  0.00    -0.341 OA
ATOM     52  H3  UNL     1      67.237  58.079  40.398  1.00  0.00     0.219 HD
ENDBRANCH  50  51
ENDBRANCH  41  43
ENDBRANCH   1  41
TORSDOF 12
ENDMDL
MODEL 4
REMARK VINA RESULT: -8.946296518      2.291      4.675
REMARK  12 active torsions:
REMARK  status: ('A' for Active; 'I' for Inactive)
REMARK    1  A    between atoms: N1_2  and  C2_3 
REMARK    2  A    between atoms: N1_2  and  N13_43 
REMARK    3  A    between atoms: C3_6  and  N3_7 
REMARK    4  A    between atoms: N5_13  and  C5_15 
REMARK    5  A    between atoms: C5_15  and  C6_16 
REMARK    6  A    between atoms: C6_16  and  N6_17 
REMARK    7  A    between atoms: N6_17  and  C7_19 
REMARK    8  A    between atoms: C9_21  and  N7_22 
REMARK    9  A    between atoms: N7_22  and  C10_24 
REMARK   10  A    between atoms: C10_24  and  N8_25 
REMARK   11  A    between atoms: C10_24  and  C11_29 
REMARK   12  A    between atoms: C16_50  and  O3_51 
ROOT
HETATM    1  C2  UNL     1      69.885  59.834  41.998  1.00  0.00     0.729 A 
HETATM    2  N2  UNL     1      68.557  60.052  42.281  1.00  0.00    -0.020 N 
ATOM      3  H2  UNL     1      68.311  60.455  43.185  1.00  0.00     0.203 HD
HETATM    4  C3  UNL     1      67.578  59.760  41.428  1.00  0.00     0.705 A 
HETATM    5  N4  UNL     1      67.943  59.228  40.240  1.00  0.00    -0.022 N 
ATOM      6  H4  UNL     1      67.208  58.997  39.571  1.00  0.00     0.203 HD
HETATM    7  C4  UNL     1      69.210  58.988  39.892  1.00  0.00     0.707 A 
HETATM    8  N5  UNL     1      69.593  58.483  38.769  1.00  0.00    -0.224 N 
ATOM      9  H5  UNL     1      70.590  58.340  38.608  1.00  0.00     0.177 HD
HETATM   10  N12 UNL     1      70.186  59.310  40.816  1.00  0.00    -0.020 N 
ATOM     11  H12 UNL     1      71.164  59.139  40.583  1.00  0.00     0.203 HD
ENDROOT
BRANCH   8  12
HETATM   12  C5  UNL     1      68.673  58.117  37.748  1.00  0.00     0.157 C 
BRANCH  12  13
HETATM   13  C6  UNL     1      68.965  56.747  37.158  1.00  0.00     0.141 C 
BRANCH  13  14
HETATM   14  N6  UNL     1      69.627  55.867  38.075  1.00  0.00    -0.375 N 
ATOM     15  H6  UNL     1      70.642  55.883  38.178  1.00  0.00     0.161 HD
BRANCH  14  16
HETATM   16  C7  UNL     1      68.892  55.045  38.776  1.00  0.00     0.102 A 
HETATM   17  C8  UNL     1      68.811  55.186  40.142  1.00  0.00     0.077 A 
HETATM   18  C9  UNL     1      68.039  54.332  40.935  1.00  0.00     0.034 A 
HETATM   19  C13 UNL     1      67.370  53.345  40.257  1.00  0.00     0.046 A 
HETATM   20  C14 UNL     1      67.451  53.200  38.884  1.00  0.00     0.092 A 
HETATM   21  N11 UNL     1      68.207  54.051  38.181  1.00  0.00    -0.352 N 
ATOM     22  H11 UNL     1      68.266  53.943  37.168  1.00  0.00     0.166 HD
BRANCH  18  23
HETATM   23  N7  UNL     1      67.962  54.474  42.324  1.00  0.00    -0.357 N 
ATOM     24  H7  UNL     1      67.584  53.709  42.883  1.00  0.00     0.162 HD
BRANCH  23  25
HETATM   25  C10 UNL     1      68.403  55.669  42.982  1.00  0.00     0.352 C 
BRANCH  25  26
HETATM   26  N8  UNL     1      69.251  55.354  44.101  1.00  0.00    -0.051 N 
ATOM     27  H83 UNL     1      69.153  54.380  44.387  1.00  0.00     0.277 HD
ATOM     28  H82 UNL     1      70.235  55.338  43.834  1.00  0.00     0.277 HD
ATOM     29  H81 UNL     1      69.081  55.993  44.877  1.00  0.00     0.277 HD
ENDBRANCH  25  26
BRANCH  25  30
HETATM   30  C11 UNL     1      67.278  56.518  43.450  1.00  0.00     0.157 A 
HETATM   31  N9  UNL     1      66.115  56.700  42.802  1.00  0.00    -0.240 N 
HETATM   32  O1  UNL     1      65.382  57.497  43.497  1.00  0.00    -0.179 OA
ATOM     33  H9  UNL     1      65.857  56.277  41.911  1.00  0.00     0.196 HD
HETATM   34  C12 UNL     1      66.015  57.856  44.587  1.00  0.00     0.388 A 
HETATM   35  O2  UNL     1      65.561  58.627  45.464  1.00  0.00    -0.236 OA
HETATM   36  N10 UNL     1      67.202  57.251  44.567  1.00  0.00    -0.286 N 
ATOM     37  H10 UNL     1      67.927  57.331  45.281  1.00  0.00     0.172 HD
ENDBRANCH  25  30
ENDBRANCH  23  25
ENDBRANCH  18  23
ENDBRANCH  14  16
ENDBRANCH  13  14
ENDBRANCH  12  13
ENDBRANCH   8  12
BRANCH   4  38
HETATM   38  N3  UNL     1      66.326  59.974  41.716  1.00  0.00    -0.234 N 
ATOM     39  H32 UNL     1      66.040  60.257  42.653  1.00  0.00     0.174 HD
ATOM     40  H31 UNL     1      65.586  59.867  41.021  1.00  0.00     0.174 HD
ENDBRANCH   4  38
BRANCH   1  41
HETATM   41  N1  UNL     1      70.803  60.198  43.009  1.00  0.00    -0.102 N 
HETATM   42  C1  UNL     1      70.902  61.633  43.356  1.00  0.00     0.200 C 
BRANCH  41  43
HETATM   43  N13 UNL     1      71.626  59.332  43.713  1.00  0.00    -0.139 N 
HETATM   44  N14 UNL     1      72.921  59.192  43.662  1.00  0.00    -0.217 N 
HETATM   45  N15 UNL     1      73.372  58.269  44.471  1.00  0.00    -0.268 N 
ATOM     46  H14 UNL     1      73.522  59.746  43.053  1.00  0.00     0.210 HD
HETATM   47  C15 UNL     1      72.335  57.753  45.106  1.00  0.00     0.186 A 
ATOM     48  H15 UNL     1      74.347  57.998  44.590  1.00  0.00     0.190 HD
HETATM   49  N16 UNL     1      72.319  56.722  46.083  1.00  0.00    -0.076 NA
HETATM   50  C16 UNL     1      71.208  58.422  44.632  1.00  0.00     0.224 A 
BRANCH  50  51
HETATM   51  O3  UNL     1      69.931  58.160  45.061  1.00  0.00    -0.341 OA
ATOM     52  H3  UNL     1      69.168  57.921  44.546  1.00  0.00     0.219 HD
ENDBRANCH  50  51
ENDBRANCH  41  43
ENDBRANCH   1  41
TORSDOF 12
ENDMDL
MODEL 5
REMARK VINA RESULT: -8.733252326      2.301      7.005
REMARK  12 active torsions:
REMARK  status: ('A' for Active; 'I' for Inactive)
REMARK    1  A    between atoms: N1_2  and  C2_3 
REMARK    2  A    between atoms: N1_2  and  N13_43 
REMARK    3  A    between atoms: C3_6  and  N3_7 
REMARK    4  A    between atoms: N5_13  and  C5_15 
REMARK    5  A    between atoms: C5_15  and  C6_16 
REMARK    6  A    between atoms: C6_16  and  N6_17 
REMARK    7  A    between atoms: N6_17  and  C7_19 
REMARK    8  A    between atoms: C9_21  and  N7_22 
REMARK    9  A    between atoms: N7_22  and  C10_24 
REMARK   10  A    between atoms: C10_24  and  N8_25 
REMARK   11  A    between atoms: C10_24  and  C11_29 
REMARK   12  A    between atoms: C16_50  and  O3_51 
ROOT
HETATM    1  C2  UNL     1      67.124  56.087  41.046  1.00  0.00     0.729 A 
HETATM    2  N2  UNL     1      67.991  55.238  40.399  1.00  0.00    -0.020 N 
ATOM      3  H2  UNL     1      68.009  54.256  40.675  1.00  0.00     0.203 HD
HETATM    4  C3  UNL     1      68.808  55.639  39.428  1.00  0.00     0.705 A 
HETATM    5  N4  UNL     1      68.756  56.946  39.089  1.00  0.00    -0.022 N 
ATOM      6  H4  UNL     1      69.374  57.276  38.347  1.00  0.00     0.203 HD
HETATM    7  C4  UNL     1      67.942  57.832  39.669  1.00  0.00     0.707 A 
HETATM    8  N5  UNL     1      67.866  59.084  39.371  1.00  0.00    -0.224 N 
ATOM      9  H5  UNL     1      67.208  59.673  39.881  1.00  0.00     0.177 HD
HETATM   10  N12 UNL     1      67.115  57.361  40.671  1.00  0.00    -0.020 N 
ATOM     11  H12 UNL     1      66.480  58.010  41.136  1.00  0.00     0.203 HD
ENDROOT
BRANCH   8  12
HETATM   12  C5  UNL     1      68.670  59.672  38.356  1.00  0.00     0.157 C 
BRANCH  12  13
HETATM   13  C6  UNL     1      69.872  60.416  38.917  1.00  0.00     0.141 C 
BRANCH  13  14
HETATM   14  N6  UNL     1      70.761  59.573  39.659  1.00  0.00    -0.375 N 
ATOM     15  H6  UNL     1      71.246  58.796  39.209  1.00  0.00     0.161 HD
BRANCH  14  16
HETATM   16  C7  UNL     1      70.932  59.828  40.929  1.00  0.00     0.102 A 
HETATM   17  C8  UNL     1      70.458  58.954  41.878  1.00  0.00     0.077 A 
HETATM   18  C9  UNL     1      70.616  59.183  43.248  1.00  0.00     0.034 A 
HETATM   19  C13 UNL     1      71.276  60.340  43.579  1.00  0.00     0.046 A 
HETATM   20  C14 UNL     1      71.754  61.220  42.626  1.00  0.00     0.092 A 
HETATM   21  N11 UNL     1      71.571  60.944  41.330  1.00  0.00    -0.352 N 
ATOM     22  H11 UNL     1      71.923  61.594  40.628  1.00  0.00     0.166 HD
BRANCH  18  23
HETATM   23  N7  UNL     1      70.127  58.296  44.212  1.00  0.00    -0.357 N 
ATOM     24  H7  UNL     1      69.201  58.454  44.611  1.00  0.00     0.162 HD
BRANCH  23  25
HETATM   25  C10 UNL     1      70.894  57.169  44.654  1.00  0.00     0.352 C 
BRANCH  25  26
HETATM   26  N8  UNL     1      70.066  55.998  44.768  1.00  0.00    -0.051 N 
ATOM     27  H83 UNL     1      69.117  56.233  45.058  1.00  0.00     0.277 HD
ATOM     28  H82 UNL     1      69.853  55.597  43.855  1.00  0.00     0.277 HD
ATOM     29  H81 UNL     1      70.492  55.311  45.391  1.00  0.00     0.277 HD
ENDBRANCH  25  26
BRANCH  25  30
HETATM   30  C11 UNL     1      71.578  57.408  45.950  1.00  0.00     0.157 A 
HETATM   31  N9  UNL     1      71.543  58.553  46.652  1.00  0.00    -0.240 N 
HETATM   32  O1  UNL     1      72.246  58.400  47.717  1.00  0.00    -0.179 OA
ATOM     33  H9  UNL     1      71.042  59.401  46.385  1.00  0.00     0.196 HD
HETATM   34  C12 UNL     1      72.753  57.191  47.753  1.00  0.00     0.388 A 
HETATM   35  O2  UNL     1      73.484  56.742  48.666  1.00  0.00    -0.236 OA
HETATM   36  N10 UNL     1      72.342  56.563  46.652  1.00  0.00    -0.286 N 
ATOM     37  H10 UNL     1      72.570  55.603  46.390  1.00  0.00     0.172 HD
ENDBRANCH  25  30
ENDBRANCH  23  25
ENDBRANCH  18  23
ENDBRANCH  14  16
ENDBRANCH  13  14
ENDBRANCH  12  13
ENDBRANCH   8  12
BRANCH   4  38
HETATM   38  N3  UNL     1      69.622  54.817  38.829  1.00  0.00    -0.234 N 
ATOM     39  H32 UNL     1      69.532  54.616  37.833  1.00  0.00     0.174 HD
ATOM     40  H31 UNL     1      70.377  54.346  39.328  1.00  0.00     0.174 HD
ENDBRANCH   4  38
BRANCH   1  41
HETATM   41  N1  UNL     1      66.322  55.506  42.054  1.00  0.00    -0.102 N 
HETATM   42  C1  UNL     1      65.526  54.313  41.688  1.00  0.00     0.200 C 
BRANCH  41  43
HETATM   43  N13 UNL     1      66.209  55.950  43.363  1.00  0.00    -0.139 N 
HETATM   44  N14 UNL     1      66.492  55.334  44.476  1.00  0.00    -0.217 N 
HETATM   45  N15 UNL     1      66.260  56.058  45.539  1.00  0.00    -0.268 N 
ATOM     46  H14 UNL     1      66.859  54.383  44.513  1.00  0.00     0.210 HD
HETATM   47  C15 UNL     1      65.795  57.226  45.133  1.00  0.00     0.186 A 
ATOM     48  H15 UNL     1      66.411  55.773  46.506  1.00  0.00     0.190 HD
HETATM   49  N16 UNL     1      65.400  58.342  45.919  1.00  0.00    -0.076 NA
HETATM   50  C16 UNL     1      65.755  57.174  43.741  1.00  0.00     0.224 A 
BRANCH  50  51
HETATM   51  O3  UNL     1      65.323  58.211  42.953  1.00  0.00    -0.341 OA
ATOM     52  H3  UNL     1      65.718  59.066  42.827  1.00  0.00     0.219 HD
ENDBRANCH  50  51
ENDBRANCH  41  43
ENDBRANCH   1  41
TORSDOF 12
ENDMDL
