MODEL 1
REMARK VINA RESULT: -8.457078229      0.000      0.000
REMARK  17 active torsions:
REMARK  status: ('A' for Active; 'I' for Inactive)
REMARK    1  A    between atoms: O1_2  and  C2_3 
REMARK    2  A    between atoms: C2_3  and  C3_4 
REMARK       I    between atoms: C3_4  and  N1_6 
REMARK    3  A    between atoms: C4_7  and  O3_8 
REMARK    4  A    between atoms: C5_10  and  N2_11 
REMARK    5  A    between atoms: C7_18  and  N5_19 
REMARK    6  A    between atoms: C8_22  and  C9_23 
REMARK    7  A    between atoms: C9_23  and  O6_24 
REMARK    8  A    between atoms: C9_23  and  N6_26 
REMARK    9  A    between atoms: N6_26  and  C10_28 
REMARK   10  A    between atoms: C10_28  and  C11_29 
REMARK   11  A    between atoms: C10_28  and  C12_34 
REMARK   12  A    between atoms: C11_29  and  N7_30 
REMARK   13  A    between atoms: C12_34  and  N8_35 
REMARK   14  A    between atoms: C12_34  and  O7_39 
REMARK   15  A    between atoms: C13_41  and  N9_42 
REMARK       I    between atoms: N9_42  and  C14_44 
REMARK   16  A    between atoms: C14_44  and  O9_46 
REMARK   17  A    between atoms: C16_48  and  N10_49 
ROOT
HETATM    1  C3  UNL     1      68.689  56.485  38.104  1.00  0.00     0.255 C 
HETATM    2  O2  UNL     1      68.484  55.311  37.710  1.00  0.00    -0.270 OA
HETATM    3  N1  UNL     1      68.716  56.706  39.512  1.00  0.00    -0.242 N 
HETATM    4  C4  UNL     1      68.926  57.915  40.014  1.00  0.00     0.179 A 
HETATM    5  C5  UNL     1      68.954  58.133  41.419  1.00  0.00     0.109 A 
HETATM    6  C8  UNL     1      68.767  57.119  42.316  1.00  0.00     0.076 A 
HETATM    7  C13 UNL     1      68.545  55.850  41.742  1.00  0.00     0.098 A 
HETATM    8  C16 UNL     1      68.530  55.701  40.372  1.00  0.00     0.138 A 
ENDROOT
BRANCH   6   9
HETATM    9  C9  UNL     1      68.830  57.197  43.729  1.00  0.00     0.151 C 
BRANCH   9  10
HETATM   10  O6  UNL     1      67.742  57.656  44.308  1.00  0.00    -0.346 OA
ATOM     11  H6  UNL     1      67.744  57.613  45.257  1.00  0.00     0.219 HD
ENDBRANCH   9  10
BRANCH   9  12
HETATM   12  N6  UNL     1      69.758  56.916  44.709  1.00  0.00    -0.360 N 
ATOM     13  H6  UNL     1      69.692  56.035  45.220  1.00  0.00     0.162 HD
BRANCH  12  14
HETATM   14  C10 UNL     1      70.851  57.867  45.040  1.00  0.00     0.164 C 
BRANCH  14  15
HETATM   15  C11 UNL     1      71.960  57.743  44.035  1.00  0.00     0.259 C 
BRANCH  15  16
HETATM   16  N7  UNL     1      72.906  58.833  44.108  1.00  0.00    -0.077 N 
ATOM     17  H73 UNL     1      72.761  59.495  43.346  1.00  0.00     0.274 HD
ATOM     18  H72 UNL     1      72.700  59.443  44.900  1.00  0.00     0.274 HD
ATOM     19  H71 UNL     1      73.874  58.514  44.136  1.00  0.00     0.274 HD
ENDBRANCH  15  16
ENDBRANCH  14  15
BRANCH  14  20
HETATM   20  C12 UNL     1      71.307  57.676  46.450  1.00  0.00     0.340 C 
BRANCH  20  21
HETATM   21  N8  UNL     1      72.309  56.639  46.457  1.00  0.00    -0.051 N 
ATOM     22  H83 UNL     1      71.959  55.749  46.102  1.00  0.00     0.277 HD
ATOM     23  H82 UNL     1      73.036  56.788  45.758  1.00  0.00     0.277 HD
ATOM     24  H81 UNL     1      72.681  56.567  47.404  1.00  0.00     0.277 HD
ENDBRANCH  20  21
BRANCH  20  25
HETATM   25  O7  UNL     1      71.884  58.896  46.864  1.00  0.00    -0.368 OA
ATOM     26  H7  UNL     1      72.175  58.774  47.761  1.00  0.00     0.212 HD
ENDBRANCH  20  25
ENDBRANCH  14  20
ENDBRANCH  12  14
ENDBRANCH   9  12
ENDBRANCH   6   9
BRANCH   5  27
HETATM   27  N2  UNL     1      69.231  59.475  41.822  1.00  0.00    -0.270 N 
HETATM   28  C6  UNL     1      68.449  60.592  42.167  1.00  0.00     0.182 C 
HETATM   29  N3  UNL     1      67.157  60.898  42.111  1.00  0.00    -0.371 N 
HETATM   30  N4  UNL     1      69.599  61.273  42.604  1.00  0.00    -0.319 N 
ATOM     31  H32 UNL     1      66.323  60.405  41.793  1.00  0.00     0.159 HD
ATOM     32  H31 UNL     1      66.590  61.708  42.361  1.00  0.00     0.159 HD
HETATM   33  C7  UNL     1      70.413  60.258  41.969  1.00  0.00     0.370 C 
ATOM     34  H4  UNL     1      69.782  62.121  43.141  1.00  0.00     0.166 HD
BRANCH  33  35
HETATM   35  N5  UNL     1      70.982  60.874  40.784  1.00  0.00    -0.109 N 
HETATM   36  O4  UNL     1      72.208  60.977  40.709  1.00  0.00    -0.533 OA
HETATM   37  O5  UNL     1      70.211  61.340  39.759  1.00  0.00    -0.533 OA
ENDBRANCH  33  35
ENDBRANCH   5  27
BRANCH   7  38
HETATM   38  N9  UNL     1      68.293  54.726  42.566  1.00  0.00    -0.298 N 
HETATM   39  C14 UNL     1      66.920  54.296  42.665  1.00  0.00     0.364 C 
HETATM   40  O8  UNL     1      65.984  54.875  42.060  1.00  0.00    -0.238 OA
ATOM     41  H9  UNL     1      69.042  54.246  43.063  1.00  0.00     0.171 HD
BRANCH  39  42
HETATM   42  O9  UNL     1      66.570  53.197  43.453  1.00  0.00    -0.309 OA
HETATM   43  C15 UNL     1      65.217  52.781  43.611  1.00  0.00     0.215 C 
ENDBRANCH  39  42
ENDBRANCH   7  38
BRANCH   4  44
HETATM   44  O3  UNL     1      69.128  59.037  39.226  1.00  0.00    -0.344 OA
ATOM     45  H3  UNL     1      69.991  59.379  39.022  1.00  0.00     0.219 HD
ENDBRANCH   4  44
BRANCH   8  46
HETATM   46  N10 UNL     1      68.326  54.519  39.885  1.00  0.00    -0.383 N 
ATOM     47 2H10 UNL     1      69.043  54.112  39.285  1.00  0.00     0.157 HD
ATOM     48 1H10 UNL     1      67.452  54.051  40.125  1.00  0.00     0.157 HD
ENDBRANCH   8  46
BRANCH   1  49
HETATM   49  C2  UNL     1      68.886  57.546  37.104  1.00  0.00     0.270 C 
BRANCH  49  50
HETATM   50  O1  UNL     1      70.256  57.641  36.800  1.00  0.00    -0.387 OA
HETATM   51  C1  UNL     1      70.453  58.870  36.193  1.00  0.00     0.202 C 
ENDBRANCH  49  50
ENDBRANCH   1  49
TORSDOF 17
ENDMDL
MODEL 2
REMARK VINA RESULT: -7.563850608      2.202      5.549
REMARK  17 active torsions:
REMARK  status: ('A' for Active; 'I' for Inactive)
REMARK    1  A    between atoms: O1_2  and  C2_3 
REMARK    2  A    between atoms: C2_3  and  C3_4 
REMARK       I    between atoms: C3_4  and  N1_6 
REMARK    3  A    between atoms: C4_7  and  O3_8 
REMARK    4  A    between atoms: C5_10  and  N2_11 
REMARK    5  A    between atoms: C7_18  and  N5_19 
REMARK    6  A    between atoms: C8_22  and  C9_23 
REMARK    7  A    between atoms: C9_23  and  O6_24 
REMARK    8  A    between atoms: C9_23  and  N6_26 
REMARK    9  A    between atoms: N6_26  and  C10_28 
REMARK   10  A    between atoms: C10_28  and  C11_29 
REMARK   11  A    between atoms: C10_28  and  C12_34 
REMARK   12  A    between atoms: C11_29  and  N7_30 
REMARK   13  A    between atoms: C12_34  and  N8_35 
REMARK   14  A    between atoms: C12_34  and  O7_39 
REMARK   15  A    between atoms: C13_41  and  N9_42 
REMARK       I    between atoms: N9_42  and  C14_44 
REMARK   16  A    between atoms: C14_44  and  O9_46 
REMARK   17  A    between atoms: C16_48  and  N10_49 
ROOT
HETATM    1  C3  UNL     1      70.058  59.968  39.622  1.00  0.00     0.255 C 
HETATM    2  O2  UNL     1      70.679  60.993  39.994  1.00  0.00    -0.270 OA
HETATM    3  N1  UNL     1      69.739  59.000  40.618  1.00  0.00    -0.242 N 
HETATM    4  C4  UNL     1      69.085  57.888  40.313  1.00  0.00     0.179 A 
HETATM    5  C5  UNL     1      68.766  56.924  41.308  1.00  0.00     0.109 A 
HETATM    6  C8  UNL     1      69.115  57.090  42.620  1.00  0.00     0.076 A 
HETATM    7  C13 UNL     1      69.811  58.284  42.903  1.00  0.00     0.098 A 
HETATM    8  C16 UNL     1      70.089  59.181  41.895  1.00  0.00     0.138 A 
ENDROOT
BRANCH   6   9
HETATM    9  C9  UNL     1      68.807  56.238  43.708  1.00  0.00     0.151 C 
BRANCH   9  10
HETATM   10  O6  UNL     1      69.839  55.612  44.231  1.00  0.00    -0.346 OA
ATOM     11  H6  UNL     1      70.153  55.973  45.051  1.00  0.00     0.219 HD
ENDBRANCH   9  10
BRANCH   9  12
HETATM   12  N6  UNL     1      67.675  55.862  44.399  1.00  0.00    -0.360 N 
ATOM     13  H6  UNL     1      67.424  54.874  44.445  1.00  0.00     0.162 HD
BRANCH  12  14
HETATM   14  C10 UNL     1      66.811  56.864  45.078  1.00  0.00     0.164 C 
BRANCH  14  15
HETATM   15  C11 UNL     1      65.730  56.167  45.853  1.00  0.00     0.259 C 
BRANCH  15  16
HETATM   16  N7  UNL     1      65.229  56.962  46.951  1.00  0.00    -0.077 N 
ATOM     17  H73 UNL     1      64.974  57.899  46.639  1.00  0.00     0.274 HD
ATOM     18  H72 UNL     1      64.311  56.632  47.252  1.00  0.00     0.274 HD
ATOM     19  H71 UNL     1      65.878  57.003  47.737  1.00  0.00     0.274 HD
ENDBRANCH  15  16
ENDBRANCH  14  15
BRANCH  14  20
HETATM   20  C12 UNL     1      66.287  57.859  44.094  1.00  0.00     0.340 C 
BRANCH  20  21
HETATM   21  N8  UNL     1      65.232  57.226  43.341  1.00  0.00    -0.051 N 
ATOM     22  H83 UNL     1      65.391  56.229  43.201  1.00  0.00     0.277 HD
ATOM     23  H82 UNL     1      64.361  57.154  43.866  1.00  0.00     0.277 HD
ATOM     24  H81 UNL     1      65.123  57.735  42.464  1.00  0.00     0.277 HD
ENDBRANCH  20  21
BRANCH  20  25
HETATM   25  O7  UNL     1      65.757  58.934  44.841  1.00  0.00    -0.368 OA
ATOM     26  H7  UNL     1      66.358  59.663  44.739  1.00  0.00     0.212 HD
ENDBRANCH  20  25
ENDBRANCH  14  20
ENDBRANCH  12  14
ENDBRANCH   9  12
ENDBRANCH   6   9
BRANCH   5  27
HETATM   27  N2  UNL     1      68.024  55.794  40.848  1.00  0.00    -0.270 N 
HETATM   28  C6  UNL     1      68.299  54.696  40.014  1.00  0.00     0.182 C 
HETATM   29  N3  UNL     1      69.292  54.346  39.203  1.00  0.00    -0.371 N 
HETATM   30  N4  UNL     1      67.080  54.099  40.385  1.00  0.00    -0.319 N 
ATOM     31  H32 UNL     1      70.175  54.779  38.934  1.00  0.00     0.159 HD
ATOM     32  H31 UNL     1      69.491  53.550  38.598  1.00  0.00     0.159 HD
HETATM   33  C7  UNL     1      66.676  55.352  40.985  1.00  0.00     0.370 C 
ATOM     34  H4  UNL     1      66.660  53.175  40.276  1.00  0.00     0.166 HD
BRANCH  33  35
HETATM   35  N5  UNL     1      65.672  55.923  40.103  1.00  0.00    -0.109 N 
HETATM   36  O4  UNL     1      64.529  56.073  40.538  1.00  0.00    -0.533 OA
HETATM   37  O5  UNL     1      65.951  56.292  38.819  1.00  0.00    -0.533 OA
ENDBRANCH  33  35
ENDBRANCH   5  27
BRANCH   7  38
HETATM   38  N9  UNL     1      70.267  58.552  44.217  1.00  0.00    -0.298 N 
HETATM   39  C14 UNL     1      71.603  58.113  44.537  1.00  0.00     0.364 C 
HETATM   40  O8  UNL     1      72.338  57.523  43.706  1.00  0.00    -0.238 OA
ATOM     41  H9  UNL     1      69.682  59.030  44.902  1.00  0.00     0.171 HD
BRANCH  39  42
HETATM   42  O9  UNL     1      72.143  58.331  45.806  1.00  0.00    -0.309 OA
HETATM   43  C15 UNL     1      71.347  58.275  46.986  1.00  0.00     0.215 C 
ENDBRANCH  39  42
ENDBRANCH   7  38
BRANCH   4  44
HETATM   44  O3  UNL     1      68.670  57.584  39.026  1.00  0.00    -0.344 OA
ATOM     45  H3  UNL     1      67.789  57.751  38.712  1.00  0.00     0.219 HD
ENDBRANCH   4  44
BRANCH   8  46
HETATM   46  N10 UNL     1      70.728  60.266  42.197  1.00  0.00    -0.383 N 
ATOM     47 2H10 UNL     1      71.606  60.461  41.717  1.00  0.00     0.157 HD
ATOM     48 1H10 UNL     1      70.320  60.877  42.904  1.00  0.00     0.157 HD
ENDBRANCH   8  46
BRANCH   1  49
HETATM   49  C2  UNL     1      69.701  59.829  38.201  1.00  0.00     0.270 C 
BRANCH  49  50
HETATM   50  O1  UNL     1      70.743  59.167  37.529  1.00  0.00    -0.387 OA
HETATM   51  C1  UNL     1      70.310  58.939  36.233  1.00  0.00     0.202 C 
ENDBRANCH  49  50
ENDBRANCH   1  49
TORSDOF 17
ENDMDL
MODEL 3
REMARK VINA RESULT: -7.468101861      2.458      5.750
REMARK  17 active torsions:
REMARK  status: ('A' for Active; 'I' for Inactive)
REMARK    1  A    between atoms: O1_2  and  C2_3 
REMARK    2  A    between atoms: C2_3  and  C3_4 
REMARK       I    between atoms: C3_4  and  N1_6 
REMARK    3  A    between atoms: C4_7  and  O3_8 
REMARK    4  A    between atoms: C5_10  and  N2_11 
REMARK    5  A    between atoms: C7_18  and  N5_19 
REMARK    6  A    between atoms: C8_22  and  C9_23 
REMARK    7  A    between atoms: C9_23  and  O6_24 
REMARK    8  A    between atoms: C9_23  and  N6_26 
REMARK    9  A    between atoms: N6_26  and  C10_28 
REMARK   10  A    between atoms: C10_28  and  C11_29 
REMARK   11  A    between atoms: C10_28  and  C12_34 
REMARK   12  A    between atoms: C11_29  and  N7_30 
REMARK   13  A    between atoms: C12_34  and  N8_35 
REMARK   14  A    between atoms: C12_34  and  O7_39 
REMARK   15  A    between atoms: C13_41  and  N9_42 
REMARK       I    between atoms: N9_42  and  C14_44 
REMARK   16  A    between atoms: C14_44  and  O9_46 
REMARK   17  A    between atoms: C16_48  and  N10_49 
ROOT
HETATM    1  C3  UNL     1      67.829  52.333  38.569  1.00  0.00     0.255 C 
HETATM    2  O2  UNL     1      68.198  52.102  37.391  1.00  0.00    -0.270 OA
HETATM    3  N1  UNL     1      68.057  53.645  39.079  1.00  0.00    -0.242 N 
HETATM    4  C4  UNL     1      67.698  53.974  40.312  1.00  0.00     0.179 A 
HETATM    5  C5  UNL     1      67.925  55.283  40.819  1.00  0.00     0.109 A 
HETATM    6  C8  UNL     1      68.519  56.260  40.071  1.00  0.00     0.076 A 
HETATM    7  C13 UNL     1      68.887  55.869  38.766  1.00  0.00     0.098 A 
HETATM    8  C16 UNL     1      68.640  54.585  38.331  1.00  0.00     0.138 A 
ENDROOT
BRANCH   6   9
HETATM    9  C9  UNL     1      68.747  57.609  40.438  1.00  0.00     0.151 C 
BRANCH   9  10
HETATM   10  O6  UNL     1      67.757  58.432  40.168  1.00  0.00    -0.346 OA
ATOM     11  H6  UNL     1      67.477  58.975  40.896  1.00  0.00     0.219 HD
ENDBRANCH   9  10
BRANCH   9  12
HETATM   12  N6  UNL     1      69.765  58.332  41.023  1.00  0.00    -0.360 N 
ATOM     13  H6  UNL     1      70.517  57.835  41.503  1.00  0.00     0.162 HD
BRANCH  12  14
HETATM   14  C10 UNL     1      69.792  59.817  40.971  1.00  0.00     0.164 C 
BRANCH  14  15
HETATM   15  C11 UNL     1      70.549  60.274  39.757  1.00  0.00     0.259 C 
BRANCH  15  16
HETATM   16  N7  UNL     1      69.679  60.689  38.680  1.00  0.00    -0.077 N 
ATOM     17  H73 UNL     1      68.857  60.088  38.621  1.00  0.00     0.274 HD
ATOM     18  H72 UNL     1      69.221  61.574  38.901  1.00  0.00     0.274 HD
ATOM     19  H71 UNL     1      70.160  60.741  37.782  1.00  0.00     0.274 HD
ENDBRANCH  15  16
ENDBRANCH  14  15
BRANCH  14  20
HETATM   20  C12 UNL     1      70.329  60.378  42.248  1.00  0.00     0.340 C 
BRANCH  20  21
HETATM   21  N8  UNL     1      69.563  61.556  42.573  1.00  0.00    -0.051 N 
ATOM     22  H83 UNL     1      69.974  62.410  42.196  1.00  0.00     0.277 HD
ATOM     23  H82 UNL     1      68.675  61.600  42.074  1.00  0.00     0.277 HD
ATOM     24  H81 UNL     1      69.449  61.588  43.586  1.00  0.00     0.277 HD
ENDBRANCH  20  21
BRANCH  20  25
HETATM   25  O7  UNL     1      70.133  59.395  43.242  1.00  0.00    -0.368 OA
ATOM     26  H7  UNL     1      70.830  59.504  43.879  1.00  0.00     0.212 HD
ENDBRANCH  20  25
ENDBRANCH  14  20
ENDBRANCH  12  14
ENDBRANCH   9  12
ENDBRANCH   6   9
BRANCH   5  27
HETATM   27  N2  UNL     1      67.452  55.513  42.147  1.00  0.00    -0.270 N 
HETATM   28  C6  UNL     1      66.268  56.024  42.708  1.00  0.00     0.182 C 
HETATM   29  N3  UNL     1      65.185  56.635  42.241  1.00  0.00    -0.371 N 
HETATM   30  N4  UNL     1      66.692  55.623  43.988  1.00  0.00    -0.319 N 
ATOM     31  H32 UNL     1      64.878  56.926  41.313  1.00  0.00     0.159 HD
ATOM     32  H31 UNL     1      64.326  57.006  42.648  1.00  0.00     0.159 HD
HETATM   33  C7  UNL     1      68.015  55.387  43.451  1.00  0.00     0.370 C 
ATOM     34  H4  UNL     1      66.253  55.536  44.905  1.00  0.00     0.166 HD
BRANCH  33  35
HETATM   35  N5  UNL     1      68.855  56.465  43.944  1.00  0.00    -0.109 N 
HETATM   36  O4  UNL     1      70.003  56.558  43.507  1.00  0.00    -0.533 OA
HETATM   37  O5  UNL     1      68.417  57.368  44.869  1.00  0.00    -0.533 OA
ENDBRANCH  33  35
ENDBRANCH   5  27
BRANCH   7  38
HETATM   38  N9  UNL     1      69.553  56.778  37.907  1.00  0.00    -0.298 N 
HETATM   39  C14 UNL     1      68.716  57.629  37.099  1.00  0.00     0.364 C 
HETATM   40  O8  UNL     1      67.461  57.582  37.140  1.00  0.00    -0.238 OA
ATOM     41  H9  UNL     1      70.571  56.828  37.863  1.00  0.00     0.171 HD
BRANCH  39  42
HETATM   42  O9  UNL     1      69.278  58.559  36.220  1.00  0.00    -0.309 OA
HETATM   43  C15 UNL     1      70.687  58.691  36.060  1.00  0.00     0.215 C 
ENDBRANCH  39  42
ENDBRANCH   7  38
BRANCH   4  44
HETATM   44  O3  UNL     1      67.089  53.087  41.185  1.00  0.00    -0.344 OA
ATOM     45  H3  UNL     1      66.752  53.346  42.036  1.00  0.00     0.219 HD
ENDBRANCH   4  44
BRANCH   8  46
HETATM   46  N10 UNL     1      68.991  54.266  37.126  1.00  0.00    -0.383 N 
ATOM     47 2H10 UNL     1      69.097  53.278  36.898  1.00  0.00     0.157 HD
ATOM     48 1H10 UNL     1      69.147  55.023  36.460  1.00  0.00     0.157 HD
ENDBRANCH   8  46
BRANCH   1  49
HETATM   49  C2  UNL     1      67.192  51.254  39.339  1.00  0.00     0.270 C 
BRANCH  49  50
HETATM   50  O1  UNL     1      68.191  50.479  39.955  1.00  0.00    -0.387 OA
HETATM   51  C1  UNL     1      67.910  49.153  39.669  1.00  0.00     0.202 C 
ENDBRANCH  49  50
ENDBRANCH   1  49
TORSDOF 17
ENDMDL
MODEL 4
REMARK VINA RESULT: -7.409198132      2.124      5.515
REMARK  17 active torsions:
REMARK  status: ('A' for Active; 'I' for Inactive)
REMARK    1  A    between atoms: O1_2  and  C2_3 
REMARK    2  A    between atoms: C2_3  and  C3_4 
REMARK       I    between atoms: C3_4  and  N1_6 
REMARK    3  A    between atoms: C4_7  and  O3_8 
REMARK    4  A    between atoms: C5_10  and  N2_11 
REMARK    5  A    between atoms: C7_18  and  N5_19 
REMARK    6  A    between atoms: C8_22  and  C9_23 
REMARK    7  A    between atoms: C9_23  and  O6_24 
REMARK    8  A    between atoms: C9_23  and  N6_26 
REMARK    9  A    between atoms: N6_26  and  C10_28 
REMARK   10  A    between atoms: C10_28  and  C11_29 
REMARK   11  A    between atoms: C10_28  and  C12_34 
REMARK   12  A    between atoms: C11_29  and  N7_30 
REMARK   13  A    between atoms: C12_34  and  N8_35 
REMARK   14  A    between atoms: C12_34  and  O7_39 
REMARK   15  A    between atoms: C13_41  and  N9_42 
REMARK       I    between atoms: N9_42  and  C14_44 
REMARK   16  A    between atoms: C14_44  and  O9_46 
REMARK   17  A    between atoms: C16_48  and  N10_49 
ROOT
HETATM    1  C3  UNL     1      65.520  53.934  39.943  1.00  0.00     0.255 C 
HETATM    2  O2  UNL     1      65.188  53.782  38.742  1.00  0.00    -0.270 OA
HETATM    3  N1  UNL     1      66.277  55.097  40.269  1.00  0.00    -0.242 N 
HETATM    4  C4  UNL     1      66.669  55.336  41.513  1.00  0.00     0.179 A 
HETATM    5  C5  UNL     1      67.423  56.497  41.837  1.00  0.00     0.109 A 
HETATM    6  C8  UNL     1      67.782  57.418  40.893  1.00  0.00     0.076 A 
HETATM    7  C13 UNL     1      67.348  57.126  39.582  1.00  0.00     0.098 A 
HETATM    8  C16 UNL     1      66.619  55.985  39.331  1.00  0.00     0.138 A 
ENDROOT
BRANCH   6   9
HETATM    9  C9  UNL     1      68.477  58.634  41.096  1.00  0.00     0.151 C 
BRANCH   9  10
HETATM   10  O6  UNL     1      67.720  59.709  41.119  1.00  0.00    -0.346 OA
ATOM     11  H6  UNL     1      68.040  60.414  41.670  1.00  0.00     0.219 HD
ENDBRANCH   9  10
BRANCH   9  12
HETATM   12  N6  UNL     1      69.787  59.023  41.281  1.00  0.00    -0.360 N 
ATOM     13  H6  UNL     1      70.458  58.351  41.655  1.00  0.00     0.162 HD
BRANCH  12  14
HETATM   14  C10 UNL     1      70.244  60.398  40.949  1.00  0.00     0.164 C 
BRANCH  14  15
HETATM   15  C11 UNL     1      70.701  60.456  39.520  1.00  0.00     0.259 C 
BRANCH  15  16
HETATM   16  N7  UNL     1      69.666  60.910  38.620  1.00  0.00    -0.077 N 
ATOM     17  H73 UNL     1      69.081  60.133  38.313  1.00  0.00     0.274 HD
ATOM     18  H72 UNL     1      68.964  61.459  39.117  1.00  0.00     0.274 HD
ATOM     19  H71 UNL     1      70.036  61.426  37.822  1.00  0.00     0.274 HD
ENDBRANCH  15  16
ENDBRANCH  14  15
BRANCH  14  20
HETATM   20  C12 UNL     1      71.283  60.857  41.921  1.00  0.00     0.340 C 
BRANCH  20  21
HETATM   21  N8  UNL     1      71.621  59.741  42.770  1.00  0.00    -0.051 N 
ATOM     22  H83 UNL     1      70.965  58.965  42.682  1.00  0.00     0.277 HD
ATOM     23  H82 UNL     1      72.458  59.248  42.460  1.00  0.00     0.277 HD
ATOM     24  H81 UNL     1      71.697  60.085  43.727  1.00  0.00     0.277 HD
ENDBRANCH  20  21
BRANCH  20  25
HETATM   25  O7  UNL     1      72.413  61.237  41.165  1.00  0.00    -0.368 OA
ATOM     26  H7  UNL     1      72.918  61.834  41.705  1.00  0.00     0.212 HD
ENDBRANCH  20  25
ENDBRANCH  14  20
ENDBRANCH  12  14
ENDBRANCH   9  12
ENDBRANCH   6   9
BRANCH   5  27
HETATM   27  N2  UNL     1      67.743  56.650  43.220  1.00  0.00    -0.270 N 
HETATM   28  C6  UNL     1      67.165  57.332  44.306  1.00  0.00     0.182 C 
HETATM   29  N3  UNL     1      66.191  58.223  44.455  1.00  0.00    -0.371 N 
HETATM   30  N4  UNL     1      68.045  56.684  45.192  1.00  0.00    -0.319 N 
ATOM     31  H32 UNL     1      65.553  58.693  43.813  1.00  0.00     0.159 HD
ATOM     32  H31 UNL     1      65.772  58.718  45.243  1.00  0.00     0.159 HD
HETATM   33  C7  UNL     1      68.821  56.234  44.055  1.00  0.00     0.370 C 
ATOM     34  H4  UNL     1      68.109  56.578  46.204  1.00  0.00     0.166 HD
BRANCH  33  35
HETATM   35  N5  UNL     1      70.038  57.026  44.052  1.00  0.00    -0.109 N 
HETATM   36  O4  UNL     1      70.758  56.988  43.053  1.00  0.00    -0.533 OA
HETATM   37  O5  UNL     1      70.409  57.803  45.112  1.00  0.00    -0.533 OA
ENDBRANCH  33  35
ENDBRANCH   5  27
BRANCH   7  38
HETATM   38  N9  UNL     1      67.695  57.980  38.506  1.00  0.00    -0.298 N 
HETATM   39  C14 UNL     1      68.823  57.577  37.703  1.00  0.00     0.364 C 
HETATM   40  O8  UNL     1      69.476  56.527  37.930  1.00  0.00    -0.238 OA
ATOM     41  H9  UNL     1      67.175  58.835  38.310  1.00  0.00     0.171 HD
BRANCH  39  42
HETATM   42  O9  UNL     1      69.243  58.353  36.620  1.00  0.00    -0.309 OA
HETATM   43  C15 UNL     1      70.605  58.399  36.207  1.00  0.00     0.215 C 
ENDBRANCH  39  42
ENDBRANCH   7  38
BRANCH   4  44
HETATM   44  O3  UNL     1      66.381  54.490  42.572  1.00  0.00    -0.344 OA
ATOM     45  H3  UNL     1      66.973  53.806  42.865  1.00  0.00     0.219 HD
ENDBRANCH   4  44
BRANCH   8  46
HETATM   46  N10 UNL     1      66.237  55.754  38.115  1.00  0.00    -0.383 N 
ATOM     47 2H10 UNL     1      65.471  55.098  37.964  1.00  0.00     0.157 HD
ATOM     48 1H10 UNL     1      66.724  56.242  37.363  1.00  0.00     0.157 HD
ENDBRANCH   8  46
BRANCH   1  49
HETATM   49  C2  UNL     1      65.112  52.920  40.927  1.00  0.00     0.270 C 
BRANCH  49  50
HETATM   50  O1  UNL     1      66.120  51.944  41.026  1.00  0.00    -0.387 OA
HETATM   51  C1  UNL     1      65.571  50.749  40.590  1.00  0.00     0.202 C 
ENDBRANCH  49  50
ENDBRANCH   1  49
TORSDOF 17
ENDMDL
MODEL 5
REMARK VINA RESULT: -7.387907903      2.461      5.571
REMARK  17 active torsions:
REMARK  status: ('A' for Active; 'I' for Inactive)
REMARK    1  A    between atoms: O1_2  and  C2_3 
REMARK    2  A    between atoms: C2_3  and  C3_4 
REMARK       I    between atoms: C3_4  and  N1_6 
REMARK    3  A    between atoms: C4_7  and  O3_8 
REMARK    4  A    between atoms: C5_10  and  N2_11 
REMARK    5  A    between atoms: C7_18  and  N5_19 
REMARK    6  A    between atoms: C8_22  and  C9_23 
REMARK    7  A    between atoms: C9_23  and  O6_24 
REMARK    8  A    between atoms: C9_23  and  N6_26 
REMARK    9  A    between atoms: N6_26  and  C10_28 
REMARK   10  A    between atoms: C10_28  and  C11_29 
REMARK   11  A    between atoms: C10_28  and  C12_34 
REMARK   12  A    between atoms: C11_29  and  N7_30 
REMARK   13  A    between atoms: C12_34  and  N8_35 
REMARK   14  A    between atoms: C12_34  and  O7_39 
REMARK   15  A    between atoms: C13_41  and  N9_42 
REMARK       I    between atoms: N9_42  and  C14_44 
REMARK   16  A    between atoms: C14_44  and  O9_46 
REMARK   17  A    between atoms: C16_48  and  N10_49 
ROOT
HETATM    1  C3  UNL     1      69.357  58.823  37.836  1.00  0.00     0.255 C 
HETATM    2  O2  UNL     1      70.155  59.789  37.908  1.00  0.00    -0.270 OA
HETATM    3  N1  UNL     1      68.832  58.317  39.061  1.00  0.00    -0.242 N 
HETATM    4  C4  UNL     1      67.983  57.299  39.077  1.00  0.00     0.179 A 
HETATM    5  C5  UNL     1      67.459  56.796  40.299  1.00  0.00     0.109 A 
HETATM    6  C8  UNL     1      67.800  57.329  41.511  1.00  0.00     0.076 A 
HETATM    7  C13 UNL     1      68.707  58.409  41.451  1.00  0.00     0.098 A 
HETATM    8  C16 UNL     1      69.179  58.852  40.235  1.00  0.00     0.138 A 
ENDROOT
BRANCH   6   9
HETATM    9  C9  UNL     1      67.307  56.959  42.785  1.00  0.00     0.151 C 
BRANCH   9  10
HETATM   10  O6  UNL     1      68.069  56.122  43.454  1.00  0.00    -0.346 OA
ATOM     11  H6  UNL     1      67.920  56.105  44.392  1.00  0.00     0.219 HD
ENDBRANCH   9  10
BRANCH   9  12
HETATM   12  N6  UNL     1      66.196  57.242  43.552  1.00  0.00    -0.360 N 
ATOM     13  H6  UNL     1      65.670  58.097  43.371  1.00  0.00     0.162 HD
BRANCH  12  14
HETATM   14  C10 UNL     1      65.749  56.329  44.638  1.00  0.00     0.164 C 
BRANCH  14  15
HETATM   15  C11 UNL     1      64.946  55.199  44.059  1.00  0.00     0.259 C 
BRANCH  15  16
HETATM   16  N7  UNL     1      65.691  53.964  43.988  1.00  0.00    -0.077 N 
ATOM     17  H73 UNL     1      65.216  53.284  43.394  1.00  0.00     0.274 HD
ATOM     18  H72 UNL     1      66.548  54.084  43.447  1.00  0.00     0.274 HD
ATOM     19  H71 UNL     1      65.891  53.570  44.907  1.00  0.00     0.274 HD
ENDBRANCH  15  16
ENDBRANCH  14  15
BRANCH  14  20
HETATM   20  C12 UNL     1      65.021  57.090  45.698  1.00  0.00     0.340 C 
BRANCH  20  21
HETATM   21  N8  UNL     1      65.257  56.433  46.959  1.00  0.00    -0.051 N 
ATOM     22  H83 UNL     1      65.786  55.567  46.860  1.00  0.00     0.277 HD
ATOM     23  H82 UNL     1      65.923  56.933  47.547  1.00  0.00     0.277 HD
ATOM     24  H81 UNL     1      64.355  56.294  47.416  1.00  0.00     0.277 HD
ENDBRANCH  20  21
BRANCH  20  25
HETATM   25  O7  UNL     1      65.578  58.387  45.727  1.00  0.00    -0.368 OA
ATOM     26  H7  UNL     1      65.038  58.907  46.312  1.00  0.00     0.212 HD
ENDBRANCH  20  25
ENDBRANCH  14  20
ENDBRANCH  12  14
ENDBRANCH   9  12
ENDBRANCH   6   9
BRANCH   5  27
HETATM   27  N2  UNL     1      66.525  55.724  40.167  1.00  0.00    -0.270 N 
HETATM   28  C6  UNL     1      65.130  55.598  40.296  1.00  0.00     0.182 C 
HETATM   29  N3  UNL     1      64.145  56.373  40.737  1.00  0.00    -0.371 N 
HETATM   30  N4  UNL     1      65.190  54.298  39.762  1.00  0.00    -0.319 N 
ATOM     31  H32 UNL     1      64.101  57.316  41.124  1.00  0.00     0.159 HD
ATOM     32  H31 UNL     1      63.133  56.281  40.830  1.00  0.00     0.159 HD
HETATM   33  C7  UNL     1      66.628  54.323  39.922  1.00  0.00     0.370 C 
ATOM     34  H4  UNL     1      64.509  53.624  39.411  1.00  0.00     0.166 HD
BRANCH  33  35
HETATM   35  N5  UNL     1      66.930  53.450  41.042  1.00  0.00    -0.109 N 
HETATM   36  O4  UNL     1      67.910  53.714  41.742  1.00  0.00    -0.533 OA
HETATM   37  O5  UNL     1      66.172  52.355  41.342  1.00  0.00    -0.533 OA
ENDBRANCH  33  35
ENDBRANCH   5  27
BRANCH   7  38
HETATM   38  N9  UNL     1      69.173  59.018  42.642  1.00  0.00    -0.298 N 
HETATM   39  C14 UNL     1      70.326  58.416  43.265  1.00  0.00     0.364 C 
HETATM   40  O8  UNL     1      70.899  57.403  42.791  1.00  0.00    -0.238 OA
ATOM     41  H9  UNL     1      68.718  59.840  43.038  1.00  0.00     0.171 HD
BRANCH  39  42
HETATM   42  O9  UNL     1      70.860  58.943  44.442  1.00  0.00    -0.309 OA
HETATM   43  C15 UNL     1      71.222  58.117  45.544  1.00  0.00     0.215 C 
ENDBRANCH  39  42
ENDBRANCH   7  38
BRANCH   4  44
HETATM   44  O3  UNL     1      67.550  56.657  37.927  1.00  0.00    -0.344 OA
ATOM     45  H3  UNL     1      66.658  56.349  37.810  1.00  0.00     0.219 HD
ENDBRANCH   4  44
BRANCH   8  46
HETATM   46  N10 UNL     1      70.007  59.847  40.223  1.00  0.00    -0.383 N 
ATOM     47 2H10 UNL     1      69.931  60.532  39.471  1.00  0.00     0.157 HD
ATOM     48 1H10 UNL     1      70.700  59.897  40.970  1.00  0.00     0.157 HD
ENDBRANCH   8  46
BRANCH   1  49
HETATM   49  C2  UNL     1      69.015  58.280  36.512  1.00  0.00     0.270 C 
BRANCH  49  50
HETATM   50  O1  UNL     1      70.201  57.955  35.830  1.00  0.00    -0.387 OA
HETATM   51  C1  UNL     1      70.532  56.658  36.185  1.00  0.00     0.202 C 
ENDBRANCH  49  50
ENDBRANCH   1  49
TORSDOF 17
ENDMDL
