MODEL 1
REMARK VINA RESULT: -9.115169632      0.000      0.000
REMARK  13 active torsions:
REMARK  status: ('A' for Active; 'I' for Inactive)
REMARK    1  A    between atoms: N1_1  and  C1_4 
REMARK    2  A    between atoms: C2_7  and  N3_8 
REMARK    3  A    between atoms: N5_18  and  C9_19 
REMARK    4  A    between atoms: C9_19  and  C10_20 
REMARK    5  A    between atoms: C10_20  and  O2_21 
REMARK    6  A    between atoms: C10_20  and  C11_23 
REMARK    7  A    between atoms: C11_23  and  O3_24 
REMARK    8  A    between atoms: C11_23  and  C12_26 
REMARK    9  A    between atoms: C12_26  and  O4_27 
REMARK   10  A    between atoms: O4_27  and  N6_28 
REMARK   11  A    between atoms: N6_28  and  C13_30 
REMARK   12  A    between atoms: C14_33  and  N8_34 
REMARK   13  A    between atoms: N8_34  and  N9_36 
ROOT
HETATM    1  C11 UNL     1      71.264  60.603  40.944  1.00  0.00     0.174 C 
ENDROOT
BRANCH   1   2
HETATM    2  C10 UNL     1      70.723  60.452  39.584  1.00  0.00     0.167 C 
BRANCH   2   3
HETATM    3  C9  UNL     1      69.279  60.356  39.345  1.00  0.00     0.165 C 
BRANCH   3   4
HETATM    4  N5  UNL     1      68.630  59.101  39.565  1.00  0.00    -0.324 N 
HETATM    5  C8  UNL     1      67.723  58.786  40.524  1.00  0.00     0.185 A 
HETATM    6  N4  UNL     1      67.395  57.504  40.410  1.00  0.00    -0.346 N 
HETATM    7  C7  UNL     1      68.071  56.965  39.392  1.00  0.00     0.123 A 
ATOM      8  H4  UNL     1      66.732  57.009  41.006  1.00  0.00     0.167 HD
HETATM    9  C2  UNL     1      68.106  55.689  38.829  1.00  0.00     0.150 A 
HETATM   10  C18 UNL     1      68.843  57.980  38.868  1.00  0.00     0.155 A 
HETATM   11  N2  UNL     1      68.904  55.502  37.783  1.00  0.00    -0.175 N 
HETATM   12  C1  UNL     1      69.668  56.461  37.245  1.00  0.00     0.679 A 
ATOM     13  H2  UNL     1      68.937  54.571  37.366  1.00  0.00     0.186 HD
HETATM   14  N14 UNL     1      69.632  57.685  37.788  1.00  0.00    -0.174 N 
ATOM     15  H14 UNL     1      70.211  58.421  37.384  1.00  0.00     0.186 HD
BRANCH   9  16
HETATM   16  N3  UNL     1      67.296  54.705  39.413  1.00  0.00    -0.361 N 
HETATM   17  C3  UNL     1      67.834  53.882  40.470  1.00  0.00     0.150 C 
HETATM   18  C4  UNL     1      66.977  54.127  41.701  1.00  0.00     0.187 C 
HETATM   19  O1  UNL     1      65.734  54.621  41.396  1.00  0.00    -0.388 OA
HETATM   20  C5  UNL     1      65.162  54.076  40.262  1.00  0.00     0.187 C 
HETATM   21  C6  UNL     1      65.932  54.475  39.001  1.00  0.00     0.150 C 
ENDBRANCH   9  16
BRANCH  12  22
HETATM   22  N1  UNL     1      70.432  56.202  36.211  1.00  0.00    -0.234 N 
ATOM     23  H12 UNL     1      70.582  55.244  35.895  1.00  0.00     0.174 HD
ATOM     24  H11 UNL     1      70.890  56.959  35.703  1.00  0.00     0.174 HD
ENDBRANCH  12  22
ENDBRANCH   3   4
ENDBRANCH   2   3
BRANCH   2  25
HETATM   25  O2  UNL     1      71.331  61.362  38.666  1.00  0.00    -0.391 OA
ATOM     26  H2  UNL     1      71.951  60.911  38.105  1.00  0.00     0.210 HD
ENDBRANCH   2  25
ENDBRANCH   1   2
BRANCH   1  27
HETATM   27  O3  UNL     1      72.457  61.263  41.095  1.00  0.00    -0.391 OA
ATOM     28  H3  UNL     1      73.136  60.847  41.611  1.00  0.00     0.210 HD
ENDBRANCH   1  27
BRANCH   1  29
HETATM   29  C12 UNL     1      70.270  61.035  41.988  1.00  0.00     0.235 C 
BRANCH  29  30
HETATM   30  O4  UNL     1      70.759  60.660  43.264  1.00  0.00    -0.276 OA
BRANCH  30  31
HETATM   31  N6  UNL     1      71.771  59.753  43.444  1.00  0.00    -0.248 N 
ATOM     32  H6  UNL     1      72.696  59.975  43.074  1.00  0.00     0.196 HD
BRANCH  31  33
HETATM   33  C13 UNL     1      71.608  58.634  44.060  1.00  0.00     0.171 A 
HETATM   34  N7  UNL     1      72.632  58.039  44.651  1.00  0.00    -0.171 N 
HETATM   35  C14 UNL     1      72.517  56.862  45.312  1.00  0.00     0.699 A 
ATOM     36  H7  UNL     1      73.547  58.485  44.607  1.00  0.00     0.186 HD
HETATM   37  N10 UNL     1      71.309  56.275  45.368  1.00  0.00    -0.173 N 
HETATM   38  C15 UNL     1      70.236  56.858  44.772  1.00  0.00     0.154 A 
ATOM     39  H10 UNL     1      71.198  55.388  45.859  1.00  0.00     0.186 HD
HETATM   40  N11 UNL     1      68.933  56.508  44.666  1.00  0.00    -0.314 N 
HETATM   41  C17 UNL     1      70.343  58.060  44.094  1.00  0.00     0.126 A 
HETATM   42  C16 UNL     1      68.263  57.447  43.958  1.00  0.00     0.194 A 
ATOM     43  H11 UNL     1      68.519  55.664  45.061  1.00  0.00     0.170 HD
HETATM   44  N12 UNL     1      66.874  57.408  43.650  1.00  0.00    -0.063 NA
HETATM   45  N13 UNL     1      69.139  58.406  43.605  1.00  0.00    -0.324 N 
ATOM     46  H13 UNL     1      68.927  59.245  43.065  1.00  0.00     0.169 HD
BRANCH  35  47
HETATM   47  N8  UNL     1      73.649  56.271  45.926  1.00  0.00    -0.138 N 
ATOM     48  H8  UNL     1      74.531  56.220  45.416  1.00  0.00     0.205 HD
BRANCH  47  49
HETATM   49  N9  UNL     1      73.570  55.764  47.206  1.00  0.00    -0.331 N 
ATOM     50  H92 UNL     1      73.020  56.271  47.901  1.00  0.00     0.177 HD
ATOM     51  H91 UNL     1      74.051  54.900  47.454  1.00  0.00     0.177 HD
ENDBRANCH  47  49
ENDBRANCH  35  47
ENDBRANCH  31  33
ENDBRANCH  30  31
ENDBRANCH  29  30
ENDBRANCH   1  29
TORSDOF 13
ENDMDL
MODEL 2
REMARK VINA RESULT: -9.082923946      2.277      3.476
REMARK  13 active torsions:
REMARK  status: ('A' for Active; 'I' for Inactive)
REMARK    1  A    between atoms: N1_1  and  C1_4 
REMARK    2  A    between atoms: C2_7  and  N3_8 
REMARK    3  A    between atoms: N5_18  and  C9_19 
REMARK    4  A    between atoms: C9_19  and  C10_20 
REMARK    5  A    between atoms: C10_20  and  O2_21 
REMARK    6  A    between atoms: C10_20  and  C11_23 
REMARK    7  A    between atoms: C11_23  and  O3_24 
REMARK    8  A    between atoms: C11_23  and  C12_26 
REMARK    9  A    between atoms: C12_26  and  O4_27 
REMARK   10  A    between atoms: O4_27  and  N6_28 
REMARK   11  A    between atoms: N6_28  and  C13_30 
REMARK   12  A    between atoms: C14_33  and  N8_34 
REMARK   13  A    between atoms: N8_34  and  N9_36 
ROOT
HETATM    1  C11 UNL     1      70.927  60.547  40.473  1.00  0.00     0.174 C 
ENDROOT
BRANCH   1   2
HETATM    2  C10 UNL     1      70.320  60.545  39.132  1.00  0.00     0.167 C 
BRANCH   2   3
HETATM    3  C9  UNL     1      69.306  59.554  38.757  1.00  0.00     0.165 C 
BRANCH   3   4
HETATM    4  N5  UNL     1      69.643  58.563  37.782  1.00  0.00    -0.324 N 
HETATM    5  C8  UNL     1      70.158  58.752  36.541  1.00  0.00     0.185 A 
HETATM    6  N4  UNL     1      70.289  57.576  35.939  1.00  0.00    -0.346 N 
HETATM    7  C7  UNL     1      69.869  56.611  36.761  1.00  0.00     0.123 A 
ATOM      8  H4  UNL     1      70.653  57.432  34.997  1.00  0.00     0.167 HD
HETATM    9  C2  UNL     1      69.795  55.222  36.654  1.00  0.00     0.150 A 
HETATM   10  C18 UNL     1      69.467  57.244  37.918  1.00  0.00     0.155 A 
HETATM   11  N2  UNL     1      69.326  54.550  37.702  1.00  0.00    -0.175 N 
HETATM   12  C1  UNL     1      68.927  55.128  38.842  1.00  0.00     0.679 A 
ATOM     13  H2  UNL     1      69.267  53.535  37.633  1.00  0.00     0.186 HD
HETATM   14  N14 UNL     1      69.000  56.462  38.941  1.00  0.00    -0.174 N 
ATOM     15  H14 UNL     1      68.697  56.910  39.806  1.00  0.00     0.186 HD
BRANCH   9  16
HETATM   16  N3  UNL     1      70.221  54.645  35.450  1.00  0.00    -0.361 N 
HETATM   17  C3  UNL     1      71.633  54.466  35.212  1.00  0.00     0.150 C 
HETATM   18  C4  UNL     1      71.866  52.974  35.035  1.00  0.00     0.187 C 
HETATM   19  O1  UNL     1      70.729  52.295  34.675  1.00  0.00    -0.388 OA
HETATM   20  C5  UNL     1      69.916  52.971  33.785  1.00  0.00     0.187 C 
HETATM   21  C6  UNL     1      69.299  54.216  34.425  1.00  0.00     0.150 C 
ENDBRANCH   9  16
BRANCH  12  22
HETATM   22  N1  UNL     1      68.476  54.400  39.835  1.00  0.00    -0.234 N 
ATOM     23  H12 UNL     1      67.490  54.145  39.893  1.00  0.00     0.174 HD
ATOM     24  H11 UNL     1      69.106  54.076  40.568  1.00  0.00     0.174 HD
ENDBRANCH  12  22
ENDBRANCH   3   4
ENDBRANCH   2   3
BRANCH   2  25
HETATM   25  O2  UNL     1      69.927  61.856  38.725  1.00  0.00    -0.391 OA
ATOM     26  H2  UNL     1      69.213  61.815  38.099  1.00  0.00     0.210 HD
ENDBRANCH   2  25
ENDBRANCH   1   2
BRANCH   1  27
HETATM   27  O3  UNL     1      72.162  61.126  40.621  1.00  0.00    -0.391 OA
ATOM     28  H3  UNL     1      72.838  60.629  41.067  1.00  0.00     0.210 HD
ENDBRANCH   1  27
BRANCH   1  29
HETATM   29  C12 UNL     1      70.006  60.941  41.596  1.00  0.00     0.235 C 
BRANCH  29  30
HETATM   30  O4  UNL     1      70.639  60.646  42.828  1.00  0.00    -0.276 OA
BRANCH  30  31
HETATM   31  N6  UNL     1      71.515  59.603  42.993  1.00  0.00    -0.248 N 
ATOM     32  H6  UNL     1      72.430  59.659  42.545  1.00  0.00     0.196 HD
BRANCH  31  33
HETATM   33  C13 UNL     1      71.233  58.556  43.687  1.00  0.00     0.171 A 
HETATM   34  N7  UNL     1      71.984  58.217  44.723  1.00  0.00    -0.171 N 
HETATM   35  C14 UNL     1      71.735  57.127  45.486  1.00  0.00     0.699 A 
ATOM     36  H7  UNL     1      72.786  58.802  44.956  1.00  0.00     0.186 HD
HETATM   37  N10 UNL     1      70.678  56.356  45.176  1.00  0.00    -0.173 N 
HETATM   38  C15 UNL     1      69.886  56.674  44.119  1.00  0.00     0.154 A 
ATOM     39  H10 UNL     1      70.470  55.529  45.737  1.00  0.00     0.186 HD
HETATM   40  N11 UNL     1      68.784  56.100  43.584  1.00  0.00    -0.314 N 
HETATM   41  C17 UNL     1      70.133  57.786  43.333  1.00  0.00     0.126 A 
HETATM   42  C16 UNL     1      68.365  56.820  42.517  1.00  0.00     0.194 A 
ATOM     43  H11 UNL     1      68.336  55.253  43.932  1.00  0.00     0.170 HD
HETATM   44  N12 UNL     1      67.234  56.512  41.710  1.00  0.00    -0.063 NA
HETATM   45  N13 UNL     1      69.203  57.863  42.364  1.00  0.00    -0.324 N 
ATOM     46  H13 UNL     1      69.142  58.582  41.643  1.00  0.00     0.169 HD
BRANCH  35  47
HETATM   47  N8  UNL     1      72.574  56.813  46.584  1.00  0.00    -0.138 N 
ATOM     48  H8  UNL     1      72.423  57.271  47.482  1.00  0.00     0.205 HD
BRANCH  47  49
HETATM   49  N9  UNL     1      73.594  55.894  46.449  1.00  0.00    -0.331 N 
ATOM     50  H92 UNL     1      74.318  56.064  45.752  1.00  0.00     0.177 HD
ATOM     51  H91 UNL     1      73.624  55.061  47.037  1.00  0.00     0.177 HD
ENDBRANCH  47  49
ENDBRANCH  35  47
ENDBRANCH  31  33
ENDBRANCH  30  31
ENDBRANCH  29  30
ENDBRANCH   1  29
TORSDOF 13
ENDMDL
MODEL 3
REMARK VINA RESULT: -8.893047303      2.163      3.387
REMARK  13 active torsions:
REMARK  status: ('A' for Active; 'I' for Inactive)
REMARK    1  A    between atoms: N1_1  and  C1_4 
REMARK    2  A    between atoms: C2_7  and  N3_8 
REMARK    3  A    between atoms: N5_18  and  C9_19 
REMARK    4  A    between atoms: C9_19  and  C10_20 
REMARK    5  A    between atoms: C10_20  and  O2_21 
REMARK    6  A    between atoms: C10_20  and  C11_23 
REMARK    7  A    between atoms: C11_23  and  O3_24 
REMARK    8  A    between atoms: C11_23  and  C12_26 
REMARK    9  A    between atoms: C12_26  and  O4_27 
REMARK   10  A    between atoms: O4_27  and  N6_28 
REMARK   11  A    between atoms: N6_28  and  C13_30 
REMARK   12  A    between atoms: C14_33  and  N8_34 
REMARK   13  A    between atoms: N8_34  and  N9_36 
ROOT
HETATM    1  C11 UNL     1      69.839  60.947  40.684  1.00  0.00     0.174 C 
ENDROOT
BRANCH   1   2
HETATM    2  C10 UNL     1      69.782  60.577  39.261  1.00  0.00     0.167 C 
BRANCH   2   3
HETATM    3  C9  UNL     1      68.731  59.693  38.745  1.00  0.00     0.165 C 
BRANCH   3   4
HETATM    4  N5  UNL     1      69.111  58.578  37.933  1.00  0.00    -0.324 N 
HETATM    5  C8  UNL     1      69.548  58.590  36.649  1.00  0.00     0.185 A 
HETATM    6  N4  UNL     1      69.756  57.342  36.247  1.00  0.00    -0.346 N 
HETATM    7  C7  UNL     1      69.463  56.503  37.244  1.00  0.00     0.123 A 
ATOM      8  H4  UNL     1      70.087  57.067  35.322  1.00  0.00     0.167 HD
HETATM    9  C2  UNL     1      69.509  55.115  37.378  1.00  0.00     0.150 A 
HETATM   10  C18 UNL     1      69.060  57.293  38.300  1.00  0.00     0.155 A 
HETATM   11  N2  UNL     1      69.151  54.600  38.550  1.00  0.00    -0.175 N 
HETATM   12  C1  UNL     1      68.755  55.333  39.598  1.00  0.00     0.679 A 
ATOM     13  H2  UNL     1      69.180  53.586  38.657  1.00  0.00     0.186 HD
HETATM   14  N14 UNL     1      68.712  56.665  39.466  1.00  0.00    -0.174 N 
ATOM     15  H14 UNL     1      68.410  57.230  40.260  1.00  0.00     0.186 HD
BRANCH   9  16
HETATM   16  N3  UNL     1      69.928  54.374  36.264  1.00  0.00    -0.361 N 
HETATM   17  C3  UNL     1      69.028  53.408  35.679  1.00  0.00     0.150 C 
HETATM   18  C4  UNL     1      68.784  53.845  34.244  1.00  0.00     0.187 C 
HETATM   19  O1  UNL     1      69.771  54.667  33.760  1.00  0.00    -0.388 OA
HETATM   20  C5  UNL     1      71.048  54.328  34.164  1.00  0.00     0.187 C 
HETATM   21  C6  UNL     1      71.232  54.536  35.669  1.00  0.00     0.150 C 
ENDBRANCH   9  16
BRANCH  12  22
HETATM   22  N1  UNL     1      68.417  54.754  40.725  1.00  0.00    -0.234 N 
ATOM     23  H12 UNL     1      68.863  55.014  41.604  1.00  0.00     0.174 HD
ATOM     24  H11 UNL     1      67.697  54.031  40.741  1.00  0.00     0.174 HD
ENDBRANCH  12  22
ENDBRANCH   3   4
ENDBRANCH   2   3
BRANCH   2  25
HETATM   25  O2  UNL     1      69.957  61.710  38.410  1.00  0.00    -0.391 OA
ATOM     26  H2  UNL     1      70.819  61.704  38.013  1.00  0.00     0.210 HD
ENDBRANCH   2  25
ENDBRANCH   1   2
BRANCH   1  27
HETATM   27  O3  UNL     1      68.738  60.695  41.461  1.00  0.00    -0.391 OA
ATOM     28  H3  UNL     1      68.450  59.794  41.550  1.00  0.00     0.210 HD
ENDBRANCH   1  27
BRANCH   1  29
HETATM   29  C12 UNL     1      71.107  60.560  41.399  1.00  0.00     0.235 C 
BRANCH  29  30
HETATM   30  O4  UNL     1      70.852  60.535  42.793  1.00  0.00    -0.276 OA
BRANCH  30  31
HETATM   31  N6  UNL     1      71.674  59.911  43.696  1.00  0.00    -0.248 N 
ATOM     32  H6  UNL     1      72.567  60.349  43.926  1.00  0.00     0.196 HD
BRANCH  31  33
HETATM   33  C13 UNL     1      71.370  58.798  44.267  1.00  0.00     0.171 A 
HETATM   34  N7  UNL     1      72.163  58.281  45.193  1.00  0.00    -0.171 N 
HETATM   35  C14 UNL     1      71.892  57.115  45.824  1.00  0.00     0.699 A 
ATOM     36  H7  UNL     1      73.016  58.783  45.440  1.00  0.00     0.186 HD
HETATM   37  N10 UNL     1      70.768  56.454  45.496  1.00  0.00    -0.173 N 
HETATM   38  C15 UNL     1      69.931  56.957  44.551  1.00  0.00     0.154 A 
ATOM     39  H10 UNL     1      70.543  55.573  45.958  1.00  0.00     0.186 HD
HETATM   40  N11 UNL     1      68.761  56.524  44.029  1.00  0.00    -0.314 N 
HETATM   41  C17 UNL     1      70.200  58.147  43.899  1.00  0.00     0.126 A 
HETATM   42  C16 UNL     1      68.321  57.403  43.098  1.00  0.00     0.194 A 
ATOM     43  H11 UNL     1      68.281  55.664  44.296  1.00  0.00     0.170 HD
HETATM   44  N12 UNL     1      67.122  57.271  42.343  1.00  0.00    -0.063 NA
HETATM   45  N13 UNL     1      69.215  58.407  43.020  1.00  0.00    -0.324 N 
ATOM     46  H13 UNL     1      69.155  59.219  42.405  1.00  0.00     0.169 HD
BRANCH  35  47
HETATM   47  N8  UNL     1      72.779  56.609  46.807  1.00  0.00    -0.138 N 
ATOM     48  H8  UNL     1      72.659  56.880  47.783  1.00  0.00     0.205 HD
BRANCH  47  49
HETATM   49  N9  UNL     1      73.804  55.754  46.457  1.00  0.00    -0.331 N 
ATOM     50  H92 UNL     1      73.649  55.087  45.701  1.00  0.00     0.177 HD
ATOM     51  H91 UNL     1      74.700  55.789  46.943  1.00  0.00     0.177 HD
ENDBRANCH  47  49
ENDBRANCH  35  47
ENDBRANCH  31  33
ENDBRANCH  30  31
ENDBRANCH  29  30
ENDBRANCH   1  29
TORSDOF 13
ENDMDL
MODEL 4
REMARK VINA RESULT: -8.784697713      1.811      2.596
REMARK  13 active torsions:
REMARK  status: ('A' for Active; 'I' for Inactive)
REMARK    1  A    between atoms: N1_1  and  C1_4 
REMARK    2  A    between atoms: C2_7  and  N3_8 
REMARK    3  A    between atoms: N5_18  and  C9_19 
REMARK    4  A    between atoms: C9_19  and  C10_20 
REMARK    5  A    between atoms: C10_20  and  O2_21 
REMARK    6  A    between atoms: C10_20  and  C11_23 
REMARK    7  A    between atoms: C11_23  and  O3_24 
REMARK    8  A    between atoms: C11_23  and  C12_26 
REMARK    9  A    between atoms: C12_26  and  O4_27 
REMARK   10  A    between atoms: O4_27  and  N6_28 
REMARK   11  A    between atoms: N6_28  and  C13_30 
REMARK   12  A    between atoms: C14_33  and  N8_34 
REMARK   13  A    between atoms: N8_34  and  N9_36 
ROOT
HETATM    1  C11 UNL     1      71.017  60.483  40.839  1.00  0.00     0.174 C 
ENDROOT
BRANCH   1   2
HETATM    2  C10 UNL     1      70.179  60.193  39.666  1.00  0.00     0.167 C 
BRANCH   2   3
HETATM    3  C9  UNL     1      68.994  59.334  39.769  1.00  0.00     0.165 C 
BRANCH   3   4
HETATM    4  N5  UNL     1      68.951  58.131  38.998  1.00  0.00    -0.324 N 
HETATM    5  C8  UNL     1      69.142  57.987  37.662  1.00  0.00     0.185 A 
HETATM    6  N4  UNL     1      68.978  56.711  37.332  1.00  0.00    -0.346 N 
HETATM    7  C7  UNL     1      68.681  56.008  38.428  1.00  0.00     0.123 A 
ATOM      8  H4  UNL     1      69.064  56.328  36.391  1.00  0.00     0.167 HD
HETATM    9  C2  UNL     1      68.425  54.656  38.663  1.00  0.00     0.150 A 
HETATM   10  C18 UNL     1      68.669  56.911  39.469  1.00  0.00     0.155 A 
HETATM   11  N2  UNL     1      68.173  54.289  39.916  1.00  0.00    -0.175 N 
HETATM   12  C1  UNL     1      68.153  55.135  40.953  1.00  0.00     0.679 A 
ATOM     13  H2  UNL     1      67.983  53.303  40.097  1.00  0.00     0.186 HD
HETATM   14  N14 UNL     1      68.399  56.432  40.724  1.00  0.00    -0.174 N 
ATOM     15  H14 UNL     1      68.385  57.083  41.508  1.00  0.00     0.186 HD
BRANCH   9  16
HETATM   16  N3  UNL     1      68.453  53.794  37.559  1.00  0.00    -0.361 N 
HETATM   17  C3  UNL     1      69.712  53.522  36.906  1.00  0.00     0.150 C 
HETATM   18  C4  UNL     1      69.953  52.025  37.020  1.00  0.00     0.187 C 
HETATM   19  O1  UNL     1      68.801  51.313  37.236  1.00  0.00    -0.388 OA
HETATM   20  C5  UNL     1      67.701  51.777  36.541  1.00  0.00     0.187 C 
HETATM   21  C6  UNL     1      67.267  53.157  37.038  1.00  0.00     0.150 C 
ENDBRANCH   9  16
BRANCH  12  22
HETATM   22  N1  UNL     1      67.897  54.700  42.163  1.00  0.00    -0.234 N 
ATOM     23  H12 UNL     1      67.209  55.165  42.754  1.00  0.00     0.174 HD
ATOM     24  H11 UNL     1      68.384  53.883  42.534  1.00  0.00     0.174 HD
ENDBRANCH  12  22
ENDBRANCH   3   4
ENDBRANCH   2   3
BRANCH   2  25
HETATM   25  O2  UNL     1      69.887  61.374  38.916  1.00  0.00    -0.391 OA
ATOM     26  H2  UNL     1      70.473  62.081  39.157  1.00  0.00     0.210 HD
ENDBRANCH   2  25
ENDBRANCH   1   2
BRANCH   1  27
HETATM   27  O3  UNL     1      72.204  61.142  40.638  1.00  0.00    -0.391 OA
ATOM     28  H3  UNL     1      72.338  61.576  39.804  1.00  0.00     0.210 HD
ENDBRANCH   1  27
BRANCH   1  29
HETATM   29  C12 UNL     1      70.285  61.038  42.032  1.00  0.00     0.235 C 
BRANCH  29  30
HETATM   30  O4  UNL     1      71.030  60.741  43.201  1.00  0.00    -0.276 OA
BRANCH  30  31
HETATM   31  N6  UNL     1      71.969  59.744  43.260  1.00  0.00    -0.248 N 
ATOM     32  H6  UNL     1      72.845  59.868  42.751  1.00  0.00     0.196 HD
BRANCH  31  33
HETATM   33  C13 UNL     1      71.796  58.658  43.930  1.00  0.00     0.171 A 
HETATM   34  N7  UNL     1      72.821  58.068  44.525  1.00  0.00    -0.171 N 
HETATM   35  C14 UNL     1      72.697  56.925  45.241  1.00  0.00     0.699 A 
ATOM     36  H7  UNL     1      73.745  58.492  44.441  1.00  0.00     0.186 HD
HETATM   37  N10 UNL     1      71.479  56.367  45.350  1.00  0.00    -0.173 N 
HETATM   38  C15 UNL     1      70.405  56.947  44.752  1.00  0.00     0.154 A 
ATOM     39  H10 UNL     1      71.360  55.506  45.884  1.00  0.00     0.186 HD
HETATM   40  N11 UNL     1      69.093  56.620  44.691  1.00  0.00    -0.314 N 
HETATM   41  C17 UNL     1      70.522  58.113  44.018  1.00  0.00     0.126 A 
HETATM   42  C16 UNL     1      68.426  57.540  43.955  1.00  0.00     0.194 A 
ATOM     43  H11 UNL     1      68.670  55.804  45.132  1.00  0.00     0.170 HD
HETATM   44  N12 UNL     1      67.030  57.518  43.680  1.00  0.00    -0.063 NA
HETATM   45  N13 UNL     1      69.314  58.463  43.540  1.00  0.00    -0.324 N 
ATOM     46  H13 UNL     1      69.107  59.281  42.966  1.00  0.00     0.169 HD
BRANCH  35  47
HETATM   47  N8  UNL     1      73.830  56.338  45.857  1.00  0.00    -0.138 N 
ATOM     48  H8  UNL     1      74.749  56.442  45.426  1.00  0.00     0.205 HD
BRANCH  47  49
HETATM   49  N9  UNL     1      73.703  55.628  47.033  1.00  0.00    -0.331 N 
ATOM     50  H92 UNL     1      72.775  55.317  47.319  1.00  0.00     0.177 HD
ATOM     51  H91 UNL     1      74.521  55.418  47.604  1.00  0.00     0.177 HD
ENDBRANCH  47  49
ENDBRANCH  35  47
ENDBRANCH  31  33
ENDBRANCH  30  31
ENDBRANCH  29  30
ENDBRANCH   1  29
TORSDOF 13
ENDMDL
MODEL 5
REMARK VINA RESULT: -8.746542385      2.240      3.498
REMARK  13 active torsions:
REMARK  status: ('A' for Active; 'I' for Inactive)
REMARK    1  A    between atoms: N1_1  and  C1_4 
REMARK    2  A    between atoms: C2_7  and  N3_8 
REMARK    3  A    between atoms: N5_18  and  C9_19 
REMARK    4  A    between atoms: C9_19  and  C10_20 
REMARK    5  A    between atoms: C10_20  and  O2_21 
REMARK    6  A    between atoms: C10_20  and  C11_23 
REMARK    7  A    between atoms: C11_23  and  O3_24 
REMARK    8  A    between atoms: C11_23  and  C12_26 
REMARK    9  A    between atoms: C12_26  and  O4_27 
REMARK   10  A    between atoms: O4_27  and  N6_28 
REMARK   11  A    between atoms: N6_28  and  C13_30 
REMARK   12  A    between atoms: C14_33  and  N8_34 
REMARK   13  A    between atoms: N8_34  and  N9_36 
ROOT
HETATM    1  C11 UNL     1      71.243  60.552  40.938  1.00  0.00     0.174 C 
ENDROOT
BRANCH   1   2
HETATM    2  C10 UNL     1      70.496  60.298  39.696  1.00  0.00     0.167 C 
BRANCH   2   3
HETATM    3  C9  UNL     1      69.033  60.397  39.653  1.00  0.00     0.165 C 
BRANCH   3   4
HETATM    4  N5  UNL     1      68.258  59.357  40.255  1.00  0.00    -0.324 N 
HETATM    5  C8  UNL     1      68.236  58.038  39.936  1.00  0.00     0.185 A 
HETATM    6  N4  UNL     1      67.352  57.417  40.707  1.00  0.00    -0.346 N 
HETATM    7  C7  UNL     1      66.787  58.303  41.532  1.00  0.00     0.123 A 
ATOM      8  H4  UNL     1      67.137  56.421  40.675  1.00  0.00     0.167 HD
HETATM    9  C2  UNL     1      65.826  58.203  42.538  1.00  0.00     0.150 A 
HETATM   10  C18 UNL     1      67.367  59.519  41.239  1.00  0.00     0.155 A 
HETATM   11  N2  UNL     1      65.501  59.316  43.188  1.00  0.00    -0.175 N 
HETATM   12  C1  UNL     1      66.041  60.515  42.934  1.00  0.00     0.679 A 
ATOM     13  H2  UNL     1      64.798  59.253  43.925  1.00  0.00     0.186 HD
HETATM   14  N14 UNL     1      66.964  60.607  41.968  1.00  0.00    -0.174 N 
ATOM     15  H14 UNL     1      67.379  61.517  41.767  1.00  0.00     0.186 HD
BRANCH   9  16
HETATM   16  N3  UNL     1      65.279  56.936  42.783  1.00  0.00    -0.361 N 
HETATM   17  C3  UNL     1      65.714  56.189  43.939  1.00  0.00     0.150 C 
HETATM   18  C4  UNL     1      64.486  55.961  44.805  1.00  0.00     0.187 C 
HETATM   19  O1  UNL     1      63.311  56.063  44.104  1.00  0.00    -0.388 OA
HETATM   20  C5  UNL     1      63.356  55.532  42.829  1.00  0.00     0.187 C 
HETATM   21  C6  UNL     1      64.288  56.337  41.921  1.00  0.00     0.150 C 
ENDBRANCH   9  16
BRANCH  12  22
HETATM   22  N1  UNL     1      65.671  61.570  43.618  1.00  0.00    -0.234 N 
ATOM     23  H12 UNL     1      64.882  62.142  43.316  1.00  0.00     0.174 HD
ATOM     24  H11 UNL     1      66.168  61.838  44.468  1.00  0.00     0.174 HD
ENDBRANCH  12  22
ENDBRANCH   3   4
ENDBRANCH   2   3
BRANCH   2  25
HETATM   25  O2  UNL     1      71.085  60.961  38.577  1.00  0.00    -0.391 OA
ATOM     26  H2  UNL     1      72.032  60.943  38.633  1.00  0.00     0.210 HD
ENDBRANCH   2  25
ENDBRANCH   1   2
BRANCH   1  27
HETATM   27  O3  UNL     1      72.408  61.272  40.855  1.00  0.00    -0.391 OA
ATOM     28  H3  UNL     1      72.725  61.510  39.992  1.00  0.00     0.210 HD
ENDBRANCH   1  27
BRANCH   1  29
HETATM   29  C12 UNL     1      70.410  61.001  42.109  1.00  0.00     0.235 C 
BRANCH  29  30
HETATM   30  O4  UNL     1      71.080  60.645  43.306  1.00  0.00    -0.276 OA
BRANCH  30  31
HETATM   31  N6  UNL     1      71.810  59.492  43.444  1.00  0.00    -0.248 N 
ATOM     32  H6  UNL     1      72.596  59.334  42.813  1.00  0.00     0.196 HD
BRANCH  31  33
HETATM   33  C13 UNL     1      71.548  58.601  44.335  1.00  0.00     0.171 A 
HETATM   34  N7  UNL     1      72.064  58.697  45.551  1.00  0.00    -0.171 N 
HETATM   35  C14 UNL     1      71.822  57.788  46.525  1.00  0.00     0.699 A 
ATOM     36  H7  UNL     1      72.670  59.489  45.763  1.00  0.00     0.186 HD
HETATM   37  N10 UNL     1      71.024  56.744  46.244  1.00  0.00    -0.173 N 
HETATM   38  C15 UNL     1      70.478  56.614  45.006  1.00  0.00     0.154 A 
ATOM     39  H10 UNL     1      70.828  56.046  46.962  1.00  0.00     0.186 HD
HETATM   40  N11 UNL     1      69.659  55.693  44.449  1.00  0.00    -0.314 N 
HETATM   41  C17 UNL     1      70.719  57.537  44.004  1.00  0.00     0.126 A 
HETATM   42  C16 UNL     1      69.403  56.026  43.163  1.00  0.00     0.194 A 
ATOM     43  H11 UNL     1      69.291  54.870  44.927  1.00  0.00     0.170 HD
HETATM   44  N12 UNL     1      68.578  55.285  42.270  1.00  0.00    -0.063 NA
HETATM   45  N13 UNL     1      70.061  57.168  42.890  1.00  0.00    -0.324 N 
ATOM     46  H13 UNL     1      70.060  57.665  41.999  1.00  0.00     0.169 HD
BRANCH  35  47
HETATM   47  N8  UNL     1      72.403  57.943  47.809  1.00  0.00    -0.138 N 
ATOM     48  H8  UNL     1      72.234  58.796  48.340  1.00  0.00     0.205 HD
BRANCH  47  49
HETATM   49  N9  UNL     1      73.194  56.949  48.347  1.00  0.00    -0.331 N 
ATOM     50  H92 UNL     1      73.965  57.214  48.960  1.00  0.00     0.177 HD
ATOM     51  H91 UNL     1      73.011  55.968  48.137  1.00  0.00     0.177 HD
ENDBRANCH  47  49
ENDBRANCH  35  47
ENDBRANCH  31  33
ENDBRANCH  30  31
ENDBRANCH  29  30
ENDBRANCH   1  29
TORSDOF 13
ENDMDL
