MODEL 1
REMARK VINA RESULT: -3.913843281      0.000      0.000
REMARK  3 active torsions:
REMARK  status: ('A' for Active; 'I' for Inactive)
REMARK    1  A    between atoms: N1_2  and  C3_4 
REMARK    2  A    between atoms: C3_4  and  N2_5 
REMARK    3  A    between atoms: C4_7  and  C5_8 
ROOT
HETATM    1  N2  UNL     1      18.684  20.911  94.722  1.00  0.00    -0.376 N 
ATOM      2  H2  UNL     1      18.757  20.305  95.539  1.00  0.00     0.160 HD
HETATM    3  C4  UNL     1      19.646  20.987  93.893  1.00  0.00     0.090 C 
ENDROOT
BRANCH   3   4
HETATM    4  C5  UNL     1      20.904  20.217  94.062  1.00  0.00     0.225 C 
HETATM    5  C6  UNL     1      20.744  18.715  93.857  1.00  0.00     0.066 C 
HETATM    6  C7  UNL     1      21.744  18.649  94.994  1.00  0.00     0.235 C 
HETATM    7  N3  UNL     1      21.220  19.927  95.445  1.00  0.00    -0.066 N 
ATOM      8  H32 UNL     1      21.792  20.564  95.999  1.00  0.00     0.278 HD
ATOM      9  H31 UNL     1      20.503  19.975  96.169  1.00  0.00     0.278 HD
ENDBRANCH   3   4
BRANCH   1  10
HETATM   10  C3  UNL     1      17.515  21.670  94.505  1.00  0.00     0.393 C 
BRANCH  10  11
HETATM   11  N1  UNL     1      16.304  21.005  94.950  1.00  0.00     0.097 N 
HETATM   12  C1  UNL     1      15.265  21.457  94.014  1.00  0.00     0.311 C 
HETATM   13  C2  UNL     1      16.393  19.563  94.765  1.00  0.00     0.311 C 
ENDBRANCH  10  11
ENDBRANCH   1  10
TORSDOF 3
ENDMDL
MODEL 2
REMARK VINA RESULT: -3.830279186      6.311      8.047
REMARK  3 active torsions:
REMARK  status: ('A' for Active; 'I' for Inactive)
REMARK    1  A    between atoms: N1_2  and  C3_4 
REMARK    2  A    between atoms: C3_4  and  N2_5 
REMARK    3  A    between atoms: C4_7  and  C5_8 
ROOT
HETATM    1  N2  UNL     1      19.547  14.515  91.434  1.00  0.00    -0.376 N 
ATOM      2  H2  UNL     1      19.765  13.844  90.698  1.00  0.00     0.160 HD
HETATM    3  C4  UNL     1      18.585  14.294  92.237  1.00  0.00     0.090 C 
ENDROOT
BRANCH   3   4
HETATM    4  C5  UNL     1      17.741  13.076  92.151  1.00  0.00     0.225 C 
HETATM    5  C6  UNL     1      16.280  13.356  91.821  1.00  0.00     0.066 C 
HETATM    6  C7  UNL     1      16.043  12.219  92.795  1.00  0.00     0.235 C 
HETATM    7  N3  UNL     1      17.288  12.598  93.440  1.00  0.00    -0.066 N 
ATOM      8  H32 UNL     1      17.834  11.918  93.971  1.00  0.00     0.278 HD
ATOM      9  H31 UNL     1      17.293  13.207  94.259  1.00  0.00     0.278 HD
ENDBRANCH   3   4
BRANCH   1  10
HETATM   10  C3  UNL     1      20.312  15.692  91.569  1.00  0.00     0.393 C 
BRANCH  10  11
HETATM   11  N1  UNL     1      21.641  15.587  90.993  1.00  0.00     0.097 N 
HETATM   12  C1  UNL     1      21.408  15.346  89.561  1.00  0.00     0.311 C 
HETATM   13  C2  UNL     1      22.351  16.856  91.064  1.00  0.00     0.311 C 
ENDBRANCH  10  11
ENDBRANCH   1  10
TORSDOF 3
ENDMDL
MODEL 3
REMARK VINA RESULT: -3.791784464      6.866      7.586
REMARK  3 active torsions:
REMARK  status: ('A' for Active; 'I' for Inactive)
REMARK    1  A    between atoms: N1_2  and  C3_4 
REMARK    2  A    between atoms: C3_4  and  N2_5 
REMARK    3  A    between atoms: C4_7  and  C5_8 
ROOT
HETATM    1  N2  UNL     1      17.526  13.780  91.602  1.00  0.00    -0.376 N 
ATOM      2  H2  UNL     1      18.150  13.347  92.281  1.00  0.00     0.160 HD
HETATM    3  C4  UNL     1      17.999  14.503  90.668  1.00  0.00     0.090 C 
ENDROOT
BRANCH   3   4
HETATM    4  C5  UNL     1      19.454  14.753  90.515  1.00  0.00     0.225 C 
HETATM    5  C6  UNL     1      20.337  13.639  91.065  1.00  0.00     0.066 C 
HETATM    6  C7  UNL     1      21.212  14.803  91.486  1.00  0.00     0.235 C 
HETATM    7  N3  UNL     1      20.003  15.606  91.549  1.00  0.00    -0.066 N 
ATOM      8  H32 UNL     1      20.037  16.619  91.432  1.00  0.00     0.278 HD
ATOM      9  H31 UNL     1      19.510  15.746  92.431  1.00  0.00     0.278 HD
ENDBRANCH   3   4
BRANCH   1  10
HETATM   10  C3  UNL     1      16.133  13.581  91.692  1.00  0.00     0.393 C 
BRANCH  10  11
HETATM   11  N1  UNL     1      15.766  12.228  92.068  1.00  0.00     0.097 N 
HETATM   12  C1  UNL     1      16.485  11.984  93.327  1.00  0.00     0.311 C 
HETATM   13  C2  UNL     1      14.351  12.137  92.404  1.00  0.00     0.311 C 
ENDBRANCH  10  11
ENDBRANCH   1  10
TORSDOF 3
ENDMDL
MODEL 4
REMARK VINA RESULT: -3.742393446      6.874      7.612
REMARK  3 active torsions:
REMARK  status: ('A' for Active; 'I' for Inactive)
REMARK    1  A    between atoms: N1_2  and  C3_4 
REMARK    2  A    between atoms: C3_4  and  N2_5 
REMARK    3  A    between atoms: C4_7  and  C5_8 
ROOT
HETATM    1  N2  UNL     1      18.120  13.772  91.550  1.00  0.00    -0.376 N 
ATOM      2  H2  UNL     1      18.685  13.207  92.183  1.00  0.00     0.160 HD
HETATM    3  C4  UNL     1      18.677  14.459  90.635  1.00  0.00     0.090 C 
ENDROOT
BRANCH   3   4
HETATM    4  C5  UNL     1      20.148  14.479  90.440  1.00  0.00     0.225 C 
HETATM    5  C6  UNL     1      20.838  15.699  91.039  1.00  0.00     0.066 C 
HETATM    6  C7  UNL     1      21.694  15.586  89.793  1.00  0.00     0.235 C 
HETATM    7  N3  UNL     1      20.550  14.973  89.140  1.00  0.00    -0.066 N 
ATOM      8  H32 UNL     1      20.672  14.339  88.351  1.00  0.00     0.278 HD
ATOM      9  H31 UNL     1      19.912  15.527  88.568  1.00  0.00     0.278 HD
ENDBRANCH   3   4
BRANCH   1  10
HETATM   10  C3  UNL     1      16.716  13.797  91.683  1.00  0.00     0.393 C 
BRANCH  10  11
HETATM   11  N1  UNL     1      16.142  12.498  91.987  1.00  0.00     0.097 N 
HETATM   12  C1  UNL     1      16.680  12.154  93.311  1.00  0.00     0.311 C 
HETATM   13  C2  UNL     1      14.699  12.586  92.164  1.00  0.00     0.311 C 
ENDBRANCH  10  11
ENDBRANCH   1  10
TORSDOF 3
ENDMDL
MODEL 5
REMARK VINA RESULT: -3.682722235      0.984      4.811
REMARK  3 active torsions:
REMARK  status: ('A' for Active; 'I' for Inactive)
REMARK    1  A    between atoms: N1_2  and  C3_4 
REMARK    2  A    between atoms: C3_4  and  N2_5 
REMARK    3  A    between atoms: C4_7  and  C5_8 
ROOT
HETATM    1  N2  UNL     1      19.732  20.392  94.556  1.00  0.00    -0.376 N 
ATOM      2  H2  UNL     1      19.588  19.749  95.334  1.00  0.00     0.160 HD
HETATM    3  C4  UNL     1      18.808  21.196  94.212  1.00  0.00     0.090 C 
ENDROOT
BRANCH   3   4
HETATM    4  C5  UNL     1      17.497  21.245  94.906  1.00  0.00     0.225 C 
HETATM    5  C6  UNL     1      16.686  19.959  94.793  1.00  0.00     0.066 C 
HETATM    6  C7  UNL     1      15.525  20.929  94.693  1.00  0.00     0.235 C 
HETATM    7  N3  UNL     1      16.459  21.889  94.130  1.00  0.00    -0.066 N 
ATOM      8  H32 UNL     1      16.291  22.893  94.206  1.00  0.00     0.278 HD
ATOM      9  H31 UNL     1      16.551  22.003  93.120  1.00  0.00     0.278 HD
ENDBRANCH   3   4
BRANCH   1  10
HETATM   10  C3  UNL     1      20.956  20.395  93.855  1.00  0.00     0.393 C 
BRANCH  10  11
HETATM   11  N1  UNL     1      21.787  19.239  94.141  1.00  0.00     0.097 N 
HETATM   12  C1  UNL     1      21.219  18.666  95.370  1.00  0.00     0.311 C 
HETATM   13  C2  UNL     1      21.629  18.209  93.123  1.00  0.00     0.311 C 
ENDBRANCH  10  11
ENDBRANCH   1  10
TORSDOF 3
ENDMDL
