MODEL 1
REMARK VINA RESULT: -4.805049259      0.000      0.000
REMARK  6 active torsions:
REMARK  status: ('A' for Active; 'I' for Inactive)
REMARK    1  A    between atoms: C2_2  and  N1_3 
REMARK    2  A    between atoms: C2_2  and  C3_7 
REMARK    3  A    between atoms: C3_7  and  N2_8 
REMARK    4  A    between atoms: C3_7  and  O1_12 
REMARK    5  A    between atoms: O1_12  and  C4_13 
REMARK    6  A    between atoms: C4_13  and  C5_14 
ROOT
HETATM    1  C3  UNL     1      20.344  20.840  93.994  1.00  0.00     0.348 C 
ENDROOT
BRANCH   1   2
HETATM    2  C2  UNL     1      21.046  19.481  94.014  1.00  0.00     0.235 C 
HETATM    3  C1  UNL     1      19.995  18.407  94.050  1.00  0.00     0.044 C 
BRANCH   2   4
HETATM    4  N1  UNL     1      21.874  19.382  95.198  1.00  0.00    -0.071 N 
ATOM      5  H13 UNL     1      21.628  18.577  95.775  1.00  0.00     0.274 HD
ATOM      6  H12 UNL     1      22.833  19.114  94.978  1.00  0.00     0.274 HD
ATOM      7  H11 UNL     1      21.827  20.258  95.718  1.00  0.00     0.274 HD
ENDBRANCH   2   4
ENDBRANCH   1   2
BRANCH   1   8
HETATM    8  N2  UNL     1      20.490  21.388  95.329  1.00  0.00    -0.051 N 
ATOM      9  H23 UNL     1      20.581  20.675  96.053  1.00  0.00     0.277 HD
ATOM     10  H22 UNL     1      21.391  21.840  95.486  1.00  0.00     0.277 HD
ATOM     11  H21 UNL     1      19.694  22.009  95.468  1.00  0.00     0.277 HD
ENDBRANCH   1   8
BRANCH   1  12
HETATM   12  O1  UNL     1      19.026  20.723  93.612  1.00  0.00    -0.357 OA
BRANCH  12  13
HETATM   13  C4  UNL     1      18.244  21.609  94.301  1.00  0.00     0.175 C 
BRANCH  13  14
HETATM   14  C5  UNL     1      17.134  20.963  95.082  1.00  0.00     0.009 A 
HETATM   15  C6  UNL     1      15.774  20.926  94.347  1.00  0.00     0.007 A 
HETATM   16  C7  UNL     1      16.517  19.697  94.692  1.00  0.00     0.007 A 
ENDBRANCH  13  14
ENDBRANCH  12  13
ENDBRANCH   1  12
TORSDOF 6
ENDMDL
MODEL 2
REMARK VINA RESULT: -4.492467806      1.973      2.694
REMARK  6 active torsions:
REMARK  status: ('A' for Active; 'I' for Inactive)
REMARK    1  A    between atoms: C2_2  and  N1_3 
REMARK    2  A    between atoms: C2_2  and  C3_7 
REMARK    3  A    between atoms: C3_7  and  N2_8 
REMARK    4  A    between atoms: C3_7  and  O1_12 
REMARK    5  A    between atoms: O1_12  and  C4_13 
REMARK    6  A    between atoms: C4_13  and  C5_14 
ROOT
HETATM    1  C3  UNL     1      19.718  19.517  94.318  1.00  0.00     0.348 C 
ENDROOT
BRANCH   1   2
HETATM    2  C2  UNL     1      21.220  19.435  94.041  1.00  0.00     0.235 C 
HETATM    3  C1  UNL     1      21.485  18.193  93.236  1.00  0.00     0.044 C 
BRANCH   2   4
HETATM    4  N1  UNL     1      21.940  19.356  95.295  1.00  0.00    -0.071 N 
ATOM      5  H13 UNL     1      22.169  18.395  95.550  1.00  0.00     0.274 HD
ATOM      6  H12 UNL     1      22.892  19.715  95.217  1.00  0.00     0.274 HD
ATOM      7  H11 UNL     1      21.406  19.832  96.022  1.00  0.00     0.274 HD
ENDBRANCH   2   4
ENDBRANCH   1   2
BRANCH   1   8
HETATM    8  N2  UNL     1      19.173  18.220  93.964  1.00  0.00    -0.051 N 
ATOM      9  H23 UNL     1      19.179  18.037  92.960  1.00  0.00     0.277 HD
ATOM     10  H22 UNL     1      19.770  17.440  94.236  1.00  0.00     0.277 HD
ATOM     11  H21 UNL     1      18.242  18.183  94.378  1.00  0.00     0.277 HD
ENDBRANCH   1   8
BRANCH   1  12
HETATM   12  O1  UNL     1      19.130  20.547  93.619  1.00  0.00    -0.357 OA
BRANCH  12  13
HETATM   13  C4  UNL     1      19.585  21.757  94.069  1.00  0.00     0.175 C 
BRANCH  13  14
HETATM   14  C5  UNL     1      18.931  22.219  95.342  1.00  0.00     0.009 A 
HETATM   15  C6  UNL     1      19.855  22.192  96.580  1.00  0.00     0.007 A 
HETATM   16  C7  UNL     1      19.310  23.450  96.031  1.00  0.00     0.007 A 
ENDBRANCH  13  14
ENDBRANCH  12  13
ENDBRANCH   1  12
TORSDOF 6
ENDMDL
MODEL 3
REMARK VINA RESULT: -4.442849757      1.489      2.476
REMARK  6 active torsions:
REMARK  status: ('A' for Active; 'I' for Inactive)
REMARK    1  A    between atoms: C2_2  and  N1_3 
REMARK    2  A    between atoms: C2_2  and  C3_7 
REMARK    3  A    between atoms: C3_7  and  N2_8 
REMARK    4  A    between atoms: C3_7  and  O1_12 
REMARK    5  A    between atoms: O1_12  and  C4_13 
REMARK    6  A    between atoms: C4_13  and  C5_14 
ROOT
HETATM    1  C3  UNL     1      19.930  20.548  95.093  1.00  0.00     0.348 C 
ENDROOT
BRANCH   1   2
HETATM    2  C2  UNL     1      19.356  21.671  95.960  1.00  0.00     0.235 C 
HETATM    3  C1  UNL     1      18.998  22.823  95.065  1.00  0.00     0.044 C 
BRANCH   2   4
HETATM    4  N1  UNL     1      20.354  22.100  96.918  1.00  0.00    -0.071 N 
ATOM      5  H13 UNL     1      21.189  22.473  96.466  1.00  0.00     0.274 HD
ATOM      6  H12 UNL     1      20.072  22.943  97.418  1.00  0.00     0.274 HD
ATOM      7  H11 UNL     1      20.569  21.330  97.551  1.00  0.00     0.274 HD
ENDBRANCH   2   4
ENDBRANCH   1   2
BRANCH   1   8
HETATM    8  N2  UNL     1      21.016  21.141  94.335  1.00  0.00    -0.051 N 
ATOM      9  H23 UNL     1      20.702  21.662  93.516  1.00  0.00     0.277 HD
ATOM     10  H22 UNL     1      21.467  21.921  94.814  1.00  0.00     0.277 HD
ATOM     11  H21 UNL     1      21.654  20.377  94.112  1.00  0.00     0.277 HD
ENDBRANCH   1   8
BRANCH   1  12
HETATM   12  O1  UNL     1      18.965  19.989  94.286  1.00  0.00    -0.357 OA
BRANCH  12  13
HETATM   13  C4  UNL     1      18.029  19.332  95.038  1.00  0.00     0.175 C 
BRANCH  13  14
HETATM   14  C5  UNL     1      16.614  19.560  94.584  1.00  0.00     0.009 A 
HETATM   15  C6  UNL     1      15.748  20.369  95.576  1.00  0.00     0.007 A 
HETATM   16  C7  UNL     1      16.091  20.879  94.234  1.00  0.00     0.007 A 
ENDBRANCH  13  14
ENDBRANCH  12  13
ENDBRANCH   1  12
TORSDOF 6
ENDMDL
MODEL 4
REMARK VINA RESULT: -4.385322530      1.135      1.233
REMARK  6 active torsions:
REMARK  status: ('A' for Active; 'I' for Inactive)
REMARK    1  A    between atoms: C2_2  and  N1_3 
REMARK    2  A    between atoms: C2_2  and  C3_7 
REMARK    3  A    between atoms: C3_7  and  N2_8 
REMARK    4  A    between atoms: C3_7  and  O1_12 
REMARK    5  A    between atoms: O1_12  and  C4_13 
REMARK    6  A    between atoms: C4_13  and  C5_14 
ROOT
HETATM    1  C3  UNL     1      19.890  19.686  94.717  1.00  0.00     0.348 C 
ENDROOT
BRANCH   1   2
HETATM    2  C2  UNL     1      21.298  19.435  94.173  1.00  0.00     0.235 C 
HETATM    3  C1  UNL     1      21.271  18.179  93.349  1.00  0.00     0.044 C 
BRANCH   2   4
HETATM    4  N1  UNL     1      22.220  19.265  95.277  1.00  0.00    -0.071 N 
ATOM      5  H13 UNL     1      22.510  18.294  95.393  1.00  0.00     0.274 HD
ATOM      6  H12 UNL     1      23.137  19.667  95.081  1.00  0.00     0.274 HD
ATOM      7  H11 UNL     1      21.805  19.649  96.126  1.00  0.00     0.274 HD
ENDBRANCH   2   4
ENDBRANCH   1   2
BRANCH   1   8
HETATM    8  N2  UNL     1      19.469  18.439  95.328  1.00  0.00    -0.051 N 
ATOM      9  H23 UNL     1      19.773  18.338  96.297  1.00  0.00     0.277 HD
ATOM     10  H22 UNL     1      18.466  18.393  95.507  1.00  0.00     0.277 HD
ATOM     11  H21 UNL     1      19.808  17.697  94.716  1.00  0.00     0.277 HD
ENDBRANCH   1   8
BRANCH   1  12
HETATM   12  O1  UNL     1      19.032  20.105  93.725  1.00  0.00    -0.357 OA
BRANCH  12  13
HETATM   13  C4  UNL     1      18.413  21.270  94.084  1.00  0.00     0.175 C 
BRANCH  13  14
HETATM   14  C5  UNL     1      17.198  21.074  94.949  1.00  0.00     0.009 A 
HETATM   15  C6  UNL     1      15.855  21.349  94.234  1.00  0.00     0.007 A 
HETATM   16  C7  UNL     1      16.225  20.006  94.726  1.00  0.00     0.007 A 
ENDBRANCH  13  14
ENDBRANCH  12  13
ENDBRANCH   1  12
TORSDOF 6
ENDMDL
MODEL 5
REMARK VINA RESULT: -4.298111852      6.583      7.283
REMARK  6 active torsions:
REMARK  status: ('A' for Active; 'I' for Inactive)
REMARK    1  A    between atoms: C2_2  and  N1_3 
REMARK    2  A    between atoms: C2_2  and  C3_7 
REMARK    3  A    between atoms: C3_7  and  N2_8 
REMARK    4  A    between atoms: C3_7  and  O1_12 
REMARK    5  A    between atoms: O1_12  and  C4_13 
REMARK    6  A    between atoms: C4_13  and  C5_14 
ROOT
HETATM    1  C3  UNL     1      21.320  14.260  91.291  1.00  0.00     0.348 C 
ENDROOT
BRANCH   1   2
HETATM    2  C2  UNL     1      21.128  15.497  90.412  1.00  0.00     0.235 C 
HETATM    3  C1  UNL     1      21.594  15.166  89.021  1.00  0.00     0.044 C 
BRANCH   2   4
HETATM    4  N1  UNL     1      21.920  16.591  90.935  1.00  0.00    -0.071 N 
ATOM      5  H13 UNL     1      21.934  17.394  90.306  1.00  0.00     0.274 HD
ATOM      6  H12 UNL     1      21.474  17.042  91.735  1.00  0.00     0.274 HD
ATOM      7  H11 UNL     1      22.857  16.255  91.154  1.00  0.00     0.274 HD
ENDBRANCH   2   4
ENDBRANCH   1   2
BRANCH   1   8
HETATM    8  N2  UNL     1      21.423  13.134  90.382  1.00  0.00    -0.051 N 
ATOM      9  H23 UNL     1      22.297  13.115  89.856  1.00  0.00     0.277 HD
ATOM     10  H22 UNL     1      21.545  12.239  90.856  1.00  0.00     0.277 HD
ATOM     11  H21 UNL     1      20.593  13.171  89.791  1.00  0.00     0.277 HD
ENDBRANCH   1   8
BRANCH   1  12
HETATM   12  O1  UNL     1      20.292  14.117  92.195  1.00  0.00    -0.357 OA
BRANCH  12  13
HETATM   13  C4  UNL     1      19.132  13.770  91.556  1.00  0.00     0.175 C 
BRANCH  13  14
HETATM   14  C5  UNL     1      17.923  13.764  92.448  1.00  0.00     0.009 A 
HETATM   15  C6  UNL     1      16.577  13.637  91.699  1.00  0.00     0.007 A 
HETATM   16  C7  UNL     1      17.066  12.592  92.621  1.00  0.00     0.007 A 
ENDBRANCH  13  14
ENDBRANCH  12  13
ENDBRANCH   1  12
TORSDOF 6
ENDMDL
