MODEL 1
REMARK VINA RESULT: -4.367723848      0.000      0.000
REMARK  2 active torsions:
REMARK  status: ('A' for Active; 'I' for Inactive)
REMARK       I    between atoms: C2_2  and  N1_4 
REMARK    1  A    between atoms: N1_4  and  N2_6 
REMARK    2  A    between atoms: N2_6  and  C3_8 
ROOT
HETATM    1  C1  UNL     1       7.092  15.780  29.134  1.00  0.00     0.119 C 
HETATM    2  C2  UNL     1       8.541  15.935  29.168  1.00  0.00     0.232 C 
HETATM    3  O1  UNL     1       9.226  15.630  30.207  1.00  0.00    -0.272 OA
HETATM    4  N1  UNL     1       9.235  16.433  28.041  1.00  0.00    -0.269 N 
ATOM      5  H1  UNL     1       8.739  16.690  27.187  1.00  0.00     0.190 HD
ENDROOT
BRANCH   4   6
HETATM    6  N2  UNL     1      10.639  16.561  28.136  1.00  0.00    -0.276 N 
ATOM      7  H2  UNL     1      11.214  15.725  28.037  1.00  0.00     0.189 HD
BRANCH   6   8
HETATM    8  C3  UNL     1      11.280  17.805  28.363  1.00  0.00     0.199 C 
HETATM    9  N3  UNL     1      10.912  18.645  29.428  1.00  0.00    -0.068 NA
HETATM   10  S1  UNL     1      12.472  18.260  27.350  1.00  0.00    -0.043 SA
ENDBRANCH   6   8
ENDBRANCH   4   6
TORSDOF 2
ENDMDL
MODEL 2
REMARK VINA RESULT: -4.340598489      1.237      1.773
REMARK  2 active torsions:
REMARK  status: ('A' for Active; 'I' for Inactive)
REMARK       I    between atoms: C2_2  and  N1_4 
REMARK    1  A    between atoms: N1_4  and  N2_6 
REMARK    2  A    between atoms: N2_6  and  C3_8 
ROOT
HETATM    1  C1  UNL     1       7.321  16.075  28.968  1.00  0.00     0.119 C 
HETATM    2  C2  UNL     1       8.778  16.151  28.954  1.00  0.00     0.232 C 
HETATM    3  O1  UNL     1       9.476  15.852  29.985  1.00  0.00    -0.272 OA
HETATM    4  N1  UNL     1       9.462  16.563  27.787  1.00  0.00    -0.269 N 
ATOM      5  H1  UNL     1       8.954  16.812  26.938  1.00  0.00     0.190 HD
ENDROOT
BRANCH   4   6
HETATM    6  N2  UNL     1      10.873  16.617  27.836  1.00  0.00    -0.276 N 
ATOM      7  H2  UNL     1      11.344  16.329  28.693  1.00  0.00     0.189 HD
BRANCH   6   8
HETATM    8  C3  UNL     1      11.660  17.057  26.742  1.00  0.00     0.199 C 
HETATM    9  N3  UNL     1      11.578  16.448  25.477  1.00  0.00    -0.068 NA
HETATM   10  S1  UNL     1      12.684  18.303  26.974  1.00  0.00    -0.043 SA
ENDBRANCH   6   8
ENDBRANCH   4   6
TORSDOF 2
ENDMDL
MODEL 3
REMARK VINA RESULT: -4.340155708      3.965      4.709
REMARK  2 active torsions:
REMARK  status: ('A' for Active; 'I' for Inactive)
REMARK       I    between atoms: C2_2  and  N1_4 
REMARK    1  A    between atoms: N1_4  and  N2_6 
REMARK    2  A    between atoms: N2_6  and  C3_8 
ROOT
HETATM    1  C1  UNL     1       4.639  12.062  30.523  1.00  0.00     0.119 C 
HETATM    2  C2  UNL     1       4.871  13.394  29.974  1.00  0.00     0.232 C 
HETATM    3  O1  UNL     1       3.921  14.085  29.464  1.00  0.00    -0.272 OA
HETATM    4  N1  UNL     1       6.166  13.960  29.993  1.00  0.00    -0.269 N 
ATOM      5  H1  UNL     1       6.958  13.453  30.388  1.00  0.00     0.190 HD
ENDROOT
BRANCH   4   6
HETATM    6  N2  UNL     1       6.327  15.253  29.446  1.00  0.00    -0.276 N 
ATOM      7  H2  UNL     1       5.501  15.838  29.323  1.00  0.00     0.189 HD
BRANCH   6   8
HETATM    8  C3  UNL     1       7.591  15.769  29.062  1.00  0.00     0.199 C 
HETATM    9  N3  UNL     1       7.740  16.606  27.943  1.00  0.00    -0.068 NA
HETATM   10  S1  UNL     1       8.895  15.370  29.953  1.00  0.00    -0.043 SA
ENDBRANCH   6   8
ENDBRANCH   4   6
TORSDOF 2
ENDMDL
MODEL 4
REMARK VINA RESULT: -4.307203987      3.673      4.038
REMARK  2 active torsions:
REMARK  status: ('A' for Active; 'I' for Inactive)
REMARK       I    between atoms: C2_2  and  N1_4 
REMARK    1  A    between atoms: N1_4  and  N2_6 
REMARK    2  A    between atoms: N2_6  and  C3_8 
ROOT
HETATM    1  C1  UNL     1       5.979  11.986  31.378  1.00  0.00     0.119 C 
HETATM    2  C2  UNL     1       7.253  12.694  31.318  1.00  0.00     0.232 C 
HETATM    3  O1  UNL     1       8.276  12.292  31.975  1.00  0.00    -0.272 OA
HETATM    4  N1  UNL     1       7.390  13.855  30.523  1.00  0.00    -0.269 N 
ATOM      5  H1  UNL     1       6.607  14.217  29.979  1.00  0.00     0.190 HD
ENDROOT
BRANCH   4   6
HETATM    6  N2  UNL     1       8.649  14.496  30.507  1.00  0.00    -0.276 N 
ATOM      7  H2  UNL     1       9.373  14.169  31.146  1.00  0.00     0.189 HD
BRANCH   6   8
HETATM    8  C3  UNL     1       8.946  15.577  29.638  1.00  0.00     0.199 C 
HETATM    9  N3  UNL     1      10.254  16.067  29.484  1.00  0.00    -0.068 NA
HETATM   10  S1  UNL     1       7.725  16.259  28.802  1.00  0.00    -0.043 SA
ENDBRANCH   6   8
ENDBRANCH   4   6
TORSDOF 2
ENDMDL
MODEL 5
REMARK VINA RESULT: -4.282952227      3.993      4.656
REMARK  2 active torsions:
REMARK  status: ('A' for Active; 'I' for Inactive)
REMARK       I    between atoms: C2_2  and  N1_4 
REMARK    1  A    between atoms: N1_4  and  N2_6 
REMARK    2  A    between atoms: N2_6  and  C3_8 
ROOT
HETATM    1  C1  UNL     1       4.760  11.835  30.733  1.00  0.00     0.119 C 
HETATM    2  C2  UNL     1       5.077  13.140  30.165  1.00  0.00     0.232 C 
HETATM    3  O1  UNL     1       4.200  13.831  29.538  1.00  0.00    -0.272 OA
HETATM    4  N1  UNL     1       6.377  13.680  30.293  1.00  0.00    -0.269 N 
ATOM      5  H1  UNL     1       7.113  13.172  30.783  1.00  0.00     0.190 HD
ENDROOT
BRANCH   4   6
HETATM    6  N2  UNL     1       6.623  14.948  29.720  1.00  0.00    -0.276 N 
ATOM      7  H2  UNL     1       5.827  15.519  29.437  1.00  0.00     0.189 HD
BRANCH   6   8
HETATM    8  C3  UNL     1       7.931  15.458  29.523  1.00  0.00     0.199 C 
HETATM    9  N3  UNL     1       9.025  15.007  30.282  1.00  0.00    -0.068 NA
HETATM   10  S1  UNL     1       8.155  16.600  28.383  1.00  0.00    -0.043 SA
ENDBRANCH   6   8
ENDBRANCH   4   6
TORSDOF 2
ENDMDL
