MODEL 1
REMARK VINA RESULT: -5.331276382      0.000      0.000
REMARK  3 active torsions:
REMARK  status: ('A' for Active; 'I' for Inactive)
REMARK    1  A    between atoms: N1_1  and  N2_4 
REMARK    2  A    between atoms: C1_6  and  C2_8 
REMARK    3  A    between atoms: C5_11  and  N4_12 
ROOT
HETATM    1  C2  UNL     1       6.880  12.669  30.648  1.00  0.00     0.054 C 
HETATM    2  C3  UNL     1       7.341  14.084  30.387  1.00  0.00     0.014 C 
HETATM    3  C4  UNL     1       8.840  13.931  30.642  1.00  0.00     0.033 C 
HETATM    4  C5  UNL     1       8.846  13.164  31.925  1.00  0.00     0.184 C 
HETATM    5  C6  UNL     1       7.580  12.316  31.919  1.00  0.00     0.044 C 
ENDROOT
BRANCH   1   6
HETATM    6  C1  UNL     1       5.422  12.536  30.698  1.00  0.00     0.111 C 
HETATM    7  N2  UNL     1       4.605  13.315  30.089  1.00  0.00    -0.297 N 
ATOM      8  H2  UNL     1       4.968  14.086  29.527  1.00  0.00     0.187 HD
HETATM    9  N3  UNL     1       4.876  11.476  31.472  1.00  0.00    -0.086 NA
BRANCH   7  10
HETATM   10  N1  UNL     1       3.226  13.126  30.183  1.00  0.00    -0.344 N 
ATOM     11  H12 UNL     1       2.853  12.189  30.031  1.00  0.00     0.176 HD
ATOM     12  H11 UNL     1       2.602  13.904  30.397  1.00  0.00     0.176 HD
ENDBRANCH   7  10
ENDBRANCH   1   6
BRANCH   4  13
HETATM   13  N4  UNL     1      10.023  12.364  32.128  1.00  0.00    -0.075 N 
ATOM     14  H43 UNL     1      10.860  12.945  32.090  1.00  0.00     0.274 HD
ATOM     15  H42 UNL     1      10.076  12.047  33.096  1.00  0.00     0.274 HD
ATOM     16  H41 UNL     1      10.107  11.574  31.488  1.00  0.00     0.274 HD
ENDBRANCH   4  13
TORSDOF 3
ENDMDL
MODEL 2
REMARK VINA RESULT: -5.309282231      1.129      4.483
REMARK  3 active torsions:
REMARK  status: ('A' for Active; 'I' for Inactive)
REMARK    1  A    between atoms: N1_1  and  N2_4 
REMARK    2  A    between atoms: C1_6  and  C2_8 
REMARK    3  A    between atoms: C5_11  and  N4_12 
ROOT
HETATM    1  C2  UNL     1       7.502  13.338  31.198  1.00  0.00     0.054 C 
HETATM    2  C3  UNL     1       7.096  14.261  30.073  1.00  0.00     0.014 C 
HETATM    3  C4  UNL     1       5.584  14.044  30.077  1.00  0.00     0.033 C 
HETATM    4  C5  UNL     1       5.499  12.554  30.143  1.00  0.00     0.184 C 
HETATM    5  C6  UNL     1       6.737  12.090  30.902  1.00  0.00     0.044 C 
ENDROOT
BRANCH   1   6
HETATM    6  C1  UNL     1       8.951  13.154  31.301  1.00  0.00     0.111 C 
HETATM    7  N2  UNL     1       9.522  12.392  32.161  1.00  0.00    -0.297 N 
ATOM      8  H2  UNL     1       8.952  11.870  32.827  1.00  0.00     0.187 HD
HETATM    9  N3  UNL     1       9.780  13.866  30.391  1.00  0.00    -0.086 NA
BRANCH   7  10
HETATM   10  N1  UNL     1      10.910  12.266  32.200  1.00  0.00    -0.344 N 
ATOM     11  H12 UNL     1      11.472  12.891  31.621  1.00  0.00     0.176 HD
ATOM     12  H11 UNL     1      11.359  11.565  32.791  1.00  0.00     0.176 HD
ENDBRANCH   7  10
ENDBRANCH   1   6
BRANCH   4  13
HETATM   13  N4  UNL     1       4.289  12.059  30.744  1.00  0.00    -0.075 N 
ATOM     14  H43 UNL     1       3.504  12.671  30.521  1.00  0.00     0.274 HD
ATOM     15  H42 UNL     1       3.982  11.206  30.277  1.00  0.00     0.274 HD
ATOM     16  H41 UNL     1       4.353  11.911  31.751  1.00  0.00     0.274 HD
ENDBRANCH   4  13
TORSDOF 3
ENDMDL
MODEL 3
REMARK VINA RESULT: -5.297910773      2.131      3.097
REMARK  3 active torsions:
REMARK  status: ('A' for Active; 'I' for Inactive)
REMARK    1  A    between atoms: N1_1  and  N2_4 
REMARK    2  A    between atoms: C1_6  and  C2_8 
REMARK    3  A    between atoms: C5_11  and  N4_12 
ROOT
HETATM    1  C2  UNL     1       6.503  14.423  30.300  1.00  0.00     0.054 C 
HETATM    2  C3  UNL     1       7.916  13.886  30.294  1.00  0.00     0.014 C 
HETATM    3  C4  UNL     1       8.700  15.190  30.154  1.00  0.00     0.033 C 
HETATM    4  C5  UNL     1       7.951  15.870  29.054  1.00  0.00     0.184 C 
HETATM    5  C6  UNL     1       6.507  15.393  29.164  1.00  0.00     0.044 C 
ENDROOT
BRANCH   1   6
HETATM    6  C1  UNL     1       5.486  13.375  30.201  1.00  0.00     0.111 C 
HETATM    7  N2  UNL     1       5.645  12.172  30.618  1.00  0.00    -0.297 N 
ATOM      8  H2  UNL     1       6.530  11.903  31.050  1.00  0.00     0.187 HD
HETATM    9  N3  UNL     1       4.239  13.710  29.604  1.00  0.00    -0.086 NA
BRANCH   7  10
HETATM   10  N1  UNL     1       4.628  11.226  30.491  1.00  0.00    -0.344 N 
ATOM     11  H12 UNL     1       3.791  11.480  29.966  1.00  0.00     0.176 HD
ATOM     12  H11 UNL     1       4.715  10.301  30.911  1.00  0.00     0.176 HD
ENDBRANCH   7  10
ENDBRANCH   1   6
BRANCH   4  13
HETATM   13  N4  UNL     1       8.042  17.305  29.079  1.00  0.00    -0.075 N 
ATOM     14  H43 UNL     1       7.948  17.652  30.033  1.00  0.00     0.274 HD
ATOM     15  H42 UNL     1       8.996  17.605  28.878  1.00  0.00     0.274 HD
ATOM     16  H41 UNL     1       7.382  17.776  28.460  1.00  0.00     0.274 HD
ENDBRANCH   4  13
TORSDOF 3
ENDMDL
MODEL 4
REMARK VINA RESULT: -5.230162747      2.076      3.986
REMARK  3 active torsions:
REMARK  status: ('A' for Active; 'I' for Inactive)
REMARK    1  A    between atoms: N1_1  and  N2_4 
REMARK    2  A    between atoms: C1_6  and  C2_8 
REMARK    3  A    between atoms: C5_11  and  N4_12 
ROOT
HETATM    1  C2  UNL     1       6.716  13.095  30.964  1.00  0.00     0.054 C 
HETATM    2  C3  UNL     1       5.510  13.412  30.111  1.00  0.00     0.014 C 
HETATM    3  C4  UNL     1       4.599  12.244  30.486  1.00  0.00     0.033 C 
HETATM    4  C5  UNL     1       5.541  11.089  30.383  1.00  0.00     0.184 C 
HETATM    5  C6  UNL     1       6.923  11.635  30.723  1.00  0.00     0.044 C 
ENDROOT
BRANCH   1   6
HETATM    6  C1  UNL     1       7.877  13.933  30.658  1.00  0.00     0.111 C 
HETATM    7  N2  UNL     1       7.838  14.978  29.914  1.00  0.00    -0.297 N 
ATOM      8  H2  UNL     1       6.952  15.264  29.497  1.00  0.00     0.187 HD
HETATM    9  N3  UNL     1       9.131  13.566  31.220  1.00  0.00    -0.086 NA
BRANCH   7  10
HETATM   10  N1  UNL     1       8.987  15.728  29.668  1.00  0.00    -0.344 N 
ATOM     11  H12 UNL     1       9.330  16.348  30.401  1.00  0.00     0.176 HD
ATOM     12  H11 UNL     1       9.477  15.661  28.775  1.00  0.00     0.176 HD
ENDBRANCH   7  10
ENDBRANCH   1   6
BRANCH   4  13
HETATM   13  N4  UNL     1       5.192   9.968  31.213  1.00  0.00    -0.075 N 
ATOM     14  H43 UNL     1       5.405   9.091  30.736  1.00  0.00     0.274 HD
ATOM     15  H42 UNL     1       5.832   9.896  32.003  1.00  0.00     0.274 HD
ATOM     16  H41 UNL     1       4.224   9.972  31.536  1.00  0.00     0.274 HD
ENDBRANCH   4  13
TORSDOF 3
ENDMDL
MODEL 5
REMARK VINA RESULT: -5.043449170      2.084      2.916
REMARK  3 active torsions:
REMARK  status: ('A' for Active; 'I' for Inactive)
REMARK    1  A    between atoms: N1_1  and  N2_4 
REMARK    2  A    between atoms: C1_6  and  C2_8 
REMARK    3  A    between atoms: C5_11  and  N4_12 
ROOT
HETATM    1  C2  UNL     1       7.447  13.764  30.069  1.00  0.00     0.054 C 
HETATM    2  C3  UNL     1       6.474  14.887  29.801  1.00  0.00     0.014 C 
HETATM    3  C4  UNL     1       7.336  15.787  28.917  1.00  0.00     0.033 C 
HETATM    4  C5  UNL     1       8.616  15.820  29.686  1.00  0.00     0.184 C 
HETATM    5  C6  UNL     1       8.708  14.486  30.418  1.00  0.00     0.044 C 
ENDROOT
BRANCH   1   6
HETATM    6  C1  UNL     1       6.981  12.825  31.092  1.00  0.00     0.111 C 
HETATM    7  N2  UNL     1       5.794  12.341  31.139  1.00  0.00    -0.297 N 
ATOM      8  H2  UNL     1       5.111  12.612  30.431  1.00  0.00     0.187 HD
HETATM    9  N3  UNL     1       7.902  12.423  32.098  1.00  0.00    -0.086 NA
BRANCH   7  10
HETATM   10  N1  UNL     1       5.421  11.449  32.145  1.00  0.00    -0.344 N 
ATOM     11  H12 UNL     1       6.134  10.836  32.540  1.00  0.00     0.176 HD
ATOM     12  H11 UNL     1       4.458  11.408  32.481  1.00  0.00     0.176 HD
ENDBRANCH   7  10
ENDBRANCH   1   6
BRANCH   4  13
HETATM   13  N4  UNL     1       9.781  16.066  28.880  1.00  0.00    -0.075 N 
ATOM     14  H43 UNL     1      10.594  15.592  29.273  1.00  0.00     0.274 HD
ATOM     15  H42 UNL     1       9.709  15.576  27.989  1.00  0.00     0.274 HD
ATOM     16  H41 UNL     1       9.983  17.055  28.727  1.00  0.00     0.274 HD
ENDBRANCH   4  13
TORSDOF 3
ENDMDL
