MODEL 1
REMARK VINA RESULT: -5.179248760      0.000      0.000
REMARK  1 active torsions:
REMARK  status: ('A' for Active; 'I' for Inactive)
REMARK       I    between atoms: C1_4  and  N3_6 
REMARK    1  A    between atoms: N3_6  and  C2_8 
ROOT
HETATM    1  N1  UNL     1      12.385  20.956  32.645  1.00  0.00    -0.374 N 
ATOM      2  H11 UNL     1      12.368  21.594  33.441  1.00  0.00     0.158 HD
ATOM      3  H12 UNL     1      13.149  20.295  32.514  1.00  0.00     0.158 HD
HETATM    4  C1  UNL     1      11.402  21.021  31.812  1.00  0.00     0.182 C 
HETATM    5  N2  UNL     1      11.424  20.131  30.701  1.00  0.00    -0.064 NA
HETATM    6  N3  UNL     1      10.335  21.943  31.995  1.00  0.00    -0.356 N 
ATOM      7  H3  UNL     1      10.492  22.821  32.490  1.00  0.00     0.162 HD
ENDROOT
BRANCH   6   8
HETATM    8  C2  UNL     1       9.025  21.620  31.472  1.00  0.00     0.132 C 
HETATM    9  C3  UNL     1       8.165  22.856  31.322  1.00  0.00     0.197 C 
HETATM   10  O1  UNL     1       7.213  22.843  32.331  1.00  0.00    -0.365 OA
HETATM   11  C4  UNL     1       6.275  21.830  32.157  1.00  0.00     0.337 C 
HETATM   12  O2  UNL     1       6.950  20.640  31.904  1.00  0.00    -0.365 OA
HETATM   13  C5  UNL     1       8.263  20.687  32.421  1.00  0.00     0.197 C 
ENDBRANCH   6   8
TORSDOF 1
ENDMDL
MODEL 2
REMARK VINA RESULT: -4.622784844      1.184      2.123
REMARK  1 active torsions:
REMARK  status: ('A' for Active; 'I' for Inactive)
REMARK       I    between atoms: C1_4  and  N3_6 
REMARK    1  A    between atoms: N3_6  and  C2_8 
ROOT
HETATM    1  N1  UNL     1      12.679  20.217  30.364  1.00  0.00    -0.374 N 
ATOM      2  H11 UNL     1      12.233  20.005  29.471  1.00  0.00     0.158 HD
ATOM      3  H12 UNL     1      13.690  20.150  30.479  1.00  0.00     0.158 HD
HETATM    4  C1  UNL     1      11.914  20.571  31.341  1.00  0.00     0.182 C 
HETATM    5  N2  UNL     1      12.535  20.866  32.587  1.00  0.00    -0.064 NA
HETATM    6  N3  UNL     1      10.505  20.664  31.181  1.00  0.00    -0.356 N 
ATOM      7  H3  UNL     1      10.024  20.084  30.493  1.00  0.00     0.162 HD
ENDROOT
BRANCH   6   8
HETATM    8  C2  UNL     1       9.760  21.592  32.005  1.00  0.00     0.132 C 
HETATM    9  C3  UNL     1       8.327  21.144  32.193  1.00  0.00     0.197 C 
HETATM   10  O1  UNL     1       7.515  21.961  31.419  1.00  0.00    -0.365 OA
HETATM   11  C4  UNL     1       7.464  23.264  31.904  1.00  0.00     0.337 C 
HETATM   12  O2  UNL     1       8.764  23.700  32.141  1.00  0.00    -0.365 OA
HETATM   13  C5  UNL     1       9.687  22.978  31.353  1.00  0.00     0.197 C 
ENDBRANCH   6   8
TORSDOF 1
ENDMDL
MODEL 3
REMARK VINA RESULT: -4.476521777      6.399      7.711
REMARK  1 active torsions:
REMARK  status: ('A' for Active; 'I' for Inactive)
REMARK       I    between atoms: C1_4  and  N3_6 
REMARK    1  A    between atoms: N3_6  and  C2_8 
ROOT
HETATM    1  N1  UNL     1       7.730  16.138  29.241  1.00  0.00    -0.374 N 
ATOM      2  H11 UNL     1       7.528  15.357  28.617  1.00  0.00     0.158 HD
ATOM      3  H12 UNL     1       7.141  16.333  30.051  1.00  0.00     0.158 HD
HETATM    4  C1  UNL     1       8.757  16.869  28.965  1.00  0.00     0.182 C 
HETATM    5  N2  UNL     1       9.039  17.959  29.836  1.00  0.00    -0.064 NA
HETATM    6  N3  UNL     1       9.577  16.597  27.837  1.00  0.00    -0.356 N 
ATOM      7  H3  UNL     1       9.187  16.137  27.014  1.00  0.00     0.162 HD
ENDROOT
BRANCH   6   8
HETATM    8  C2  UNL     1      10.973  16.978  27.870  1.00  0.00     0.132 C 
HETATM    9  C3  UNL     1      11.575  17.005  26.482  1.00  0.00     0.197 C 
HETATM   10  O1  UNL     1      12.401  15.899  26.349  1.00  0.00    -0.365 OA
HETATM   11  C4  UNL     1      13.537  15.989  27.147  1.00  0.00     0.337 C 
HETATM   12  O2  UNL     1      13.147  16.341  28.436  1.00  0.00    -0.365 OA
HETATM   13  C5  UNL     1      11.805  15.971  28.672  1.00  0.00     0.197 C 
ENDBRANCH   6   8
TORSDOF 1
ENDMDL
MODEL 4
REMARK VINA RESULT: -4.424394343     10.163     10.932
REMARK  1 active torsions:
REMARK  status: ('A' for Active; 'I' for Inactive)
REMARK       I    between atoms: C1_4  and  N3_6 
REMARK    1  A    between atoms: N3_6  and  C2_8 
ROOT
HETATM    1  N1  UNL     1      12.076  11.646  27.040  1.00  0.00    -0.374 N 
ATOM      2  H11 UNL     1      11.843  10.677  27.259  1.00  0.00     0.158 HD
ATOM      3  H12 UNL     1      11.748  12.086  26.180  1.00  0.00     0.158 HD
HETATM    4  C1  UNL     1      12.801  12.291  27.891  1.00  0.00     0.182 C 
HETATM    5  N2  UNL     1      13.125  13.642  27.585  1.00  0.00    -0.064 NA
HETATM    6  N3  UNL     1      13.257  11.677  29.089  1.00  0.00    -0.356 N 
ATOM      7  H3  UNL     1      13.404  10.668  29.128  1.00  0.00     0.162 HD
ENDROOT
BRANCH   6   8
HETATM    8  C2  UNL     1      13.508  12.500  30.253  1.00  0.00     0.132 C 
HETATM    9  C3  UNL     1      14.979  12.523  30.611  1.00  0.00     0.197 C 
HETATM   10  O1  UNL     1      15.158  11.746  31.745  1.00  0.00    -0.365 OA
HETATM   11  C4  UNL     1      14.588  12.322  32.876  1.00  0.00     0.337 C 
HETATM   12  O2  UNL     1      13.286  12.708  32.568  1.00  0.00    -0.365 OA
HETATM   13  C5  UNL     1      12.781  11.953  31.487  1.00  0.00     0.197 C 
ENDBRANCH   6   8
TORSDOF 1
ENDMDL
MODEL 5
REMARK VINA RESULT: -4.312871766      5.250      6.520
REMARK  1 active torsions:
REMARK  status: ('A' for Active; 'I' for Inactive)
REMARK       I    between atoms: C1_4  and  N3_6 
REMARK    1  A    between atoms: N3_6  and  C2_8 
ROOT
HETATM    1  N1  UNL     1      12.926  15.293  26.593  1.00  0.00    -0.374 N 
ATOM      2  H11 UNL     1      13.842  15.162  27.022  1.00  0.00     0.158 HD
ATOM      3  H12 UNL     1      12.438  14.520  26.142  1.00  0.00     0.158 HD
HETATM    4  C1  UNL     1      12.411  16.476  26.642  1.00  0.00     0.182 C 
HETATM    5  N2  UNL     1      11.133  16.659  26.042  1.00  0.00    -0.064 NA
HETATM    6  N3  UNL     1      13.091  17.553  27.271  1.00  0.00    -0.356 N 
ATOM      7  H3  UNL     1      14.110  17.565  27.316  1.00  0.00     0.162 HD
ENDROOT
BRANCH   6   8
HETATM    8  C2  UNL     1      12.321  18.635  27.847  1.00  0.00     0.132 C 
HETATM    9  C3  UNL     1      13.196  19.821  28.189  1.00  0.00     0.197 C 
HETATM   10  O1  UNL     1      13.344  19.863  29.567  1.00  0.00    -0.365 OA
HETATM   11  C4  UNL     1      12.159  20.196  30.216  1.00  0.00     0.337 C 
HETATM   12  O2  UNL     1      11.138  19.398  29.710  1.00  0.00    -0.365 OA
HETATM   13  C5  UNL     1      11.658  18.205  29.161  1.00  0.00     0.197 C 
ENDBRANCH   6   8
TORSDOF 1
ENDMDL
