MODEL 1
REMARK VINA RESULT: -4.201516006      0.000      0.000
REMARK  1 active torsions:
REMARK  status: ('A' for Active; 'I' for Inactive)
REMARK       I    between atoms: C1_4  and  N3_6 
REMARK    1  A    between atoms: C3_9  and  N4_10 
ROOT
HETATM    1  N1  UNL     1      11.733  21.132  32.574  1.00  0.00    -0.374 N 
ATOM      2  H11 UNL     1      11.645  21.662  33.442  1.00  0.00     0.158 HD
ATOM      3  H12 UNL     1      12.650  20.739  32.364  1.00  0.00     0.158 HD
HETATM    4  C1  UNL     1      10.705  20.991  31.811  1.00  0.00     0.186 C 
HETATM    5  N2  UNL     1      10.827  20.252  30.603  1.00  0.00    -0.064 NA
HETATM    6  N3  UNL     1       9.428  21.538  32.104  1.00  0.00    -0.310 N 
HETATM    7  C2  UNL     1       8.131  21.055  32.575  1.00  0.00     0.206 C 
HETATM    8  S1  UNL     1       7.292  22.513  31.934  1.00  0.00    -0.096 SA
HETATM    9  C3  UNL     1       9.024  22.947  31.990  1.00  0.00     0.352 C 
ENDROOT
BRANCH   9  10
HETATM   10  N4  UNL     1       9.443  23.632  33.210  1.00  0.00    -0.049 N 
ATOM     11  H43 UNL     1       9.019  24.554  33.311  1.00  0.00     0.277 HD
ATOM     12  H42 UNL     1       9.055  23.210  34.053  1.00  0.00     0.277 HD
ATOM     13  H41 UNL     1      10.462  23.661  33.216  1.00  0.00     0.277 HD
ENDBRANCH   9  10
TORSDOF 1
ENDMDL
MODEL 2
REMARK VINA RESULT: -4.013864757      7.693      8.335
REMARK  1 active torsions:
REMARK  status: ('A' for Active; 'I' for Inactive)
REMARK       I    between atoms: C1_4  and  N3_6 
REMARK    1  A    between atoms: C3_9  and  N4_10 
ROOT
HETATM    1  N1  UNL     1      11.457  16.469  24.978  1.00  0.00    -0.374 N 
ATOM      2  H11 UNL     1      12.064  16.647  24.177  1.00  0.00     0.158 HD
ATOM      3  H12 UNL     1      10.626  15.903  24.809  1.00  0.00     0.158 HD
HETATM    4  C1  UNL     1      11.766  16.956  26.129  1.00  0.00     0.186 C 
HETATM    5  N2  UNL     1      10.921  16.708  27.244  1.00  0.00    -0.064 NA
HETATM    6  N3  UNL     1      12.924  17.744  26.363  1.00  0.00    -0.310 N 
HETATM    7  C2  UNL     1      14.235  17.574  26.987  1.00  0.00     0.206 C 
HETATM    8  S1  UNL     1      14.439  19.353  27.175  1.00  0.00    -0.096 SA
HETATM    9  C3  UNL     1      13.130  19.148  25.977  1.00  0.00     0.352 C 
ENDROOT
BRANCH   9  10
HETATM   10  N4  UNL     1      13.567  19.168  24.584  1.00  0.00    -0.049 N 
ATOM     11  H43 UNL     1      13.343  18.307  24.086  1.00  0.00     0.277 HD
ATOM     12  H42 UNL     1      13.019  19.806  24.006  1.00  0.00     0.277 HD
ATOM     13  H41 UNL     1      14.564  19.384  24.574  1.00  0.00     0.277 HD
ENDBRANCH   9  10
TORSDOF 1
ENDMDL
MODEL 3
REMARK VINA RESULT: -3.907198599      9.953     10.668
REMARK  1 active torsions:
REMARK  status: ('A' for Active; 'I' for Inactive)
REMARK       I    between atoms: C1_4  and  N3_6 
REMARK    1  A    between atoms: C3_9  and  N4_10 
ROOT
HETATM    1  N1  UNL     1      11.738  11.914  32.281  1.00  0.00    -0.374 N 
ATOM      2  H11 UNL     1      10.946  11.856  31.640  1.00  0.00     0.158 HD
ATOM      3  H12 UNL     1      11.527  11.892  33.278  1.00  0.00     0.158 HD
HETATM    4  C1  UNL     1      12.931  12.009  31.807  1.00  0.00     0.186 C 
HETATM    5  N2  UNL     1      14.034  12.090  32.699  1.00  0.00    -0.064 NA
HETATM    6  N3  UNL     1      13.225  12.039  30.418  1.00  0.00    -0.310 N 
HETATM    7  C2  UNL     1      13.770  11.129  29.412  1.00  0.00     0.206 C 
HETATM    8  S1  UNL     1      14.187  12.497  28.319  1.00  0.00    -0.096 SA
HETATM    9  C3  UNL     1      13.023  13.168  29.497  1.00  0.00     0.352 C 
ENDROOT
BRANCH   9  10
HETATM   10  N4  UNL     1      11.630  13.144  29.061  1.00  0.00    -0.049 N 
ATOM     11  H43 UNL     1      11.494  13.580  28.148  1.00  0.00     0.277 HD
ATOM     12  H42 UNL     1      11.308  12.208  28.814  1.00  0.00     0.277 HD
ATOM     13  H41 UNL     1      11.067  13.576  29.793  1.00  0.00     0.277 HD
ENDBRANCH   9  10
TORSDOF 1
ENDMDL
MODEL 4
REMARK VINA RESULT: -3.853208247      6.531      7.566
REMARK  1 active torsions:
REMARK  status: ('A' for Active; 'I' for Inactive)
REMARK       I    between atoms: C1_4  and  N3_6 
REMARK    1  A    between atoms: C3_9  and  N4_10 
ROOT
HETATM    1  N1  UNL     1      13.184  19.593  25.470  1.00  0.00    -0.374 N 
ATOM      2  H11 UNL     1      12.540  19.086  24.862  1.00  0.00     0.158 HD
ATOM      3  H12 UNL     1      13.706  20.362  25.050  1.00  0.00     0.158 HD
HETATM    4  C1  UNL     1      13.301  19.243  26.703  1.00  0.00     0.186 C 
HETATM    5  N2  UNL     1      14.197  19.948  27.550  1.00  0.00    -0.064 NA
HETATM    6  N3  UNL     1      12.574  18.172  27.288  1.00  0.00    -0.310 N 
HETATM    7  C2  UNL     1      11.437  18.008  28.192  1.00  0.00     0.206 C 
HETATM    8  S1  UNL     1      11.929  16.324  28.596  1.00  0.00    -0.096 SA
HETATM    9  C3  UNL     1      12.819  16.734  27.102  1.00  0.00     0.352 C 
ENDROOT
BRANCH   9  10
HETATM   10  N4  UNL     1      12.158  16.324  25.866  1.00  0.00    -0.049 N 
ATOM     11  H43 UNL     1      12.259  15.327  25.674  1.00  0.00     0.277 HD
ATOM     12  H42 UNL     1      11.140  16.347  25.935  1.00  0.00     0.277 HD
ATOM     13  H41 UNL     1      12.516  16.911  25.112  1.00  0.00     0.277 HD
ENDBRANCH   9  10
TORSDOF 1
ENDMDL
MODEL 5
REMARK VINA RESULT: -3.849008566      1.829      1.949
REMARK  1 active torsions:
REMARK  status: ('A' for Active; 'I' for Inactive)
REMARK       I    between atoms: C1_4  and  N3_6 
REMARK    1  A    between atoms: C3_9  and  N4_10 
ROOT
HETATM    1  N1  UNL     1       8.824  19.890  33.168  1.00  0.00    -0.374 N 
ATOM      2  H11 UNL     1       8.806  20.454  34.019  1.00  0.00     0.158 HD
ATOM      3  H12 UNL     1       9.027  18.897  33.277  1.00  0.00     0.158 HD
HETATM    4  C1  UNL     1       8.596  20.450  32.032  1.00  0.00     0.186 C 
HETATM    5  N2  UNL     1       8.621  19.666  30.847  1.00  0.00    -0.064 NA
HETATM    6  N3  UNL     1       8.314  21.834  31.880  1.00  0.00    -0.310 N 
HETATM    7  C2  UNL     1       7.148  22.673  31.612  1.00  0.00     0.206 C 
HETATM    8  S1  UNL     1       8.185  24.040  31.069  1.00  0.00    -0.096 SA
HETATM    9  C3  UNL     1       9.273  22.945  31.968  1.00  0.00     0.352 C 
ENDROOT
BRANCH   9  10
HETATM   10  N4  UNL     1       9.444  23.277  33.380  1.00  0.00    -0.049 N 
ATOM     11  H43 UNL     1       9.567  22.452  33.968  1.00  0.00     0.277 HD
ATOM     12  H42 UNL     1      10.341  23.719  33.577  1.00  0.00     0.277 HD
ATOM     13  H41 UNL     1       8.650  23.850  33.663  1.00  0.00     0.277 HD
ENDBRANCH   9  10
TORSDOF 1
ENDMDL
