MODEL 1
REMARK VINA RESULT: -4.811893191      0.000      0.000
REMARK  1 active torsions:
REMARK  status: ('A' for Active; 'I' for Inactive)
REMARK       I    between atoms: C2_2  and  N1_4 
REMARK       I    between atoms: N1_4  and  C3_6 
REMARK       I    between atoms: C3_6  and  N3_10 
REMARK    1  A    between atoms: N3_10  and  N4_12 
ROOT
HETATM    1  C1  UNL     1      34.812   1.759  83.531  1.00  0.00     0.118 C 
HETATM    2  C2  UNL     1      33.483   1.154  83.718  1.00  0.00     0.232 C 
HETATM    3  O1  UNL     1      32.891   1.302  84.798  1.00  0.00    -0.273 OA
HETATM    4  N1  UNL     1      32.884   0.413  82.686  1.00  0.00    -0.159 N 
ATOM      5  H1  UNL     1      33.395   0.309  81.809  1.00  0.00     0.187 HD
HETATM    6  C3  UNL     1      31.613  -0.196  82.794  1.00  0.00     0.697 C 
HETATM    7  N2  UNL     1      31.052  -0.875  81.863  1.00  0.00    -0.233 N 
ATOM      8  H21 UNL     1      30.135  -1.314  81.941  1.00  0.00     0.174 HD
ATOM      9  H22 UNL     1      31.542  -0.994  80.976  1.00  0.00     0.174 HD
HETATM   10  N3  UNL     1      30.929  -0.029  84.028  1.00  0.00    -0.072 N 
ATOM     11  H3  UNL     1      30.531   0.888  84.230  1.00  0.00     0.212 HD
ENDROOT
BRANCH  10  12
HETATM   12  N4  UNL     1      30.766  -1.020  84.970  1.00  0.00    -0.024 N 
HETATM   13  O2  UNL     1      30.321  -2.126  84.631  1.00  0.00    -0.516 OA
HETATM   14  O3  UNL     1      31.077  -0.859  86.310  1.00  0.00    -0.516 OA
ENDBRANCH  10  12
TORSDOF 1
ENDMDL
MODEL 2
REMARK VINA RESULT: -4.675741605      7.681      9.161
REMARK  1 active torsions:
REMARK  status: ('A' for Active; 'I' for Inactive)
REMARK       I    between atoms: C2_2  and  N1_4 
REMARK       I    between atoms: N1_4  and  C3_6 
REMARK       I    between atoms: C3_6  and  N3_10 
REMARK    1  A    between atoms: N3_10  and  N4_12 
ROOT
HETATM    1  C1  UNL     1      27.529  -2.346  80.436  1.00  0.00     0.118 C 
HETATM    2  C2  UNL     1      27.164  -1.768  79.132  1.00  0.00     0.232 C 
HETATM    3  O1  UNL     1      26.481  -0.733  79.093  1.00  0.00    -0.273 OA
HETATM    4  N1  UNL     1      27.584  -2.376  77.938  1.00  0.00    -0.159 N 
ATOM      5  H1  UNL     1      28.145  -3.225  78.003  1.00  0.00     0.187 HD
HETATM    6  C3  UNL     1      27.272  -1.878  76.652  1.00  0.00     0.697 C 
HETATM    7  N2  UNL     1      27.647  -2.421  75.554  1.00  0.00    -0.233 N 
ATOM      8  H21 UNL     1      27.422  -2.061  74.626  1.00  0.00     0.174 HD
ATOM      9  H22 UNL     1      28.209  -3.271  75.590  1.00  0.00     0.174 HD
HETATM   10  N3  UNL     1      26.490  -0.693  76.601  1.00  0.00    -0.072 N 
ATOM     11  H3  UNL     1      26.942   0.185  76.856  1.00  0.00     0.212 HD
ENDROOT
BRANCH  10  12
HETATM   12  N4  UNL     1      25.165  -0.648  76.230  1.00  0.00    -0.024 N 
HETATM   13  O2  UNL     1      24.586  -1.688  75.881  1.00  0.00    -0.516 OA
HETATM   14  O3  UNL     1      24.412   0.515  76.223  1.00  0.00    -0.516 OA
ENDBRANCH  10  12
TORSDOF 1
ENDMDL
MODEL 3
REMARK VINA RESULT: -4.545826794      1.748      2.783
REMARK  1 active torsions:
REMARK  status: ('A' for Active; 'I' for Inactive)
REMARK       I    between atoms: C2_2  and  N1_4 
REMARK       I    between atoms: N1_4  and  C3_6 
REMARK       I    between atoms: C3_6  and  N3_10 
REMARK    1  A    between atoms: N3_10  and  N4_12 
ROOT
HETATM    1  C1  UNL     1      31.205   1.573  80.673  1.00  0.00     0.118 C 
HETATM    2  C2  UNL     1      31.513   0.613  81.745  1.00  0.00     0.232 C 
HETATM    3  O1  UNL     1      30.848  -0.431  81.840  1.00  0.00    -0.273 OA
HETATM    4  N1  UNL     1      32.550   0.868  82.657  1.00  0.00    -0.159 N 
ATOM      5  H1  UNL     1      33.078   1.734  82.554  1.00  0.00     0.187 HD
HETATM    6  C3  UNL     1      32.901  -0.007  83.710  1.00  0.00     0.697 C 
HETATM    7  N2  UNL     1      33.843   0.211  84.551  1.00  0.00    -0.233 N 
ATOM      8  H21 UNL     1      34.097  -0.420  85.311  1.00  0.00     0.174 HD
ATOM      9  H22 UNL     1      34.388   1.070  84.470  1.00  0.00     0.174 HD
HETATM   10  N3  UNL     1      32.144  -1.204  83.824  1.00  0.00    -0.072 N 
ATOM     11  H3  UNL     1      32.307  -1.935  83.132  1.00  0.00     0.212 HD
ENDROOT
BRANCH  10  12
HETATM   12  N4  UNL     1      31.207  -1.445  84.802  1.00  0.00    -0.024 N 
HETATM   13  O2  UNL     1      31.253  -0.816  85.870  1.00  0.00    -0.516 OA
HETATM   14  O3  UNL     1      30.183  -2.369  84.670  1.00  0.00    -0.516 OA
ENDBRANCH  10  12
TORSDOF 1
ENDMDL
MODEL 4
REMARK VINA RESULT: -4.494956405      2.001      3.644
REMARK  1 active torsions:
REMARK  status: ('A' for Active; 'I' for Inactive)
REMARK       I    between atoms: C2_2  and  N1_4 
REMARK       I    between atoms: N1_4  and  C3_6 
REMARK       I    between atoms: C3_6  and  N3_10 
REMARK    1  A    between atoms: N3_10  and  N4_12 
ROOT
HETATM    1  C1  UNL     1      27.472  -0.000  82.610  1.00  0.00     0.118 C 
HETATM    2  C2  UNL     1      28.875  -0.359  82.874  1.00  0.00     0.232 C 
HETATM    3  O1  UNL     1      29.131  -1.293  83.650  1.00  0.00    -0.273 OA
HETATM    4  N1  UNL     1      29.920   0.346  82.257  1.00  0.00    -0.159 N 
ATOM      5  H1  UNL     1      29.679   1.109  81.625  1.00  0.00     0.187 HD
HETATM    6  C3  UNL     1      31.289   0.058  82.463  1.00  0.00     0.697 C 
HETATM    7  N2  UNL     1      32.256   0.692  81.908  1.00  0.00    -0.233 N 
ATOM      8  H21 UNL     1      33.243   0.484  82.057  1.00  0.00     0.174 HD
ATOM      9  H22 UNL     1      32.041   1.459  81.272  1.00  0.00     0.174 HD
HETATM   10  N3  UNL     1      31.589  -1.010  83.349  1.00  0.00    -0.072 N 
ATOM     11  H3  UNL     1      31.415  -1.961  83.022  1.00  0.00     0.212 HD
ENDROOT
BRANCH  10  12
HETATM   12  N4  UNL     1      32.097  -0.853  84.619  1.00  0.00    -0.024 N 
HETATM   13  O2  UNL     1      33.301  -0.599  84.774  1.00  0.00    -0.516 OA
HETATM   14  O3  UNL     1      31.331  -0.961  85.768  1.00  0.00    -0.516 OA
ENDBRANCH  10  12
TORSDOF 1
ENDMDL
MODEL 5
REMARK VINA RESULT: -4.421258589     10.909     11.499
REMARK  1 active torsions:
REMARK  status: ('A' for Active; 'I' for Inactive)
REMARK       I    between atoms: C2_2  and  N1_4 
REMARK       I    between atoms: N1_4  and  C3_6 
REMARK       I    between atoms: C3_6  and  N3_10 
REMARK    1  A    between atoms: N3_10  and  N4_12 
ROOT
HETATM    1  C1  UNL     1      27.620   5.944  76.450  1.00  0.00     0.118 C 
HETATM    2  C2  UNL     1      26.249   5.408  76.442  1.00  0.00     0.232 C 
HETATM    3  O1  UNL     1      25.670   5.195  77.518  1.00  0.00    -0.273 OA
HETATM    4  N1  UNL     1      25.595   5.139  75.229  1.00  0.00    -0.159 N 
ATOM      5  H1  UNL     1      26.096   5.325  74.361  1.00  0.00     0.187 HD
HETATM    6  C3  UNL     1      24.280   4.625  75.144  1.00  0.00     0.697 C 
HETATM    7  N2  UNL     1      23.669   4.373  74.046  1.00  0.00    -0.233 N 
ATOM      8  H21 UNL     1      22.721   4.002  73.985  1.00  0.00     0.174 HD
ATOM      9  H22 UNL     1      24.149   4.550  73.163  1.00  0.00     0.174 HD
HETATM   10  N3  UNL     1      23.612   4.378  76.373  1.00  0.00    -0.072 N 
ATOM     11  H3  UNL     1      23.286   5.185  76.905  1.00  0.00     0.212 HD
ENDROOT
BRANCH  10  12
HETATM   12  N4  UNL     1      23.374   3.128  76.895  1.00  0.00    -0.024 N 
HETATM   13  O2  UNL     1      23.387   2.135  76.151  1.00  0.00    -0.516 OA
HETATM   14  O3  UNL     1      23.114   2.895  78.236  1.00  0.00    -0.516 OA
ENDBRANCH  10  12
TORSDOF 1
ENDMDL
