MODEL 1
REMARK VINA RESULT: -4.155632458      0.000      0.000
REMARK  3 active torsions:
REMARK  status: ('A' for Active; 'I' for Inactive)
REMARK    1  A    between atoms: S1_2  and  C2_3 
REMARK    2  A    between atoms: C3_6  and  N2_7 
REMARK    3  A    between atoms: N4_12  and  O1_13 
ROOT
HETATM    1  C2  UNL     1      24.901   3.420  76.088  1.00  0.00     0.204 A 
HETATM    2  N1  UNL     1      26.230   3.539  75.903  1.00  0.00    -0.166 N 
ATOM      3  H1  UNL     1      26.915   2.786  75.970  1.00  0.00     0.186 HD
HETATM    4  C3  UNL     1      26.495   4.824  75.614  1.00  0.00     0.694 A 
HETATM    5  N3  UNL     1      25.345   5.518  75.615  1.00  0.00    -0.104 N 
ATOM      6  H3  UNL     1      25.230   6.514  75.431  1.00  0.00     0.208 HD
HETATM    7  N4  UNL     1      24.393   4.649  75.904  1.00  0.00    -0.124 N 
ENDROOT
BRANCH   4   8
HETATM    8  N2  UNL     1      27.657   5.355  75.367  1.00  0.00    -0.233 N 
ATOM      9  H22 UNL     1      28.207   5.149  74.534  1.00  0.00     0.174 HD
ATOM     10  H21 UNL     1      28.167   6.025  75.944  1.00  0.00     0.174 HD
ENDBRANCH   4   8
BRANCH   1  11
HETATM   11  S1  UNL     1      23.971   1.947  76.495  1.00  0.00    -0.094 SA
HETATM   12  C1  UNL     1      25.067   0.498  76.580  1.00  0.00     0.099 C 
ENDBRANCH   1  11
BRANCH   7  13
HETATM   13  O1  UNL     1      23.061   5.040  75.988  1.00  0.00    -0.265 OA
ATOM     14  H1  UNL     1      22.661   5.823  75.629  1.00  0.00     0.247 HD
ENDBRANCH   7  13
TORSDOF 3
ENDMDL
MODEL 2
REMARK VINA RESULT: -4.023261982      1.192      1.415
REMARK  3 active torsions:
REMARK  status: ('A' for Active; 'I' for Inactive)
REMARK    1  A    between atoms: S1_2  and  C2_3 
REMARK    2  A    between atoms: C3_6  and  N2_7 
REMARK    3  A    between atoms: N4_12  and  O1_13 
ROOT
HETATM    1  C2  UNL     1      24.970   3.580  76.536  1.00  0.00     0.204 A 
HETATM    2  N1  UNL     1      26.302   3.640  76.349  1.00  0.00    -0.166 N 
ATOM      3  H1  UNL     1      26.992   2.994  76.734  1.00  0.00     0.186 HD
HETATM    4  C3  UNL     1      26.564   4.701  75.567  1.00  0.00     0.694 A 
HETATM    5  N3  UNL     1      25.408   5.311  75.258  1.00  0.00    -0.104 N 
ATOM      6  H3  UNL     1      25.290   6.142  74.680  1.00  0.00     0.208 HD
HETATM    7  N4  UNL     1      24.456   4.617  75.854  1.00  0.00    -0.124 N 
ENDROOT
BRANCH   4   8
HETATM    8  N2  UNL     1      27.728   5.109  75.152  1.00  0.00    -0.233 N 
ATOM      9  H22 UNL     1      28.452   5.476  75.769  1.00  0.00     0.174 HD
ATOM     10  H21 UNL     1      28.074   5.121  74.192  1.00  0.00     0.174 HD
ENDBRANCH   4   8
BRANCH   1  11
HETATM   11  S1  UNL     1      24.042   2.383  77.487  1.00  0.00    -0.094 SA
HETATM   12  C1  UNL     1      23.213   3.183  78.895  1.00  0.00     0.099 C 
ENDBRANCH   1  11
BRANCH   7  13
HETATM   13  O1  UNL     1      23.119   4.980  75.741  1.00  0.00    -0.265 OA
ATOM     14  H1  UNL     1      22.506   5.170  76.441  1.00  0.00     0.247 HD
ENDBRANCH   7  13
TORSDOF 3
ENDMDL
MODEL 3
REMARK VINA RESULT: -3.985473603      2.503      3.230
REMARK  3 active torsions:
REMARK  status: ('A' for Active; 'I' for Inactive)
REMARK    1  A    between atoms: S1_2  and  C2_3 
REMARK    2  A    between atoms: C3_6  and  N2_7 
REMARK    3  A    between atoms: N4_12  and  O1_13 
ROOT
HETATM    1  C2  UNL     1      26.217   3.625  76.362  1.00  0.00     0.204 A 
HETATM    2  N1  UNL     1      24.882   3.544  76.515  1.00  0.00    -0.166 N 
ATOM      3  H1  UNL     1      24.383   2.858  77.081  1.00  0.00     0.186 HD
HETATM    4  C3  UNL     1      24.321   4.529  75.791  1.00  0.00     0.694 A 
HETATM    5  N3  UNL     1      25.292   5.229  75.183  1.00  0.00    -0.104 N 
ATOM      6  H3  UNL     1      25.173   6.034  74.568  1.00  0.00     0.208 HD
HETATM    7  N4  UNL     1      26.431   4.666  75.541  1.00  0.00    -0.124 N 
ENDROOT
BRANCH   4   8
HETATM    8  N2  UNL     1      23.054   4.797  75.670  1.00  0.00    -0.233 N 
ATOM      9  H22 UNL     1      22.504   5.266  76.390  1.00  0.00     0.174 HD
ATOM     10  H21 UNL     1      22.450   4.588  74.875  1.00  0.00     0.174 HD
ENDBRANCH   4   8
BRANCH   1  11
HETATM   11  S1  UNL     1      27.475   2.579  77.085  1.00  0.00    -0.094 SA
HETATM   12  C1  UNL     1      28.544   3.537  78.202  1.00  0.00     0.099 C 
ENDBRANCH   1  11
BRANCH   7  13
HETATM   13  O1  UNL     1      27.651   5.150  75.082  1.00  0.00    -0.265 OA
ATOM     14  H1  UNL     1      28.005   6.025  75.186  1.00  0.00     0.247 HD
ENDBRANCH   7  13
TORSDOF 3
ENDMDL
MODEL 4
REMARK VINA RESULT: -3.967828206      2.244      2.853
REMARK  3 active torsions:
REMARK  status: ('A' for Active; 'I' for Inactive)
REMARK    1  A    between atoms: S1_2  and  C2_3 
REMARK    2  A    between atoms: C3_6  and  N2_7 
REMARK    3  A    between atoms: N4_12  and  O1_13 
ROOT
HETATM    1  C2  UNL     1      26.052   3.590  76.294  1.00  0.00     0.204 A 
HETATM    2  N1  UNL     1      24.720   3.399  76.346  1.00  0.00    -0.166 N 
ATOM      3  H1  UNL     1      24.240   2.659  76.859  1.00  0.00     0.186 HD
HETATM    4  C3  UNL     1      24.135   4.354  75.604  1.00  0.00     0.694 A 
HETATM    5  N3  UNL     1      25.085   5.147  75.084  1.00  0.00    -0.104 N 
ATOM      6  H3  UNL     1      24.945   5.955  74.479  1.00  0.00     0.208 HD
HETATM    7  N4  UNL     1      26.239   4.667  75.514  1.00  0.00    -0.124 N 
ENDROOT
BRANCH   4   8
HETATM    8  N2  UNL     1      22.861   4.523  75.395  1.00  0.00    -0.233 N 
ATOM      9  H22 UNL     1      22.467   5.346  74.939  1.00  0.00     0.174 HD
ATOM     10  H21 UNL     1      22.103   3.888  75.645  1.00  0.00     0.174 HD
ENDBRANCH   4   8
BRANCH   1  11
HETATM   11  S1  UNL     1      27.336   2.630  77.086  1.00  0.00    -0.094 SA
HETATM   12  C1  UNL     1      26.795   0.911  77.332  1.00  0.00     0.099 C 
ENDBRANCH   1  11
BRANCH   7  13
HETATM   13  O1  UNL     1      27.445   5.260  75.157  1.00  0.00    -0.265 OA
ATOM     14  H1  UNL     1      27.657   6.185  75.147  1.00  0.00     0.247 HD
ENDBRANCH   7  13
TORSDOF 3
ENDMDL
MODEL 5
REMARK VINA RESULT: -3.926897576     10.332     10.833
REMARK  3 active torsions:
REMARK  status: ('A' for Active; 'I' for Inactive)
REMARK    1  A    between atoms: S1_2  and  C2_3 
REMARK    2  A    between atoms: C3_6  and  N2_7 
REMARK    3  A    between atoms: N4_12  and  O1_13 
ROOT
HETATM    1  C2  UNL     1      31.272   0.426  83.429  1.00  0.00     0.204 A 
HETATM    2  N1  UNL     1      32.301  -0.140  82.769  1.00  0.00    -0.166 N 
ATOM      3  H1  UNL     1      32.228  -0.759  81.961  1.00  0.00     0.186 HD
HETATM    4  C3  UNL     1      33.440   0.256  83.361  1.00  0.00     0.694 A 
HETATM    5  N3  UNL     1      33.140   1.066  84.389  1.00  0.00    -0.104 N 
ATOM      6  H3  UNL     1      33.796   1.520  85.023  1.00  0.00     0.208 HD
HETATM    7  N4  UNL     1      31.822   1.156  84.412  1.00  0.00    -0.124 N 
ENDROOT
BRANCH   4   8
HETATM    8  N2  UNL     1      34.657  -0.067  83.029  1.00  0.00    -0.233 N 
ATOM      9  H22 UNL     1      35.281  -0.607  83.627  1.00  0.00     0.174 HD
ATOM     10  H21 UNL     1      35.144   0.163  82.162  1.00  0.00     0.174 HD
ENDBRANCH   4   8
BRANCH   1  11
HETATM   11  S1  UNL     1      29.523   0.261  83.093  1.00  0.00    -0.094 SA
HETATM   12  C1  UNL     1      28.827   1.839  82.515  1.00  0.00     0.099 C 
ENDBRANCH   1  11
BRANCH   7  13
HETATM   13  O1  UNL     1      31.168   1.927  85.366  1.00  0.00    -0.265 OA
ATOM     14  H1  UNL     1      31.510   2.673  85.844  1.00  0.00     0.247 HD
ENDBRANCH   7  13
TORSDOF 3
ENDMDL
