MODEL 1
REMARK VINA RESULT: -4.585887074      0.000      0.000
REMARK  2 active torsions:
REMARK  status: ('A' for Active; 'I' for Inactive)
REMARK    1  A    between atoms: N1_2  and  C3_5 
REMARK    2  A    between atoms: C4_8  and  N4_9 
ROOT
HETATM    1  C1  UNL     1      26.461   0.946  77.376  1.00  0.00     0.188 C 
HETATM    2  N1  UNL     1      25.213   0.687  76.655  1.00  0.00    -0.120 N 
HETATM    3  C2  UNL     1      24.910  -0.589  76.223  1.00  0.00     0.198 C 
HETATM    4  N2  UNL     1      24.664  -1.660  75.844  1.00  0.00    -0.171 NA
ENDROOT
BRANCH   2   5
HETATM    5  C3  UNL     1      24.385   1.831  76.452  1.00  0.00     0.722 A 
HETATM    6  N3  UNL     1      24.587   3.081  76.959  1.00  0.00    -0.019 N 
HETATM    7  C4  UNL     1      23.599   3.912  76.562  1.00  0.00     0.705 A 
ATOM      8  H3  UNL     1      25.372   3.349  77.552  1.00  0.00     0.203 HD
HETATM    9  N5  UNL     1      22.781   3.165  75.807  1.00  0.00    -0.117 N 
HETATM   10  N6  UNL     1      23.245   1.932  75.739  1.00  0.00    -0.116 N 
ATOM     11  H5  UNL     1      21.930   3.499  75.353  1.00  0.00     0.206 HD
ATOM     12  H6  UNL     1      22.807   1.168  75.224  1.00  0.00     0.206 HD
BRANCH   7  13
HETATM   13  N4  UNL     1      23.467   5.178  76.854  1.00  0.00    -0.233 N 
ATOM     14  H42 UNL     1      22.633   5.645  77.212  1.00  0.00     0.174 HD
ATOM     15  H41 UNL     1      24.176   5.907  76.772  1.00  0.00     0.174 HD
ENDBRANCH   7  13
ENDBRANCH   2   5
TORSDOF 2
ENDMDL
MODEL 2
REMARK VINA RESULT: -4.525752152      2.741      3.649
REMARK  2 active torsions:
REMARK  status: ('A' for Active; 'I' for Inactive)
REMARK    1  A    between atoms: N1_2  and  C3_5 
REMARK    2  A    between atoms: C4_8  and  N4_9 
ROOT
HETATM    1  C1  UNL     1      26.166   1.759  77.182  1.00  0.00     0.188 C 
HETATM    2  N1  UNL     1      25.399   2.811  76.513  1.00  0.00    -0.120 N 
HETATM    3  C2  UNL     1      24.050   2.644  76.274  1.00  0.00     0.198 C 
HETATM    4  N2  UNL     1      22.917   2.496  76.057  1.00  0.00    -0.171 NA
ENDROOT
BRANCH   2   5
HETATM    5  C3  UNL     1      26.151   3.967  76.149  1.00  0.00     0.722 A 
HETATM    6  N3  UNL     1      25.827   5.265  76.414  1.00  0.00    -0.019 N 
HETATM    7  C4  UNL     1      26.770   6.094  75.915  1.00  0.00     0.705 A 
ATOM      8  H3  UNL     1      24.992   5.566  76.916  1.00  0.00     0.203 HD
HETATM    9  N5  UNL     1      27.681   5.298  75.338  1.00  0.00    -0.117 N 
HETATM   10  N6  UNL     1      27.317   4.037  75.476  1.00  0.00    -0.116 N 
ATOM     11  H5  UNL     1      28.526   5.618  74.865  1.00  0.00     0.206 HD
ATOM     12  H6  UNL     1      27.840   3.235  75.125  1.00  0.00     0.206 HD
BRANCH   7  13
HETATM   13  N4  UNL     1      26.789   7.398  75.982  1.00  0.00    -0.233 N 
ATOM     14  H42 UNL     1      25.987   8.028  75.968  1.00  0.00     0.174 HD
ATOM     15  H41 UNL     1      27.610   8.000  76.058  1.00  0.00     0.174 HD
ENDBRANCH   7  13
ENDBRANCH   2   5
TORSDOF 2
ENDMDL
MODEL 3
REMARK VINA RESULT: -4.472725108      2.388      3.639
REMARK  2 active torsions:
REMARK  status: ('A' for Active; 'I' for Inactive)
REMARK    1  A    between atoms: N1_2  and  C3_5 
REMARK    2  A    between atoms: C4_8  and  N4_9 
ROOT
HETATM    1  C1  UNL     1      24.152   1.407  76.434  1.00  0.00     0.188 C 
HETATM    2  N1  UNL     1      24.147   2.736  77.049  1.00  0.00    -0.120 N 
HETATM    3  C2  UNL     1      23.430   2.965  78.205  1.00  0.00     0.198 C 
HETATM    4  N2  UNL     1      22.812   3.162  79.170  1.00  0.00    -0.171 NA
ENDROOT
BRANCH   2   5
HETATM    5  C3  UNL     1      24.918   3.721  76.362  1.00  0.00     0.722 A 
HETATM    6  N3  UNL     1      26.277   3.761  76.255  1.00  0.00    -0.019 N 
HETATM    7  C4  UNL     1      26.658   4.840  75.537  1.00  0.00     0.705 A 
ATOM      8  H3  UNL     1      26.914   3.075  76.660  1.00  0.00     0.203 HD
HETATM    9  N5  UNL     1      25.523   5.468  75.200  1.00  0.00    -0.117 N 
HETATM   10  N6  UNL     1      24.490   4.807  75.687  1.00  0.00    -0.116 N 
ATOM     11  H5  UNL     1      25.466   6.326  74.651  1.00  0.00     0.206 HD
ATOM     12  H6  UNL     1      23.514   5.078  75.571  1.00  0.00     0.206 HD
BRANCH   7  13
HETATM   13  N4  UNL     1      27.878   5.195  75.233  1.00  0.00    -0.233 N 
ATOM     14  H42 UNL     1      28.591   4.625  74.777  1.00  0.00     0.174 HD
ATOM     15  H41 UNL     1      28.317   6.101  75.403  1.00  0.00     0.174 HD
ENDBRANCH   7  13
ENDBRANCH   2   5
TORSDOF 2
ENDMDL
MODEL 4
REMARK VINA RESULT: -4.459133795      2.259      2.853
REMARK  2 active torsions:
REMARK  status: ('A' for Active; 'I' for Inactive)
REMARK    1  A    between atoms: N1_2  and  C3_5 
REMARK    2  A    between atoms: C4_8  and  N4_9 
ROOT
HETATM    1  C1  UNL     1      23.428   2.834  77.944  1.00  0.00     0.188 C 
HETATM    2  N1  UNL     1      24.292   2.507  76.808  1.00  0.00    -0.120 N 
HETATM    3  C2  UNL     1      24.431   1.198  76.394  1.00  0.00     0.198 C 
HETATM    4  N2  UNL     1      24.561   0.093  76.056  1.00  0.00    -0.171 NA
ENDROOT
BRANCH   2   5
HETATM    5  C3  UNL     1      24.945   3.623  76.206  1.00  0.00     0.722 A 
HETATM    6  N3  UNL     1      26.212   4.057  76.460  1.00  0.00    -0.019 N 
HETATM    7  C4  UNL     1      26.494   5.145  75.709  1.00  0.00     0.705 A 
ATOM      8  H3  UNL     1      26.856   3.623  77.122  1.00  0.00     0.203 HD
HETATM    9  N5  UNL     1      25.388   5.381  74.989  1.00  0.00    -0.117 N 
HETATM   10  N6  UNL     1      24.469   4.481  75.281  1.00  0.00    -0.116 N 
ATOM     11  H5  UNL     1      25.275   6.141  74.317  1.00  0.00     0.206 HD
ATOM     12  H6  UNL     1      23.537   4.439  74.868  1.00  0.00     0.206 HD
BRANCH   7  13
HETATM   13  N4  UNL     1      27.610   5.824  75.690  1.00  0.00    -0.233 N 
ATOM     14  H42 UNL     1      28.515   5.531  76.057  1.00  0.00     0.174 HD
ATOM     15  H41 UNL     1      27.757   6.757  75.304  1.00  0.00     0.174 HD
ENDBRANCH   7  13
ENDBRANCH   2   5
TORSDOF 2
ENDMDL
MODEL 5
REMARK VINA RESULT: -4.395778236      2.518      3.385
REMARK  2 active torsions:
REMARK  status: ('A' for Active; 'I' for Inactive)
REMARK    1  A    between atoms: N1_2  and  C3_5 
REMARK    2  A    between atoms: C4_8  and  N4_9 
ROOT
HETATM    1  C1  UNL     1      27.378   5.312  75.790  1.00  0.00     0.188 C 
HETATM    2  N1  UNL     1      26.697   4.078  76.185  1.00  0.00    -0.120 N 
HETATM    3  C2  UNL     1      27.423   3.003  76.656  1.00  0.00     0.198 C 
HETATM    4  N2  UNL     1      28.036   2.092  77.037  1.00  0.00    -0.171 NA
ENDROOT
BRANCH   2   5
HETATM    5  C3  UNL     1      25.278   4.098  76.036  1.00  0.00     0.722 A 
HETATM    6  N3  UNL     1      24.448   3.016  76.012  1.00  0.00    -0.019 N 
HETATM    7  C4  UNL     1      23.167   3.413  75.851  1.00  0.00     0.705 A 
ATOM      8  H3  UNL     1      24.751   2.046  76.102  1.00  0.00     0.203 HD
HETATM    9  N5  UNL     1      23.210   4.750  75.774  1.00  0.00    -0.117 N 
HETATM   10  N6  UNL     1      24.460   5.159  75.884  1.00  0.00    -0.116 N 
ATOM     11  H5  UNL     1      22.401   5.360  75.650  1.00  0.00     0.206 HD
ATOM     12  H6  UNL     1      24.763   6.133  75.858  1.00  0.00     0.206 HD
BRANCH   7  13
HETATM   13  N4  UNL     1      22.107   2.652  75.784  1.00  0.00    -0.233 N 
ATOM     14  H42 UNL     1      21.783   2.115  74.979  1.00  0.00     0.174 HD
ATOM     15  H41 UNL     1      21.430   2.471  76.526  1.00  0.00     0.174 HD
ENDBRANCH   7  13
ENDBRANCH   2   5
TORSDOF 2
ENDMDL
