MODEL 1
REMARK VINA RESULT: -6.764479205      0.000      0.000
REMARK  14 active torsions:
REMARK  status: ('A' for Active; 'I' for Inactive)
REMARK    1  A    between atoms: O1_2  and  C2_3 
REMARK    2  A    between atoms: C2_3  and  C3_5 
REMARK    3  A    between atoms: C4_6  and  N1_7 
REMARK    4  A    between atoms: N1_7  and  C6_9 
REMARK    5  A    between atoms: C6_9  and  C7_10 
REMARK    6  A    between atoms: C7_10  and  S1_11 
REMARK    7  A    between atoms: S1_11  and  C8_12 
REMARK    8  A    between atoms: C8_12  and  C9_13 
REMARK    9  A    between atoms: C9_13  and  N2_14 
REMARK   10  A    between atoms: C9_13  and  N3_18 
REMARK   11  A    between atoms: C10_23  and  C11_24 
REMARK   12  A    between atoms: C17_36  and  O5_37 
REMARK   13  A    between atoms: C20_40  and  O6_41 
REMARK   14  A    between atoms: O6_41  and  C21_42 
ROOT
HETATM    1  C3  UNL     1     102.904 -20.083 -15.351  1.00  0.00     0.097 C 
HETATM    2  C4  UNL     1     102.470 -19.115 -14.539  1.00  0.00     0.122 C 
HETATM    3  N4  UNL     1     103.543 -18.221 -14.281  1.00  0.00    -0.311 N 
HETATM    4  C10 UNL     1     103.838 -16.896 -13.780  1.00  0.00     0.139 C 
HETATM    5  C16 UNL     1     104.352 -16.181 -15.056  1.00  0.00     0.109 C 
HETATM    6  S2  UNL     1     105.633 -17.430 -15.496  1.00  0.00    -0.101 SA
HETATM    7  C17 UNL     1     104.771 -18.857 -14.718  1.00  0.00     0.222 C 
HETATM    8  C19 UNL     1     104.278 -19.729 -15.792  1.00  0.00     0.051 C 
HETATM    9  C20 UNL     1     104.847 -20.153 -16.895  1.00  0.00     0.161 C 
ENDROOT
BRANCH   2  10
HETATM   10  N1  UNL     1     101.126 -19.128 -14.068  1.00  0.00    -0.370 N 
HETATM   11  C5  UNL     1     100.077 -18.444 -14.856  1.00  0.00     0.151 C 
BRANCH  10  12
HETATM   12  C6  UNL     1     100.772 -19.835 -12.878  1.00  0.00     0.134 C 
BRANCH  12  13
HETATM   13  C7  UNL     1      99.343 -20.338 -12.874  1.00  0.00     0.093 C 
BRANCH  13  14
HETATM   14  S1  UNL     1      99.381 -22.113 -13.206  1.00  0.00    -0.164 SA
BRANCH  14  15
HETATM   15  C8  UNL     1      98.631 -22.575 -14.764  1.00  0.00     0.136 C 
BRANCH  15  16
HETATM   16  C9  UNL     1      99.166 -23.840 -15.368  1.00  0.00     0.387 C 
BRANCH  16  17
HETATM   17  N2  UNL     1      99.609 -23.627 -16.743  1.00  0.00    -0.050 N 
ATOM     18  H23 UNL     1     100.539 -23.209 -16.775  1.00  0.00     0.276 HD
ATOM     19  H22 UNL     1      99.818 -24.510 -17.209  1.00  0.00     0.276 HD
ATOM     20  H21 UNL     1      98.933 -23.075 -17.270  1.00  0.00     0.276 HD
ENDBRANCH  16  17
BRANCH  16  21
HETATM   21  N3  UNL     1     100.163 -24.486 -14.566  1.00  0.00    -0.050 N 
ATOM     22  H33 UNL     1     100.830 -23.804 -14.205  1.00  0.00     0.276 HD
ATOM     23  H32 UNL     1      99.760 -24.814 -13.688  1.00  0.00     0.276 HD
ATOM     24  H31 UNL     1     100.647 -25.245 -15.045  1.00  0.00     0.276 HD
ENDBRANCH  16  21
ENDBRANCH  15  16
ENDBRANCH  14  15
ENDBRANCH  13  14
ENDBRANCH  12  13
ENDBRANCH  10  12
ENDBRANCH   2  10
BRANCH   1  25
HETATM   25  C2  UNL     1     102.154 -21.224 -15.837  1.00  0.00     0.297 C 
HETATM   26  O2  UNL     1     101.287 -21.048 -16.725  1.00  0.00    -0.259 OA
BRANCH  25  27
HETATM   27  O1  UNL     1     102.303 -22.528 -15.404  1.00  0.00    -0.322 OA
HETATM   28  C1  UNL     1     103.208 -23.435 -16.046  1.00  0.00     0.213 C 
ENDBRANCH  25  27
ENDBRANCH   1  25
BRANCH   4  29
HETATM   29  C11 UNL     1     104.848 -16.927 -12.746  1.00  0.00     0.049 A 
HETATM   30  C12 UNL     1     105.944 -16.076 -12.796  1.00  0.00     0.110 A 
HETATM   31  N5  UNL     1     106.899 -16.073 -11.821  1.00  0.00    -0.313 N 
HETATM   32  C13 UNL     1     108.039 -15.177 -11.889  1.00  0.00     0.160 C 
HETATM   33  C14 UNL     1     106.822 -16.884 -10.779  1.00  0.00     0.328 A 
HETATM   34  O3  UNL     1     107.721 -16.866  -9.882  1.00  0.00    -0.246 OA
HETATM   35  N6  UNL     1     105.769 -17.711 -10.718  1.00  0.00    -0.275 N 
HETATM   36  C15 UNL     1     104.792 -17.754 -11.661  1.00  0.00     0.259 A 
ATOM     37  H6  UNL     1     105.697 -18.343  -9.921  1.00  0.00     0.173 HD
HETATM   38  O4  UNL     1     103.873 -18.584 -11.457  1.00  0.00    -0.267 OA
ENDBRANCH   4  29
BRANCH   7  39
HETATM   39  O5  UNL     1     105.508 -19.474 -13.773  1.00  0.00    -0.352 OA
HETATM   40  C18 UNL     1     106.833 -19.686 -14.021  1.00  0.00     0.206 C 
ENDBRANCH   7  39
BRANCH   9  41
HETATM   41  O6  UNL     1     106.095 -19.875 -17.374  1.00  0.00    -0.275 OA
BRANCH  41  42
HETATM   42  C21 UNL     1     106.806 -20.650 -18.265  1.00  0.00     0.377 C 
HETATM   43  N7  UNL     1     107.192 -20.178 -19.555  1.00  0.00    -0.032 NA
HETATM   44  O7  UNL     1     107.123 -21.816 -17.929  1.00  0.00    -0.242 OA
ENDBRANCH  41  42
ENDBRANCH   9  41
TORSDOF 14
ENDMDL
MODEL 2
REMARK VINA RESULT: -6.428091477      1.261      1.352
REMARK  14 active torsions:
REMARK  status: ('A' for Active; 'I' for Inactive)
REMARK    1  A    between atoms: O1_2  and  C2_3 
REMARK    2  A    between atoms: C2_3  and  C3_5 
REMARK    3  A    between atoms: C4_6  and  N1_7 
REMARK    4  A    between atoms: N1_7  and  C6_9 
REMARK    5  A    between atoms: C6_9  and  C7_10 
REMARK    6  A    between atoms: C7_10  and  S1_11 
REMARK    7  A    between atoms: S1_11  and  C8_12 
REMARK    8  A    between atoms: C8_12  and  C9_13 
REMARK    9  A    between atoms: C9_13  and  N2_14 
REMARK   10  A    between atoms: C9_13  and  N3_18 
REMARK   11  A    between atoms: C10_23  and  C11_24 
REMARK   12  A    between atoms: C17_36  and  O5_37 
REMARK   13  A    between atoms: C20_40  and  O6_41 
REMARK   14  A    between atoms: O6_41  and  C21_42 
ROOT
HETATM    1  C3  UNL     1     102.868 -20.082 -15.364  1.00  0.00     0.097 C 
HETATM    2  C4  UNL     1     102.441 -19.110 -14.555  1.00  0.00     0.122 C 
HETATM    3  N4  UNL     1     103.521 -18.225 -14.294  1.00  0.00    -0.311 N 
HETATM    4  C10 UNL     1     103.825 -16.902 -13.793  1.00  0.00     0.139 C 
HETATM    5  C16 UNL     1     104.349 -16.192 -15.068  1.00  0.00     0.109 C 
HETATM    6  S2  UNL     1     105.621 -17.453 -15.503  1.00  0.00    -0.101 SA
HETATM    7  C17 UNL     1     104.745 -18.872 -14.727  1.00  0.00     0.222 C 
HETATM    8  C19 UNL     1     104.248 -19.740 -15.801  1.00  0.00     0.051 C 
HETATM    9  C20 UNL     1     104.816 -20.170 -16.903  1.00  0.00     0.161 C 
ENDROOT
BRANCH   2  10
HETATM   10  N1  UNL     1     101.095 -19.111 -14.088  1.00  0.00    -0.370 N 
HETATM   11  C5  UNL     1     100.062 -18.387 -14.860  1.00  0.00     0.151 C 
BRANCH  10  12
HETATM   12  C6  UNL     1     100.724 -19.843 -12.919  1.00  0.00     0.134 C 
BRANCH  12  13
HETATM   13  C7  UNL     1      99.243 -20.147 -12.838  1.00  0.00     0.093 C 
BRANCH  13  14
HETATM   14  S1  UNL     1      98.980 -21.799 -13.521  1.00  0.00    -0.164 SA
BRANCH  14  15
HETATM   15  C8  UNL     1      98.292 -22.966 -12.351  1.00  0.00     0.136 C 
BRANCH  15  16
HETATM   16  C9  UNL     1      96.807 -23.153 -12.450  1.00  0.00     0.387 C 
BRANCH  16  17
HETATM   17  N2  UNL     1      96.404 -23.507 -13.808  1.00  0.00    -0.050 N 
ATOM     18  H23 UNL     1      96.448 -22.703 -14.433  1.00  0.00     0.276 HD
ATOM     19  H22 UNL     1      97.101 -24.097 -14.262  1.00  0.00     0.276 HD
ATOM     20  H21 UNL     1      95.481 -23.941 -13.821  1.00  0.00     0.276 HD
ENDBRANCH  16  17
BRANCH  16  21
HETATM   21  N3  UNL     1      96.272 -24.051 -11.470  1.00  0.00    -0.050 N 
ATOM     22  H33 UNL     1      97.001 -24.666 -11.110  1.00  0.00     0.276 HD
ATOM     23  H32 UNL     1      96.034 -23.550 -10.614  1.00  0.00     0.276 HD
ATOM     24  H31 UNL     1      95.474 -24.594 -11.802  1.00  0.00     0.276 HD
ENDBRANCH  16  21
ENDBRANCH  15  16
ENDBRANCH  14  15
ENDBRANCH  13  14
ENDBRANCH  12  13
ENDBRANCH  10  12
ENDBRANCH   2  10
BRANCH   1  25
HETATM   25  C2  UNL     1     102.111 -21.217 -15.852  1.00  0.00     0.297 C 
HETATM   26  O2  UNL     1     101.426 -21.088 -16.895  1.00  0.00    -0.259 OA
BRANCH  25  27
HETATM   27  O1  UNL     1     102.064 -22.467 -15.263  1.00  0.00    -0.322 OA
HETATM   28  C1  UNL     1     101.619 -23.621 -15.986  1.00  0.00     0.213 C 
ENDBRANCH  25  27
ENDBRANCH   1  25
BRANCH   4  29
HETATM   29  C11 UNL     1     104.832 -16.941 -12.756  1.00  0.00     0.049 A 
HETATM   30  C12 UNL     1     105.929 -16.092 -12.797  1.00  0.00     0.110 A 
HETATM   31  N5  UNL     1     106.881 -16.096 -11.818  1.00  0.00    -0.313 N 
HETATM   32  C13 UNL     1     108.023 -15.202 -11.877  1.00  0.00     0.160 C 
HETATM   33  C14 UNL     1     106.798 -16.913 -10.782  1.00  0.00     0.328 A 
HETATM   34  O3  UNL     1     107.695 -16.902  -9.882  1.00  0.00    -0.246 OA
HETATM   35  N6  UNL     1     105.744 -17.739 -10.729  1.00  0.00    -0.275 N 
HETATM   36  C15 UNL     1     104.770 -17.774 -11.676  1.00  0.00     0.259 A 
ATOM     37  H6  UNL     1     105.669 -18.375  -9.935  1.00  0.00     0.173 HD
HETATM   38  O4  UNL     1     103.849 -18.603 -11.479  1.00  0.00    -0.267 OA
ENDBRANCH   4  29
BRANCH   7  39
HETATM   39  O5  UNL     1     105.473 -19.494 -13.778  1.00  0.00    -0.352 OA
HETATM   40  C18 UNL     1     106.811 -19.655 -13.992  1.00  0.00     0.206 C 
ENDBRANCH   7  39
BRANCH   9  41
HETATM   41  O6  UNL     1     106.068 -19.902 -17.377  1.00  0.00    -0.275 OA
BRANCH  41  42
HETATM   42  C21 UNL     1     106.775 -20.684 -18.266  1.00  0.00     0.377 C 
HETATM   43  N7  UNL     1     107.183 -20.210 -19.549  1.00  0.00    -0.032 NA
HETATM   44  O7  UNL     1     107.068 -21.858 -17.935  1.00  0.00    -0.242 OA
ENDBRANCH  41  42
ENDBRANCH   9  41
TORSDOF 14
ENDMDL
MODEL 3
REMARK VINA RESULT: -6.420323864      4.977      6.393
REMARK  14 active torsions:
REMARK  status: ('A' for Active; 'I' for Inactive)
REMARK    1  A    between atoms: O1_2  and  C2_3 
REMARK    2  A    between atoms: C2_3  and  C3_5 
REMARK    3  A    between atoms: C4_6  and  N1_7 
REMARK    4  A    between atoms: N1_7  and  C6_9 
REMARK    5  A    between atoms: C6_9  and  C7_10 
REMARK    6  A    between atoms: C7_10  and  S1_11 
REMARK    7  A    between atoms: S1_11  and  C8_12 
REMARK    8  A    between atoms: C8_12  and  C9_13 
REMARK    9  A    between atoms: C9_13  and  N2_14 
REMARK   10  A    between atoms: C9_13  and  N3_18 
REMARK   11  A    between atoms: C10_23  and  C11_24 
REMARK   12  A    between atoms: C17_36  and  O5_37 
REMARK   13  A    between atoms: C20_40  and  O6_41 
REMARK   14  A    between atoms: O6_41  and  C21_42 
ROOT
HETATM    1  C3  UNL     1     103.744 -21.754 -20.140  1.00  0.00     0.097 C 
HETATM    2  C4  UNL     1     103.616 -22.333 -18.943  1.00  0.00     0.122 C 
HETATM    3  N4  UNL     1     104.829 -22.164 -18.222  1.00  0.00    -0.311 N 
HETATM    4  C10 UNL     1     105.393 -22.233 -16.892  1.00  0.00     0.139 C 
HETATM    5  C16 UNL     1     105.729 -20.746 -16.610  1.00  0.00     0.109 C 
HETATM    6  S2  UNL     1     106.716 -20.461 -18.139  1.00  0.00    -0.101 SA
HETATM    7  C17 UNL     1     105.848 -21.723 -19.157  1.00  0.00     0.222 C 
HETATM    8  C19 UNL     1     105.036 -21.019 -20.158  1.00  0.00     0.051 C 
HETATM    9  C20 UNL     1     105.308 -19.995 -20.931  1.00  0.00     0.161 C 
ENDROOT
BRANCH   2  10
HETATM   10  N1  UNL     1     102.406 -22.999 -18.598  1.00  0.00    -0.370 N 
HETATM   11  C5  UNL     1     102.410 -24.471 -18.446  1.00  0.00     0.151 C 
BRANCH  10  12
HETATM   12  C6  UNL     1     101.209 -22.263 -18.345  1.00  0.00     0.134 C 
BRANCH  12  13
HETATM   13  C7  UNL     1      99.945 -23.073 -18.543  1.00  0.00     0.093 C 
BRANCH  13  14
HETATM   14  S1  UNL     1      99.010 -23.028 -16.998  1.00  0.00    -0.164 SA
BRANCH  14  15
HETATM   15  C8  UNL     1      99.951 -22.424 -15.599  1.00  0.00     0.136 C 
BRANCH  15  16
HETATM   16  C9  UNL     1     100.773 -23.466 -14.899  1.00  0.00     0.387 C 
BRANCH  16  17
HETATM   17  N2  UNL     1     100.344 -24.813 -15.261  1.00  0.00    -0.050 N 
ATOM     18  H23 UNL     1     100.892 -25.185 -16.036  1.00  0.00     0.276 HD
ATOM     19  H22 UNL     1     100.604 -25.493 -14.546  1.00  0.00     0.276 HD
ATOM     20  H21 UNL     1      99.345 -24.844 -15.461  1.00  0.00     0.276 HD
ENDBRANCH  16  17
BRANCH  16  21
HETATM   21  N3  UNL     1     102.187 -23.283 -15.050  1.00  0.00    -0.050 N 
ATOM     22  H33 UNL     1     102.698 -24.042 -14.600  1.00  0.00     0.276 HD
ATOM     23  H32 UNL     1     102.468 -23.439 -16.018  1.00  0.00     0.276 HD
ATOM     24  H31 UNL     1     102.521 -22.378 -14.720  1.00  0.00     0.276 HD
ENDBRANCH  16  21
ENDBRANCH  15  16
ENDBRANCH  14  15
ENDBRANCH  13  14
ENDBRANCH  12  13
ENDBRANCH  10  12
ENDBRANCH   2  10
BRANCH   1  25
HETATM   25  C2  UNL     1     102.767 -21.722 -21.209  1.00  0.00     0.297 C 
HETATM   26  O2  UNL     1     103.055 -22.247 -22.312  1.00  0.00    -0.259 OA
BRANCH  25  27
HETATM   27  O1  UNL     1     101.510 -21.152 -21.135  1.00  0.00    -0.322 OA
HETATM   28  C1  UNL     1     100.498 -21.436 -22.109  1.00  0.00     0.213 C 
ENDBRANCH  25  27
ENDBRANCH   1  25
BRANCH   4  29
HETATM   29  C11 UNL     1     106.578 -23.061 -16.855  1.00  0.00     0.049 A 
HETATM   30  C12 UNL     1     107.813 -22.521 -16.523  1.00  0.00     0.110 A 
HETATM   31  N5  UNL     1     108.941 -23.287 -16.461  1.00  0.00    -0.313 N 
HETATM   32  C13 UNL     1     110.225 -22.706 -16.112  1.00  0.00     0.160 C 
HETATM   33  C14 UNL     1     108.908 -24.584 -16.716  1.00  0.00     0.328 A 
HETATM   34  O3  UNL     1     109.969 -25.279 -16.654  1.00  0.00    -0.246 OA
HETATM   35  N6  UNL     1     107.722 -25.119 -17.039  1.00  0.00    -0.275 N 
HETATM   36  C15 UNL     1     106.570 -24.402 -17.114  1.00  0.00     0.259 A 
ATOM     37  H6  UNL     1     107.682 -26.118 -17.239  1.00  0.00     0.173 HD
HETATM   38  O4  UNL     1     105.543 -25.051 -17.428  1.00  0.00    -0.267 OA
ENDBRANCH   4  29
BRANCH   7  39
HETATM   39  O5  UNL     1     106.671 -22.669 -19.650  1.00  0.00    -0.352 OA
HETATM   40  C18 UNL     1     107.949 -22.312 -19.970  1.00  0.00     0.206 C 
ENDBRANCH   7  39
BRANCH   9  41
HETATM   41  O6  UNL     1     106.460 -19.265 -21.007  1.00  0.00    -0.275 OA
BRANCH  41  42
HETATM   42  C21 UNL     1     106.800 -18.405 -22.029  1.00  0.00     0.377 C 
HETATM   43  N7  UNL     1     107.628 -17.260 -21.825  1.00  0.00    -0.032 NA
HETATM   44  O7  UNL     1     106.363 -18.636 -23.181  1.00  0.00    -0.242 OA
ENDBRANCH  41  42
ENDBRANCH   9  41
TORSDOF 14
ENDMDL
MODEL 4
REMARK VINA RESULT: -6.292901969      5.239      6.475
REMARK  14 active torsions:
REMARK  status: ('A' for Active; 'I' for Inactive)
REMARK    1  A    between atoms: O1_2  and  C2_3 
REMARK    2  A    between atoms: C2_3  and  C3_5 
REMARK    3  A    between atoms: C4_6  and  N1_7 
REMARK    4  A    between atoms: N1_7  and  C6_9 
REMARK    5  A    between atoms: C6_9  and  C7_10 
REMARK    6  A    between atoms: C7_10  and  S1_11 
REMARK    7  A    between atoms: S1_11  and  C8_12 
REMARK    8  A    between atoms: C8_12  and  C9_13 
REMARK    9  A    between atoms: C9_13  and  N2_14 
REMARK   10  A    between atoms: C9_13  and  N3_18 
REMARK   11  A    between atoms: C10_23  and  C11_24 
REMARK   12  A    between atoms: C17_36  and  O5_37 
REMARK   13  A    between atoms: C20_40  and  O6_41 
REMARK   14  A    between atoms: O6_41  and  C21_42 
ROOT
HETATM    1  C3  UNL     1     103.630 -21.833 -19.899  1.00  0.00     0.097 C 
HETATM    2  C4  UNL     1     103.595 -22.388 -18.685  1.00  0.00     0.122 C 
HETATM    3  N4  UNL     1     104.857 -22.197 -18.059  1.00  0.00    -0.311 N 
HETATM    4  C10 UNL     1     105.518 -22.236 -16.773  1.00  0.00     0.139 C 
HETATM    5  C16 UNL     1     105.862 -20.742 -16.547  1.00  0.00     0.109 C 
HETATM    6  S2  UNL     1     106.732 -20.481 -18.150  1.00  0.00    -0.101 SA
HETATM    7  C17 UNL     1     105.800 -21.769 -19.076  1.00  0.00     0.222 C 
HETATM    8  C19 UNL     1     104.911 -21.091 -20.027  1.00  0.00     0.051 C 
HETATM    9  C20 UNL     1     105.117 -20.080 -20.838  1.00  0.00     0.161 C 
ENDROOT
BRANCH   2  10
HETATM   10  N1  UNL     1     102.419 -23.055 -18.238  1.00  0.00    -0.370 N 
HETATM   11  C5  UNL     1     102.345 -24.530 -18.329  1.00  0.00     0.151 C 
BRANCH  10  12
HETATM   12  C6  UNL     1     101.338 -22.325 -17.655  1.00  0.00     0.134 C 
BRANCH  12  13
HETATM   13  C7  UNL     1     100.384 -23.189 -16.856  1.00  0.00     0.093 C 
BRANCH  13  14
HETATM   14  S1  UNL     1      98.801 -23.216 -17.727  1.00  0.00    -0.164 SA
BRANCH  14  15
HETATM   15  C8  UNL     1      97.521 -24.134 -16.877  1.00  0.00     0.136 C 
BRANCH  15  16
HETATM   16  C9  UNL     1      96.296 -24.411 -17.698  1.00  0.00     0.387 C 
BRANCH  16  17
HETATM   17  N2  UNL     1      95.088 -24.377 -16.878  1.00  0.00    -0.050 N 
ATOM     18  H23 UNL     1      94.396 -25.051 -17.205  1.00  0.00     0.276 HD
ATOM     19  H22 UNL     1      95.256 -24.763 -15.949  1.00  0.00     0.276 HD
ATOM     20  H21 UNL     1      94.699 -23.436 -16.829  1.00  0.00     0.276 HD
ENDBRANCH  16  17
BRANCH  16  21
HETATM   21  N3  UNL     1      96.187 -23.588 -18.866  1.00  0.00    -0.050 N 
ATOM     22  H33 UNL     1      96.004 -22.619 -18.607  1.00  0.00     0.276 HD
ATOM     23  H32 UNL     1      97.096 -23.477 -19.314  1.00  0.00     0.276 HD
ATOM     24  H31 UNL     1      95.494 -23.918 -19.537  1.00  0.00     0.276 HD
ENDBRANCH  16  21
ENDBRANCH  15  16
ENDBRANCH  14  15
ENDBRANCH  13  14
ENDBRANCH  12  13
ENDBRANCH  10  12
ENDBRANCH   2  10
BRANCH   1  25
HETATM   25  C2  UNL     1     102.576 -21.829 -20.893  1.00  0.00     0.297 C 
HETATM   26  O2  UNL     1     101.434 -21.423 -20.567  1.00  0.00    -0.259 OA
BRANCH  25  27
HETATM   27  O1  UNL     1     102.705 -22.241 -22.206  1.00  0.00    -0.322 OA
HETATM   28  C1  UNL     1     101.756 -21.861 -23.210  1.00  0.00     0.213 C 
ENDBRANCH  25  27
ENDBRANCH   1  25
BRANCH   4  29
HETATM   29  C11 UNL     1     106.708 -23.056 -16.808  1.00  0.00     0.049 A 
HETATM   30  C12 UNL     1     107.959 -22.504 -16.567  1.00  0.00     0.110 A 
HETATM   31  N5  UNL     1     109.095 -23.262 -16.574  1.00  0.00    -0.313 N 
HETATM   32  C13 UNL     1     110.395 -22.668 -16.320  1.00  0.00     0.160 C 
HETATM   33  C14 UNL     1     109.053 -24.562 -16.811  1.00  0.00     0.328 A 
HETATM   34  O3  UNL     1     110.121 -25.249 -16.814  1.00  0.00    -0.246 OA
HETATM   35  N6  UNL     1     107.852 -25.108 -17.046  1.00  0.00    -0.275 N 
HETATM   36  C15 UNL     1     106.693 -24.399 -17.050  1.00  0.00     0.259 A 
ATOM     37  H6  UNL     1     107.806 -26.110 -17.231  1.00  0.00     0.173 HD
HETATM   38  O4  UNL     1     105.652 -25.059 -17.286  1.00  0.00    -0.267 OA
ENDBRANCH   4  29
BRANCH   7  39
HETATM   39  O5  UNL     1     106.592 -22.720 -19.610  1.00  0.00    -0.352 OA
HETATM   40  C18 UNL     1     107.850 -22.367 -20.004  1.00  0.00     0.206 C 
ENDBRANCH   7  39
BRANCH   9  41
HETATM   41  O6  UNL     1     106.254 -19.345 -21.013  1.00  0.00    -0.275 OA
BRANCH  41  42
HETATM   42  C21 UNL     1     106.389 -18.262 -21.856  1.00  0.00     0.377 C 
HETATM   43  N7  UNL     1     105.931 -16.956 -21.506  1.00  0.00    -0.032 NA
HETATM   44  O7  UNL     1     106.933 -18.433 -22.973  1.00  0.00    -0.242 OA
ENDBRANCH  41  42
ENDBRANCH   9  41
TORSDOF 14
ENDMDL
MODEL 5
REMARK VINA RESULT: -6.216839230      2.148      3.057
REMARK  14 active torsions:
REMARK  status: ('A' for Active; 'I' for Inactive)
REMARK    1  A    between atoms: O1_2  and  C2_3 
REMARK    2  A    between atoms: C2_3  and  C3_5 
REMARK    3  A    between atoms: C4_6  and  N1_7 
REMARK    4  A    between atoms: N1_7  and  C6_9 
REMARK    5  A    between atoms: C6_9  and  C7_10 
REMARK    6  A    between atoms: C7_10  and  S1_11 
REMARK    7  A    between atoms: S1_11  and  C8_12 
REMARK    8  A    between atoms: C8_12  and  C9_13 
REMARK    9  A    between atoms: C9_13  and  N2_14 
REMARK   10  A    between atoms: C9_13  and  N3_18 
REMARK   11  A    between atoms: C10_23  and  C11_24 
REMARK   12  A    between atoms: C17_36  and  O5_37 
REMARK   13  A    between atoms: C20_40  and  O6_41 
REMARK   14  A    between atoms: O6_41  and  C21_42 
ROOT
HETATM    1  C3  UNL     1     102.866 -20.033 -15.273  1.00  0.00     0.097 C 
HETATM    2  C4  UNL     1     102.453 -19.069 -14.448  1.00  0.00     0.122 C 
HETATM    3  N4  UNL     1     103.535 -18.179 -14.208  1.00  0.00    -0.311 N 
HETATM    4  C10 UNL     1     103.844 -16.857 -13.707  1.00  0.00     0.139 C 
HETATM    5  C16 UNL     1     104.333 -16.137 -14.989  1.00  0.00     0.109 C 
HETATM    6  S2  UNL     1     105.600 -17.388 -15.463  1.00  0.00    -0.101 SA
HETATM    7  C17 UNL     1     104.751 -18.817 -14.675  1.00  0.00     0.222 C 
HETATM    8  C19 UNL     1     104.232 -19.681 -15.742  1.00  0.00     0.051 C 
HETATM    9  C20 UNL     1     104.776 -20.101 -16.860  1.00  0.00     0.161 C 
ENDROOT
BRANCH   2  10
HETATM   10  N1  UNL     1     101.120 -19.079 -13.948  1.00  0.00    -0.370 N 
HETATM   11  C5  UNL     1     100.828 -19.788 -12.682  1.00  0.00     0.151 C 
BRANCH  10  12
HETATM   12  C6  UNL     1     100.077 -18.372 -14.622  1.00  0.00     0.134 C 
BRANCH  12  13
HETATM   13  C7  UNL     1      98.818 -18.214 -13.794  1.00  0.00     0.093 C 
BRANCH  13  14
HETATM   14  S1  UNL     1      98.337 -16.474 -13.847  1.00  0.00    -0.164 SA
BRANCH  14  15
HETATM   15  C8  UNL     1      96.583 -16.200 -13.622  1.00  0.00     0.136 C 
BRANCH  15  16
HETATM   16  C9  UNL     1      95.973 -16.947 -12.473  1.00  0.00     0.387 C 
BRANCH  16  17
HETATM   17  N2  UNL     1      95.331 -16.038 -11.528  1.00  0.00    -0.050 N 
ATOM     18  H23 UNL     1      95.563 -16.276 -10.564  1.00  0.00     0.276 HD
ATOM     19  H22 UNL     1      95.745 -15.107 -11.564  1.00  0.00     0.276 HD
ATOM     20  H21 UNL     1      94.321 -16.005 -11.672  1.00  0.00     0.276 HD
ENDBRANCH  16  17
BRANCH  16  21
HETATM   21  N3  UNL     1      95.108 -18.018 -12.875  1.00  0.00    -0.050 N 
ATOM     22  H33 UNL     1      95.594 -18.913 -12.818  1.00  0.00     0.276 HD
ATOM     23  H32 UNL     1      94.381 -18.174 -12.178  1.00  0.00     0.276 HD
ATOM     24  H31 UNL     1      94.698 -17.889 -13.800  1.00  0.00     0.276 HD
ENDBRANCH  16  21
ENDBRANCH  15  16
ENDBRANCH  14  15
ENDBRANCH  13  14
ENDBRANCH  12  13
ENDBRANCH  10  12
ENDBRANCH   2  10
BRANCH   1  25
HETATM   25  C2  UNL     1     102.103 -21.169 -15.749  1.00  0.00     0.297 C 
HETATM   26  O2  UNL     1     101.441 -21.057 -16.808  1.00  0.00    -0.259 OA
BRANCH  25  27
HETATM   27  O1  UNL     1     102.028 -22.404 -15.132  1.00  0.00    -0.322 OA
HETATM   28  C1  UNL     1     100.781 -22.940 -14.672  1.00  0.00     0.213 C 
ENDBRANCH  25  27
ENDBRANCH   1  25
BRANCH   4  29
HETATM   29  C11 UNL     1     104.876 -16.897 -12.695  1.00  0.00     0.049 A 
HETATM   30  C12 UNL     1     105.967 -16.040 -12.757  1.00  0.00     0.110 A 
HETATM   31  N5  UNL     1     106.942 -16.045 -11.802  1.00  0.00    -0.313 N 
HETATM   32  C13 UNL     1     108.076 -15.142 -11.882  1.00  0.00     0.160 C 
HETATM   33  C14 UNL     1     106.891 -16.870 -10.769  1.00  0.00     0.328 A 
HETATM   34  O3  UNL     1     107.809 -16.859  -9.892  1.00  0.00    -0.246 OA
HETATM   35  N6  UNL     1     105.843 -17.703 -10.697  1.00  0.00    -0.275 N 
HETATM   36  C15 UNL     1     104.847 -17.738 -11.620  1.00  0.00     0.259 A 
ATOM     37  H6  UNL     1     105.792 -18.345  -9.906  1.00  0.00     0.173 HD
HETATM   38  O4  UNL     1     103.936 -18.575 -11.406  1.00  0.00    -0.267 OA
ENDBRANCH   4  29
BRANCH   7  39
HETATM   39  O5  UNL     1     105.506 -19.440 -13.748  1.00  0.00    -0.352 OA
HETATM   40  C18 UNL     1     106.832 -19.622 -14.011  1.00  0.00     0.206 C 
ENDBRANCH   7  39
BRANCH   9  41
HETATM   41  O6  UNL     1     106.015 -19.824 -17.363  1.00  0.00    -0.275 OA
BRANCH  41  42
HETATM   42  C21 UNL     1     106.745 -20.644 -18.197  1.00  0.00     0.377 C 
HETATM   43  N7  UNL     1     107.221 -20.212 -19.472  1.00  0.00    -0.032 NA
HETATM   44  O7  UNL     1     106.998 -21.813 -17.821  1.00  0.00    -0.242 OA
ENDBRANCH  41  42
ENDBRANCH   9  41
TORSDOF 14
ENDMDL
