MODEL 1
REMARK VINA RESULT: -10.585552648      0.000      0.000
REMARK  11 active torsions:
REMARK  status: ('A' for Active; 'I' for Inactive)
REMARK    1  A    between atoms: O1_2  and  C2_3 
REMARK    2  A    between atoms: C5_8  and  C6_9 
REMARK       I    between atoms: C6_9  and  N2_11 
REMARK    3  A    between atoms: N2_11  and  C7_13 
REMARK    4  A    between atoms: C7_13  and  C8_14 
REMARK    5  A    between atoms: N3_16  and  C10_17 
REMARK    6  A    between atoms: C10_17  and  C11_18 
REMARK    7  A    between atoms: C13_20  and  C14_21 
REMARK    8  A    between atoms: C14_21  and  N4_22 
REMARK    9  A    between atoms: C15_27  and  N8_28 
REMARK   10  A    between atoms: C16_33  and  N10_34 
REMARK   11  A    between atoms: C20_47  and  O6_48 
ROOT
HETATM    1  C8  UNL     1     104.117 -21.224 -20.951  1.00  0.00     0.062 A 
HETATM    2  C9  UNL     1     103.327 -21.286 -22.105  1.00  0.00     0.140 A 
HETATM    3  N3  UNL     1     103.570 -20.285 -22.918  1.00  0.00    -0.283 N 
HETATM    4  N11 UNL     1     104.524 -19.565 -22.290  1.00  0.00    -0.240 N 
ATOM      5  H11 UNL     1     104.940 -18.710 -22.659  1.00  0.00     0.208 HD
HETATM    6  N12 UNL     1     104.845 -20.114 -21.138  1.00  0.00    -0.287 N 
ATOM      7  H12 UNL     1     105.542 -19.751 -20.487  1.00  0.00     0.188 HD
ENDROOT
BRANCH   1   8
HETATM    8  C7  UNL     1     104.088 -22.200 -19.830  1.00  0.00     0.183 C 
BRANCH   8   9
HETATM    9  N2  UNL     1     102.724 -22.658 -19.676  1.00  0.00    -0.349 N 
HETATM   10  C6  UNL     1     102.003 -22.339 -18.503  1.00  0.00     0.286 C 
HETATM   11  O2  UNL     1     102.556 -21.651 -17.585  1.00  0.00    -0.264 OA
ATOM     12  H2  UNL     1     102.285 -23.210 -20.412  1.00  0.00     0.163 HD
BRANCH  10  13
HETATM   13  C5  UNL     1     100.632 -22.776 -18.304  1.00  0.00     0.177 A 
HETATM   14  N1  UNL     1     100.067 -22.911 -17.090  1.00  0.00    -0.337 N 
HETATM   15  C4  UNL     1      98.792 -23.314 -16.936  1.00  0.00     0.052 A 
ATOM     16  H1  UNL     1     100.623 -22.702 -16.260  1.00  0.00     0.167 HD
HETATM   17  C3  UNL     1      98.212 -23.452 -15.687  1.00  0.00     0.070 A 
HETATM   18  C18 UNL     1      98.047 -23.593 -18.044  1.00  0.00     0.061 A 
HETATM   19  C2  UNL     1      96.897 -23.867 -15.569  1.00  0.00     0.103 A 
HETATM   20  C20 UNL     1      96.161 -24.144 -16.692  1.00  0.00     0.102 A 
HETATM   21  C19 UNL     1      96.714 -24.015 -17.948  1.00  0.00     0.059 A 
HETATM   22  C17 UNL     1      98.609 -23.460 -19.302  1.00  0.00     0.259 A 
HETATM   23  N13 UNL     1      99.886 -23.054 -19.381  1.00  0.00    -0.304 N 
HETATM   24  O5  UNL     1      97.912 -23.720 -20.302  1.00  0.00    -0.267 OA
ATOM     25  H13 UNL     1     100.307 -22.954 -20.304  1.00  0.00     0.171 HD
BRANCH  19  26
HETATM   26  O1  UNL     1      96.350 -23.995 -14.325  1.00  0.00    -0.353 OA
HETATM   27  C1  UNL     1      96.720 -23.117 -13.256  1.00  0.00     0.210 C 
ENDBRANCH  19  26
BRANCH  20  28
HETATM   28  O6  UNL     1      94.850 -24.556 -16.544  1.00  0.00    -0.353 OA
HETATM   29  C21 UNL     1      93.937 -24.408 -17.622  1.00  0.00     0.210 C 
ENDBRANCH  20  28
ENDBRANCH  10  13
ENDBRANCH   8   9
ENDBRANCH   1   8
BRANCH   3  30
HETATM   30  C10 UNL     1     103.009 -19.935 -24.221  1.00  0.00     0.192 C 
BRANCH  30  31
HETATM   31  C11 UNL     1     101.575 -19.595 -24.156  1.00  0.00     0.013 A 
HETATM   32  C12 UNL     1     100.689 -20.698 -24.296  1.00  0.00     0.025 A 
HETATM   33  C13 UNL     1      99.339 -20.565 -24.150  1.00  0.00     0.007 A 
HETATM   34  C15 UNL     1      98.838 -19.317 -23.861  1.00  0.00     0.108 A 
HETATM   35  N9  UNL     1      99.637 -18.253 -23.723  1.00  0.00    -0.323 N 
HETATM   36  C16 UNL     1     101.009 -18.395 -23.874  1.00  0.00     0.183 A 
ATOM     37  H9  UNL     1      99.238 -17.339 -23.508  1.00  0.00     0.169 HD
BRANCH  33  38
HETATM   38  C14 UNL     1      98.459 -21.730 -24.295  1.00  0.00     0.210 C 
BRANCH  38  39
HETATM   39  N4  UNL     1      98.218 -22.070 -25.681  1.00  0.00    -0.203 N 
HETATM   40  N5  UNL     1      97.832 -21.380 -26.736  1.00  0.00    -0.213 N 
HETATM   41  N6  UNL     1      97.894 -22.480 -27.495  1.00  0.00     0.010 NA
ATOM     42  H5  UNL     1      97.587 -20.405 -26.905  1.00  0.00     0.206 HD
HETATM   43  N7  UNL     1      98.282 -23.163 -26.420  1.00  0.00     0.012 NA
ENDBRANCH  38  39
ENDBRANCH  33  38
BRANCH  34  44
HETATM   44  N8  UNL     1      97.553 -19.221 -23.726  1.00  0.00    -0.385 N 
ATOM     45  H82 UNL     1      96.977 -20.035 -23.512  1.00  0.00     0.157 HD
ATOM     46  H81 UNL     1      97.147 -18.293 -23.845  1.00  0.00     0.157 HD
ENDBRANCH  34  44
BRANCH  36  47
HETATM   47  N10 UNL     1     101.780 -17.205 -23.830  1.00  0.00    -0.097 N 
HETATM   48  O3  UNL     1     101.539 -16.274 -24.679  1.00  0.00    -0.531 OA
HETATM   49  O4  UNL     1     102.770 -16.916 -22.969  1.00  0.00    -0.531 OA
ENDBRANCH  36  47
ENDBRANCH  30  31
ENDBRANCH   3  30
TORSDOF 11
ENDMDL
MODEL 2
REMARK VINA RESULT: -10.556342352      1.299      1.572
REMARK  11 active torsions:
REMARK  status: ('A' for Active; 'I' for Inactive)
REMARK    1  A    between atoms: O1_2  and  C2_3 
REMARK    2  A    between atoms: C5_8  and  C6_9 
REMARK       I    between atoms: C6_9  and  N2_11 
REMARK    3  A    between atoms: N2_11  and  C7_13 
REMARK    4  A    between atoms: C7_13  and  C8_14 
REMARK    5  A    between atoms: N3_16  and  C10_17 
REMARK    6  A    between atoms: C10_17  and  C11_18 
REMARK    7  A    between atoms: C13_20  and  C14_21 
REMARK    8  A    between atoms: C14_21  and  N4_22 
REMARK    9  A    between atoms: C15_27  and  N8_28 
REMARK   10  A    between atoms: C16_33  and  N10_34 
REMARK   11  A    between atoms: C20_47  and  O6_48 
ROOT
HETATM    1  C8  UNL     1     104.568 -21.231 -20.744  1.00  0.00     0.062 A 
HETATM    2  C9  UNL     1     103.992 -21.233 -22.020  1.00  0.00     0.140 A 
HETATM    3  N3  UNL     1     104.040 -20.047 -22.580  1.00  0.00    -0.283 N 
HETATM    4  N11 UNL     1     104.652 -19.267 -21.663  1.00  0.00    -0.240 N 
ATOM      5  H11 UNL     1     104.848 -18.273 -21.787  1.00  0.00     0.208 HD
HETATM    6  N12 UNL     1     104.962 -19.959 -20.587  1.00  0.00    -0.287 N 
ATOM      7  H12 UNL     1     105.429 -19.585 -19.761  1.00  0.00     0.188 HD
ENDROOT
BRANCH   1   8
HETATM    8  C7  UNL     1     104.673 -22.407 -19.842  1.00  0.00     0.183 C 
BRANCH   8   9
HETATM    9  N2  UNL     1     103.332 -22.809 -19.478  1.00  0.00    -0.349 N 
HETATM   10  C6  UNL     1     102.753 -22.329 -18.282  1.00  0.00     0.286 C 
HETATM   11  O2  UNL     1     103.414 -21.545 -17.527  1.00  0.00    -0.264 OA
ATOM     12  H2  UNL     1     102.805 -23.438 -20.084  1.00  0.00     0.163 HD
BRANCH  10  13
HETATM   13  C5  UNL     1     101.409 -22.703 -17.876  1.00  0.00     0.177 A 
HETATM   14  N1  UNL     1     100.958 -22.587 -16.614  1.00  0.00    -0.337 N 
HETATM   15  C4  UNL     1      99.705 -22.939 -16.268  1.00  0.00     0.052 A 
ATOM     16  H1  UNL     1     101.585 -22.222 -15.897  1.00  0.00     0.167 HD
HETATM   17  C3  UNL     1      99.242 -22.819 -14.969  1.00  0.00     0.070 A 
HETATM   18  C18 UNL     1      98.865 -23.427 -17.225  1.00  0.00     0.061 A 
HETATM   19  C2  UNL     1      97.947 -23.189 -14.652  1.00  0.00     0.103 A 
HETATM   20  C20 UNL     1      97.115 -23.678 -15.626  1.00  0.00     0.102 A 
HETATM   21  C19 UNL     1      97.550 -23.807 -16.927  1.00  0.00     0.059 A 
HETATM   22  C17 UNL     1      99.310 -23.553 -18.530  1.00  0.00     0.259 A 
HETATM   23  N13 UNL     1     100.570 -23.184 -18.804  1.00  0.00    -0.304 N 
HETATM   24  O5  UNL     1      98.528 -24.001 -19.391  1.00  0.00    -0.267 OA
ATOM     25  H13 UNL     1     100.906 -23.274 -19.763  1.00  0.00     0.171 HD
BRANCH  19  26
HETATM   26  O1  UNL     1      97.516 -23.060 -13.363  1.00  0.00    -0.353 OA
HETATM   27  C1  UNL     1      98.439 -23.042 -12.269  1.00  0.00     0.210 C 
ENDBRANCH  19  26
BRANCH  20  28
HETATM   28  O6  UNL     1      95.826 -24.039 -15.279  1.00  0.00    -0.353 OA
HETATM   29  C21 UNL     1      95.020 -24.752 -16.207  1.00  0.00     0.210 C 
ENDBRANCH  20  28
ENDBRANCH  10  13
ENDBRANCH   8   9
ENDBRANCH   1   8
BRANCH   3  30
HETATM   30  C10 UNL     1     103.582 -19.569 -23.883  1.00  0.00     0.192 C 
BRANCH  30  31
HETATM   31  C11 UNL     1     102.112 -19.481 -23.976  1.00  0.00     0.013 A 
HETATM   32  C12 UNL     1     101.466 -20.669 -24.411  1.00  0.00     0.025 A 
HETATM   33  C13 UNL     1     100.106 -20.782 -24.446  1.00  0.00     0.007 A 
HETATM   34  C15 UNL     1      99.355 -19.702 -24.045  1.00  0.00     0.108 A 
HETATM   35  N9  UNL     1      99.924 -18.565 -23.631  1.00  0.00    -0.323 N 
HETATM   36  C16 UNL     1     101.308 -18.456 -23.599  1.00  0.00     0.183 A 
ATOM     37  H9  UNL     1      99.343 -17.779 -23.339  1.00  0.00     0.169 HD
BRANCH  33  38
HETATM   38  C14 UNL     1      99.477 -22.030 -24.894  1.00  0.00     0.210 C 
BRANCH  38  39
HETATM   39  N4  UNL     1      98.719 -22.673 -23.842  1.00  0.00    -0.203 N 
HETATM   40  N5  UNL     1      97.646 -23.438 -23.827  1.00  0.00    -0.213 N 
HETATM   41  N6  UNL     1      97.710 -23.525 -22.493  1.00  0.00     0.010 NA
ATOM     42  H5  UNL     1      97.021 -23.811 -24.541  1.00  0.00     0.206 HD
HETATM   43  N7  UNL     1      98.792 -22.751 -22.525  1.00  0.00     0.012 NA
ENDBRANCH  38  39
ENDBRANCH  33  38
BRANCH  34  44
HETATM   44  N8  UNL     1      98.068 -19.839 -24.086  1.00  0.00    -0.385 N 
ATOM     45  H82 UNL     1      97.634 -20.715 -24.378  1.00  0.00     0.157 HD
ATOM     46  H81 UNL     1      97.511 -19.030 -23.813  1.00  0.00     0.157 HD
ENDBRANCH  34  44
BRANCH  36  47
HETATM   47  N10 UNL     1     101.837 -17.184 -23.261  1.00  0.00    -0.097 N 
HETATM   48  O3  UNL     1     101.492 -16.161 -23.952  1.00  0.00    -0.531 OA
HETATM   49  O4  UNL     1     102.689 -16.904 -22.260  1.00  0.00    -0.531 OA
ENDBRANCH  36  47
ENDBRANCH  30  31
ENDBRANCH   3  30
TORSDOF 11
ENDMDL
MODEL 3
REMARK VINA RESULT: -10.016596469      2.850      8.628
REMARK  11 active torsions:
REMARK  status: ('A' for Active; 'I' for Inactive)
REMARK    1  A    between atoms: O1_2  and  C2_3 
REMARK    2  A    between atoms: C5_8  and  C6_9 
REMARK       I    between atoms: C6_9  and  N2_11 
REMARK    3  A    between atoms: N2_11  and  C7_13 
REMARK    4  A    between atoms: C7_13  and  C8_14 
REMARK    5  A    between atoms: N3_16  and  C10_17 
REMARK    6  A    between atoms: C10_17  and  C11_18 
REMARK    7  A    between atoms: C13_20  and  C14_21 
REMARK    8  A    between atoms: C14_21  and  N4_22 
REMARK    9  A    between atoms: C15_27  and  N8_28 
REMARK   10  A    between atoms: C16_33  and  N10_34 
REMARK   11  A    between atoms: C20_47  and  O6_48 
ROOT
HETATM    1  C8  UNL     1     102.018 -23.070 -17.219  1.00  0.00     0.062 A 
HETATM    2  C9  UNL     1     101.024 -22.270 -16.644  1.00  0.00     0.140 A 
HETATM    3  N3  UNL     1     100.516 -22.820 -15.566  1.00  0.00    -0.283 N 
HETATM    4  N11 UNL     1     101.182 -23.987 -15.438  1.00  0.00    -0.240 N 
ATOM      5  H11 UNL     1     101.025 -24.665 -14.692  1.00  0.00     0.208 HD
HETATM    6  N12 UNL     1     102.063 -24.135 -16.406  1.00  0.00    -0.287 N 
ATOM      7  H12 UNL     1     102.684 -24.936 -16.519  1.00  0.00     0.188 HD
ENDROOT
BRANCH   1   8
HETATM    8  C7  UNL     1     102.790 -22.741 -18.446  1.00  0.00     0.183 C 
BRANCH   8   9
HETATM    9  N2  UNL     1     101.844 -22.430 -19.495  1.00  0.00    -0.349 N 
HETATM   10  C6  UNL     1     102.245 -21.635 -20.592  1.00  0.00     0.286 C 
HETATM   11  O2  UNL     1     103.438 -21.193 -20.653  1.00  0.00    -0.264 OA
ATOM     12  H2  UNL     1     100.888 -22.785 -19.443  1.00  0.00     0.163 HD
BRANCH  10  13
HETATM   13  C5  UNL     1     101.331 -21.297 -21.670  1.00  0.00     0.177 A 
HETATM   14  N1  UNL     1     100.576 -22.207 -22.312  1.00  0.00    -0.337 N 
HETATM   15  C4  UNL     1      99.735 -21.864 -23.306  1.00  0.00     0.052 A 
ATOM     16  H1  UNL     1     100.644 -23.187 -22.038  1.00  0.00     0.167 HD
HETATM   17  C3  UNL     1      98.959 -22.801 -23.965  1.00  0.00     0.070 A 
HETATM   18  C18 UNL     1      99.642 -20.554 -23.673  1.00  0.00     0.061 A 
HETATM   19  C2  UNL     1      98.104 -22.410 -24.981  1.00  0.00     0.103 A 
HETATM   20  C20 UNL     1      98.022 -21.089 -25.339  1.00  0.00     0.102 A 
HETATM   21  C19 UNL     1      98.783 -20.136 -24.698  1.00  0.00     0.059 A 
HETATM   22  C17 UNL     1     100.410 -19.602 -23.024  1.00  0.00     0.259 A 
HETATM   23  N13 UNL     1     101.227 -20.015 -22.044  1.00  0.00    -0.304 N 
HETATM   24  O5  UNL     1     100.311 -18.410 -23.374  1.00  0.00    -0.267 OA
ATOM     25  H13 UNL     1     101.796 -19.319 -21.561  1.00  0.00     0.171 HD
BRANCH  19  26
HETATM   26  O1  UNL     1      97.349 -23.355 -25.614  1.00  0.00    -0.353 OA
HETATM   27  C1  UNL     1      96.149 -23.866 -25.025  1.00  0.00     0.210 C 
ENDBRANCH  19  26
BRANCH  20  28
HETATM   28  O6  UNL     1      97.158 -20.728 -26.356  1.00  0.00    -0.353 OA
HETATM   29  C21 UNL     1      95.930 -20.084 -26.044  1.00  0.00     0.210 C 
ENDBRANCH  20  28
ENDBRANCH  10  13
ENDBRANCH   8   9
ENDBRANCH   1   8
BRANCH   3  30
HETATM   30  C10 UNL     1      99.478 -22.368 -14.642  1.00  0.00     0.192 C 
BRANCH  30  31
HETATM   31  C11 UNL     1      98.165 -22.985 -14.906  1.00  0.00     0.013 A 
HETATM   32  C12 UNL     1      98.006 -23.522 -16.213  1.00  0.00     0.025 A 
HETATM   33  C13 UNL     1      96.892 -24.220 -16.577  1.00  0.00     0.007 A 
HETATM   34  C15 UNL     1      95.902 -24.400 -15.638  1.00  0.00     0.108 A 
HETATM   35  N9  UNL     1      96.012 -23.909 -14.399  1.00  0.00    -0.323 N 
HETATM   36  C16 UNL     1      97.148 -23.198 -14.035  1.00  0.00     0.183 A 
ATOM     37  H9  UNL     1      95.264 -24.057 -13.723  1.00  0.00     0.169 HD
BRANCH  33  38
HETATM   38  C14 UNL     1      96.769 -24.765 -17.934  1.00  0.00     0.210 C 
BRANCH  38  39
HETATM   39  N4  UNL     1      97.679 -24.132 -18.866  1.00  0.00    -0.203 N 
HETATM   40  N5  UNL     1      98.990 -24.009 -18.920  1.00  0.00    -0.213 N 
HETATM   41  N6  UNL     1      98.892 -23.317 -20.060  1.00  0.00     0.010 NA
ATOM     42  H5  UNL     1      99.765 -24.317 -18.332  1.00  0.00     0.206 HD
HETATM   43  N7  UNL     1      97.570 -23.450 -19.991  1.00  0.00     0.012 NA
ENDBRANCH  38  39
ENDBRANCH  33  38
BRANCH  34  44
HETATM   44  N8  UNL     1      94.858 -25.068 -16.012  1.00  0.00    -0.385 N 
ATOM     45  H82 UNL     1      94.941 -25.928 -16.554  1.00  0.00     0.157 HD
ATOM     46  H81 UNL     1      93.950 -24.693 -15.738  1.00  0.00     0.157 HD
ENDBRANCH  34  44
BRANCH  36  47
HETATM   47  N10 UNL     1      97.143 -22.611 -12.744  1.00  0.00    -0.097 N 
HETATM   48  O3  UNL     1      97.520 -23.311 -11.738  1.00  0.00    -0.531 OA
HETATM   49  O4  UNL     1      96.781 -21.355 -12.430  1.00  0.00    -0.531 OA
ENDBRANCH  36  47
ENDBRANCH  30  31
ENDBRANCH   3  30
TORSDOF 11
ENDMDL
MODEL 4
REMARK VINA RESULT: -10.014214672      1.730      2.752
REMARK  11 active torsions:
REMARK  status: ('A' for Active; 'I' for Inactive)
REMARK    1  A    between atoms: O1_2  and  C2_3 
REMARK    2  A    between atoms: C5_8  and  C6_9 
REMARK       I    between atoms: C6_9  and  N2_11 
REMARK    3  A    between atoms: N2_11  and  C7_13 
REMARK    4  A    between atoms: C7_13  and  C8_14 
REMARK    5  A    between atoms: N3_16  and  C10_17 
REMARK    6  A    between atoms: C10_17  and  C11_18 
REMARK    7  A    between atoms: C13_20  and  C14_21 
REMARK    8  A    between atoms: C14_21  and  N4_22 
REMARK    9  A    between atoms: C15_27  and  N8_28 
REMARK   10  A    between atoms: C16_33  and  N10_34 
REMARK   11  A    between atoms: C20_47  and  O6_48 
ROOT
HETATM    1  C8  UNL     1     104.268 -21.486 -20.791  1.00  0.00     0.062 A 
HETATM    2  C9  UNL     1     103.592 -21.367 -22.011  1.00  0.00     0.140 A 
HETATM    3  N3  UNL     1     103.882 -20.243 -22.623  1.00  0.00    -0.283 N 
HETATM    4  N11 UNL     1     104.752 -19.624 -21.796  1.00  0.00    -0.240 N 
ATOM      5  H11 UNL     1     105.176 -18.715 -21.978  1.00  0.00     0.208 HD
HETATM    6  N12 UNL     1     104.979 -20.352 -20.722  1.00  0.00    -0.287 N 
ATOM      7  H12 UNL     1     105.600 -20.092 -19.956  1.00  0.00     0.188 HD
ENDROOT
BRANCH   1   8
HETATM    8  C7  UNL     1     104.161 -22.633 -19.852  1.00  0.00     0.183 C 
BRANCH   8   9
HETATM    9  N2  UNL     1     103.111 -22.334 -18.903  1.00  0.00    -0.349 N 
HETATM   10  C6  UNL     1     102.686 -23.323 -17.988  1.00  0.00     0.286 C 
HETATM   11  O2  UNL     1     103.227 -24.476 -18.002  1.00  0.00    -0.264 OA
ATOM     12  H2  UNL     1     102.679 -21.410 -18.894  1.00  0.00     0.163 HD
BRANCH  10  13
HETATM   13  C5  UNL     1     101.636 -23.068 -17.016  1.00  0.00     0.177 A 
HETATM   14  N1  UNL     1     100.398 -23.586 -17.111  1.00  0.00    -0.337 N 
HETATM   15  C4  UNL     1      99.447 -23.335 -16.192  1.00  0.00     0.052 A 
ATOM     16  H1  UNL     1     100.173 -24.187 -17.904  1.00  0.00     0.167 HD
HETATM   17  C3  UNL     1      98.174 -23.869 -16.290  1.00  0.00     0.070 A 
HETATM   18  C18 UNL     1      99.745 -22.533 -15.130  1.00  0.00     0.061 A 
HETATM   19  C2  UNL     1      97.223 -23.589 -15.324  1.00  0.00     0.103 A 
HETATM   20  C20 UNL     1      97.538 -22.781 -14.263  1.00  0.00     0.102 A 
HETATM   21  C19 UNL     1      98.799 -22.237 -14.141  1.00  0.00     0.059 A 
HETATM   22  C17 UNL     1     101.014 -21.991 -15.014  1.00  0.00     0.259 A 
HETATM   23  N13 UNL     1     101.913 -22.282 -15.966  1.00  0.00    -0.304 N 
HETATM   24  O5  UNL     1     101.268 -21.259 -14.037  1.00  0.00    -0.267 OA
ATOM     25  H13 UNL     1     102.850 -21.887 -15.888  1.00  0.00     0.171 HD
BRANCH  19  26
HETATM   26  O1  UNL     1      95.974 -24.129 -15.446  1.00  0.00    -0.353 OA
HETATM   27  C1  UNL     1      95.498 -24.628 -16.701  1.00  0.00     0.210 C 
ENDBRANCH  19  26
BRANCH  20  28
HETATM   28  O6  UNL     1      96.568 -22.520 -13.314  1.00  0.00    -0.353 OA
HETATM   29  C21 UNL     1      96.520 -23.294 -12.123  1.00  0.00     0.210 C 
ENDBRANCH  20  28
ENDBRANCH  10  13
ENDBRANCH   8   9
ENDBRANCH   1   8
BRANCH   3  30
HETATM   30  C10 UNL     1     103.436 -19.690 -23.900  1.00  0.00     0.192 C 
BRANCH  30  31
HETATM   31  C11 UNL     1     101.981 -19.451 -23.945  1.00  0.00     0.013 A 
HETATM   32  C12 UNL     1     101.202 -20.570 -24.346  1.00  0.00     0.025 A 
HETATM   33  C13 UNL     1      99.837 -20.543 -24.334  1.00  0.00     0.007 A 
HETATM   34  C15 UNL     1      99.215 -19.388 -23.920  1.00  0.00     0.108 A 
HETATM   35  N9  UNL     1      99.912 -18.312 -23.537  1.00  0.00    -0.323 N 
HETATM   36  C16 UNL     1     101.300 -18.346 -23.552  1.00  0.00     0.183 A 
ATOM     37  H9  UNL     1      99.425 -17.469 -23.234  1.00  0.00     0.169 HD
BRANCH  33  38
HETATM   38  C14 UNL     1      99.069 -21.721 -24.748  1.00  0.00     0.210 C 
BRANCH  38  39
HETATM   39  N4  UNL     1      98.561 -22.472 -23.619  1.00  0.00    -0.203 N 
HETATM   40  N5  UNL     1      97.530 -23.274 -23.446  1.00  0.00    -0.213 N 
HETATM   41  N6  UNL     1      97.873 -23.462 -22.166  1.00  0.00     0.010 NA
ATOM     42  H5  UNL     1      96.777 -23.614 -24.043  1.00  0.00     0.206 HD
HETATM   43  N7  UNL     1      98.910 -22.649 -22.357  1.00  0.00     0.012 NA
ENDBRANCH  38  39
ENDBRANCH  33  38
BRANCH  34  44
HETATM   44  N8  UNL     1      97.920 -19.392 -23.916  1.00  0.00    -0.385 N 
ATOM     45  H82 UNL     1      97.384 -19.145 -24.748  1.00  0.00     0.157 HD
ATOM     46  H81 UNL     1      97.464 -19.652 -23.042  1.00  0.00     0.157 HD
ENDBRANCH  34  44
BRANCH  36  47
HETATM   47  N10 UNL     1     101.968 -17.133 -23.245  1.00  0.00    -0.097 N 
HETATM   48  O3  UNL     1     101.637 -16.063 -23.869  1.00  0.00    -0.531 OA
HETATM   49  O4  UNL     1     102.945 -16.956 -22.339  1.00  0.00    -0.531 OA
ENDBRANCH  36  47
ENDBRANCH  30  31
ENDBRANCH   3  30
TORSDOF 11
ENDMDL
MODEL 5
REMARK VINA RESULT: -10.000386099      3.812      9.165
REMARK  11 active torsions:
REMARK  status: ('A' for Active; 'I' for Inactive)
REMARK    1  A    between atoms: O1_2  and  C2_3 
REMARK    2  A    between atoms: C5_8  and  C6_9 
REMARK       I    between atoms: C6_9  and  N2_11 
REMARK    3  A    between atoms: N2_11  and  C7_13 
REMARK    4  A    between atoms: C7_13  and  C8_14 
REMARK    5  A    between atoms: N3_16  and  C10_17 
REMARK    6  A    between atoms: C10_17  and  C11_18 
REMARK    7  A    between atoms: C13_20  and  C14_21 
REMARK    8  A    between atoms: C14_21  and  N4_22 
REMARK    9  A    between atoms: C15_27  and  N8_28 
REMARK   10  A    between atoms: C16_33  and  N10_34 
REMARK   11  A    between atoms: C20_47  and  O6_48 
ROOT
HETATM    1  C8  UNL     1     104.009 -23.369 -18.088  1.00  0.00     0.062 A 
HETATM    2  C9  UNL     1     102.911 -22.874 -17.374  1.00  0.00     0.140 A 
HETATM    3  N3  UNL     1     102.815 -23.420 -16.185  1.00  0.00    -0.283 N 
HETATM    4  N11 UNL     1     103.857 -24.276 -16.122  1.00  0.00    -0.240 N 
ATOM      5  H11 UNL     1     104.074 -24.867 -15.319  1.00  0.00     0.208 HD
HETATM    6  N12 UNL     1     104.558 -24.247 -17.237  1.00  0.00    -0.287 N 
ATOM      7  H12 UNL     1     105.390 -24.807 -17.424  1.00  0.00     0.188 HD
ENDROOT
BRANCH   1   8
HETATM    8  C7  UNL     1     104.400 -22.963 -19.464  1.00  0.00     0.183 C 
BRANCH   8   9
HETATM    9  N2  UNL     1     103.209 -22.507 -20.147  1.00  0.00    -0.349 N 
HETATM   10  C6  UNL     1     103.325 -21.755 -21.338  1.00  0.00     0.286 C 
HETATM   11  O2  UNL     1     104.477 -21.481 -21.806  1.00  0.00    -0.264 OA
ATOM     12  H2  UNL     1     102.288 -22.728 -19.769  1.00  0.00     0.163 HD
BRANCH  10  13
HETATM   13  C5  UNL     1     102.159 -21.277 -22.060  1.00  0.00     0.177 A 
HETATM   14  N1  UNL     1     101.188 -22.088 -22.518  1.00  0.00    -0.337 N 
HETATM   15  C4  UNL     1     100.116 -21.616 -23.181  1.00  0.00     0.052 A 
ATOM     16  H1  UNL     1     101.267 -23.093 -22.359  1.00  0.00     0.167 HD
HETATM   17  C3  UNL     1      99.118 -22.452 -23.651  1.00  0.00     0.070 A 
HETATM   18  C18 UNL     1     100.007 -20.274 -23.395  1.00  0.00     0.061 A 
HETATM   19  C2  UNL     1      98.029 -21.928 -24.327  1.00  0.00     0.103 A 
HETATM   20  C20 UNL     1      97.935 -20.576 -24.534  1.00  0.00     0.102 A 
HETATM   21  C19 UNL     1      98.914 -19.722 -24.076  1.00  0.00     0.059 A 
HETATM   22  C17 UNL     1     100.995 -19.422 -22.931  1.00  0.00     0.259 A 
HETATM   23  N13 UNL     1     102.036 -19.961 -22.279  1.00  0.00    -0.304 N 
HETATM   24  O5  UNL     1     100.878 -18.198 -23.136  1.00  0.00    -0.267 OA
ATOM     25  H13 UNL     1     102.768 -19.340 -21.934  1.00  0.00     0.171 HD
BRANCH  19  26
HETATM   26  O1  UNL     1      97.059 -22.775 -24.780  1.00  0.00    -0.353 OA
HETATM   27  C1  UNL     1      96.916 -24.096 -24.246  1.00  0.00     0.210 C 
ENDBRANCH  19  26
BRANCH  20  28
HETATM   28  O6  UNL     1      96.835 -20.083 -25.212  1.00  0.00    -0.353 OA
HETATM   29  C21 UNL     1      96.837 -20.053 -26.632  1.00  0.00     0.210 C 
ENDBRANCH  20  28
ENDBRANCH  10  13
ENDBRANCH   8   9
ENDBRANCH   1   8
BRANCH   3  30
HETATM   30  C10 UNL     1     101.857 -23.220 -15.100  1.00  0.00     0.192 C 
BRANCH  30  31
HETATM   31  C11 UNL     1     101.336 -21.842 -15.041  1.00  0.00     0.013 A 
HETATM   32  C12 UNL     1     102.315 -20.839 -14.804  1.00  0.00     0.025 A 
HETATM   33  C13 UNL     1     102.009 -19.509 -14.829  1.00  0.00     0.007 A 
HETATM   34  C15 UNL     1     100.709 -19.147 -15.093  1.00  0.00     0.108 A 
HETATM   35  N9  UNL     1      99.757 -20.060 -15.319  1.00  0.00    -0.323 N 
HETATM   36  C16 UNL     1     100.074 -21.411 -15.291  1.00  0.00     0.183 A 
ATOM     37  H9  UNL     1      98.801 -19.763 -15.512  1.00  0.00     0.169 HD
BRANCH  33  38
HETATM   38  C14 UNL     1     103.051 -18.505 -14.587  1.00  0.00     0.210 C 
BRANCH  38  39
HETATM   39  N4  UNL     1     103.678 -18.663 -13.291  1.00  0.00    -0.203 N 
HETATM   40  N5  UNL     1     104.906 -18.935 -12.899  1.00  0.00    -0.213 N 
HETATM   41  N6  UNL     1     104.525 -18.876 -11.618  1.00  0.00     0.010 NA
ATOM     42  H5  UNL     1     105.789 -19.116 -13.377  1.00  0.00     0.206 HD
HETATM   43  N7  UNL     1     103.289 -18.603 -12.030  1.00  0.00     0.012 NA
ENDBRANCH  38  39
ENDBRANCH  33  38
BRANCH  34  44
HETATM   44  N8  UNL     1     100.449 -17.879 -15.113  1.00  0.00    -0.385 N 
ATOM     45  H82 UNL     1     101.182 -17.182 -14.980  1.00  0.00     0.157 HD
ATOM     46  H81 UNL     1      99.477 -17.611 -15.266  1.00  0.00     0.157 HD
ENDBRANCH  34  44
BRANCH  36  47
HETATM   47  N10 UNL     1      98.993 -22.320 -15.424  1.00  0.00    -0.097 N 
HETATM   48  O3  UNL     1      98.733 -22.814 -16.578  1.00  0.00    -0.531 OA
HETATM   49  O4  UNL     1      98.175 -22.750 -14.448  1.00  0.00    -0.531 OA
ENDBRANCH  36  47
ENDBRANCH  30  31
ENDBRANCH   3  30
TORSDOF 11
ENDMDL
