MODEL 1
REMARK VINA RESULT: -7.267173673      0.000      0.000
REMARK  16 active torsions:
REMARK  status: ('A' for Active; 'I' for Inactive)
REMARK    1  A    between atoms: O1_2  and  C2_3 
REMARK    2  A    between atoms: C2_3  and  O2_4 
REMARK    3  A    between atoms: O2_4  and  C3_5 
REMARK    4  A    between atoms: C4_6  and  O3_7 
REMARK    5  A    between atoms: C7_11  and  O4_12 
REMARK    6  A    between atoms: C8_14  and  O5_15 
REMARK    7  A    between atoms: O5_15  and  C9_16 
REMARK    8  A    between atoms: C9_16  and  C14_25 
REMARK    9  A    between atoms: C10_17  and  C11_18 
REMARK   10  A    between atoms: C14_25  and  C15_26 
REMARK   11  A    between atoms: C15_26  and  O7_28 
REMARK   12  A    between atoms: O7_28  and  C16_29 
REMARK   13  A    between atoms: N3_34  and  O8_36 
REMARK   14  A    between atoms: C22_38  and  C23_39 
REMARK   15  A    between atoms: C23_39  and  O9_40 
REMARK   16  A    between atoms: C23_39  and  O10_42 
ROOT
HETATM    1  C3  UNL     1     103.503 -17.711 -12.999  1.00  0.00     0.158 C 
HETATM    2  C4  UNL     1     102.030 -17.414 -13.238  1.00  0.00     0.148 C 
HETATM    3  C5  UNL     1     101.810 -17.852 -14.661  1.00  0.00     0.042 C 
HETATM    4  C6  UNL     1     102.562 -19.168 -14.661  1.00  0.00     0.027 C 
HETATM    5  C7  UNL     1     102.780 -19.786 -15.984  1.00  0.00     0.158 C 
HETATM    6  C8  UNL     1     103.826 -20.888 -15.782  1.00  0.00     0.205 C 
HETATM    7  C20 UNL     1     105.086 -20.249 -15.341  1.00  0.00     0.051 C 
HETATM    8  N3  UNL     1     106.185 -20.872 -15.574  1.00  0.00    -0.272 N 
ATOM      9  H3  UNL     1     107.052 -20.431 -15.269  1.00  0.00     0.193 HD
HETATM   10  C22 UNL     1     105.059 -18.898 -14.635  1.00  0.00     0.098 C 
HETATM   11  C25 UNL     1     103.812 -18.854 -13.864  1.00  0.00     0.038 C 
ENDROOT
BRANCH   6  12
HETATM   12  O5  UNL     1     103.982 -21.721 -16.879  1.00  0.00    -0.341 OA
BRANCH  12  13
HETATM   13  C9  UNL     1     103.156 -22.797 -17.140  1.00  0.00     0.060 C 
HETATM   14  C10 UNL     1     102.722 -23.153 -18.327  1.00  0.00     0.080 C 
BRANCH  14  15
HETATM   15  C11 UNL     1     103.056 -22.452 -19.561  1.00  0.00     0.099 C 
HETATM   16  N1  UNL     1     104.279 -22.074 -19.820  1.00  0.00    -0.375 N 
HETATM   17  C12 UNL     1     104.361 -21.406 -21.087  1.00  0.00     0.141 C 
ATOM     18  H1  UNL     1     105.073 -22.233 -19.201  1.00  0.00     0.161 HD
HETATM   19  C13 UNL     1     103.031 -21.640 -21.776  1.00  0.00     0.141 C 
HETATM   20  N2  UNL     1     102.222 -22.061 -20.633  1.00  0.00    -0.375 N 
ATOM     21  H2  UNL     1     101.203 -22.071 -20.612  1.00  0.00     0.161 HD
ENDBRANCH  14  15
BRANCH  13  22
HETATM   22  C14 UNL     1     102.750 -23.594 -15.947  1.00  0.00     0.175 C 
BRANCH  22  23
HETATM   23  C15 UNL     1     101.298 -23.609 -15.714  1.00  0.00     0.265 C 
HETATM   24  O6  UNL     1     100.617 -24.627 -16.085  1.00  0.00    -0.265 OA
BRANCH  23  25
HETATM   25  O7  UNL     1     100.614 -22.580 -15.114  1.00  0.00    -0.311 OA
BRANCH  25  26
HETATM   26  C16 UNL     1      99.861 -22.681 -13.921  1.00  0.00     0.060 C 
HETATM   27  C17 UNL     1     100.180 -23.917 -13.142  1.00  0.00     0.045 C 
HETATM   28  C18 UNL     1      98.386 -22.656 -14.340  1.00  0.00     0.045 C 
HETATM   29  C19 UNL     1     100.064 -21.453 -13.043  1.00  0.00     0.045 C 
ENDBRANCH  25  26
ENDBRANCH  23  25
ENDBRANCH  22  23
ENDBRANCH  13  22
ENDBRANCH  12  13
ENDBRANCH   6  12
BRANCH   5  30
HETATM   30  O4  UNL     1     101.553 -20.382 -16.368  1.00  0.00    -0.392 OA
ATOM     31  H4  UNL     1     101.194 -19.850 -17.069  1.00  0.00     0.210 HD
ENDBRANCH   5  30
BRANCH   8  32
HETATM   32  O8  UNL     1     106.276 -22.068 -16.192  1.00  0.00    -0.285 OA
HETATM   33  C21 UNL     1     107.445 -22.428 -16.910  1.00  0.00     0.237 C 
ENDBRANCH   8  32
BRANCH  10  34
HETATM   34  C23 UNL     1     105.442 -17.823 -15.557  1.00  0.00     0.266 C 
BRANCH  34  35
HETATM   35  O9  UNL     1     105.884 -18.385 -16.813  1.00  0.00    -0.371 OA
ATOM     36  H9  UNL     1     105.398 -19.180 -17.001  1.00  0.00     0.212 HD
ENDBRANCH  34  35
BRANCH  34  37
HETATM   37  O10 UNL     1     106.545 -17.081 -15.167  1.00  0.00    -0.366 OA
HETATM   38  C24 UNL     1     106.297 -15.694 -15.333  1.00  0.00     0.204 C 
ENDBRANCH  34  37
ENDBRANCH  10  34
BRANCH   2  39
HETATM   39  O3  UNL     1     101.235 -18.166 -12.373  1.00  0.00    -0.393 OA
ATOM     40  H3  UNL     1     100.326 -17.900 -12.444  1.00  0.00     0.210 HD
ENDBRANCH   2  39
BRANCH   1  41
HETATM   41  O2  UNL     1     103.691 -18.088 -11.648  1.00  0.00    -0.359 OA
BRANCH  41  42
HETATM   42  C2  UNL     1     104.984 -17.784 -11.227  1.00  0.00     0.337 C 
BRANCH  42  43
HETATM   43  O1  UNL     1     105.345 -16.597 -11.863  1.00  0.00    -0.372 OA
HETATM   44  C1  UNL     1     106.665 -16.243 -11.588  1.00  0.00     0.204 C 
ENDBRANCH  42  43
ENDBRANCH  41  42
ENDBRANCH   1  41
TORSDOF 16
ENDMDL
MODEL 2
REMARK VINA RESULT: -7.110983322      2.214      6.859
REMARK  16 active torsions:
REMARK  status: ('A' for Active; 'I' for Inactive)
REMARK    1  A    between atoms: O1_2  and  C2_3 
REMARK    2  A    between atoms: C2_3  and  O2_4 
REMARK    3  A    between atoms: O2_4  and  C3_5 
REMARK    4  A    between atoms: C4_6  and  O3_7 
REMARK    5  A    between atoms: C7_11  and  O4_12 
REMARK    6  A    between atoms: C8_14  and  O5_15 
REMARK    7  A    between atoms: O5_15  and  C9_16 
REMARK    8  A    between atoms: C9_16  and  C14_25 
REMARK    9  A    between atoms: C10_17  and  C11_18 
REMARK   10  A    between atoms: C14_25  and  C15_26 
REMARK   11  A    between atoms: C15_26  and  O7_28 
REMARK   12  A    between atoms: O7_28  and  C16_29 
REMARK   13  A    between atoms: N3_34  and  O8_36 
REMARK   14  A    between atoms: C22_38  and  C23_39 
REMARK   15  A    between atoms: C23_39  and  O9_40 
REMARK   16  A    between atoms: C23_39  and  O10_42 
ROOT
HETATM    1  C3  UNL     1     103.952 -22.335 -19.307  1.00  0.00     0.158 C 
HETATM    2  C4  UNL     1     102.963 -23.394 -18.843  1.00  0.00     0.148 C 
HETATM    3  C5  UNL     1     103.220 -23.489 -17.363  1.00  0.00     0.042 C 
HETATM    4  C6  UNL     1     103.326 -22.019 -17.009  1.00  0.00     0.027 C 
HETATM    5  C7  UNL     1     103.828 -21.717 -15.655  1.00  0.00     0.158 C 
HETATM    6  C8  UNL     1     104.172 -20.223 -15.641  1.00  0.00     0.205 C 
HETATM    7  C20 UNL     1     105.262 -19.995 -16.616  1.00  0.00     0.051 C 
HETATM    8  N3  UNL     1     106.019 -18.973 -16.436  1.00  0.00    -0.272 N 
ATOM      9  H3  UNL     1     106.770 -18.817 -17.108  1.00  0.00     0.193 HD
HETATM   10  C22 UNL     1     105.462 -20.951 -17.786  1.00  0.00     0.098 C 
HETATM   11  C25 UNL     1     104.131 -21.442 -18.157  1.00  0.00     0.038 C 
ENDROOT
BRANCH   6  12
HETATM   12  O5  UNL     1     104.445 -19.722 -14.378  1.00  0.00    -0.341 OA
BRANCH  12  13
HETATM   13  C9  UNL     1     103.591 -18.876 -13.695  1.00  0.00     0.060 C 
HETATM   14  C10 UNL     1     103.894 -18.203 -12.610  1.00  0.00     0.080 C 
BRANCH  14  15
HETATM   15  C11 UNL     1     105.199 -18.251 -11.958  1.00  0.00     0.099 C 
HETATM   16  N1  UNL     1     105.428 -17.605 -10.847  1.00  0.00    -0.375 N 
HETATM   17  C12 UNL     1     106.777 -17.803 -10.398  1.00  0.00     0.141 C 
ATOM     18  H1  UNL     1     104.737 -17.034 -10.361  1.00  0.00     0.161 HD
HETATM   19  C13 UNL     1     107.346 -18.922 -11.247  1.00  0.00     0.141 C 
HETATM   20  N2  UNL     1     106.377 -18.928 -12.343  1.00  0.00    -0.375 N 
ATOM     21  H2  UNL     1     106.531 -19.358 -13.255  1.00  0.00     0.161 HD
ENDBRANCH  14  15
BRANCH  13  22
HETATM   22  C14 UNL     1     102.224 -18.746 -14.275  1.00  0.00     0.175 C 
BRANCH  22  23
HETATM   23  C15 UNL     1     101.147 -19.038 -13.317  1.00  0.00     0.265 C 
HETATM   24  O6  UNL     1     100.501 -18.068 -12.789  1.00  0.00    -0.265 OA
BRANCH  23  25
HETATM   25  O7  UNL     1     100.785 -20.310 -12.946  1.00  0.00    -0.311 OA
BRANCH  25  26
HETATM   26  C16 UNL     1      99.609 -20.981 -13.356  1.00  0.00     0.060 C 
HETATM   27  C17 UNL     1      98.364 -20.310 -12.869  1.00  0.00     0.045 C 
HETATM   28  C18 UNL     1      99.718 -22.410 -12.810  1.00  0.00     0.045 C 
HETATM   29  C19 UNL     1      99.560 -21.118 -14.872  1.00  0.00     0.045 C 
ENDBRANCH  25  26
ENDBRANCH  23  25
ENDBRANCH  22  23
ENDBRANCH  13  22
ENDBRANCH  12  13
ENDBRANCH   6  12
BRANCH   5  30
HETATM   30  O4  UNL     1     102.758 -21.950 -14.755  1.00  0.00    -0.392 OA
ATOM     31  H4  UNL     1     102.506 -22.861 -14.855  1.00  0.00     0.210 HD
ENDBRANCH   5  30
BRANCH   8  32
HETATM   32  O8  UNL     1     105.894 -18.091 -15.423  1.00  0.00    -0.285 OA
HETATM   33  C21 UNL     1     105.920 -16.694 -15.668  1.00  0.00     0.237 C 
ENDBRANCH   8  32
BRANCH  10  34
HETATM   34  C23 UNL     1     106.584 -21.861 -17.528  1.00  0.00     0.266 C 
BRANCH  34  35
HETATM   35  O9  UNL     1     107.193 -21.543 -16.256  1.00  0.00    -0.371 OA
ATOM     36  H9  UNL     1     107.291 -22.333 -15.738  1.00  0.00     0.212 HD
ENDBRANCH  34  35
BRANCH  34  37
HETATM   37  O10 UNL     1     107.653 -21.737 -18.400  1.00  0.00    -0.366 OA
HETATM   38  C24 UNL     1     108.643 -22.713 -18.117  1.00  0.00     0.204 C 
ENDBRANCH  34  37
ENDBRANCH  10  34
BRANCH   2  39
HETATM   39  O3  UNL     1     101.654 -22.975 -19.080  1.00  0.00    -0.393 OA
ATOM     40  H3  UNL     1     101.040 -23.527 -18.610  1.00  0.00     0.210 HD
ENDBRANCH   2  39
BRANCH   1  41
HETATM   41  O2  UNL     1     103.385 -21.602 -20.377  1.00  0.00    -0.359 OA
BRANCH  41  42
HETATM   42  C2  UNL     1     104.382 -21.054 -21.182  1.00  0.00     0.337 C 
BRANCH  42  43
HETATM   43  O1  UNL     1     104.156 -21.524 -22.475  1.00  0.00    -0.372 OA
HETATM   44  C1  UNL     1     102.797 -21.704 -22.730  1.00  0.00     0.204 C 
ENDBRANCH  42  43
ENDBRANCH  41  42
ENDBRANCH   1  41
TORSDOF 16
ENDMDL
MODEL 3
REMARK VINA RESULT: -6.996249887      2.947      5.027
REMARK  16 active torsions:
REMARK  status: ('A' for Active; 'I' for Inactive)
REMARK    1  A    between atoms: O1_2  and  C2_3 
REMARK    2  A    between atoms: C2_3  and  O2_4 
REMARK    3  A    between atoms: O2_4  and  C3_5 
REMARK    4  A    between atoms: C4_6  and  O3_7 
REMARK    5  A    between atoms: C7_11  and  O4_12 
REMARK    6  A    between atoms: C8_14  and  O5_15 
REMARK    7  A    between atoms: O5_15  and  C9_16 
REMARK    8  A    between atoms: C9_16  and  C14_25 
REMARK    9  A    between atoms: C10_17  and  C11_18 
REMARK   10  A    between atoms: C14_25  and  C15_26 
REMARK   11  A    between atoms: C15_26  and  O7_28 
REMARK   12  A    between atoms: O7_28  and  C16_29 
REMARK   13  A    between atoms: N3_34  and  O8_36 
REMARK   14  A    between atoms: C22_38  and  C23_39 
REMARK   15  A    between atoms: C23_39  and  O9_40 
REMARK   16  A    between atoms: C23_39  and  O10_42 
ROOT
HETATM    1  C3  UNL     1     106.838 -19.337 -12.597  1.00  0.00     0.158 C 
HETATM    2  C4  UNL     1     106.493 -18.674 -11.272  1.00  0.00     0.148 C 
HETATM    3  C5  UNL     1     105.190 -17.978 -11.557  1.00  0.00     0.042 C 
HETATM    4  C6  UNL     1     104.466 -19.060 -12.333  1.00  0.00     0.027 C 
HETATM    5  C7  UNL     1     103.220 -18.646 -13.007  1.00  0.00     0.158 C 
HETATM    6  C8  UNL     1     102.859 -19.772 -13.983  1.00  0.00     0.205 C 
HETATM    7  C20 UNL     1     103.937 -19.866 -14.993  1.00  0.00     0.051 C 
HETATM    8  N3  UNL     1     103.641 -20.368 -16.137  1.00  0.00    -0.272 N 
ATOM      9  H3  UNL     1     104.384 -20.433 -16.832  1.00  0.00     0.193 HD
HETATM   10  C22 UNL     1     105.344 -19.381 -14.665  1.00  0.00     0.098 C 
HETATM   11  C25 UNL     1     105.548 -19.625 -13.233  1.00  0.00     0.038 C 
ENDROOT
BRANCH   6  12
HETATM   12  O5  UNL     1     101.593 -19.651 -14.535  1.00  0.00    -0.341 OA
BRANCH  12  13
HETATM   13  C9  UNL     1     100.446 -20.106 -13.913  1.00  0.00     0.060 C 
HETATM   14  C10 UNL     1      99.417 -19.365 -13.576  1.00  0.00     0.080 C 
BRANCH  14  15
HETATM   15  C11 UNL     1      99.335 -17.927 -13.813  1.00  0.00     0.099 C 
HETATM   16  N1  UNL     1      98.188 -17.306 -13.835  1.00  0.00    -0.375 N 
HETATM   17  C12 UNL     1      98.359 -15.903 -14.084  1.00  0.00     0.141 C 
ATOM     18  H1  UNL     1      97.285 -17.759 -13.693  1.00  0.00     0.161 HD
HETATM   19  C13 UNL     1      99.844 -15.628 -13.951  1.00  0.00     0.141 C 
HETATM   20  N2  UNL     1     100.365 -16.991 -14.051  1.00  0.00    -0.375 N 
ATOM     21  H2  UNL     1     101.334 -17.230 -14.263  1.00  0.00     0.161 HD
ENDBRANCH  14  15
BRANCH  13  22
HETATM   22  C14 UNL     1     100.416 -21.569 -13.623  1.00  0.00     0.175 C 
BRANCH  22  23
HETATM   23  C15 UNL     1      99.120 -22.201 -13.912  1.00  0.00     0.265 C 
HETATM   24  O6  UNL     1      98.443 -22.705 -12.951  1.00  0.00    -0.265 OA
BRANCH  23  25
HETATM   25  O7  UNL     1      98.580 -22.286 -15.172  1.00  0.00    -0.311 OA
BRANCH  25  26
HETATM   26  C16 UNL     1      98.546 -23.450 -15.974  1.00  0.00     0.060 C 
HETATM   27  C17 UNL     1      98.771 -23.157 -17.424  1.00  0.00     0.045 C 
HETATM   28  C18 UNL     1      97.172 -24.091 -15.744  1.00  0.00     0.045 C 
HETATM   29  C19 UNL     1      99.568 -24.474 -15.493  1.00  0.00     0.045 C 
ENDBRANCH  25  26
ENDBRANCH  23  25
ENDBRANCH  22  23
ENDBRANCH  13  22
ENDBRANCH  12  13
ENDBRANCH   6  12
BRANCH   5  30
HETATM   30  O4  UNL     1     102.218 -18.566 -12.007  1.00  0.00    -0.392 OA
ATOM     31  H4  UNL     1     101.530 -19.172 -12.256  1.00  0.00     0.210 HD
ENDBRANCH   5  30
BRANCH   8  32
HETATM   32  O8  UNL     1     102.417 -20.816 -16.488  1.00  0.00    -0.285 OA
HETATM   33  C21 UNL     1     102.223 -22.165 -16.884  1.00  0.00     0.237 C 
ENDBRANCH   8  32
BRANCH  10  34
HETATM   34  C23 UNL     1     105.597 -18.070 -15.275  1.00  0.00     0.266 C 
BRANCH  34  35
HETATM   35  O9  UNL     1     105.930 -18.234 -16.672  1.00  0.00    -0.371 OA
ATOM     36  H9  UNL     1     105.583 -19.058 -16.994  1.00  0.00     0.212 HD
ENDBRANCH  34  35
BRANCH  34  37
HETATM   37  O10 UNL     1     106.707 -17.400 -14.788  1.00  0.00    -0.366 OA
HETATM   38  C24 UNL     1     106.415 -16.024 -14.598  1.00  0.00     0.204 C 
ENDBRANCH  34  37
ENDBRANCH  10  34
BRANCH   2  39
HETATM   39  O3  UNL     1     106.321 -19.635 -10.277  1.00  0.00    -0.393 OA
ATOM     40  H3  UNL     1     105.524 -20.129 -10.429  1.00  0.00     0.210 HD
ENDBRANCH   2  39
BRANCH   1  41
HETATM   41  O2  UNL     1     107.513 -20.557 -12.348  1.00  0.00    -0.359 OA
BRANCH  41  42
HETATM   42  C2  UNL     1     108.891 -20.357 -12.303  1.00  0.00     0.337 C 
BRANCH  42  43
HETATM   43  O1  UNL     1     109.320 -20.221 -13.623  1.00  0.00    -0.372 OA
HETATM   44  C1  UNL     1     110.005 -21.353 -14.063  1.00  0.00     0.204 C 
ENDBRANCH  42  43
ENDBRANCH  41  42
ENDBRANCH   1  41
TORSDOF 16
ENDMDL
MODEL 4
REMARK VINA RESULT: -6.976750597      2.470      7.170
REMARK  16 active torsions:
REMARK  status: ('A' for Active; 'I' for Inactive)
REMARK    1  A    between atoms: O1_2  and  C2_3 
REMARK    2  A    between atoms: C2_3  and  O2_4 
REMARK    3  A    between atoms: O2_4  and  C3_5 
REMARK    4  A    between atoms: C4_6  and  O3_7 
REMARK    5  A    between atoms: C7_11  and  O4_12 
REMARK    6  A    between atoms: C8_14  and  O5_15 
REMARK    7  A    between atoms: O5_15  and  C9_16 
REMARK    8  A    between atoms: C9_16  and  C14_25 
REMARK    9  A    between atoms: C10_17  and  C11_18 
REMARK   10  A    between atoms: C14_25  and  C15_26 
REMARK   11  A    between atoms: C15_26  and  O7_28 
REMARK   12  A    between atoms: O7_28  and  C16_29 
REMARK   13  A    between atoms: N3_34  and  O8_36 
REMARK   14  A    between atoms: C22_38  and  C23_39 
REMARK   15  A    between atoms: C23_39  and  O9_40 
REMARK   16  A    between atoms: C23_39  and  O10_42 
ROOT
HETATM    1  C3  UNL     1     103.710 -22.368 -18.909  1.00  0.00     0.158 C 
HETATM    2  C4  UNL     1     102.465 -23.160 -18.540  1.00  0.00     0.148 C 
HETATM    3  C5  UNL     1     102.513 -23.208 -17.037  1.00  0.00     0.042 C 
HETATM    4  C6  UNL     1     102.893 -21.774 -16.729  1.00  0.00     0.027 C 
HETATM    5  C7  UNL     1     103.280 -21.494 -15.333  1.00  0.00     0.158 C 
HETATM    6  C8  UNL     1     103.938 -20.109 -15.332  1.00  0.00     0.205 C 
HETATM    7  C20 UNL     1     105.162 -20.182 -16.161  1.00  0.00     0.051 C 
HETATM    8  N3  UNL     1     106.096 -19.334 -15.922  1.00  0.00    -0.272 N 
ATOM      9  H3  UNL     1     106.939 -19.385 -16.494  1.00  0.00     0.193 HD
HETATM   10  C22 UNL     1     105.289 -21.235 -17.256  1.00  0.00     0.098 C 
HETATM   11  C25 UNL     1     103.938 -21.458 -17.782  1.00  0.00     0.038 C 
ENDROOT
BRANCH   6  12
HETATM   12  O5  UNL     1     104.157 -19.593 -14.065  1.00  0.00    -0.341 OA
BRANCH  12  13
HETATM   13  C9  UNL     1     103.449 -18.526 -13.545  1.00  0.00     0.060 C 
HETATM   14  C10 UNL     1     103.795 -17.825 -12.491  1.00  0.00     0.080 C 
BRANCH  14  15
HETATM   15  C11 UNL     1     104.996 -18.076 -11.702  1.00  0.00     0.099 C 
HETATM   16  N1  UNL     1     105.695 -19.168 -11.857  1.00  0.00    -0.375 N 
HETATM   17  C12 UNL     1     106.827 -19.191 -10.975  1.00  0.00     0.141 C 
ATOM     18  H1  UNL     1     105.467 -19.909 -12.520  1.00  0.00     0.161 HD
HETATM   19  C13 UNL     1     106.935 -17.798 -10.388  1.00  0.00     0.141 C 
HETATM   20  N2  UNL     1     105.601 -17.286 -10.700  1.00  0.00    -0.375 N 
ATOM     21  H2  UNL     1     105.170 -16.474 -10.258  1.00  0.00     0.161 HD
ENDBRANCH  14  15
BRANCH  13  22
HETATM   22  C14 UNL     1     102.198 -18.174 -14.276  1.00  0.00     0.175 C 
BRANCH  22  23
HETATM   23  C15 UNL     1     100.989 -18.243 -13.441  1.00  0.00     0.265 C 
HETATM   24  O6  UNL     1     100.650 -19.363 -12.924  1.00  0.00    -0.265 OA
BRANCH  23  25
HETATM   25  O7  UNL     1     100.186 -17.161 -13.177  1.00  0.00    -0.311 OA
BRANCH  25  26
HETATM   26  C16 UNL     1      99.416 -16.456 -14.132  1.00  0.00     0.060 C 
HETATM   27  C17 UNL     1      99.870 -15.042 -14.306  1.00  0.00     0.045 C 
HETATM   28  C18 UNL     1      97.964 -16.516 -13.643  1.00  0.00     0.045 C 
HETATM   29  C19 UNL     1      99.432 -17.170 -15.478  1.00  0.00     0.045 C 
ENDBRANCH  25  26
ENDBRANCH  23  25
ENDBRANCH  22  23
ENDBRANCH  13  22
ENDBRANCH  12  13
ENDBRANCH   6  12
BRANCH   5  30
HETATM   30  O4  UNL     1     102.083 -21.435 -14.576  1.00  0.00    -0.392 OA
ATOM     31  H4  UNL     1     101.479 -20.881 -15.057  1.00  0.00     0.210 HD
ENDBRANCH   5  30
BRANCH   8  32
HETATM   32  O8  UNL     1     106.044 -18.379 -14.970  1.00  0.00    -0.285 OA
HETATM   33  C21 UNL     1     106.167 -17.007 -15.309  1.00  0.00     0.237 C 
ENDBRANCH   8  32
BRANCH  10  34
HETATM   34  C23 UNL     1     106.145 -22.342 -16.815  1.00  0.00     0.266 C 
BRANCH  34  35
HETATM   35  O9  UNL     1     107.307 -21.823 -16.128  1.00  0.00    -0.371 OA
ATOM     36  H9  UNL     1     107.942 -22.517 -15.997  1.00  0.00     0.212 HD
ENDBRANCH  34  35
BRANCH  34  37
HETATM   37  O10 UNL     1     106.719 -23.083 -17.835  1.00  0.00    -0.366 OA
HETATM   38  C24 UNL     1     106.852 -24.443 -17.450  1.00  0.00     0.204 C 
ENDBRANCH  34  37
ENDBRANCH  10  34
BRANCH   2  39
HETATM   39  O3  UNL     1     101.318 -22.491 -18.966  1.00  0.00    -0.393 OA
ATOM     40  H3  UNL     1     101.485 -21.559 -19.037  1.00  0.00     0.210 HD
ENDBRANCH   2  39
BRANCH   1  41
HETATM   41  O2  UNL     1     103.451 -21.605 -20.073  1.00  0.00    -0.359 OA
BRANCH  41  42
HETATM   42  C2  UNL     1     104.620 -21.418 -20.810  1.00  0.00     0.337 C 
BRANCH  42  43
HETATM   43  O1  UNL     1     104.270 -21.538 -22.154  1.00  0.00    -0.372 OA
HETATM   44  C1  UNL     1     102.892 -21.676 -22.319  1.00  0.00     0.204 C 
ENDBRANCH  42  43
ENDBRANCH  41  42
ENDBRANCH   1  41
TORSDOF 16
ENDMDL
MODEL 5
REMARK VINA RESULT: -6.909532738      2.573      7.544
REMARK  16 active torsions:
REMARK  status: ('A' for Active; 'I' for Inactive)
REMARK    1  A    between atoms: O1_2  and  C2_3 
REMARK    2  A    between atoms: C2_3  and  O2_4 
REMARK    3  A    between atoms: O2_4  and  C3_5 
REMARK    4  A    between atoms: C4_6  and  O3_7 
REMARK    5  A    between atoms: C7_11  and  O4_12 
REMARK    6  A    between atoms: C8_14  and  O5_15 
REMARK    7  A    between atoms: O5_15  and  C9_16 
REMARK    8  A    between atoms: C9_16  and  C14_25 
REMARK    9  A    between atoms: C10_17  and  C11_18 
REMARK   10  A    between atoms: C14_25  and  C15_26 
REMARK   11  A    between atoms: C15_26  and  O7_28 
REMARK   12  A    between atoms: O7_28  and  C16_29 
REMARK   13  A    between atoms: N3_34  and  O8_36 
REMARK   14  A    between atoms: C22_38  and  C23_39 
REMARK   15  A    between atoms: C23_39  and  O9_40 
REMARK   16  A    between atoms: C23_39  and  O10_42 
ROOT
HETATM    1  C3  UNL     1     106.058 -22.881 -17.441  1.00  0.00     0.158 C 
HETATM    2  C4  UNL     1     107.063 -22.025 -18.198  1.00  0.00     0.148 C 
HETATM    3  C5  UNL     1     106.351 -20.710 -18.360  1.00  0.00     0.042 C 
HETATM    4  C6  UNL     1     105.764 -20.543 -16.972  1.00  0.00     0.027 C 
HETATM    5  C7  UNL     1     104.773 -19.462 -16.817  1.00  0.00     0.158 C 
HETATM    6  C8  UNL     1     104.080 -19.697 -15.469  1.00  0.00     0.205 C 
HETATM    7  C20 UNL     1     103.366 -20.991 -15.540  1.00  0.00     0.051 C 
HETATM    8  N3  UNL     1     102.362 -21.163 -14.758  1.00  0.00    -0.272 N 
ATOM      9  H3  UNL     1     101.871 -22.055 -14.808  1.00  0.00     0.193 HD
HETATM   10  C22 UNL     1     103.824 -22.072 -16.514  1.00  0.00     0.098 C 
HETATM   11  C25 UNL     1     105.280 -21.939 -16.631  1.00  0.00     0.038 C 
ENDROOT
BRANCH   6  12
HETATM   12  O5  UNL     1     103.277 -18.643 -15.060  1.00  0.00    -0.341 OA
BRANCH  12  13
HETATM   13  C9  UNL     1     103.599 -17.806 -14.009  1.00  0.00     0.060 C 
HETATM   14  C10 UNL     1     102.809 -16.892 -13.496  1.00  0.00     0.080 C 
BRANCH  14  15
HETATM   15  C11 UNL     1     101.456 -16.623 -13.970  1.00  0.00     0.099 C 
HETATM   16  N1  UNL     1     100.865 -15.484 -13.730  1.00  0.00    -0.375 N 
HETATM   17  C12 UNL     1      99.545 -15.453 -14.294  1.00  0.00     0.141 C 
ATOM     18  H1  UNL     1     101.286 -14.716 -13.208  1.00  0.00     0.161 HD
HETATM   19  C13 UNL     1      99.444 -16.662 -15.201  1.00  0.00     0.141 C 
HETATM   20  N2  UNL     1     100.578 -17.445 -14.710  1.00  0.00    -0.375 N 
ATOM     21  H2  UNL     1     100.714 -18.442 -14.876  1.00  0.00     0.161 HD
ENDBRANCH  14  15
BRANCH  13  22
HETATM   22  C14 UNL     1     104.963 -17.993 -13.438  1.00  0.00     0.175 C 
BRANCH  22  23
HETATM   23  C15 UNL     1     104.965 -18.279 -11.995  1.00  0.00     0.265 C 
HETATM   24  O6  UNL     1     104.539 -19.413 -11.583  1.00  0.00    -0.265 OA
BRANCH  23  25
HETATM   25  O7  UNL     1     105.403 -17.389 -11.045  1.00  0.00    -0.311 OA
BRANCH  25  26
HETATM   26  C16 UNL     1     106.756 -17.093 -10.759  1.00  0.00     0.060 C 
HETATM   27  C17 UNL     1     107.668 -18.247 -11.032  1.00  0.00     0.045 C 
HETATM   28  C18 UNL     1     106.804 -16.687  -9.281  1.00  0.00     0.045 C 
HETATM   29  C19 UNL     1     107.224 -15.872 -11.541  1.00  0.00     0.045 C 
ENDBRANCH  25  26
ENDBRANCH  23  25
ENDBRANCH  22  23
ENDBRANCH  13  22
ENDBRANCH  12  13
ENDBRANCH   6  12
BRANCH   5  30
HETATM   30  O4  UNL     1     105.496 -18.244 -16.755  1.00  0.00    -0.392 OA
ATOM     31  H4  UNL     1     105.923 -18.134 -17.597  1.00  0.00     0.210 HD
ENDBRANCH   5  30
BRANCH   8  32
HETATM   32  O8  UNL     1     101.908 -20.248 -13.875  1.00  0.00    -0.285 OA
HETATM   33  C21 UNL     1     100.824 -20.548 -13.011  1.00  0.00     0.237 C 
ENDBRANCH   8  32
BRANCH  10  34
HETATM   34  C23 UNL     1     102.949 -22.114 -17.691  1.00  0.00     0.266 C 
BRANCH  34  35
HETATM   35  O9  UNL     1     101.695 -21.459 -17.396  1.00  0.00    -0.371 OA
ATOM     36  H9  UNL     1     101.814 -20.516 -17.392  1.00  0.00     0.212 HD
ENDBRANCH  34  35
BRANCH  34  37
HETATM   37  O10 UNL     1     102.533 -23.381 -18.067  1.00  0.00    -0.366 OA
HETATM   38  C24 UNL     1     101.904 -24.043 -16.981  1.00  0.00     0.204 C 
ENDBRANCH  34  37
ENDBRANCH  10  34
BRANCH   2  39
HETATM   39  O3  UNL     1     108.224 -21.857 -17.444  1.00  0.00    -0.393 OA
ATOM     40  H3  UNL     1     108.386 -20.934 -17.287  1.00  0.00     0.210 HD
ENDBRANCH   2  39
BRANCH   1  41
HETATM   41  O2  UNL     1     106.751 -23.768 -16.583  1.00  0.00    -0.359 OA
BRANCH  41  42
HETATM   42  C2  UNL     1     107.077 -24.947 -17.251  1.00  0.00     0.337 C 
BRANCH  42  43
HETATM   43  O1  UNL     1     108.052 -25.585 -16.485  1.00  0.00    -0.372 OA
HETATM   44  C1  UNL     1     109.118 -24.735 -16.191  1.00  0.00     0.204 C 
ENDBRANCH  42  43
ENDBRANCH  41  42
ENDBRANCH   1  41
TORSDOF 16
ENDMDL
