MODEL 1
REMARK VINA RESULT: -7.742024530      0.000      0.000
REMARK  16 active torsions:
REMARK  status: ('A' for Active; 'I' for Inactive)
REMARK    1  A    between atoms: C2_2  and  O1_3 
REMARK    2  A    between atoms: O1_3  and  C3_4 
REMARK    3  A    between atoms: C4_6  and  S1_7 
REMARK    4  A    between atoms: C6_9  and  O3_10 
REMARK    5  A    between atoms: C8_12  and  O4_13 
REMARK    6  A    between atoms: C9_15  and  O5_16 
REMARK    7  A    between atoms: O5_16  and  C10_17 
REMARK    8  A    between atoms: C11_18  and  O6_19 
REMARK    9  A    between atoms: O6_19  and  C12_20 
REMARK   10  A    between atoms: C14_22  and  O7_23 
REMARK   11  A    between atoms: C15_25  and  O8_26 
REMARK   12  A    between atoms: C17_31  and  C18_32 
REMARK   13  A    between atoms: C18_32  and  O11_33 
REMARK   14  A    between atoms: C19_35  and  O12_36 
REMARK   15  A    between atoms: O12_36  and  C20_37 
REMARK   16  A    between atoms: C23_40  and  O13_41 
ROOT
HETATM    1  C10 UNL     1     103.657 -21.436 -16.057  1.00  0.00     0.208 C 
HETATM    2  C11 UNL     1     103.805 -22.096 -17.409  1.00  0.00     0.295 C 
HETATM    3  O10 UNL     1     102.675 -22.073 -18.158  1.00  0.00    -0.348 OA
HETATM    4  C17 UNL     1     101.520 -22.493 -17.583  1.00  0.00     0.179 C 
HETATM    5  C19 UNL     1     101.374 -22.321 -16.109  1.00  0.00     0.184 C 
HETATM    6  C23 UNL     1     102.649 -22.375 -15.359  1.00  0.00     0.183 C 
ENDROOT
BRANCH   1   7
HETATM    7  O5  UNL     1     103.127 -20.176 -16.168  1.00  0.00    -0.365 OA
BRANCH   7   8
HETATM    8  C9  UNL     1     103.824 -19.141 -15.640  1.00  0.00     0.208 C 
HETATM    9  C3  UNL     1     103.301 -18.547 -14.361  1.00  0.00     0.292 C 
HETATM   10  O2  UNL     1     104.031 -18.934 -13.248  1.00  0.00    -0.340 OA
HETATM   11  C4  UNL     1     105.376 -18.614 -13.283  1.00  0.00     0.217 C 
HETATM   12  C6  UNL     1     105.877 -18.261 -14.638  1.00  0.00     0.191 C 
HETATM   13  C8  UNL     1     105.319 -19.383 -15.560  1.00  0.00     0.184 C 
BRANCH   9  14
HETATM   14  O1  UNL     1     101.973 -18.914 -14.084  1.00  0.00    -0.359 OA
BRANCH  14  15
HETATM   15  C2  UNL     1     101.848 -19.594 -12.873  1.00  0.00     0.166 C 
HETATM   16  C1  UNL     1     100.415 -19.713 -12.427  1.00  0.00     0.033 C 
ENDBRANCH  14  15
ENDBRANCH   9  14
BRANCH  11  17
HETATM   17  S1  UNL     1     105.832 -17.426 -11.998  1.00  0.00    -0.139 SA
HETATM   18  C5  UNL     1     107.063 -18.203 -10.922  1.00  0.00     0.092 C 
ENDBRANCH  11  17
BRANCH  12  19
HETATM   19  O3  UNL     1     105.548 -17.036 -15.131  1.00  0.00    -0.385 OA
HETATM   20  C7  UNL     1     106.546 -16.140 -15.361  1.00  0.00     0.202 C 
ENDBRANCH  12  19
BRANCH  13  21
HETATM   21  O4  UNL     1     105.936 -19.182 -16.792  1.00  0.00    -0.390 OA
ATOM     22  H4  UNL     1     106.412 -19.986 -16.964  1.00  0.00     0.210 HD
ENDBRANCH  13  21
ENDBRANCH   7   8
ENDBRANCH   1   7
BRANCH   2  23
HETATM   23  O6  UNL     1     104.890 -21.696 -18.143  1.00  0.00    -0.329 OA
BRANCH  23  24
HETATM   24  C12 UNL     1     105.903 -22.628 -18.233  1.00  0.00     0.265 C 
HETATM   25  C13 UNL     1     105.766 -23.747 -17.229  1.00  0.00     0.095 C 
HETATM   26  C14 UNL     1     106.965 -24.664 -17.440  1.00  0.00     0.153 C 
HETATM   27  C15 UNL     1     108.184 -23.876 -17.020  1.00  0.00     0.170 C 
HETATM   28  C16 UNL     1     107.834 -22.408 -16.972  1.00  0.00     0.205 C 
HETATM   29  O9  UNL     1     107.110 -21.998 -18.074  1.00  0.00    -0.358 OA
BRANCH  26  30
HETATM   30  O7  UNL     1     106.814 -25.842 -16.748  1.00  0.00    -0.393 OA
ATOM     31  H7  UNL     1     107.635 -26.116 -16.357  1.00  0.00     0.210 HD
ENDBRANCH  26  30
BRANCH  27  32
HETATM   32  O8  UNL     1     108.564 -24.326 -15.765  1.00  0.00    -0.391 OA
ATOM     33  H8  UNL     1     108.565 -23.578 -15.179  1.00  0.00     0.210 HD
ENDBRANCH  27  32
ENDBRANCH  23  24
ENDBRANCH   2  23
BRANCH   6  34
HETATM   34  O13 UNL     1     103.178 -23.659 -15.398  1.00  0.00    -0.390 OA
ATOM     35  H13 UNL     1     102.717 -24.178 -14.748  1.00  0.00     0.210 HD
ENDBRANCH   6  34
BRANCH   5  36
HETATM   36  O12 UNL     1     100.416 -23.220 -15.594  1.00  0.00    -0.376 OA
BRANCH  36  37
HETATM   37  C20 UNL     1      99.826 -22.705 -14.475  1.00  0.00     0.114 C 
HETATM   38  C21 UNL     1      98.337 -22.491 -14.628  1.00  0.00     0.039 C 
HETATM   39  C22 UNL     1     100.023 -23.717 -13.352  1.00  0.00     0.039 C 
ENDBRANCH  36  37
ENDBRANCH   5  36
BRANCH   4  40
HETATM   40  C18 UNL     1     101.400 -24.000 -17.876  1.00  0.00     0.198 C 
BRANCH  40  41
HETATM   41  O11 UNL     1     100.145 -24.125 -18.517  1.00  0.00    -0.398 OA
ATOM     42  H11 UNL     1      99.727 -24.847 -18.064  1.00  0.00     0.209 HD
ENDBRANCH  40  41
ENDBRANCH   4  40
TORSDOF 16
ENDMDL
MODEL 2
REMARK VINA RESULT: -7.568925252      0.796      1.152
REMARK  16 active torsions:
REMARK  status: ('A' for Active; 'I' for Inactive)
REMARK    1  A    between atoms: C2_2  and  O1_3 
REMARK    2  A    between atoms: O1_3  and  C3_4 
REMARK    3  A    between atoms: C4_6  and  S1_7 
REMARK    4  A    between atoms: C6_9  and  O3_10 
REMARK    5  A    between atoms: C8_12  and  O4_13 
REMARK    6  A    between atoms: C9_15  and  O5_16 
REMARK    7  A    between atoms: O5_16  and  C10_17 
REMARK    8  A    between atoms: C11_18  and  O6_19 
REMARK    9  A    between atoms: O6_19  and  C12_20 
REMARK   10  A    between atoms: C14_22  and  O7_23 
REMARK   11  A    between atoms: C15_25  and  O8_26 
REMARK   12  A    between atoms: C17_31  and  C18_32 
REMARK   13  A    between atoms: C18_32  and  O11_33 
REMARK   14  A    between atoms: C19_35  and  O12_36 
REMARK   15  A    between atoms: O12_36  and  C20_37 
REMARK   16  A    between atoms: C23_40  and  O13_41 
ROOT
HETATM    1  C10 UNL     1     103.400 -21.301 -15.959  1.00  0.00     0.208 C 
HETATM    2  C11 UNL     1     103.570 -21.974 -17.301  1.00  0.00     0.295 C 
HETATM    3  O10 UNL     1     102.460 -21.933 -18.079  1.00  0.00    -0.348 OA
HETATM    4  C17 UNL     1     101.283 -22.325 -17.532  1.00  0.00     0.179 C 
HETATM    5  C19 UNL     1     101.101 -22.138 -16.063  1.00  0.00     0.184 C 
HETATM    6  C23 UNL     1     102.355 -22.214 -15.281  1.00  0.00     0.183 C 
ENDROOT
BRANCH   1   7
HETATM    7  O5  UNL     1     102.899 -20.031 -16.092  1.00  0.00    -0.365 OA
BRANCH   7   8
HETATM    8  C9  UNL     1     103.550 -19.019 -15.469  1.00  0.00     0.208 C 
HETATM    9  C3  UNL     1     102.972 -18.534 -14.168  1.00  0.00     0.292 C 
HETATM   10  O2  UNL     1     103.679 -18.981 -13.063  1.00  0.00    -0.340 OA
HETATM   11  C4  UNL     1     105.015 -18.624 -13.032  1.00  0.00     0.217 C 
HETATM   12  C6  UNL     1     105.546 -18.159 -14.342  1.00  0.00     0.191 C 
HETATM   13  C8  UNL     1     105.049 -19.226 -15.359  1.00  0.00     0.184 C 
BRANCH   9  14
HETATM   14  O1  UNL     1     101.648 -18.955 -13.961  1.00  0.00    -0.359 OA
BRANCH  14  15
HETATM   15  C2  UNL     1     101.488 -19.647 -12.760  1.00  0.00     0.166 C 
HETATM   16  C1  UNL     1     100.047 -19.730 -12.333  1.00  0.00     0.033 C 
ENDBRANCH  14  15
ENDBRANCH   9  14
BRANCH  11  17
HETATM   17  S1  UNL     1     105.398 -17.521 -11.651  1.00  0.00    -0.139 SA
HETATM   18  C5  UNL     1     107.005 -18.004 -10.971  1.00  0.00     0.092 C 
ENDBRANCH  11  17
BRANCH  12  19
HETATM   19  O3  UNL     1     105.196 -16.911 -14.756  1.00  0.00    -0.385 OA
HETATM   20  C7  UNL     1     106.183 -15.996 -14.959  1.00  0.00     0.202 C 
ENDBRANCH  12  19
BRANCH  13  21
HETATM   21  O4  UNL     1     105.696 -18.920 -16.552  1.00  0.00    -0.390 OA
ATOM     22  H4  UNL     1     104.999 -18.760 -17.178  1.00  0.00     0.210 HD
ENDBRANCH  13  21
ENDBRANCH   7   8
ENDBRANCH   1   7
BRANCH   2  23
HETATM   23  O6  UNL     1     104.682 -21.602 -18.010  1.00  0.00    -0.329 OA
BRANCH  23  24
HETATM   24  C12 UNL     1     105.869 -22.113 -17.531  1.00  0.00     0.265 C 
HETATM   25  C13 UNL     1     106.823 -22.519 -18.628  1.00  0.00     0.095 C 
HETATM   26  C14 UNL     1     108.060 -23.082 -17.939  1.00  0.00     0.153 C 
HETATM   27  C15 UNL     1     107.628 -24.365 -17.269  1.00  0.00     0.170 C 
HETATM   28  C16 UNL     1     106.122 -24.386 -17.160  1.00  0.00     0.205 C 
HETATM   29  O9  UNL     1     105.604 -23.184 -16.718  1.00  0.00    -0.358 OA
BRANCH  26  30
HETATM   30  O7  UNL     1     109.089 -23.255 -18.834  1.00  0.00    -0.393 OA
ATOM     31  H7  UNL     1     109.905 -23.441 -18.384  1.00  0.00     0.210 HD
ENDBRANCH  26  30
BRANCH  27  32
HETATM   32  O8  UNL     1     108.073 -25.419 -18.052  1.00  0.00    -0.391 OA
ATOM     33  H8  UNL     1     108.652 -25.950 -17.518  1.00  0.00     0.210 HD
ENDBRANCH  27  32
ENDBRANCH  23  24
ENDBRANCH   2  23
BRANCH   6  34
HETATM   34  O13 UNL     1     102.858 -23.509 -15.297  1.00  0.00    -0.390 OA
ATOM     35  H13 UNL     1     102.904 -23.786 -16.204  1.00  0.00     0.210 HD
ENDBRANCH   6  34
BRANCH   5  36
HETATM   36  O12 UNL     1     100.112 -23.014 -15.567  1.00  0.00    -0.376 OA
BRANCH  36  37
HETATM   37  C20 UNL     1      99.628 -22.564 -14.372  1.00  0.00     0.114 C 
HETATM   38  C21 UNL     1      98.142 -22.284 -14.395  1.00  0.00     0.039 C 
HETATM   39  C22 UNL     1      99.863 -23.666 -13.345  1.00  0.00     0.039 C 
ENDBRANCH  36  37
ENDBRANCH   5  36
BRANCH   4  40
HETATM   40  C18 UNL     1     101.139 -23.832 -17.818  1.00  0.00     0.198 C 
BRANCH  40  41
HETATM   41  O11 UNL     1      99.912 -23.932 -18.515  1.00  0.00    -0.398 OA
ATOM     42  H11 UNL     1      99.536 -24.747 -18.203  1.00  0.00     0.209 HD
ENDBRANCH  40  41
ENDBRANCH   4  40
TORSDOF 16
ENDMDL
MODEL 3
REMARK VINA RESULT: -7.455655702      1.684      2.275
REMARK  16 active torsions:
REMARK  status: ('A' for Active; 'I' for Inactive)
REMARK    1  A    between atoms: C2_2  and  O1_3 
REMARK    2  A    between atoms: O1_3  and  C3_4 
REMARK    3  A    between atoms: C4_6  and  S1_7 
REMARK    4  A    between atoms: C6_9  and  O3_10 
REMARK    5  A    between atoms: C8_12  and  O4_13 
REMARK    6  A    between atoms: C9_15  and  O5_16 
REMARK    7  A    between atoms: O5_16  and  C10_17 
REMARK    8  A    between atoms: C11_18  and  O6_19 
REMARK    9  A    between atoms: O6_19  and  C12_20 
REMARK   10  A    between atoms: C14_22  and  O7_23 
REMARK   11  A    between atoms: C15_25  and  O8_26 
REMARK   12  A    between atoms: C17_31  and  C18_32 
REMARK   13  A    between atoms: C18_32  and  O11_33 
REMARK   14  A    between atoms: C19_35  and  O12_36 
REMARK   15  A    between atoms: O12_36  and  C20_37 
REMARK   16  A    between atoms: C23_40  and  O13_41 
ROOT
HETATM    1  C10 UNL     1     101.824 -21.530 -15.195  1.00  0.00     0.208 C 
HETATM    2  C11 UNL     1     101.721 -22.259 -16.515  1.00  0.00     0.295 C 
HETATM    3  O10 UNL     1     100.509 -22.146 -17.111  1.00  0.00    -0.348 OA
HETATM    4  C17 UNL     1      99.406 -22.415 -16.369  1.00  0.00     0.179 C 
HETATM    5  C19 UNL     1      99.478 -22.165 -14.900  1.00  0.00     0.184 C 
HETATM    6  C23 UNL     1     100.830 -22.325 -14.320  1.00  0.00     0.183 C 
ENDROOT
BRANCH   1   7
HETATM    7  O5  UNL     1     101.414 -20.226 -15.307  1.00  0.00    -0.365 OA
BRANCH   7   8
HETATM    8  C9  UNL     1     102.268 -19.251 -14.911  1.00  0.00     0.208 C 
HETATM    9  C3  UNL     1     101.993 -18.601 -13.583  1.00  0.00     0.292 C 
HETATM   10  O2  UNL     1     102.844 -19.039 -12.580  1.00  0.00    -0.340 OA
HETATM   11  C4  UNL     1     104.191 -18.839 -12.820  1.00  0.00     0.217 C 
HETATM   12  C6  UNL     1     104.515 -18.546 -14.242  1.00  0.00     0.191 C 
HETATM   13  C8  UNL     1     103.732 -19.624 -15.046  1.00  0.00     0.184 C 
BRANCH   9  14
HETATM   14  O1  UNL     1     100.694 -18.845 -13.107  1.00  0.00    -0.359 OA
BRANCH  14  15
HETATM   15  C2  UNL     1      99.763 -17.929 -13.596  1.00  0.00     0.166 C 
HETATM   16  C1  UNL     1     100.271 -16.512 -13.547  1.00  0.00     0.033 C 
ENDBRANCH  14  15
ENDBRANCH   9  14
BRANCH  11  17
HETATM   17  S1  UNL     1     104.933 -17.683 -11.644  1.00  0.00    -0.139 SA
HETATM   18  C5  UNL     1     106.684 -18.104 -11.466  1.00  0.00     0.092 C 
ENDBRANCH  11  17
BRANCH  12  19
HETATM   19  O3  UNL     1     104.222 -17.302 -14.710  1.00  0.00    -0.385 OA
HETATM   20  C7  UNL     1     105.250 -16.491 -15.082  1.00  0.00     0.202 C 
ENDBRANCH  12  19
BRANCH  13  21
HETATM   21  O4  UNL     1     104.174 -19.491 -16.359  1.00  0.00    -0.390 OA
ATOM     22  H4  UNL     1     103.953 -18.600 -16.606  1.00  0.00     0.210 HD
ENDBRANCH  13  21
ENDBRANCH   7   8
ENDBRANCH   1   7
BRANCH   2  23
HETATM   23  O6  UNL     1     102.732 -22.009 -17.406  1.00  0.00    -0.329 OA
BRANCH  23  24
HETATM   24  C12 UNL     1     103.624 -23.047 -17.573  1.00  0.00     0.265 C 
HETATM   25  C13 UNL     1     104.978 -22.767 -16.966  1.00  0.00     0.095 C 
HETATM   26  C14 UNL     1     105.843 -23.986 -17.259  1.00  0.00     0.153 C 
HETATM   27  C15 UNL     1     106.055 -24.009 -18.756  1.00  0.00     0.170 C 
HETATM   28  C16 UNL     1     105.025 -23.124 -19.417  1.00  0.00     0.205 C 
HETATM   29  O9  UNL     1     103.755 -23.318 -18.910  1.00  0.00    -0.358 OA
BRANCH  26  30
HETATM   30  O7  UNL     1     107.016 -23.942 -16.545  1.00  0.00    -0.393 OA
ATOM     31  H7  UNL     1     106.847 -23.962 -15.610  1.00  0.00     0.210 HD
ENDBRANCH  26  30
BRANCH  27  32
HETATM   32  O8  UNL     1     107.334 -23.535 -19.006  1.00  0.00    -0.391 OA
ATOM     33  H8  UNL     1     107.752 -23.378 -18.168  1.00  0.00     0.210 HD
ENDBRANCH  27  32
ENDBRANCH  23  24
ENDBRANCH   2  23
BRANCH   6  34
HETATM   34  O13 UNL     1     101.217 -23.659 -14.355  1.00  0.00    -0.390 OA
ATOM     35  H13 UNL     1     101.094 -23.969 -15.245  1.00  0.00     0.210 HD
ENDBRANCH   6  34
BRANCH   5  36
HETATM   36  O12 UNL     1      98.512 -22.934 -14.215  1.00  0.00    -0.376 OA
BRANCH  36  37
HETATM   37  C20 UNL     1      98.160 -22.329 -13.042  1.00  0.00     0.114 C 
HETATM   38  C21 UNL     1      97.592 -20.940 -13.234  1.00  0.00     0.039 C 
HETATM   39  C22 UNL     1      97.067 -23.178 -12.404  1.00  0.00     0.039 C 
ENDBRANCH  36  37
ENDBRANCH   5  36
BRANCH   4  40
HETATM   40  C18 UNL     1      99.096 -23.911 -16.558  1.00  0.00     0.198 C 
BRANCH  40  41
HETATM   41  O11 UNL     1      97.691 -23.952 -16.721  1.00  0.00    -0.398 OA
ATOM     42  H11 UNL     1      97.354 -23.861 -15.837  1.00  0.00     0.209 HD
ENDBRANCH  40  41
ENDBRANCH   4  40
TORSDOF 16
ENDMDL
MODEL 4
REMARK VINA RESULT: -7.210248487      1.628      2.068
REMARK  16 active torsions:
REMARK  status: ('A' for Active; 'I' for Inactive)
REMARK    1  A    between atoms: C2_2  and  O1_3 
REMARK    2  A    between atoms: O1_3  and  C3_4 
REMARK    3  A    between atoms: C4_6  and  S1_7 
REMARK    4  A    between atoms: C6_9  and  O3_10 
REMARK    5  A    between atoms: C8_12  and  O4_13 
REMARK    6  A    between atoms: C9_15  and  O5_16 
REMARK    7  A    between atoms: O5_16  and  C10_17 
REMARK    8  A    between atoms: C11_18  and  O6_19 
REMARK    9  A    between atoms: O6_19  and  C12_20 
REMARK   10  A    between atoms: C14_22  and  O7_23 
REMARK   11  A    between atoms: C15_25  and  O8_26 
REMARK   12  A    between atoms: C17_31  and  C18_32 
REMARK   13  A    between atoms: C18_32  and  O11_33 
REMARK   14  A    between atoms: C19_35  and  O12_36 
REMARK   15  A    between atoms: O12_36  and  C20_37 
REMARK   16  A    between atoms: C23_40  and  O13_41 
ROOT
HETATM    1  C10 UNL     1     102.789 -21.352 -16.030  1.00  0.00     0.208 C 
HETATM    2  C11 UNL     1     102.490 -22.089 -17.314  1.00  0.00     0.295 C 
HETATM    3  O10 UNL     1     101.188 -22.027 -17.691  1.00  0.00    -0.348 OA
HETATM    4  C17 UNL     1     100.242 -22.337 -16.770  1.00  0.00     0.179 C 
HETATM    5  C19 UNL     1     100.557 -22.080 -15.335  1.00  0.00     0.184 C 
HETATM    6  C23 UNL     1     101.994 -22.183 -14.999  1.00  0.00     0.183 C 
ENDROOT
BRANCH   1   7
HETATM    7  O5  UNL     1     102.314 -20.066 -16.064  1.00  0.00    -0.365 OA
BRANCH   7   8
HETATM    8  C9  UNL     1     103.009 -19.109 -15.403  1.00  0.00     0.208 C 
HETATM    9  C3  UNL     1     102.490 -18.697 -14.053  1.00  0.00     0.292 C 
HETATM   10  O2  UNL     1     103.226 -19.229 -13.005  1.00  0.00    -0.340 OA
HETATM   11  C4  UNL     1     104.569 -18.901 -13.002  1.00  0.00     0.217 C 
HETATM   12  C6  UNL     1     105.064 -18.365 -14.298  1.00  0.00     0.191 C 
HETATM   13  C8  UNL     1     104.506 -19.354 -15.362  1.00  0.00     0.184 C 
BRANCH   9  14
HETATM   14  O1  UNL     1     101.164 -19.103 -13.824  1.00  0.00    -0.359 OA
BRANCH  14  15
HETATM   15  C2  UNL     1     100.303 -18.025 -13.620  1.00  0.00     0.166 C 
HETATM   16  C1  UNL     1      99.750 -17.480 -14.910  1.00  0.00     0.033 C 
ENDBRANCH  14  15
ENDBRANCH   9  14
BRANCH  11  17
HETATM   17  S1  UNL     1     105.026 -17.898 -11.569  1.00  0.00    -0.139 SA
HETATM   18  C5  UNL     1     106.788 -18.151 -11.241  1.00  0.00     0.092 C 
ENDBRANCH  11  17
BRANCH  12  19
HETATM   19  O3  UNL     1     104.728 -17.086 -14.619  1.00  0.00    -0.385 OA
HETATM   20  C7  UNL     1     105.727 -16.179 -14.797  1.00  0.00     0.202 C 
ENDBRANCH  12  19
BRANCH  13  21
HETATM   21  O4  UNL     1     105.117 -18.985 -16.557  1.00  0.00    -0.390 OA
ATOM     22  H4  UNL     1     105.370 -18.077 -16.436  1.00  0.00     0.210 HD
ENDBRANCH  13  21
ENDBRANCH   7   8
ENDBRANCH   1   7
BRANCH   2  23
HETATM   23  O6  UNL     1     103.320 -21.803 -18.366  1.00  0.00    -0.329 OA
BRANCH  23  24
HETATM   24  C12 UNL     1     104.665 -21.928 -18.090  1.00  0.00     0.265 C 
HETATM   25  C13 UNL     1     105.537 -21.119 -19.019  1.00  0.00     0.095 C 
HETATM   26  C14 UNL     1     106.978 -21.388 -18.602  1.00  0.00     0.153 C 
HETATM   27  C15 UNL     1     107.254 -22.837 -18.931  1.00  0.00     0.170 C 
HETATM   28  C16 UNL     1     105.943 -23.560 -19.126  1.00  0.00     0.205 C 
HETATM   29  O9  UNL     1     105.015 -23.252 -18.150  1.00  0.00    -0.358 OA
BRANCH  26  30
HETATM   30  O7  UNL     1     107.842 -20.516 -19.221  1.00  0.00    -0.393 OA
ATOM     31  H7  UNL     1     107.378 -19.759 -19.559  1.00  0.00     0.210 HD
ENDBRANCH  26  30
BRANCH  27  32
HETATM   32  O8  UNL     1     108.004 -22.869 -20.096  1.00  0.00    -0.391 OA
ATOM     33  H8  UNL     1     108.459 -22.038 -20.168  1.00  0.00     0.210 HD
ENDBRANCH  27  32
ENDBRANCH  23  24
ENDBRANCH   2  23
BRANCH   6  34
HETATM   34  O13 UNL     1     102.422 -23.500 -15.105  1.00  0.00    -0.390 OA
ATOM     35  H13 UNL     1     101.671 -24.025 -15.356  1.00  0.00     0.210 HD
ENDBRANCH   6  34
BRANCH   5  36
HETATM   36  O12 UNL     1      99.756 -22.885 -14.496  1.00  0.00    -0.376 OA
BRANCH  36  37
HETATM   37  C20 UNL     1      99.365 -22.184 -13.391  1.00  0.00     0.114 C 
HETATM   38  C21 UNL     1      98.181 -21.278 -13.645  1.00  0.00     0.039 C 
HETATM   39  C22 UNL     1      98.936 -23.201 -12.339  1.00  0.00     0.039 C 
ENDBRANCH  36  37
ENDBRANCH   5  36
BRANCH   4  40
HETATM   40  C18 UNL     1      99.964 -23.846 -16.909  1.00  0.00     0.198 C 
BRANCH  40  41
HETATM   41  O11 UNL     1      98.556 -23.944 -16.822  1.00  0.00    -0.398 OA
ATOM     42  H11 UNL     1      98.372 -23.804 -15.901  1.00  0.00     0.209 HD
ENDBRANCH  40  41
ENDBRANCH   4  40
TORSDOF 16
ENDMDL
MODEL 5
REMARK VINA RESULT: -7.125746225      3.099      6.352
REMARK  16 active torsions:
REMARK  status: ('A' for Active; 'I' for Inactive)
REMARK    1  A    between atoms: C2_2  and  O1_3 
REMARK    2  A    between atoms: O1_3  and  C3_4 
REMARK    3  A    between atoms: C4_6  and  S1_7 
REMARK    4  A    between atoms: C6_9  and  O3_10 
REMARK    5  A    between atoms: C8_12  and  O4_13 
REMARK    6  A    between atoms: C9_15  and  O5_16 
REMARK    7  A    between atoms: O5_16  and  C10_17 
REMARK    8  A    between atoms: C11_18  and  O6_19 
REMARK    9  A    between atoms: O6_19  and  C12_20 
REMARK   10  A    between atoms: C14_22  and  O7_23 
REMARK   11  A    between atoms: C15_25  and  O8_26 
REMARK   12  A    between atoms: C17_31  and  C18_32 
REMARK   13  A    between atoms: C18_32  and  O11_33 
REMARK   14  A    between atoms: C19_35  and  O12_36 
REMARK   15  A    between atoms: O12_36  and  C20_37 
REMARK   16  A    between atoms: C23_40  and  O13_41 
ROOT
HETATM    1  C10 UNL     1     105.426 -23.092 -17.735  1.00  0.00     0.208 C 
HETATM    2  C11 UNL     1     106.852 -22.607 -17.614  1.00  0.00     0.295 C 
HETATM    3  O10 UNL     1     107.017 -21.302 -17.945  1.00  0.00    -0.348 OA
HETATM    4  C17 UNL     1     106.500 -20.872 -19.123  1.00  0.00     0.179 C 
HETATM    5  C19 UNL     1     105.289 -21.569 -19.646  1.00  0.00     0.184 C 
HETATM    6  C23 UNL     1     105.189 -22.993 -19.258  1.00  0.00     0.183 C 
ENDROOT
BRANCH   1   7
HETATM    7  O5  UNL     1     104.555 -22.268 -17.068  1.00  0.00    -0.365 OA
BRANCH   7   8
HETATM    8  C9  UNL     1     103.348 -22.769 -16.711  1.00  0.00     0.208 C 
HETATM    9  C3  UNL     1     102.210 -21.791 -16.598  1.00  0.00     0.292 C 
HETATM   10  O2  UNL     1     101.339 -21.848 -17.675  1.00  0.00    -0.340 OA
HETATM   11  C4  UNL     1     100.749 -23.079 -17.894  1.00  0.00     0.217 C 
HETATM   12  C6  UNL     1     101.423 -24.205 -17.191  1.00  0.00     0.191 C 
HETATM   13  C8  UNL     1     102.935 -23.999 -17.497  1.00  0.00     0.184 C 
BRANCH   9  14
HETATM   14  O1  UNL     1     102.636 -20.454 -16.530  1.00  0.00    -0.359 OA
BRANCH  14  15
HETATM   15  C2  UNL     1     101.958 -19.726 -15.552  1.00  0.00     0.166 C 
HETATM   16  C1  UNL     1     102.410 -20.076 -14.159  1.00  0.00     0.033 C 
ENDBRANCH  14  15
ENDBRANCH   9  14
BRANCH  11  17
HETATM   17  S1  UNL     1      98.958 -23.033 -17.658  1.00  0.00    -0.139 SA
HETATM   18  C5  UNL     1      98.176 -23.748 -19.125  1.00  0.00     0.092 C 
ENDBRANCH  11  17
BRANCH  12  19
HETATM   19  O3  UNL     1     101.223 -24.319 -15.850  1.00  0.00    -0.385 OA
HETATM   20  C7  UNL     1     100.022 -24.789 -15.412  1.00  0.00     0.202 C 
ENDBRANCH  12  19
BRANCH  13  21
HETATM   21  O4  UNL     1     103.562 -25.145 -17.016  1.00  0.00    -0.390 OA
ATOM     22  H4  UNL     1     104.445 -25.110 -17.365  1.00  0.00     0.210 HD
ENDBRANCH  13  21
ENDBRANCH   7   8
ENDBRANCH   1   7
BRANCH   2  23
HETATM   23  O6  UNL     1     107.474 -22.896 -16.428  1.00  0.00    -0.329 OA
BRANCH  23  24
HETATM   24  C12 UNL     1     108.848 -22.988 -16.504  1.00  0.00     0.265 C 
HETATM   25  C13 UNL     1     109.331 -24.390 -16.787  1.00  0.00     0.095 C 
HETATM   26  C14 UNL     1     110.853 -24.325 -16.811  1.00  0.00     0.153 C 
HETATM   27  C15 UNL     1     111.289 -24.013 -15.398  1.00  0.00     0.170 C 
HETATM   28  C16 UNL     1     110.111 -23.472 -14.623  1.00  0.00     0.205 C 
HETATM   29  O9  UNL     1     109.395 -22.529 -15.334  1.00  0.00    -0.358 OA
BRANCH  26  30
HETATM   30  O7  UNL     1     111.390 -25.492 -17.300  1.00  0.00    -0.393 OA
ATOM     31  H7  UNL     1     111.054 -26.246 -16.829  1.00  0.00     0.210 HD
ENDBRANCH  26  30
BRANCH  27  32
HETATM   32  O8  UNL     1     111.745 -25.191 -14.828  1.00  0.00    -0.391 OA
ATOM     33  H8  UNL     1     111.231 -25.904 -15.190  1.00  0.00     0.210 HD
ENDBRANCH  27  32
ENDBRANCH  23  24
ENDBRANCH   2  23
BRANCH   6  34
HETATM   34  O13 UNL     1     106.181 -23.736 -19.884  1.00  0.00    -0.390 OA
ATOM     35  H13 UNL     1     106.340 -23.342 -20.735  1.00  0.00     0.210 HD
ENDBRANCH   6  34
BRANCH   5  36
HETATM   36  O12 UNL     1     105.175 -21.390 -21.042  1.00  0.00    -0.376 OA
BRANCH  36  37
HETATM   37  C20 UNL     1     104.026 -20.718 -21.347  1.00  0.00     0.114 C 
HETATM   38  C21 UNL     1     104.273 -19.349 -21.941  1.00  0.00     0.039 C 
HETATM   39  C22 UNL     1     103.287 -21.538 -22.399  1.00  0.00     0.039 C 
ENDBRANCH  36  37
ENDBRANCH   5  36
BRANCH   4  40
HETATM   40  C18 UNL     1     107.607 -21.035 -20.180  1.00  0.00     0.198 C 
BRANCH  40  41
HETATM   41  O11 UNL     1     107.604 -19.801 -20.873  1.00  0.00    -0.398 OA
ATOM     42  H11 UNL     1     107.474 -20.048 -21.781  1.00  0.00     0.209 HD
ENDBRANCH  40  41
ENDBRANCH   4  40
TORSDOF 16
ENDMDL
