MODEL 1
REMARK VINA RESULT: -8.689056659      0.000      0.000
REMARK  15 active torsions:
REMARK  status: ('A' for Active; 'I' for Inactive)
REMARK    1  A    between atoms: C2_2  and  O1_3 
REMARK    2  A    between atoms: O1_3  and  N1_4 
REMARK    3  A    between atoms: N1_4  and  C3_6 
REMARK    4  A    between atoms: C5_11  and  C6_12 
REMARK       I    between atoms: C6_12  and  N3_14 
REMARK    5  A    between atoms: N3_14  and  C7_16 
REMARK    6  A    between atoms: C7_16  and  O4_17 
REMARK    7  A    between atoms: C7_16  and  C8_19 
REMARK    8  A    between atoms: C8_19  and  C9_20 
REMARK    9  A    between atoms: C8_19  and  O5_26 
REMARK   10  A    between atoms: C9_20  and  C10_21 
REMARK   11  A    between atoms: C10_21  and  N4_22 
REMARK   12  A    between atoms: O5_26  and  C11_27 
REMARK   13  A    between atoms: C12_28  and  O6_29 
REMARK   14  A    between atoms: O6_29  and  C13_30 
REMARK   15  A    between atoms: C22_41  and  O9_42 
ROOT
HETATM    1  C8  UNL     1     105.124 -21.687 -19.712  1.00  0.00     0.181 C 
ENDROOT
BRANCH   1   2
HETATM    2  C7  UNL     1     103.955 -21.484 -20.479  1.00  0.00     0.250 C 
BRANCH   2   3
HETATM    3  N3  UNL     1     103.125 -21.888 -21.555  1.00  0.00    -0.327 N 
HETATM    4  C6  UNL     1     101.696 -21.630 -21.354  1.00  0.00     0.277 C 
HETATM    5  O3  UNL     1     101.325 -21.251 -20.191  1.00  0.00    -0.266 OA
ATOM      6  H3  UNL     1     103.493 -22.324 -22.401  1.00  0.00     0.165 HD
BRANCH   4   7
HETATM    7  C5  UNL     1     100.673 -21.709 -22.339  1.00  0.00     0.185 A 
HETATM    8  C4  UNL     1     100.782 -20.372 -22.963  1.00  0.00     0.293 A 
HETATM    9  N2  UNL     1      99.897 -20.024 -23.908  1.00  0.00    -0.151 N 
HETATM   10  O2  UNL     1     101.654 -19.606 -22.575  1.00  0.00    -0.265 OA
HETATM   11  C3  UNL     1      98.994 -20.903 -24.184  1.00  0.00     0.721 A 
ATOM     12  H2  UNL     1      99.936 -19.120 -24.380  1.00  0.00     0.188 HD
HETATM   13  N6  UNL     1      98.828 -22.174 -23.678  1.00  0.00    -0.126 N 
HETATM   14  N5  UNL     1      99.759 -22.497 -22.722  1.00  0.00    -0.275 N 
HETATM   15  C23 UNL     1      97.743 -22.956 -24.144  1.00  0.00     0.197 C 
ATOM     16  H5  UNL     1      99.711 -23.422 -22.298  1.00  0.00     0.188 HD
BRANCH  11  17
HETATM   17  N1  UNL     1      97.850 -20.424 -24.610  1.00  0.00    -0.095 N 
ATOM     18  H1  UNL     1      97.237 -21.223 -24.452  1.00  0.00     0.213 HD
BRANCH  17  19
HETATM   19  O1  UNL     1      97.114 -19.672 -25.045  1.00  0.00    -0.267 OA
BRANCH  19  20
HETATM   20  C2  UNL     1      95.926 -19.470 -25.736  1.00  0.00     0.197 C 
HETATM   21  C1  UNL     1      95.898 -20.952 -26.434  1.00  0.00     0.036 C 
ENDBRANCH  19  20
ENDBRANCH  17  19
ENDBRANCH  11  17
ENDBRANCH   4   7
ENDBRANCH   2   3
BRANCH   2  22
HETATM   22  O4  UNL     1     104.274 -20.097 -21.110  1.00  0.00    -0.374 OA
ATOM     23  H4  UNL     1     103.441 -19.718 -20.854  1.00  0.00     0.212 HD
ENDBRANCH   2  22
ENDBRANCH   1   2
BRANCH   1  24
HETATM   24  C9  UNL     1     106.302 -20.781 -19.840  1.00  0.00     0.064 C 
BRANCH  24  25
HETATM   25  C10 UNL     1     107.684 -21.347 -19.818  1.00  0.00     0.232 C 
BRANCH  25  26
HETATM   26  N4  UNL     1     107.928 -22.721 -19.603  1.00  0.00    -0.079 N 
ATOM     27  H43 UNL     1     108.933 -22.841 -19.474  1.00  0.00     0.274 HD
ATOM     28  H42 UNL     1     107.563 -22.961 -18.682  1.00  0.00     0.274 HD
ATOM     29  H41 UNL     1     107.612 -23.436 -20.258  1.00  0.00     0.274 HD
ENDBRANCH  25  26
ENDBRANCH  24  25
ENDBRANCH   1  24
BRANCH   1  30
HETATM   30  O5  UNL     1     104.949 -22.258 -18.405  1.00  0.00    -0.317 OA
BRANCH  30  31
HETATM   31  C11 UNL     1     103.667 -22.390 -17.973  1.00  0.00     0.243 C 
HETATM   32  C12 UNL     1     103.119 -21.471 -17.223  1.00  0.00     0.241 C 
HETATM   33  O7  UNL     1     101.796 -21.662 -16.822  1.00  0.00    -0.310 OA
HETATM   34  C15 UNL     1     101.304 -22.941 -16.370  1.00  0.00     0.124 C 
HETATM   35  C16 UNL     1      99.910 -23.075 -17.008  1.00  0.00     0.070 C 
HETATM   36  C21 UNL     1     101.268 -22.910 -14.876  1.00  0.00     0.081 C 
HETATM   37  C22 UNL     1     102.148 -24.020 -16.990  1.00  0.00     0.301 C 
HETATM   38  C17 UNL     1      99.075 -24.044 -16.293  1.00  0.00     0.172 C 
HETATM   39  O8  UNL     1      99.440 -24.333 -14.980  1.00  0.00    -0.381 OA
HETATM   40  C18 UNL     1      99.889 -23.193 -14.321  1.00  0.00     0.056 C 
HETATM   41  C19 UNL     1     100.109 -23.506 -12.860  1.00  0.00     0.045 C 
HETATM   42  C20 UNL     1      98.948 -22.026 -14.417  1.00  0.00     0.045 C 
HETATM   43  O10 UNL     1     102.761 -23.490 -18.231  1.00  0.00    -0.292 OA
BRANCH  32  44
HETATM   44  O6  UNL     1     103.691 -20.260 -16.733  1.00  0.00    -0.327 OA
BRANCH  44  45
HETATM   45  C13 UNL     1     103.954 -20.342 -15.314  1.00  0.00     0.173 C 
HETATM   46  C14 UNL     1     103.183 -19.315 -14.582  1.00  0.00     0.034 C 
ENDBRANCH  44  45
ENDBRANCH  32  44
BRANCH  37  47
HETATM   47  O9  UNL     1     103.167 -24.492 -16.226  1.00  0.00    -0.368 OA
ATOM     48  H9  UNL     1     103.812 -25.027 -16.674  1.00  0.00     0.212 HD
ENDBRANCH  37  47
ENDBRANCH  30  31
ENDBRANCH   1  30
TORSDOF 15
ENDMDL
MODEL 2
REMARK VINA RESULT: -8.619439598      1.593      2.205
REMARK  15 active torsions:
REMARK  status: ('A' for Active; 'I' for Inactive)
REMARK    1  A    between atoms: C2_2  and  O1_3 
REMARK    2  A    between atoms: O1_3  and  N1_4 
REMARK    3  A    between atoms: N1_4  and  C3_6 
REMARK    4  A    between atoms: C5_11  and  C6_12 
REMARK       I    between atoms: C6_12  and  N3_14 
REMARK    5  A    between atoms: N3_14  and  C7_16 
REMARK    6  A    between atoms: C7_16  and  O4_17 
REMARK    7  A    between atoms: C7_16  and  C8_19 
REMARK    8  A    between atoms: C8_19  and  C9_20 
REMARK    9  A    between atoms: C8_19  and  O5_26 
REMARK   10  A    between atoms: C9_20  and  C10_21 
REMARK   11  A    between atoms: C10_21  and  N4_22 
REMARK   12  A    between atoms: O5_26  and  C11_27 
REMARK   13  A    between atoms: C12_28  and  O6_29 
REMARK   14  A    between atoms: O6_29  and  C13_30 
REMARK   15  A    between atoms: C22_41  and  O9_42 
ROOT
HETATM    1  C8  UNL     1     106.100 -22.334 -18.341  1.00  0.00     0.181 C 
ENDROOT
BRANCH   1   2
HETATM    2  C7  UNL     1     105.382 -22.437 -19.554  1.00  0.00     0.250 C 
BRANCH   2   3
HETATM    3  N3  UNL     1     104.162 -22.711 -20.221  1.00  0.00    -0.327 N 
HETATM    4  C6  UNL     1     103.624 -21.587 -20.995  1.00  0.00     0.277 C 
HETATM    5  O3  UNL     1     104.187 -20.449 -20.848  1.00  0.00    -0.266 OA
ATOM      6  H3  UNL     1     103.696 -23.617 -20.168  1.00  0.00     0.165 HD
BRANCH   4   7
HETATM    7  C5  UNL     1     102.563 -21.639 -21.940  1.00  0.00     0.185 A 
HETATM    8  C4  UNL     1     101.391 -21.718 -21.041  1.00  0.00     0.293 A 
HETATM    9  N2  UNL     1     100.172 -21.872 -21.577  1.00  0.00    -0.151 N 
HETATM   10  O2  UNL     1     101.569 -21.675 -19.831  1.00  0.00    -0.265 OA
HETATM   11  C3  UNL     1     100.130 -21.959 -22.863  1.00  0.00     0.721 A 
ATOM     12  H2  UNL     1      99.329 -21.919 -21.003  1.00  0.00     0.188 HD
HETATM   13  N6  UNL     1     101.157 -21.872 -23.779  1.00  0.00    -0.126 N 
HETATM   14  N5  UNL     1     102.386 -21.703 -23.192  1.00  0.00    -0.275 N 
HETATM   15  C23 UNL     1     100.853 -22.003 -25.156  1.00  0.00     0.197 C 
ATOM     16  H5  UNL     1     103.202 -21.625 -23.799  1.00  0.00     0.188 HD
BRANCH  11  17
HETATM   17  N1  UNL     1      99.137 -22.662 -23.351  1.00  0.00    -0.095 N 
ATOM     18  H1  UNL     1      99.281 -22.531 -24.352  1.00  0.00     0.213 HD
BRANCH  17  19
HETATM   19  O1  UNL     1      98.213 -23.329 -23.354  1.00  0.00    -0.267 OA
BRANCH  19  20
HETATM   20  C2  UNL     1      97.167 -23.867 -24.092  1.00  0.00     0.197 C 
HETATM   21  C1  UNL     1      97.085 -22.633 -25.167  1.00  0.00     0.036 C 
ENDBRANCH  19  20
ENDBRANCH  17  19
ENDBRANCH  11  17
ENDBRANCH   4   7
ENDBRANCH   2   3
BRANCH   2  22
HETATM   22  O4  UNL     1     106.134 -23.627 -20.221  1.00  0.00    -0.374 OA
ATOM     23  H4  UNL     1     106.629 -23.835 -19.438  1.00  0.00     0.212 HD
ENDBRANCH   2  22
ENDBRANCH   1   2
BRANCH   1  24
HETATM   24  C9  UNL     1     107.589 -22.258 -18.325  1.00  0.00     0.064 C 
BRANCH  24  25
HETATM   25  C10 UNL     1     108.389 -23.385 -17.759  1.00  0.00     0.232 C 
BRANCH  25  26
HETATM   26  N4  UNL     1     108.034 -24.735 -17.971  1.00  0.00    -0.079 N 
ATOM     27  H43 UNL     1     107.208 -24.931 -17.406  1.00  0.00     0.274 HD
ATOM     28  H42 UNL     1     107.669 -24.815 -18.920  1.00  0.00     0.274 HD
ATOM     29  H41 UNL     1     108.696 -25.497 -17.828  1.00  0.00     0.274 HD
ENDBRANCH  25  26
ENDBRANCH  24  25
ENDBRANCH   1  24
BRANCH   1  30
HETATM   30  O5  UNL     1     105.455 -21.634 -17.265  1.00  0.00    -0.317 OA
BRANCH  30  31
HETATM   31  C11 UNL     1     104.130 -21.884 -17.094  1.00  0.00     0.243 C 
HETATM   32  C12 UNL     1     103.362 -21.021 -16.482  1.00  0.00     0.241 C 
HETATM   33  O7  UNL     1     102.009 -21.332 -16.350  1.00  0.00    -0.310 OA
HETATM   34  C15 UNL     1     101.554 -22.652 -15.984  1.00  0.00     0.124 C 
HETATM   35  C16 UNL     1     100.332 -22.911 -16.884  1.00  0.00     0.070 C 
HETATM   36  C21 UNL     1     101.218 -22.629 -14.529  1.00  0.00     0.081 C 
HETATM   37  C22 UNL     1     102.598 -23.648 -16.407  1.00  0.00     0.301 C 
HETATM   38  C17 UNL     1      99.462 -23.955 -16.335  1.00  0.00     0.172 C 
HETATM   39  O8  UNL     1      99.582 -24.212 -14.971  1.00  0.00    -0.381 OA
HETATM   40  C18 UNL     1      99.787 -23.038 -14.254  1.00  0.00     0.056 C 
HETATM   41  C19 UNL     1      99.738 -23.334 -12.774  1.00  0.00     0.045 C 
HETATM   42  C20 UNL     1      98.783 -21.962 -14.553  1.00  0.00     0.045 C 
HETATM   43  O10 UNL     1     103.396 -23.061 -17.510  1.00  0.00    -0.292 OA
BRANCH  32  44
HETATM   44  O6  UNL     1     103.715 -19.764 -15.907  1.00  0.00    -0.327 OA
BRANCH  44  45
HETATM   45  C13 UNL     1     102.645 -19.248 -15.083  1.00  0.00     0.173 C 
HETATM   46  C14 UNL     1     103.043 -19.239 -13.660  1.00  0.00     0.034 C 
ENDBRANCH  44  45
ENDBRANCH  32  44
BRANCH  37  47
HETATM   47  O9  UNL     1     103.483 -24.027 -15.449  1.00  0.00    -0.368 OA
ATOM     48  H9  UNL     1     103.972 -24.822 -15.624  1.00  0.00     0.212 HD
ENDBRANCH  37  47
ENDBRANCH  30  31
ENDBRANCH   1  30
TORSDOF 15
ENDMDL
MODEL 3
REMARK VINA RESULT: -8.481798225      2.452      3.177
REMARK  15 active torsions:
REMARK  status: ('A' for Active; 'I' for Inactive)
REMARK    1  A    between atoms: C2_2  and  O1_3 
REMARK    2  A    between atoms: O1_3  and  N1_4 
REMARK    3  A    between atoms: N1_4  and  C3_6 
REMARK    4  A    between atoms: C5_11  and  C6_12 
REMARK       I    between atoms: C6_12  and  N3_14 
REMARK    5  A    between atoms: N3_14  and  C7_16 
REMARK    6  A    between atoms: C7_16  and  O4_17 
REMARK    7  A    between atoms: C7_16  and  C8_19 
REMARK    8  A    between atoms: C8_19  and  C9_20 
REMARK    9  A    between atoms: C8_19  and  O5_26 
REMARK   10  A    between atoms: C9_20  and  C10_21 
REMARK   11  A    between atoms: C10_21  and  N4_22 
REMARK   12  A    between atoms: O5_26  and  C11_27 
REMARK   13  A    between atoms: C12_28  and  O6_29 
REMARK   14  A    between atoms: O6_29  and  C13_30 
REMARK   15  A    between atoms: C22_41  and  O9_42 
ROOT
HETATM    1  C8  UNL     1     106.724 -21.691 -18.240  1.00  0.00     0.181 C 
ENDROOT
BRANCH   1   2
HETATM    2  C7  UNL     1     106.379 -20.499 -18.916  1.00  0.00     0.250 C 
BRANCH   2   3
HETATM    3  N3  UNL     1     105.516 -19.819 -19.812  1.00  0.00    -0.327 N 
HETATM    4  C6  UNL     1     104.933 -20.666 -20.858  1.00  0.00     0.277 C 
HETATM    5  O3  UNL     1     105.388 -21.854 -20.974  1.00  0.00    -0.266 OA
ATOM      6  H3  UNL     1     105.316 -18.821 -19.735  1.00  0.00     0.165 HD
BRANCH   4   7
HETATM    7  C5  UNL     1     103.868 -20.318 -21.734  1.00  0.00     0.185 A 
HETATM    8  C4  UNL     1     104.498 -19.241 -22.527  1.00  0.00     0.293 A 
HETATM    9  N2  UNL     1     103.758 -18.582 -23.430  1.00  0.00    -0.151 N 
HETATM   10  O2  UNL     1     105.670 -18.956 -22.314  1.00  0.00    -0.265 OA
HETATM   11  C3  UNL     1     102.523 -18.944 -23.516  1.00  0.00     0.721 A 
ATOM     12  H2  UNL     1     104.147 -17.839 -24.012  1.00  0.00     0.188 HD
HETATM   13  N6  UNL     1     101.857 -19.946 -22.843  1.00  0.00    -0.126 N 
HETATM   14  N5  UNL     1     102.651 -20.603 -21.937  1.00  0.00    -0.275 N 
HETATM   15  C23 UNL     1     100.482 -20.150 -23.114  1.00  0.00     0.197 C 
ATOM     16  H5  UNL     1     102.238 -21.363 -21.398  1.00  0.00     0.188 HD
BRANCH  11  17
HETATM   17  N1  UNL     1     101.685 -18.011 -23.899  1.00  0.00    -0.095 N 
ATOM     18  H1  UNL     1     100.801 -18.401 -23.574  1.00  0.00     0.213 HD
BRANCH  17  19
HETATM   19  O1  UNL     1     101.329 -17.036 -24.368  1.00  0.00    -0.267 OA
BRANCH  19  20
HETATM   20  C2  UNL     1     100.590 -15.870 -24.213  1.00  0.00     0.197 C 
HETATM   21  C1  UNL     1     101.228 -15.473 -22.758  1.00  0.00     0.036 C 
ENDBRANCH  19  20
ENDBRANCH  17  19
ENDBRANCH  11  17
ENDBRANCH   4   7
ENDBRANCH   2   3
BRANCH   2  22
HETATM   22  O4  UNL     1     107.631 -20.324 -19.827  1.00  0.00    -0.374 OA
ATOM     23  H4  UNL     1     107.128 -20.360 -20.632  1.00  0.00     0.212 HD
ENDBRANCH   2  22
ENDBRANCH   1   2
BRANCH   1  24
HETATM   24  C9  UNL     1     108.065 -22.322 -18.415  1.00  0.00     0.064 C 
BRANCH  24  25
HETATM   25  C10 UNL     1     108.453 -23.494 -17.576  1.00  0.00     0.232 C 
BRANCH  25  26
HETATM   26  N4  UNL     1     108.086 -24.814 -17.917  1.00  0.00    -0.079 N 
ATOM     27  H43 UNL     1     107.714 -25.259 -17.077  1.00  0.00     0.274 HD
ATOM     28  H42 UNL     1     107.261 -24.762 -18.515  1.00  0.00     0.274 HD
ATOM     29  H41 UNL     1     108.742 -25.464 -18.348  1.00  0.00     0.274 HD
ENDBRANCH  25  26
ENDBRANCH  24  25
ENDBRANCH   1  24
BRANCH   1  30
HETATM   30  O5  UNL     1     106.132 -21.896 -16.948  1.00  0.00    -0.317 OA
BRANCH  30  31
HETATM   31  C11 UNL     1     104.784 -22.061 -16.923  1.00  0.00     0.243 C 
HETATM   32  C12 UNL     1     104.024 -21.244 -16.244  1.00  0.00     0.241 C 
HETATM   33  O7  UNL     1     102.646 -21.463 -16.269  1.00  0.00    -0.310 OA
HETATM   34  C15 UNL     1     102.073 -22.782 -16.155  1.00  0.00     0.124 C 
HETATM   35  C16 UNL     1     100.922 -22.802 -17.178  1.00  0.00     0.070 C 
HETATM   36  C21 UNL     1     101.609 -22.955 -14.745  1.00  0.00     0.081 C 
HETATM   37  C22 UNL     1     103.082 -23.782 -16.648  1.00  0.00     0.301 C 
HETATM   38  C17 UNL     1      99.939 -23.844 -16.872  1.00  0.00     0.172 C 
HETATM   39  O8  UNL     1      99.918 -24.316 -15.561  1.00  0.00    -0.381 OA
HETATM   40  C18 UNL     1     100.135 -23.285 -14.652  1.00  0.00     0.056 C 
HETATM   41  C19 UNL     1      99.934 -23.799 -13.247  1.00  0.00     0.045 C 
HETATM   42  C20 UNL     1      99.236 -22.099 -14.854  1.00  0.00     0.045 C 
HETATM   43  O10 UNL     1     104.013 -23.099 -17.578  1.00  0.00    -0.292 OA
BRANCH  32  44
HETATM   44  O6  UNL     1     104.406 -20.122 -15.451  1.00  0.00    -0.327 OA
BRANCH  44  45
HETATM   45  C13 UNL     1     103.253 -19.345 -15.053  1.00  0.00     0.173 C 
HETATM   46  C14 UNL     1     103.179 -19.240 -13.581  1.00  0.00     0.034 C 
ENDBRANCH  44  45
ENDBRANCH  32  44
BRANCH  37  47
HETATM   47  O9  UNL     1     103.849 -24.373 -15.696  1.00  0.00    -0.368 OA
ATOM     48  H9  UNL     1     103.529 -24.310 -14.804  1.00  0.00     0.212 HD
ENDBRANCH  37  47
ENDBRANCH  30  31
ENDBRANCH   1  30
TORSDOF 15
ENDMDL
MODEL 4
REMARK VINA RESULT: -8.384562826      1.302      1.563
REMARK  15 active torsions:
REMARK  status: ('A' for Active; 'I' for Inactive)
REMARK    1  A    between atoms: C2_2  and  O1_3 
REMARK    2  A    between atoms: O1_3  and  N1_4 
REMARK    3  A    between atoms: N1_4  and  C3_6 
REMARK    4  A    between atoms: C5_11  and  C6_12 
REMARK       I    between atoms: C6_12  and  N3_14 
REMARK    5  A    between atoms: N3_14  and  C7_16 
REMARK    6  A    between atoms: C7_16  and  O4_17 
REMARK    7  A    between atoms: C7_16  and  C8_19 
REMARK    8  A    between atoms: C8_19  and  C9_20 
REMARK    9  A    between atoms: C8_19  and  O5_26 
REMARK   10  A    between atoms: C9_20  and  C10_21 
REMARK   11  A    between atoms: C10_21  and  N4_22 
REMARK   12  A    between atoms: O5_26  and  C11_27 
REMARK   13  A    between atoms: C12_28  and  O6_29 
REMARK   14  A    between atoms: O6_29  and  C13_30 
REMARK   15  A    between atoms: C22_41  and  O9_42 
ROOT
HETATM    1  C8  UNL     1     105.425 -21.832 -18.409  1.00  0.00     0.181 C 
ENDROOT
BRANCH   1   2
HETATM    2  C7  UNL     1     104.644 -21.848 -19.587  1.00  0.00     0.250 C 
BRANCH   2   3
HETATM    3  N3  UNL     1     103.387 -21.652 -20.211  1.00  0.00    -0.327 N 
HETATM    4  C6  UNL     1     103.446 -21.503 -21.669  1.00  0.00     0.277 C 
HETATM    5  O3  UNL     1     104.600 -21.380 -22.201  1.00  0.00    -0.266 OA
ATOM      6  H3  UNL     1     102.511 -21.617 -19.688  1.00  0.00     0.165 HD
BRANCH   4   7
HETATM    7  C5  UNL     1     102.345 -21.532 -22.570  1.00  0.00     0.185 A 
HETATM    8  C4  UNL     1     101.914 -20.118 -22.530  1.00  0.00     0.293 A 
HETATM    9  N2  UNL     1     100.814 -19.756 -23.205  1.00  0.00    -0.151 N 
HETATM   10  O2  UNL     1     102.552 -19.323 -21.852  1.00  0.00    -0.265 OA
HETATM   11  C3  UNL     1     100.203 -20.703 -23.833  1.00  0.00     0.721 A 
ATOM     12  H2  UNL     1     100.480 -18.792 -23.221  1.00  0.00     0.188 HD
HETATM   13  N6  UNL     1     100.540 -22.035 -23.949  1.00  0.00    -0.126 N 
HETATM   14  N5  UNL     1     101.676 -22.362 -23.253  1.00  0.00    -0.275 N 
HETATM   15  C23 UNL     1      99.696 -22.888 -24.700  1.00  0.00     0.197 C 
ATOM     16  H5  UNL     1     102.000 -23.329 -23.288  1.00  0.00     0.188 HD
BRANCH  11  17
HETATM   17  N1  UNL     1      98.910 -20.541 -23.982  1.00  0.00    -0.095 N 
ATOM     18  H1  UNL     1      98.620 -21.495 -24.195  1.00  0.00     0.213 HD
BRANCH  17  19
HETATM   19  O1  UNL     1      97.909 -20.000 -24.021  1.00  0.00    -0.267 OA
BRANCH  19  20
HETATM   20  C2  UNL     1      97.033 -19.221 -24.766  1.00  0.00     0.197 C 
HETATM   21  C1  UNL     1      96.501 -20.447 -25.712  1.00  0.00     0.036 C 
ENDBRANCH  19  20
ENDBRANCH  17  19
ENDBRANCH  11  17
ENDBRANCH   4   7
ENDBRANCH   2   3
BRANCH   2  22
HETATM   22  O4  UNL     1     104.696 -23.365 -19.935  1.00  0.00    -0.374 OA
ATOM     23  H4  UNL     1     103.760 -23.487 -19.826  1.00  0.00     0.212 HD
ENDBRANCH   2  22
ENDBRANCH   1   2
BRANCH   1  24
HETATM   24  C9  UNL     1     106.906 -21.661 -18.462  1.00  0.00     0.064 C 
BRANCH  24  25
HETATM   25  C10 UNL     1     107.799 -22.853 -18.358  1.00  0.00     0.232 C 
BRANCH  25  26
HETATM   26  N4  UNL     1     107.324 -24.166 -18.568  1.00  0.00    -0.079 N 
ATOM     27  H43 UNL     1     106.316 -24.112 -18.716  1.00  0.00     0.274 HD
ATOM     28  H42 UNL     1     107.659 -24.475 -19.480  1.00  0.00     0.274 HD
ATOM     29  H41 UNL     1     107.499 -24.918 -17.902  1.00  0.00     0.274 HD
ENDBRANCH  25  26
ENDBRANCH  24  25
ENDBRANCH   1  24
BRANCH   1  30
HETATM   30  O5  UNL     1     104.804 -21.298 -17.229  1.00  0.00    -0.317 OA
BRANCH  30  31
HETATM   31  C11 UNL     1     103.510 -21.655 -17.016  1.00  0.00     0.243 C 
HETATM   32  C12 UNL     1     102.697 -20.862 -16.369  1.00  0.00     0.241 C 
HETATM   33  O7  UNL     1     101.379 -21.282 -16.195  1.00  0.00    -0.310 OA
HETATM   34  C15 UNL     1     101.044 -22.638 -15.829  1.00  0.00     0.124 C 
HETATM   35  C16 UNL     1      99.816 -22.986 -16.690  1.00  0.00     0.070 C 
HETATM   36  C21 UNL     1     100.757 -22.654 -14.363  1.00  0.00     0.081 C 
HETATM   37  C22 UNL     1     102.149 -23.543 -16.298  1.00  0.00     0.301 C 
HETATM   38  C17 UNL     1      99.052 -24.101 -16.124  1.00  0.00     0.172 C 
HETATM   39  O8  UNL     1      99.239 -24.360 -14.768  1.00  0.00    -0.381 OA
HETATM   40  C18 UNL     1      99.374 -23.179 -14.044  1.00  0.00     0.056 C 
HETATM   41  C19 UNL     1      99.401 -23.491 -12.567  1.00  0.00     0.045 C 
HETATM   42  C20 UNL     1      98.277 -22.185 -14.297  1.00  0.00     0.045 C 
HETATM   43  O10 UNL     1     102.859 -22.884 -17.421  1.00  0.00    -0.292 OA
BRANCH  32  44
HETATM   44  O6  UNL     1     102.968 -19.586 -15.792  1.00  0.00    -0.327 OA
BRANCH  44  45
HETATM   45  C13 UNL     1     101.825 -19.092 -15.057  1.00  0.00     0.173 C 
HETATM   46  C14 UNL     1     102.210 -17.945 -14.207  1.00  0.00     0.034 C 
ENDBRANCH  44  45
ENDBRANCH  32  44
BRANCH  37  47
HETATM   47  O9  UNL     1     103.094 -23.858 -15.375  1.00  0.00    -0.368 OA
ATOM     48  H9  UNL     1     103.540 -24.687 -15.500  1.00  0.00     0.212 HD
ENDBRANCH  37  47
ENDBRANCH  30  31
ENDBRANCH   1  30
TORSDOF 15
ENDMDL
MODEL 5
REMARK VINA RESULT: -8.345583355      1.838      2.706
REMARK  15 active torsions:
REMARK  status: ('A' for Active; 'I' for Inactive)
REMARK    1  A    between atoms: C2_2  and  O1_3 
REMARK    2  A    between atoms: O1_3  and  N1_4 
REMARK    3  A    between atoms: N1_4  and  C3_6 
REMARK    4  A    between atoms: C5_11  and  C6_12 
REMARK       I    between atoms: C6_12  and  N3_14 
REMARK    5  A    between atoms: N3_14  and  C7_16 
REMARK    6  A    between atoms: C7_16  and  O4_17 
REMARK    7  A    between atoms: C7_16  and  C8_19 
REMARK    8  A    between atoms: C8_19  and  C9_20 
REMARK    9  A    between atoms: C8_19  and  O5_26 
REMARK   10  A    between atoms: C9_20  and  C10_21 
REMARK   11  A    between atoms: C10_21  and  N4_22 
REMARK   12  A    between atoms: O5_26  and  C11_27 
REMARK   13  A    between atoms: C12_28  and  O6_29 
REMARK   14  A    between atoms: O6_29  and  C13_30 
REMARK   15  A    between atoms: C22_41  and  O9_42 
ROOT
HETATM    1  C8  UNL     1     104.837 -21.859 -20.537  1.00  0.00     0.181 C 
ENDROOT
BRANCH   1   2
HETATM    2  C7  UNL     1     103.707 -21.448 -21.279  1.00  0.00     0.250 C 
BRANCH   2   3
HETATM    3  N3  UNL     1     102.355 -21.661 -21.649  1.00  0.00    -0.327 N 
HETATM    4  C6  UNL     1     101.799 -20.642 -22.544  1.00  0.00     0.277 C 
HETATM    5  O3  UNL     1     102.501 -19.594 -22.750  1.00  0.00    -0.266 OA
ATOM      6  H3  UNL     1     101.813 -22.460 -21.318  1.00  0.00     0.165 HD
BRANCH   4   7
HETATM    7  C5  UNL     1     100.570 -20.717 -23.256  1.00  0.00     0.185 A 
HETATM    8  C4  UNL     1     100.757 -21.979 -24.004  1.00  0.00     0.293 A 
HETATM    9  N2  UNL     1      99.817 -22.358 -24.882  1.00  0.00    -0.151 N 
HETATM   10  O2  UNL     1     101.781 -22.626 -23.828  1.00  0.00    -0.265 OA
HETATM   11  C3  UNL     1      98.814 -21.557 -25.012  1.00  0.00     0.721 A 
ATOM     12  H2  UNL     1      99.891 -23.226 -25.414  1.00  0.00     0.188 HD
HETATM   13  N6  UNL     1      98.542 -20.382 -24.346  1.00  0.00    -0.126 N 
HETATM   14  N5  UNL     1      99.522 -20.034 -23.450  1.00  0.00    -0.275 N 
HETATM   15  C23 UNL     1      97.362 -19.672 -24.674  1.00  0.00     0.197 C 
ATOM     16  H5  UNL     1      99.398 -19.178 -22.910  1.00  0.00     0.188 HD
BRANCH  11  17
HETATM   17  N1  UNL     1      98.234 -21.566 -26.188  1.00  0.00    -0.095 N 
ATOM     18  H1  UNL     1      98.214 -20.568 -26.399  1.00  0.00     0.213 HD
BRANCH  17  19
HETATM   19  O1  UNL     1      97.737 -21.991 -27.120  1.00  0.00    -0.267 OA
BRANCH  19  20
HETATM   20  C2  UNL     1      97.286 -21.754 -28.412  1.00  0.00     0.197 C 
HETATM   21  C1  UNL     1      98.568 -22.452 -29.156  1.00  0.00     0.036 C 
ENDBRANCH  19  20
ENDBRANCH  17  19
ENDBRANCH  11  17
ENDBRANCH   4   7
ENDBRANCH   2   3
BRANCH   2  22
HETATM   22  O4  UNL     1     104.241 -21.642 -22.729  1.00  0.00    -0.374 OA
ATOM     23  H4  UNL     1     104.666 -20.793 -22.754  1.00  0.00     0.212 HD
ENDBRANCH   2  22
ENDBRANCH   1   2
BRANCH   1  24
HETATM   24  C9  UNL     1     105.895 -20.889 -20.134  1.00  0.00     0.064 C 
BRANCH  24  25
HETATM   25  C10 UNL     1     107.170 -21.382 -19.533  1.00  0.00     0.232 C 
BRANCH  25  26
HETATM   26  N4  UNL     1     107.663 -22.681 -19.783  1.00  0.00    -0.079 N 
ATOM     27  H43 UNL     1     107.526 -23.233 -18.936  1.00  0.00     0.274 HD
ATOM     28  H42 UNL     1     107.027 -23.133 -20.440  1.00  0.00     0.274 HD
ATOM     29  H41 UNL     1     108.615 -22.845 -20.110  1.00  0.00     0.274 HD
ENDBRANCH  25  26
ENDBRANCH  24  25
ENDBRANCH   1  24
BRANCH   1  30
HETATM   30  O5  UNL     1     104.647 -22.951 -19.623  1.00  0.00    -0.317 OA
BRANCH  30  31
HETATM   31  C11 UNL     1     103.832 -22.713 -18.562  1.00  0.00     0.243 C 
HETATM   32  C12 UNL     1     103.861 -23.488 -17.511  1.00  0.00     0.241 C 
HETATM   33  O7  UNL     1     103.006 -23.182 -16.452  1.00  0.00    -0.310 OA
HETATM   34  C15 UNL     1     101.634 -22.785 -16.659  1.00  0.00     0.124 C 
HETATM   35  C16 UNL     1     101.399 -21.642 -15.654  1.00  0.00     0.070 C 
HETATM   36  C21 UNL     1     100.773 -23.979 -16.404  1.00  0.00     0.081 C 
HETATM   37  C22 UNL     1     101.520 -22.165 -18.024  1.00  0.00     0.301 C 
HETATM   38  C17 UNL     1      99.974 -21.448 -15.373  1.00  0.00     0.172 C 
HETATM   39  O8  UNL     1      99.132 -22.525 -15.648  1.00  0.00    -0.381 OA
HETATM   40  C18 UNL     1      99.740 -23.734 -15.325  1.00  0.00     0.056 C 
HETATM   41  C19 UNL     1      98.742 -24.857 -15.472  1.00  0.00     0.045 C 
HETATM   42  C20 UNL     1     100.299 -23.778 -13.932  1.00  0.00     0.045 C 
HETATM   43  O10 UNL     1     102.852 -21.654 -18.427  1.00  0.00    -0.292 OA
BRANCH  32  44
HETATM   44  O6  UNL     1     104.664 -24.643 -17.277  1.00  0.00    -0.327 OA
BRANCH  44  45
HETATM   45  C13 UNL     1     106.025 -24.277 -16.953  1.00  0.00     0.173 C 
HETATM   46  C14 UNL     1     106.964 -25.335 -17.380  1.00  0.00     0.034 C 
ENDBRANCH  44  45
ENDBRANCH  32  44
BRANCH  37  47
HETATM   47  O9  UNL     1     101.105 -22.990 -19.020  1.00  0.00    -0.368 OA
ATOM     48  H9  UNL     1     101.302 -23.913 -18.907  1.00  0.00     0.212 HD
ENDBRANCH  37  47
ENDBRANCH  30  31
ENDBRANCH   1  30
TORSDOF 15
ENDMDL
