MODEL 1
REMARK VINA RESULT: -4.425788081      0.000      0.000
REMARK  5 active torsions:
REMARK  status: ('A' for Active; 'I' for Inactive)
REMARK    1  A    between atoms: C2_2  and  C3_3 
REMARK    2  A    between atoms: C3_3  and  C5_5 
REMARK    3  A    between atoms: C5_5  and  O1_6 
REMARK    4  A    between atoms: C5_5  and  C6_10 
REMARK    5  A    between atoms: O1_6  and  N1_7 
ROOT
HETATM    1  C5  UNL     1     -10.884  18.757  -9.391  1.00  0.00     0.187 C 
ENDROOT
BRANCH   1   2
HETATM    2  C3  UNL     1     -11.434  19.098 -10.764  1.00  0.00     0.015 C 
HETATM    3  C4  UNL     1     -12.422  18.006 -11.100  1.00  0.00     0.012 C 
BRANCH   2   4
HETATM    4  C2  UNL     1     -12.086  20.462 -10.725  1.00  0.00     0.002 C 
HETATM    5  C1  UNL     1     -13.574  20.397 -10.703  1.00  0.00     0.005 C 
ENDBRANCH   2   4
ENDBRANCH   1   2
BRANCH   1   6
HETATM    6  O1  UNL     1      -9.625  18.176  -9.593  1.00  0.00    -0.279 OA
BRANCH   6   7
HETATM    7  N1  UNL     1      -8.954  18.745 -10.602  1.00  0.00    -0.311 N 
ATOM      8  H12 UNL     1      -8.007  19.111 -10.500  1.00  0.00     0.184 HD
ATOM      9  H11 UNL     1      -9.493  18.766 -11.467  1.00  0.00     0.184 HD
ENDBRANCH   6   7
ENDBRANCH   1   6
BRANCH   1  10
HETATM   10  C6  UNL     1     -11.787  17.786  -8.659  1.00  0.00     0.243 A 
HETATM   11  C7  UNL     1     -11.653  17.654  -7.166  1.00  0.00     0.268 A 
HETATM   12  N2  UNL     1     -12.756  18.364  -7.770  1.00  0.00    -0.065 N 
ATOM     13  H22 UNL     1     -13.127  19.308  -7.656  1.00  0.00     0.277 HD
ATOM     14  H21 UNL     1     -13.770  18.280  -7.690  1.00  0.00     0.277 HD
ENDBRANCH   1  10
TORSDOF 5
ENDMDL
MODEL 2
REMARK VINA RESULT: -4.343024767      2.166      3.656
REMARK  5 active torsions:
REMARK  status: ('A' for Active; 'I' for Inactive)
REMARK    1  A    between atoms: C2_2  and  C3_3 
REMARK    2  A    between atoms: C3_3  and  C5_5 
REMARK    3  A    between atoms: C5_5  and  O1_6 
REMARK    4  A    between atoms: C5_5  and  C6_10 
REMARK    5  A    between atoms: O1_6  and  N1_7 
ROOT
HETATM    1  C5  UNL     1     -11.230  18.130  -9.151  1.00  0.00     0.187 C 
ENDROOT
BRANCH   1   2
HETATM    2  C3  UNL     1      -9.732  17.899  -9.244  1.00  0.00     0.015 C 
HETATM    3  C4  UNL     1      -9.549  16.405  -9.373  1.00  0.00     0.012 C 
BRANCH   2   4
HETATM    4  C2  UNL     1      -9.177  18.646 -10.435  1.00  0.00     0.002 C 
HETATM    5  C1  UNL     1      -7.721  18.408 -10.645  1.00  0.00     0.005 C 
ENDBRANCH   2   4
ENDBRANCH   1   2
BRANCH   1   6
HETATM    6  O1  UNL     1     -11.731  17.173  -8.259  1.00  0.00    -0.279 OA
BRANCH   6   7
HETATM    7  N1  UNL     1     -11.682  17.582  -6.986  1.00  0.00    -0.311 N 
ATOM      8  H12 UNL     1     -10.877  18.070  -6.592  1.00  0.00     0.184 HD
ATOM      9  H11 UNL     1     -12.530  17.353  -6.468  1.00  0.00     0.184 HD
ENDBRANCH   6   7
ENDBRANCH   1   6
BRANCH   1  10
HETATM   10  C6  UNL     1     -11.898  17.975 -10.501  1.00  0.00     0.243 A 
HETATM   11  C7  UNL     1     -13.210  18.670 -10.747  1.00  0.00     0.268 A 
HETATM   12  N2  UNL     1     -11.974  19.156 -11.314  1.00  0.00    -0.065 N 
ATOM     13  H22 UNL     1     -11.497  20.058 -11.285  1.00  0.00     0.277 HD
ATOM     14  H21 UNL     1     -11.678  19.371 -12.267  1.00  0.00     0.277 HD
ENDBRANCH   1  10
TORSDOF 5
ENDMDL
MODEL 3
REMARK VINA RESULT: -4.229110739      1.492      2.633
REMARK  5 active torsions:
REMARK  status: ('A' for Active; 'I' for Inactive)
REMARK    1  A    between atoms: C2_2  and  C3_3 
REMARK    2  A    between atoms: C3_3  and  C5_5 
REMARK    3  A    between atoms: C5_5  and  O1_6 
REMARK    4  A    between atoms: C5_5  and  C6_10 
REMARK    5  A    between atoms: O1_6  and  N1_7 
ROOT
HETATM    1  C5  UNL     1     -11.639  17.784  -9.373  1.00  0.00     0.187 C 
ENDROOT
BRANCH   1   2
HETATM    2  C3  UNL     1     -12.160  18.701 -10.465  1.00  0.00     0.015 C 
HETATM    3  C4  UNL     1     -12.700  17.795 -11.546  1.00  0.00     0.012 C 
BRANCH   2   4
HETATM    4  C2  UNL     1     -13.228  19.609  -9.898  1.00  0.00     0.002 C 
HETATM    5  C1  UNL     1     -13.406  20.862 -10.684  1.00  0.00     0.005 C 
ENDBRANCH   2   4
ENDBRANCH   1   2
BRANCH   1   6
HETATM    6  O1  UNL     1     -12.439  18.005  -8.244  1.00  0.00    -0.279 OA
BRANCH   6   7
HETATM    7  N1  UNL     1     -11.846  17.612  -7.110  1.00  0.00    -0.311 N 
ATOM      8  H12 UNL     1     -11.319  16.741  -7.034  1.00  0.00     0.184 HD
ATOM      9  H11 UNL     1     -11.982  18.275  -6.347  1.00  0.00     0.184 HD
ENDBRANCH   6   7
ENDBRANCH   1   6
BRANCH   1  10
HETATM   10  C6  UNL     1     -10.192  18.083  -9.043  1.00  0.00     0.243 A 
HETATM   11  C7  UNL     1      -9.135  17.088  -9.441  1.00  0.00     0.268 A 
HETATM   12  N2  UNL     1      -9.321  18.327 -10.160  1.00  0.00    -0.065 N 
ATOM     13  H22 UNL     1      -9.487  18.549 -11.142  1.00  0.00     0.277 HD
ATOM     14  H21 UNL     1      -8.695  19.095 -10.404  1.00  0.00     0.277 HD
ENDBRANCH   1  10
TORSDOF 5
ENDMDL
MODEL 4
REMARK VINA RESULT: -4.026359923      2.589      3.478
REMARK  5 active torsions:
REMARK  status: ('A' for Active; 'I' for Inactive)
REMARK    1  A    between atoms: C2_2  and  C3_3 
REMARK    2  A    between atoms: C3_3  and  C5_5 
REMARK    3  A    between atoms: C5_5  and  O1_6 
REMARK    4  A    between atoms: C5_5  and  C6_10 
REMARK    5  A    between atoms: O1_6  and  N1_7 
ROOT
HETATM    1  C5  UNL     1     -10.169  18.218  -9.968  1.00  0.00     0.187 C 
ENDROOT
BRANCH   1   2
HETATM    2  C3  UNL     1      -8.658  18.177  -9.829  1.00  0.00     0.015 C 
HETATM    3  C4  UNL     1      -8.285  16.715  -9.776  1.00  0.00     0.012 C 
BRANCH   2   4
HETATM    4  C2  UNL     1      -8.022  18.885 -11.004  1.00  0.00     0.002 C 
HETATM    5  C1  UNL     1      -6.768  18.228 -11.471  1.00  0.00     0.005 C 
ENDBRANCH   2   4
ENDBRANCH   1   2
BRANCH   1   6
HETATM    6  O1  UNL     1     -10.459  19.169 -10.955  1.00  0.00    -0.279 OA
BRANCH   6   7
HETATM    7  N1  UNL     1     -11.708  19.058 -11.424  1.00  0.00    -0.311 N 
ATOM      8  H12 UNL     1     -12.467  18.641 -10.885  1.00  0.00     0.184 HD
ATOM      9  H11 UNL     1     -11.806  19.432 -12.368  1.00  0.00     0.184 HD
ENDBRANCH   6   7
ENDBRANCH   1   6
BRANCH   1  10
HETATM   10  C6  UNL     1     -10.834  18.609  -8.665  1.00  0.00     0.243 A 
HETATM   11  C7  UNL     1     -12.105  17.913  -8.260  1.00  0.00     0.268 A 
HETATM   12  N2  UNL     1     -10.841  17.615  -7.628  1.00  0.00    -0.065 N 
ATOM     13  H22 UNL     1     -10.318  16.751  -7.484  1.00  0.00     0.277 HD
ATOM     14  H21 UNL     1     -10.527  17.613  -6.658  1.00  0.00     0.277 HD
ENDBRANCH   1  10
TORSDOF 5
ENDMDL
MODEL 5
REMARK VINA RESULT: -3.871885198      2.170      3.966
REMARK  5 active torsions:
REMARK  status: ('A' for Active; 'I' for Inactive)
REMARK    1  A    between atoms: C2_2  and  C3_3 
REMARK    2  A    between atoms: C3_3  and  C5_5 
REMARK    3  A    between atoms: C5_5  and  O1_6 
REMARK    4  A    between atoms: C5_5  and  C6_10 
REMARK    5  A    between atoms: O1_6  and  N1_7 
ROOT
HETATM    1  C5  UNL     1     -11.470  18.206  -9.347  1.00  0.00     0.187 C 
ENDROOT
BRANCH   1   2
HETATM    2  C3  UNL     1     -10.226  17.498  -9.854  1.00  0.00     0.015 C 
HETATM    3  C4  UNL     1      -9.231  18.587 -10.178  1.00  0.00     0.012 C 
BRANCH   2   4
HETATM    4  C2  UNL     1      -9.711  16.555  -8.790  1.00  0.00     0.002 C 
HETATM    5  C1  UNL     1      -9.092  15.322  -9.354  1.00  0.00     0.005 C 
ENDBRANCH   2   4
ENDBRANCH   1   2
BRANCH   1   6
HETATM    6  O1  UNL     1     -11.989  17.419  -8.311  1.00  0.00    -0.279 OA
BRANCH   6   7
HETATM    7  N1  UNL     1     -12.430  18.153  -7.282  1.00  0.00    -0.311 N 
ATOM      8  H12 UNL     1     -12.069  19.083  -7.070  1.00  0.00     0.184 HD
ATOM      9  H11 UNL     1     -13.156  17.677  -6.746  1.00  0.00     0.184 HD
ENDBRANCH   6   7
ENDBRANCH   1   6
BRANCH   1  10
HETATM   10  C6  UNL     1     -12.504  18.360 -10.443  1.00  0.00     0.243 A 
HETATM   11  C7  UNL     1     -13.279  19.647 -10.535  1.00  0.00     0.268 A 
HETATM   12  N2  UNL     1     -12.215  19.333 -11.460  1.00  0.00    -0.065 N 
ATOM     13  H22 UNL     1     -11.364  19.822 -11.739  1.00  0.00     0.277 HD
ATOM     14  H21 UNL     1     -12.163  19.288 -12.478  1.00  0.00     0.277 HD
ENDBRANCH   1  10
TORSDOF 5
ENDMDL
