MODEL 1
REMARK VINA RESULT: -7.681594560      0.000      0.000
REMARK  8 active torsions:
REMARK  status: ('A' for Active; 'I' for Inactive)
REMARK    1  A    between atoms: C1_2  and  C2_4 
REMARK    2  A    between atoms: C3_8  and  C4_9 
REMARK    3  A    between atoms: C4_9  and  O2_10 
REMARK    4  A    between atoms: C4_9  and  N3_12 
REMARK       I    between atoms: N3_12  and  C5_13 
REMARK    5  A    between atoms: N3_12  and  C13_26 
REMARK    6  A    between atoms: C5_13  and  C6_15 
REMARK    7  A    between atoms: C6_15  and  C7_17 
REMARK    8  A    between atoms: C10_20  and  N4_21 
ROOT
HETATM    1  N3  UNL     1     -50.457  -3.982 -23.961  1.00  0.00    -0.254 N 
HETATM    2  C5  UNL     1     -50.178  -3.633 -22.632  1.00  0.00     0.305 C 
HETATM    3  O3  UNL     1     -50.090  -4.511 -21.750  1.00  0.00    -0.263 OA
ENDROOT
BRANCH   1   4
HETATM    4  C4  UNL     1     -50.630  -5.252 -24.502  1.00  0.00     0.171 C 
BRANCH   4   5
HETATM    5  C3  UNL     1     -49.886  -5.986 -25.491  1.00  0.00     0.099 A 
HETATM    6  S1  UNL     1     -49.430  -5.667 -27.092  1.00  0.00    -0.008 SA
HETATM    7  N2  UNL     1     -48.622  -7.069 -27.485  1.00  0.00    -0.320 N 
HETATM    8  C2  UNL     1     -48.704  -7.791 -26.368  1.00  0.00     0.130 A 
ATOM      9  H2  UNL     1     -48.173  -7.315 -28.368  1.00  0.00     0.174 HD
HETATM   10  C19 UNL     1     -49.345  -7.268 -25.325  1.00  0.00     0.101 A 
HETATM   11  N5  UNL     1     -49.500  -7.949 -24.053  1.00  0.00    -0.098 NA
BRANCH   8  12
HETATM   12  C1  UNL     1     -48.082  -9.146 -26.330  1.00  0.00     0.283 C 
HETATM   13  N1  UNL     1     -48.841 -10.242 -26.809  1.00  0.00    -0.056 NA
HETATM   14  O1  UNL     1     -46.928  -9.350 -25.894  1.00  0.00    -0.269 OA
ENDBRANCH   8  12
ENDBRANCH   4   5
BRANCH   4  15
HETATM   15  O2  UNL     1     -51.679  -5.876 -23.995  1.00  0.00    -0.345 OA
ATOM     16  H2  UNL     1     -52.219  -5.361 -23.407  1.00  0.00     0.219 HD
ENDBRANCH   4  15
ENDBRANCH   1   4
BRANCH   1  17
HETATM   17  C13 UNL     1     -50.597  -2.884 -24.936  1.00  0.00     0.044 A 
HETATM   18  C14 UNL     1     -49.494  -2.314 -25.501  1.00  0.00     0.030 A 
HETATM   19  C15 UNL     1     -49.612  -1.321 -26.453  1.00  0.00     0.002 A 
HETATM   20  C16 UNL     1     -50.839  -0.898 -26.838  1.00  0.00     0.000 A 
HETATM   21  C17 UNL     1     -51.987  -1.449 -26.291  1.00  0.00     0.002 A 
HETATM   22  C18 UNL     1     -51.842  -2.455 -25.328  1.00  0.00     0.030 A 
ENDBRANCH   1  17
BRANCH   2  23
HETATM   23  C6  UNL     1     -49.973  -2.271 -22.176  1.00  0.00     0.250 C 
HETATM   24  O4  UNL     1     -48.774  -1.875 -21.956  1.00  0.00    -0.281 OA
BRANCH  23  25
HETATM   25  C7  UNL     1     -51.005  -1.276 -21.935  1.00  0.00     0.020 A 
HETATM   26  C8  UNL     1     -51.985  -1.398 -20.997  1.00  0.00     0.018 A 
HETATM   27  C9  UNL     1     -52.941  -0.394 -20.807  1.00  0.00     0.037 A 
HETATM   28  C10 UNL     1     -52.942   0.763 -21.553  1.00  0.00     0.102 A 
HETATM   29  C11 UNL     1     -51.950   0.883 -22.501  1.00  0.00     0.037 A 
HETATM   30  C12 UNL     1     -51.003  -0.097 -22.699  1.00  0.00     0.018 A 
BRANCH  28  31
HETATM   31  N4  UNL     1     -53.892   1.796 -21.386  1.00  0.00    -0.116 N 
HETATM   32  O5  UNL     1     -54.776   2.044 -22.218  1.00  0.00    -0.532 OA
HETATM   33  O6  UNL     1     -53.859   2.580 -20.259  1.00  0.00    -0.532 OA
ENDBRANCH  28  31
ENDBRANCH  23  25
ENDBRANCH   2  23
TORSDOF 8
ENDMDL
MODEL 2
REMARK VINA RESULT: -7.507680573      2.736      3.308
REMARK  8 active torsions:
REMARK  status: ('A' for Active; 'I' for Inactive)
REMARK    1  A    between atoms: C1_2  and  C2_4 
REMARK    2  A    between atoms: C3_8  and  C4_9 
REMARK    3  A    between atoms: C4_9  and  O2_10 
REMARK    4  A    between atoms: C4_9  and  N3_12 
REMARK       I    between atoms: N3_12  and  C5_13 
REMARK    5  A    between atoms: N3_12  and  C13_26 
REMARK    6  A    between atoms: C5_13  and  C6_15 
REMARK    7  A    between atoms: C6_15  and  C7_17 
REMARK    8  A    between atoms: C10_20  and  N4_21 
ROOT
HETATM    1  N3  UNL     1     -49.453  -2.664 -22.832  1.00  0.00    -0.254 N 
HETATM    2  C5  UNL     1     -49.604  -3.005 -21.481  1.00  0.00     0.305 C 
HETATM    3  O3  UNL     1     -48.674  -3.557 -20.858  1.00  0.00    -0.263 OA
ENDROOT
BRANCH   1   4
HETATM    4  C4  UNL     1     -48.334  -2.823 -23.644  1.00  0.00     0.171 C 
BRANCH   4   5
HETATM    5  C3  UNL     1     -48.038  -3.747 -24.705  1.00  0.00     0.099 A 
HETATM    6  S1  UNL     1     -47.359  -5.300 -24.754  1.00  0.00    -0.008 SA
HETATM    7  N2  UNL     1     -47.362  -5.605 -26.391  1.00  0.00    -0.320 N 
HETATM    8  C2  UNL     1     -47.894  -4.497 -26.906  1.00  0.00     0.130 A 
ATOM      9  H2  UNL     1     -47.035  -6.438 -26.880  1.00  0.00     0.174 HD
HETATM   10  C19 UNL     1     -48.253  -3.523 -26.072  1.00  0.00     0.101 A 
HETATM   11  N5  UNL     1     -48.845  -2.271 -26.505  1.00  0.00    -0.098 NA
BRANCH   8  12
HETATM   12  C1  UNL     1     -48.063  -4.389 -28.383  1.00  0.00     0.283 C 
HETATM   13  N1  UNL     1     -49.290  -4.816 -28.948  1.00  0.00    -0.056 NA
HETATM   14  O1  UNL     1     -47.171  -3.941 -29.136  1.00  0.00    -0.269 OA
ENDBRANCH   8  12
ENDBRANCH   4   5
BRANCH   4  15
HETATM   15  O2  UNL     1     -47.384  -1.948 -23.365  1.00  0.00    -0.345 OA
ATOM     16  H2  UNL     1     -46.496  -2.233 -23.545  1.00  0.00     0.219 HD
ENDBRANCH   4  15
ENDBRANCH   1   4
BRANCH   1  17
HETATM   17  C13 UNL     1     -50.614  -2.060 -23.513  1.00  0.00     0.044 A 
HETATM   18  C14 UNL     1     -50.687  -0.710 -23.693  1.00  0.00     0.030 A 
HETATM   19  C15 UNL     1     -51.744  -0.137 -24.374  1.00  0.00     0.002 A 
HETATM   20  C16 UNL     1     -52.729  -0.921 -24.873  1.00  0.00     0.000 A 
HETATM   21  C17 UNL     1     -52.696  -2.297 -24.714  1.00  0.00     0.002 A 
HETATM   22  C18 UNL     1     -51.614  -2.854 -24.020  1.00  0.00     0.030 A 
ENDBRANCH   1  17
BRANCH   2  23
HETATM   23  C6  UNL     1     -50.807  -2.757 -20.709  1.00  0.00     0.250 C 
HETATM   24  O4  UNL     1     -51.439  -3.760 -20.224  1.00  0.00    -0.281 OA
BRANCH  23  25
HETATM   25  C7  UNL     1     -51.392  -1.459 -20.415  1.00  0.00     0.020 A 
HETATM   26  C8  UNL     1     -50.687  -0.381 -19.971  1.00  0.00     0.018 A 
HETATM   27  C9  UNL     1     -51.311   0.845 -19.721  1.00  0.00     0.037 A 
HETATM   28  C10 UNL     1     -52.662   1.028 -19.908  1.00  0.00     0.102 A 
HETATM   29  C11 UNL     1     -53.372  -0.063 -20.356  1.00  0.00     0.037 A 
HETATM   30  C12 UNL     1     -52.772  -1.276 -20.608  1.00  0.00     0.018 A 
BRANCH  28  31
HETATM   31  N4  UNL     1     -53.323   2.253 -19.665  1.00  0.00    -0.116 N 
HETATM   32  O5  UNL     1     -54.049   2.810 -20.502  1.00  0.00    -0.532 OA
HETATM   33  O6  UNL     1     -53.173   2.884 -18.454  1.00  0.00    -0.532 OA
ENDBRANCH  28  31
ENDBRANCH  23  25
ENDBRANCH   2  23
TORSDOF 8
ENDMDL
MODEL 3
REMARK VINA RESULT: -7.430666342      2.750      8.291
REMARK  8 active torsions:
REMARK  status: ('A' for Active; 'I' for Inactive)
REMARK    1  A    between atoms: C1_2  and  C2_4 
REMARK    2  A    between atoms: C3_8  and  C4_9 
REMARK    3  A    between atoms: C4_9  and  O2_10 
REMARK    4  A    between atoms: C4_9  and  N3_12 
REMARK       I    between atoms: N3_12  and  C5_13 
REMARK    5  A    between atoms: N3_12  and  C13_26 
REMARK    6  A    between atoms: C5_13  and  C6_15 
REMARK    7  A    between atoms: C6_15  and  C7_17 
REMARK    8  A    between atoms: C10_20  and  N4_21 
ROOT
HETATM    1  N3  UNL     1     -50.566  -2.620 -23.587  1.00  0.00    -0.254 N 
HETATM    2  C5  UNL     1     -50.203  -3.970 -23.485  1.00  0.00     0.305 C 
HETATM    3  O3  UNL     1     -49.752  -4.426 -22.414  1.00  0.00    -0.263 OA
ENDROOT
BRANCH   1   4
HETATM    4  C4  UNL     1     -50.536  -1.639 -22.600  1.00  0.00     0.171 C 
BRANCH   4   5
HETATM    5  C3  UNL     1     -51.572  -1.054 -21.793  1.00  0.00     0.099 A 
HETATM    6  S1  UNL     1     -52.362  -1.530 -20.371  1.00  0.00    -0.008 SA
HETATM    7  N2  UNL     1     -53.436  -0.275 -20.159  1.00  0.00    -0.320 N 
HETATM    8  C2  UNL     1     -53.181   0.521 -21.197  1.00  0.00     0.130 A 
ATOM      9  H2  UNL     1     -54.123  -0.148 -19.416  1.00  0.00     0.174 HD
HETATM   10  C19 UNL     1     -52.232   0.155 -22.055  1.00  0.00     0.101 A 
HETATM   11  N5  UNL     1     -51.858   0.933 -23.221  1.00  0.00    -0.098 NA
BRANCH   8  12
HETATM   12  C1  UNL     1     -53.964   1.780 -21.358  1.00  0.00     0.283 C 
HETATM   13  N1  UNL     1     -53.794   2.801 -20.390  1.00  0.00    -0.056 NA
HETATM   14  O1  UNL     1     -54.758   1.968 -22.305  1.00  0.00    -0.269 OA
ENDBRANCH   8  12
ENDBRANCH   4   5
BRANCH   4  15
HETATM   15  O2  UNL     1     -49.315  -1.180 -22.387  1.00  0.00    -0.345 OA
ATOM     16  H2  UNL     1     -48.628  -1.834 -22.360  1.00  0.00     0.219 HD
ENDBRANCH   4  15
ENDBRANCH   1   4
BRANCH   1  17
HETATM   17  C13 UNL     1     -51.043  -2.143 -24.899  1.00  0.00     0.044 A 
HETATM   18  C14 UNL     1     -50.195  -1.500 -25.753  1.00  0.00     0.030 A 
HETATM   19  C15 UNL     1     -50.615  -1.094 -27.004  1.00  0.00     0.002 A 
HETATM   20  C16 UNL     1     -51.889  -1.333 -27.399  1.00  0.00     0.000 A 
HETATM   21  C17 UNL     1     -52.784  -1.983 -26.565  1.00  0.00     0.002 A 
HETATM   22  C18 UNL     1     -52.334  -2.385 -25.301  1.00  0.00     0.030 A 
ENDBRANCH   1  17
BRANCH   2  23
HETATM   23  C6  UNL     1     -50.314  -4.926 -24.570  1.00  0.00     0.250 C 
HETATM   24  O4  UNL     1     -51.157  -5.884 -24.456  1.00  0.00    -0.281 OA
BRANCH  23  25
HETATM   25  C7  UNL     1     -49.554  -4.917 -25.809  1.00  0.00     0.020 A 
HETATM   26  C8  UNL     1     -50.111  -4.963 -27.051  1.00  0.00     0.018 A 
HETATM   27  C9  UNL     1     -49.321  -4.936 -28.205  1.00  0.00     0.037 A 
HETATM   28  C10 UNL     1     -47.948  -4.864 -28.148  1.00  0.00     0.102 A 
HETATM   29  C11 UNL     1     -47.388  -4.819 -26.891  1.00  0.00     0.037 A 
HETATM   30  C12 UNL     1     -48.153  -4.844 -25.746  1.00  0.00     0.018 A 
BRANCH  28  31
HETATM   31  N4  UNL     1     -47.121  -4.836 -29.294  1.00  0.00    -0.116 N 
HETATM   32  O5  UNL     1     -47.355  -4.124 -30.281  1.00  0.00    -0.532 OA
HETATM   33  O6  UNL     1     -45.998  -5.625 -29.348  1.00  0.00    -0.532 OA
ENDBRANCH  28  31
ENDBRANCH  23  25
ENDBRANCH   2  23
TORSDOF 8
ENDMDL
MODEL 4
REMARK VINA RESULT: -7.255013835      1.222      1.500
REMARK  8 active torsions:
REMARK  status: ('A' for Active; 'I' for Inactive)
REMARK    1  A    between atoms: C1_2  and  C2_4 
REMARK    2  A    between atoms: C3_8  and  C4_9 
REMARK    3  A    between atoms: C4_9  and  O2_10 
REMARK    4  A    between atoms: C4_9  and  N3_12 
REMARK       I    between atoms: N3_12  and  C5_13 
REMARK    5  A    between atoms: N3_12  and  C13_26 
REMARK    6  A    between atoms: C5_13  and  C6_15 
REMARK    7  A    between atoms: C6_15  and  C7_17 
REMARK    8  A    between atoms: C10_20  and  N4_21 
ROOT
HETATM    1  N3  UNL     1     -50.414  -4.334 -23.276  1.00  0.00    -0.254 N 
HETATM    2  C5  UNL     1     -50.439  -3.807 -21.978  1.00  0.00     0.305 C 
HETATM    3  O3  UNL     1     -50.684  -4.541 -20.999  1.00  0.00    -0.263 OA
ENDROOT
BRANCH   1   4
HETATM    4  C4  UNL     1     -50.599  -5.654 -23.676  1.00  0.00     0.171 C 
BRANCH   4   5
HETATM    5  C3  UNL     1     -49.694  -6.769 -23.764  1.00  0.00     0.099 A 
HETATM    6  S1  UNL     1     -48.913  -7.739 -22.614  1.00  0.00    -0.008 SA
HETATM    7  N2  UNL     1     -48.037  -8.762 -23.593  1.00  0.00    -0.320 N 
HETATM    8  C2  UNL     1     -48.351  -8.351 -24.821  1.00  0.00     0.130 A 
ATOM      9  H2  UNL     1     -47.411  -9.520 -23.318  1.00  0.00     0.174 HD
HETATM   10  C19 UNL     1     -49.198  -7.332 -24.948  1.00  0.00     0.101 A 
HETATM   11  N5  UNL     1     -49.622  -6.793 -26.226  1.00  0.00    -0.098 NA
BRANCH   8  12
HETATM   12  C1  UNL     1     -47.746  -9.040 -25.996  1.00  0.00     0.283 C 
HETATM   13  N1  UNL     1     -48.411 -10.175 -26.521  1.00  0.00    -0.056 NA
HETATM   14  O1  UNL     1     -46.682  -8.659 -26.532  1.00  0.00    -0.269 OA
ENDBRANCH   8  12
ENDBRANCH   4   5
BRANCH   4  15
HETATM   15  O2  UNL     1     -51.846  -5.899 -24.038  1.00  0.00    -0.345 OA
ATOM     16  H2  UNL     1     -52.297  -6.566 -23.534  1.00  0.00     0.219 HD
ENDBRANCH   4  15
ENDBRANCH   1   4
BRANCH   1  17
HETATM   17  C13 UNL     1     -50.167  -3.394 -24.386  1.00  0.00     0.044 A 
HETATM   18  C14 UNL     1     -48.902  -3.191 -24.853  1.00  0.00     0.030 A 
HETATM   19  C15 UNL     1     -48.663  -2.353 -25.925  1.00  0.00     0.002 A 
HETATM   20  C16 UNL     1     -49.696  -1.717 -26.527  1.00  0.00     0.000 A 
HETATM   21  C17 UNL     1     -50.997  -1.893 -26.086  1.00  0.00     0.002 A 
HETATM   22  C18 UNL     1     -51.214  -2.749 -24.998  1.00  0.00     0.030 A 
ENDBRANCH   1  17
BRANCH   2  23
HETATM   23  C6  UNL     1     -50.190  -2.413 -21.662  1.00  0.00     0.250 C 
HETATM   24  O4  UNL     1     -48.981  -2.040 -21.454  1.00  0.00    -0.281 OA
BRANCH  23  25
HETATM   25  C7  UNL     1     -51.187  -1.361 -21.553  1.00  0.00     0.020 A 
HETATM   26  C8  UNL     1     -52.218  -1.369 -20.663  1.00  0.00     0.018 A 
HETATM   27  C9  UNL     1     -53.136  -0.315 -20.602  1.00  0.00     0.037 A 
HETATM   28  C10 UNL     1     -53.046   0.780 -21.431  1.00  0.00     0.102 A 
HETATM   29  C11 UNL     1     -52.004   0.785 -22.330  1.00  0.00     0.037 A 
HETATM   30  C12 UNL     1     -51.093  -0.245 -22.402  1.00  0.00     0.018 A 
BRANCH  28  31
HETATM   31  N4  UNL     1     -53.956   1.861 -21.394  1.00  0.00    -0.116 N 
HETATM   32  O5  UNL     1     -54.793   2.073 -22.283  1.00  0.00    -0.532 OA
HETATM   33  O6  UNL     1     -53.936   2.736 -20.336  1.00  0.00    -0.532 OA
ENDBRANCH  28  31
ENDBRANCH  23  25
ENDBRANCH   2  23
TORSDOF 8
ENDMDL
MODEL 5
REMARK VINA RESULT: -7.184606789      2.295      2.823
REMARK  8 active torsions:
REMARK  status: ('A' for Active; 'I' for Inactive)
REMARK    1  A    between atoms: C1_2  and  C2_4 
REMARK    2  A    between atoms: C3_8  and  C4_9 
REMARK    3  A    between atoms: C4_9  and  O2_10 
REMARK    4  A    between atoms: C4_9  and  N3_12 
REMARK       I    between atoms: N3_12  and  C5_13 
REMARK    5  A    between atoms: N3_12  and  C13_26 
REMARK    6  A    between atoms: C5_13  and  C6_15 
REMARK    7  A    between atoms: C6_15  and  C7_17 
REMARK    8  A    between atoms: C10_20  and  N4_21 
ROOT
HETATM    1  N3  UNL     1     -49.529  -2.590 -22.788  1.00  0.00    -0.254 N 
HETATM    2  C5  UNL     1     -49.708  -3.000 -21.460  1.00  0.00     0.305 C 
HETATM    3  O3  UNL     1     -48.810  -3.628 -20.863  1.00  0.00    -0.263 OA
ENDROOT
BRANCH   1   4
HETATM    4  C4  UNL     1     -48.411  -2.753 -23.600  1.00  0.00     0.171 C 
BRANCH   4   5
HETATM    5  C3  UNL     1     -48.259  -3.249 -24.942  1.00  0.00     0.099 A 
HETATM    6  S1  UNL     1     -48.611  -2.615 -26.474  1.00  0.00    -0.008 SA
HETATM    7  N2  UNL     1     -48.145  -3.872 -27.461  1.00  0.00    -0.320 N 
HETATM    8  C2  UNL     1     -47.712  -4.791 -26.599  1.00  0.00     0.130 A 
ATOM      9  H2  UNL     1     -48.182  -3.925 -28.479  1.00  0.00     0.174 HD
HETATM   10  C19 UNL     1     -47.755  -4.507 -25.299  1.00  0.00     0.101 A 
HETATM   11  N5  UNL     1     -47.312  -5.419 -24.261  1.00  0.00    -0.098 NA
BRANCH   8  12
HETATM   12  C1  UNL     1     -47.202  -6.093 -27.118  1.00  0.00     0.283 C 
HETATM   13  N1  UNL     1     -48.126  -7.154 -27.284  1.00  0.00    -0.056 NA
HETATM   14  O1  UNL     1     -46.000  -6.283 -27.408  1.00  0.00    -0.269 OA
ENDBRANCH   8  12
ENDBRANCH   4   5
BRANCH   4  15
HETATM   15  O2  UNL     1     -47.296  -2.374 -23.000  1.00  0.00    -0.345 OA
ATOM     16  H2  UNL     1     -46.705  -3.073 -22.750  1.00  0.00     0.219 HD
ENDBRANCH   4  15
ENDBRANCH   1   4
BRANCH   1  17
HETATM   17  C13 UNL     1     -50.656  -1.898 -23.442  1.00  0.00     0.044 A 
HETATM   18  C14 UNL     1     -50.653  -0.539 -23.572  1.00  0.00     0.030 A 
HETATM   19  C15 UNL     1     -51.677   0.117 -24.227  1.00  0.00     0.002 A 
HETATM   20  C16 UNL     1     -52.705  -0.591 -24.752  1.00  0.00     0.000 A 
HETATM   21  C17 UNL     1     -52.749  -1.972 -24.643  1.00  0.00     0.002 A 
HETATM   22  C18 UNL     1     -51.700  -2.615 -23.975  1.00  0.00     0.030 A 
ENDBRANCH   1  17
BRANCH   2  23
HETATM   23  C6  UNL     1     -50.906  -2.741 -20.684  1.00  0.00     0.250 C 
HETATM   24  O4  UNL     1     -51.550  -3.740 -20.204  1.00  0.00    -0.281 OA
BRANCH  23  25
HETATM   25  C7  UNL     1     -51.475  -1.438 -20.381  1.00  0.00     0.020 A 
HETATM   26  C8  UNL     1     -50.764  -0.386 -19.888  1.00  0.00     0.018 A 
HETATM   27  C9  UNL     1     -51.372   0.848 -19.632  1.00  0.00     0.037 A 
HETATM   28  C10 UNL     1     -52.712   1.063 -19.863  1.00  0.00     0.102 A 
HETATM   29  C11 UNL     1     -53.427  -0.002 -20.360  1.00  0.00     0.037 A 
HETATM   30  C12 UNL     1     -52.843  -1.222 -20.618  1.00  0.00     0.018 A 
BRANCH  28  31
HETATM   31  N4  UNL     1     -53.355   2.296 -19.615  1.00  0.00    -0.116 N 
HETATM   32  O5  UNL     1     -54.037   2.888 -20.464  1.00  0.00    -0.532 OA
HETATM   33  O6  UNL     1     -53.239   2.894 -18.383  1.00  0.00    -0.532 OA
ENDBRANCH  28  31
ENDBRANCH  23  25
ENDBRANCH   2  23
TORSDOF 8
ENDMDL
