MODEL 1
REMARK VINA RESULT: -7.756880516      0.000      0.000
REMARK  10 active torsions:
REMARK  status: ('A' for Active; 'I' for Inactive)
REMARK    1  A    between atoms: C2_3  and  C3_4 
REMARK    2  A    between atoms: C3_4  and  C4_5 
REMARK    3  A    between atoms: C10_12  and  C11_13 
REMARK    4  A    between atoms: C11_13  and  C12_14 
REMARK    5  A    between atoms: C12_14  and  C13_15 
REMARK    6  A    between atoms: C13_15  and  C14_16 
REMARK    7  A    between atoms: C17_21  and  O3_22 
REMARK    8  A    between atoms: N2_24  and  C18_25 
REMARK    9  A    between atoms: C18_25  and  C19_26 
REMARK   10  A    between atoms: C22_29  and  N3_30 
ROOT
HETATM    1  O1  UNL     1     -52.321  -1.600 -21.454  1.00  0.00    -0.267 OA
HETATM    2  C1  UNL     1     -51.118  -1.505 -21.782  1.00  0.00     0.258 A 
HETATM    3  C2  UNL     1     -50.328  -0.629 -21.073  1.00  0.00     0.035 A 
HETATM    4  C8  UNL     1     -49.005  -0.563 -21.476  1.00  0.00     0.019 A 
HETATM    5  C9  UNL     1     -48.507  -1.336 -22.535  1.00  0.00     0.031 A 
HETATM    6  C10 UNL     1     -49.354  -2.194 -23.204  1.00  0.00     0.037 A 
HETATM    7  N2  UNL     1     -50.673  -2.260 -22.803  1.00  0.00    -0.308 N 
ENDROOT
BRANCH   6   8
HETATM    8  C11 UNL     1     -48.954  -2.931 -24.182  1.00  0.00     0.030 C 
BRANCH   8   9
HETATM    9  C12 UNL     1     -48.395  -2.711 -25.465  1.00  0.00     0.003 C 
BRANCH   9  10
HETATM   10  C13 UNL     1     -48.831  -2.795 -26.677  1.00  0.00     0.016 C 
BRANCH  10  11
HETATM   11  C14 UNL     1     -48.536  -4.031 -27.468  1.00  0.00     0.016 A 
HETATM   12  C15 UNL     1     -47.457  -4.270 -28.273  1.00  0.00     0.033 A 
HETATM   13  C16 UNL     1     -47.568  -5.548 -28.824  1.00  0.00     0.091 A 
HETATM   14  N1  UNL     1     -48.705  -6.064 -28.348  1.00  0.00    -0.346 N 
HETATM   15  C17 UNL     1     -49.310  -5.176 -27.529  1.00  0.00     0.150 A 
ATOM     16  H1  UNL     1     -49.063  -6.993 -28.571  1.00  0.00     0.167 HD
BRANCH  15  17
HETATM   17  O3  UNL     1     -50.516  -5.364 -26.849  1.00  0.00    -0.345 OA
ATOM     18  H3  UNL     1     -50.711  -5.023 -25.985  1.00  0.00     0.219 HD
ENDBRANCH  15  17
ENDBRANCH  10  11
ENDBRANCH   9  10
ENDBRANCH   8   9
ENDBRANCH   6   8
BRANCH   7  19
HETATM   19  C18 UNL     1     -51.642  -3.113 -23.436  1.00  0.00     0.197 C 
BRANCH  19  20
HETATM   20  C19 UNL     1     -52.118  -2.614 -24.760  1.00  0.00     0.074 A 
HETATM   21  C20 UNL     1     -52.707  -1.358 -24.926  1.00  0.00     0.039 A 
HETATM   22  C21 UNL     1     -53.003  -1.268 -26.266  1.00  0.00     0.065 A 
HETATM   23  C22 UNL     1     -52.600  -2.445 -26.880  1.00  0.00     0.215 A 
HETATM   24  O6  UNL     1     -52.089  -3.188 -25.934  1.00  0.00    -0.291 OA
BRANCH  23  25
HETATM   25  N3  UNL     1     -52.729  -2.755 -28.270  1.00  0.00    -0.090 N 
HETATM   26  O4  UNL     1     -53.713  -2.377 -28.916  1.00  0.00    -0.530 OA
HETATM   27  O5  UNL     1     -51.753  -3.474 -28.887  1.00  0.00    -0.530 OA
ENDBRANCH  23  25
ENDBRANCH  19  20
ENDBRANCH   7  19
BRANCH   3  28
HETATM   28  C3  UNL     1     -50.775   0.104 -20.078  1.00  0.00     0.054 C 
BRANCH  28  29
HETATM   29  C4  UNL     1     -51.851   1.075 -20.154  1.00  0.00     0.075 A 
HETATM   30  C5  UNL     1     -52.484   1.557 -19.015  1.00  0.00     0.039 A 
HETATM   31  C6  UNL     1     -53.446   2.449 -19.432  1.00  0.00     0.027 A 
HETATM   32  C7  UNL     1     -53.351   2.465 -20.803  1.00  0.00     0.142 A 
HETATM   33  O2  UNL     1     -52.412   1.651 -21.160  1.00  0.00    -0.323 OA
ENDBRANCH  28  29
ENDBRANCH   3  28
TORSDOF 10
ENDMDL
MODEL 2
REMARK VINA RESULT: -7.702346495      2.401      8.451
REMARK  10 active torsions:
REMARK  status: ('A' for Active; 'I' for Inactive)
REMARK    1  A    between atoms: C2_3  and  C3_4 
REMARK    2  A    between atoms: C3_4  and  C4_5 
REMARK    3  A    between atoms: C10_12  and  C11_13 
REMARK    4  A    between atoms: C11_13  and  C12_14 
REMARK    5  A    between atoms: C12_14  and  C13_15 
REMARK    6  A    between atoms: C13_15  and  C14_16 
REMARK    7  A    between atoms: C17_21  and  O3_22 
REMARK    8  A    between atoms: N2_24  and  C18_25 
REMARK    9  A    between atoms: C18_25  and  C19_26 
REMARK   10  A    between atoms: C22_29  and  N3_30 
ROOT
HETATM    1  O1  UNL     1     -49.934  -5.171 -26.012  1.00  0.00    -0.267 OA
HETATM    2  C1  UNL     1     -49.823  -3.927 -26.081  1.00  0.00     0.258 A 
HETATM    3  C2  UNL     1     -48.761  -3.418 -26.794  1.00  0.00     0.035 A 
HETATM    4  C8  UNL     1     -48.684  -2.036 -26.840  1.00  0.00     0.019 A 
HETATM    5  C9  UNL     1     -49.625  -1.214 -26.203  1.00  0.00     0.031 A 
HETATM    6  C10 UNL     1     -50.665  -1.791 -25.504  1.00  0.00     0.037 A 
HETATM    7  N2  UNL     1     -50.742  -3.169 -25.457  1.00  0.00    -0.308 N 
ENDROOT
BRANCH   6   8
HETATM    8  C11 UNL     1     -51.561  -1.088 -24.900  1.00  0.00     0.030 C 
BRANCH   8   9
HETATM    9  C12 UNL     1     -51.573  -0.110 -23.876  1.00  0.00     0.003 C 
BRANCH   9  10
HETATM   10  C13 UNL     1     -52.329   0.893 -23.580  1.00  0.00     0.016 C 
BRANCH  10  11
HETATM   11  C14 UNL     1     -52.657   1.153 -22.144  1.00  0.00     0.016 A 
HETATM   12  C15 UNL     1     -51.875   0.906 -21.050  1.00  0.00     0.033 A 
HETATM   13  C16 UNL     1     -52.558   1.297 -19.897  1.00  0.00     0.091 A 
HETATM   14  N1  UNL     1     -53.738   1.774 -20.305  1.00  0.00    -0.346 N 
HETATM   15  C17 UNL     1     -53.828   1.701 -21.651  1.00  0.00     0.150 A 
ATOM     16  H1  UNL     1     -54.465   2.139 -19.689  1.00  0.00     0.167 HD
BRANCH  15  17
HETATM   17  O3  UNL     1     -54.913   2.106 -22.432  1.00  0.00    -0.345 OA
ATOM     18  H3  UNL     1     -55.736   2.433 -22.091  1.00  0.00     0.219 HD
ENDBRANCH  15  17
ENDBRANCH  10  11
ENDBRANCH   9  10
ENDBRANCH   8   9
ENDBRANCH   6   8
BRANCH   7  19
HETATM   19  C18 UNL     1     -51.778  -3.872 -24.751  1.00  0.00     0.197 C 
BRANCH  19  20
HETATM   20  C19 UNL     1     -51.482  -4.098 -23.306  1.00  0.00     0.074 A 
HETATM   21  C20 UNL     1     -50.927  -5.287 -22.825  1.00  0.00     0.039 A 
HETATM   22  C21 UNL     1     -50.807  -5.111 -21.466  1.00  0.00     0.065 A 
HETATM   23  C22 UNL     1     -51.281  -3.846 -21.148  1.00  0.00     0.215 A 
HETATM   24  O6  UNL     1     -51.660  -3.310 -22.278  1.00  0.00    -0.291 OA
BRANCH  23  25
HETATM   25  N3  UNL     1     -51.332  -3.272 -19.839  1.00  0.00    -0.090 N 
HETATM   26  O4  UNL     1     -52.112  -2.349 -19.581  1.00  0.00    -0.530 OA
HETATM   27  O5  UNL     1     -50.508  -3.751 -18.868  1.00  0.00    -0.530 OA
ENDBRANCH  23  25
ENDBRANCH  19  20
ENDBRANCH   7  19
BRANCH   3  28
HETATM   28  C3  UNL     1     -47.869  -4.171 -27.398  1.00  0.00     0.054 C 
BRANCH  28  29
HETATM   29  C4  UNL     1     -47.973  -4.698 -28.745  1.00  0.00     0.075 A 
HETATM   30  C5  UNL     1     -46.848  -5.028 -29.492  1.00  0.00     0.039 A 
HETATM   31  C6  UNL     1     -47.291  -5.491 -30.710  1.00  0.00     0.027 A 
HETATM   32  C7  UNL     1     -48.661  -5.421 -30.645  1.00  0.00     0.142 A 
HETATM   33  O2  UNL     1     -48.995  -4.955 -29.485  1.00  0.00    -0.323 OA
ENDBRANCH  28  29
ENDBRANCH   3  28
TORSDOF 10
ENDMDL
MODEL 3
REMARK VINA RESULT: -7.684295716      1.202      1.501
REMARK  10 active torsions:
REMARK  status: ('A' for Active; 'I' for Inactive)
REMARK    1  A    between atoms: C2_3  and  C3_4 
REMARK    2  A    between atoms: C3_4  and  C4_5 
REMARK    3  A    between atoms: C10_12  and  C11_13 
REMARK    4  A    between atoms: C11_13  and  C12_14 
REMARK    5  A    between atoms: C12_14  and  C13_15 
REMARK    6  A    between atoms: C13_15  and  C14_16 
REMARK    7  A    between atoms: C17_21  and  O3_22 
REMARK    8  A    between atoms: N2_24  and  C18_25 
REMARK    9  A    between atoms: C18_25  and  C19_26 
REMARK   10  A    between atoms: C22_29  and  N3_30 
ROOT
HETATM    1  O1  UNL     1     -52.668  -0.863 -21.508  1.00  0.00    -0.267 OA
HETATM    2  C1  UNL     1     -51.421  -0.862 -21.615  1.00  0.00     0.258 A 
HETATM    3  C2  UNL     1     -50.720   0.093 -20.914  1.00  0.00     0.035 A 
HETATM    4  C8  UNL     1     -49.344   0.050 -21.065  1.00  0.00     0.019 A 
HETATM    5  C9  UNL     1     -48.712  -0.902 -21.879  1.00  0.00     0.031 A 
HETATM    6  C10 UNL     1     -49.475  -1.831 -22.554  1.00  0.00     0.037 A 
HETATM    7  N2  UNL     1     -50.847  -1.788 -22.404  1.00  0.00    -0.308 N 
ENDROOT
BRANCH   6   8
HETATM    8  C11 UNL     1     -48.951  -2.730 -23.313  1.00  0.00     0.030 C 
BRANCH   8   9
HETATM    9  C12 UNL     1     -48.276  -2.750 -24.558  1.00  0.00     0.003 C 
BRANCH   9  10
HETATM   10  C13 UNL     1     -48.623  -2.569 -25.788  1.00  0.00     0.016 C 
BRANCH  10  11
HETATM   11  C14 UNL     1     -48.604  -3.736 -26.724  1.00  0.00     0.016 A 
HETATM   12  C15 UNL     1     -47.861  -3.882 -27.863  1.00  0.00     0.033 A 
HETATM   13  C16 UNL     1     -48.142  -5.121 -28.440  1.00  0.00     0.091 A 
HETATM   14  N1  UNL     1     -49.045  -5.708 -27.649  1.00  0.00    -0.346 N 
HETATM   15  C17 UNL     1     -49.343  -4.900 -26.608  1.00  0.00     0.150 A 
ATOM     16  H1  UNL     1     -49.450  -6.631 -27.809  1.00  0.00     0.167 HD
BRANCH  15  17
HETATM   17  O3  UNL     1     -50.245  -5.176 -25.577  1.00  0.00    -0.345 OA
ATOM     18  H3  UNL     1     -51.044  -5.679 -25.674  1.00  0.00     0.219 HD
ENDBRANCH  15  17
ENDBRANCH  10  11
ENDBRANCH   9  10
ENDBRANCH   8   9
ENDBRANCH   6   8
BRANCH   7  19
HETATM   19  C18 UNL     1     -51.736  -2.702 -23.068  1.00  0.00     0.197 C 
BRANCH  19  20
HETATM   20  C19 UNL     1     -52.039  -2.335 -24.483  1.00  0.00     0.074 A 
HETATM   21  C20 UNL     1     -52.294  -1.021 -24.884  1.00  0.00     0.039 A 
HETATM   22  C21 UNL     1     -52.523  -1.091 -26.238  1.00  0.00     0.065 A 
HETATM   23  C22 UNL     1     -52.408  -2.417 -26.631  1.00  0.00     0.215 A 
HETATM   24  O6  UNL     1     -52.122  -3.089 -25.547  1.00  0.00    -0.291 OA
BRANCH  23  25
HETATM   25  N3  UNL     1     -52.574  -2.917 -27.960  1.00  0.00    -0.090 N 
HETATM   26  O4  UNL     1     -53.548  -2.586 -28.646  1.00  0.00    -0.530 OA
HETATM   27  O5  UNL     1     -51.644  -3.767 -28.474  1.00  0.00    -0.530 OA
ENDBRANCH  23  25
ENDBRANCH  19  20
ENDBRANCH   7  19
BRANCH   3  28
HETATM   28  C3  UNL     1     -51.294   0.993 -20.147  1.00  0.00     0.054 C 
BRANCH  28  29
HETATM   29  C4  UNL     1     -51.445   0.912 -18.707  1.00  0.00     0.075 A 
HETATM   30  C5  UNL     1     -52.377   1.684 -18.024  1.00  0.00     0.039 A 
HETATM   31  C6  UNL     1     -52.262   1.371 -16.689  1.00  0.00     0.027 A 
HETATM   32  C7  UNL     1     -51.267   0.425 -16.625  1.00  0.00     0.142 A 
HETATM   33  O2  UNL     1     -50.835   0.202 -17.823  1.00  0.00    -0.323 OA
ENDBRANCH  28  29
ENDBRANCH   3  28
TORSDOF 10
ENDMDL
MODEL 4
REMARK VINA RESULT: -7.586130443      2.425      8.302
REMARK  10 active torsions:
REMARK  status: ('A' for Active; 'I' for Inactive)
REMARK    1  A    between atoms: C2_3  and  C3_4 
REMARK    2  A    between atoms: C3_4  and  C4_5 
REMARK    3  A    between atoms: C10_12  and  C11_13 
REMARK    4  A    between atoms: C11_13  and  C12_14 
REMARK    5  A    between atoms: C12_14  and  C13_15 
REMARK    6  A    between atoms: C13_15  and  C14_16 
REMARK    7  A    between atoms: C17_21  and  O3_22 
REMARK    8  A    between atoms: N2_24  and  C18_25 
REMARK    9  A    between atoms: C18_25  and  C19_26 
REMARK   10  A    between atoms: C22_29  and  N3_30 
ROOT
HETATM    1  O1  UNL     1     -49.988  -4.524 -25.122  1.00  0.00    -0.267 OA
HETATM    2  C1  UNL     1     -50.188  -3.343 -25.482  1.00  0.00     0.258 A 
HETATM    3  C2  UNL     1     -49.284  -2.778 -26.354  1.00  0.00     0.035 A 
HETATM    4  C8  UNL     1     -49.551  -1.470 -26.722  1.00  0.00     0.019 A 
HETATM    5  C9  UNL     1     -50.668  -0.772 -26.240  1.00  0.00     0.031 A 
HETATM    6  C10 UNL     1     -51.534  -1.398 -25.368  1.00  0.00     0.037 A 
HETATM    7  N2  UNL     1     -51.268  -2.702 -25.000  1.00  0.00    -0.308 N 
ENDROOT
BRANCH   6   8
HETATM    8  C11 UNL     1     -52.577  -0.808 -24.894  1.00  0.00     0.030 C 
BRANCH   8   9
HETATM    9  C12 UNL     1     -52.828   0.289 -24.034  1.00  0.00     0.003 C 
BRANCH   9  10
HETATM   10  C13 UNL     1     -52.100   1.048 -23.287  1.00  0.00     0.016 C 
BRANCH  10  11
HETATM   11  C14 UNL     1     -52.519   1.283 -21.869  1.00  0.00     0.016 A 
HETATM   12  C15 UNL     1     -51.799   1.038 -20.734  1.00  0.00     0.033 A 
HETATM   13  C16 UNL     1     -52.558   1.401 -19.619  1.00  0.00     0.091 A 
HETATM   14  N1  UNL     1     -53.721   1.858 -20.091  1.00  0.00    -0.346 N 
HETATM   15  C17 UNL     1     -53.729   1.801 -21.441  1.00  0.00     0.150 A 
ATOM     16  H1  UNL     1     -54.491   2.201 -19.516  1.00  0.00     0.167 HD
BRANCH  15  17
HETATM   17  O3  UNL     1     -54.773   2.193 -22.281  1.00  0.00    -0.345 OA
ATOM     18  H3  UNL     1     -54.721   2.241 -23.228  1.00  0.00     0.219 HD
ENDBRANCH  15  17
ENDBRANCH  10  11
ENDBRANCH   9  10
ENDBRANCH   8   9
ENDBRANCH   6   8
BRANCH   7  19
HETATM   19  C18 UNL     1     -52.099  -3.444 -24.092  1.00  0.00     0.197 C 
BRANCH  19  20
HETATM   20  C19 UNL     1     -51.600  -3.460 -22.686  1.00  0.00     0.074 A 
HETATM   21  C20 UNL     1     -51.881  -2.440 -21.773  1.00  0.00     0.039 A 
HETATM   22  C21 UNL     1     -51.257  -2.811 -20.606  1.00  0.00     0.065 A 
HETATM   23  C22 UNL     1     -50.618  -4.024 -20.821  1.00  0.00     0.215 A 
HETATM   24  O6  UNL     1     -50.864  -4.344 -22.065  1.00  0.00    -0.291 OA
BRANCH  23  25
HETATM   25  N3  UNL     1     -49.854  -4.754 -19.858  1.00  0.00    -0.090 N 
HETATM   26  O4  UNL     1     -49.699  -4.321 -18.711  1.00  0.00    -0.530 OA
HETATM   27  O5  UNL     1     -49.292  -5.941 -20.213  1.00  0.00    -0.530 OA
ENDBRANCH  23  25
ENDBRANCH  19  20
ENDBRANCH   7  19
BRANCH   3  28
HETATM   28  C3  UNL     1     -48.232  -3.416 -26.817  1.00  0.00     0.054 C 
BRANCH  28  29
HETATM   29  C4  UNL     1     -48.203  -4.268 -27.990  1.00  0.00     0.075 A 
HETATM   30  C5  UNL     1     -47.039  -4.906 -28.403  1.00  0.00     0.039 A 
HETATM   31  C6  UNL     1     -47.350  -5.626 -29.534  1.00  0.00     0.027 A 
HETATM   32  C7  UNL     1     -48.687  -5.392 -29.753  1.00  0.00     0.142 A 
HETATM   33  O2  UNL     1     -49.123  -4.600 -28.827  1.00  0.00    -0.323 OA
ENDBRANCH  28  29
ENDBRANCH   3  28
TORSDOF 10
ENDMDL
MODEL 5
REMARK VINA RESULT: -7.561292673      1.469      1.956
REMARK  10 active torsions:
REMARK  status: ('A' for Active; 'I' for Inactive)
REMARK    1  A    between atoms: C2_3  and  C3_4 
REMARK    2  A    between atoms: C3_4  and  C4_5 
REMARK    3  A    between atoms: C10_12  and  C11_13 
REMARK    4  A    between atoms: C11_13  and  C12_14 
REMARK    5  A    between atoms: C12_14  and  C13_15 
REMARK    6  A    between atoms: C13_15  and  C14_16 
REMARK    7  A    between atoms: C17_21  and  O3_22 
REMARK    8  A    between atoms: N2_24  and  C18_25 
REMARK    9  A    between atoms: C18_25  and  C19_26 
REMARK   10  A    between atoms: C22_29  and  N3_30 
ROOT
HETATM    1  O1  UNL     1     -52.590  -1.459 -21.412  1.00  0.00    -0.267 OA
HETATM    2  C1  UNL     1     -51.367  -1.300 -21.621  1.00  0.00     0.258 A 
HETATM    3  C2  UNL     1     -50.813  -0.086 -21.284  1.00  0.00     0.035 A 
HETATM    4  C8  UNL     1     -49.456   0.038 -21.535  1.00  0.00     0.019 A 
HETATM    5  C9  UNL     1     -48.702  -1.005 -22.093  1.00  0.00     0.031 A 
HETATM    6  C10 UNL     1     -49.321  -2.196 -22.407  1.00  0.00     0.037 A 
HETATM    7  N2  UNL     1     -50.673  -2.320 -22.158  1.00  0.00    -0.308 N 
ENDROOT
BRANCH   6   8
HETATM    8  C11 UNL     1     -48.680  -3.190 -22.919  1.00  0.00     0.030 C 
BRANCH   8   9
HETATM    9  C12 UNL     1     -47.910  -3.417 -24.086  1.00  0.00     0.003 C 
BRANCH   9  10
HETATM   10  C13 UNL     1     -48.153  -3.423 -25.353  1.00  0.00     0.016 C 
BRANCH  10  11
HETATM   11  C14 UNL     1     -48.452  -4.725 -26.027  1.00  0.00     0.016 A 
HETATM   12  C15 UNL     1     -48.480  -5.970 -25.463  1.00  0.00     0.033 A 
HETATM   13  C16 UNL     1     -48.802  -6.912 -26.442  1.00  0.00     0.091 A 
HETATM   14  N1  UNL     1     -48.962  -6.230 -27.579  1.00  0.00    -0.346 N 
HETATM   15  C17 UNL     1     -48.759  -4.912 -27.363  1.00  0.00     0.150 A 
ATOM     16  H1  UNL     1     -49.204  -6.644 -28.480  1.00  0.00     0.167 HD
BRANCH  15  17
HETATM   17  O3  UNL     1     -48.840  -3.893 -28.315  1.00  0.00    -0.345 OA
ATOM     18  H3  UNL     1     -49.214  -3.989 -29.182  1.00  0.00     0.219 HD
ENDBRANCH  15  17
ENDBRANCH  10  11
ENDBRANCH   9  10
ENDBRANCH   8   9
ENDBRANCH   6   8
BRANCH   7  19
HETATM   19  C18 UNL     1     -51.419  -3.513 -22.454  1.00  0.00     0.197 C 
BRANCH  19  20
HETATM   20  C19 UNL     1     -51.664  -3.730 -23.911  1.00  0.00     0.074 A 
HETATM   21  C20 UNL     1     -51.885  -4.995 -24.459  1.00  0.00     0.039 A 
HETATM   22  C21 UNL     1     -52.068  -4.783 -25.806  1.00  0.00     0.065 A 
HETATM   23  C22 UNL     1     -51.956  -3.422 -26.050  1.00  0.00     0.215 A 
HETATM   24  O6  UNL     1     -51.720  -2.867 -24.891  1.00  0.00    -0.291 OA
BRANCH  23  25
HETATM   25  N3  UNL     1     -52.081  -2.783 -27.324  1.00  0.00    -0.090 N 
HETATM   26  O4  UNL     1     -53.124  -2.878 -27.981  1.00  0.00    -0.530 OA
HETATM   27  O5  UNL     1     -51.037  -2.062 -27.815  1.00  0.00    -0.530 OA
ENDBRANCH  23  25
ENDBRANCH  19  20
ENDBRANCH   7  19
BRANCH   3  28
HETATM   28  C3  UNL     1     -51.502   0.903 -20.761  1.00  0.00     0.054 C 
BRANCH  28  29
HETATM   29  C4  UNL     1     -51.726   1.129 -19.346  1.00  0.00     0.075 A 
HETATM   30  C5  UNL     1     -50.947   0.510 -18.374  1.00  0.00     0.039 A 
HETATM   31  C6  UNL     1     -51.416   0.931 -17.151  1.00  0.00     0.027 A 
HETATM   32  C7  UNL     1     -52.455   1.784 -17.437  1.00  0.00     0.142 A 
HETATM   33  O2  UNL     1     -52.585   1.857 -18.722  1.00  0.00    -0.323 OA
ENDBRANCH  28  29
ENDBRANCH   3  28
TORSDOF 10
ENDMDL
