MODEL 1
REMARK VINA RESULT: -7.497918562      0.000      0.000
REMARK  7 active torsions:
REMARK  status: ('A' for Active; 'I' for Inactive)
REMARK       I    between atoms: C1_2  and  N1_3 
REMARK    1  A    between atoms: C1_2  and  C8_11 
REMARK    2  A    between atoms: N1_3  and  C2_5 
REMARK    3  A    between atoms: C8_11  and  C13_25 
REMARK    4  A    between atoms: N2_12  and  N3_14 
REMARK    5  A    between atoms: N3_14  and  C9_16 
REMARK    6  A    between atoms: C12_19  and  S1_20 
REMARK    7  A    between atoms: C18_30  and  N4_31 
ROOT
HETATM    1  C8  UNL     1     -50.349  -3.093 -21.192  1.00  0.00     0.128 C 
HETATM    2  N2  UNL     1     -50.663  -3.679 -22.287  1.00  0.00    -0.293 N 
ATOM      3  H2  UNL     1     -49.940  -4.256 -22.715  1.00  0.00     0.187 HD
ENDROOT
BRANCH   1   4
HETATM    4  C1  UNL     1     -51.377  -2.283 -20.593  1.00  0.00     0.270 C 
HETATM    5  O1  UNL     1     -52.378  -2.840 -19.994  1.00  0.00    -0.266 OA
HETATM    6  N1  UNL     1     -51.433  -0.886 -20.554  1.00  0.00    -0.351 N 
ATOM      7  H1  UNL     1     -50.690  -0.327 -20.971  1.00  0.00     0.163 HD
BRANCH   6   8
HETATM    8  C2  UNL     1     -52.610  -0.221 -19.885  1.00  0.00     0.084 C 
HETATM    9  C3  UNL     1     -52.041   0.868 -19.066  1.00  0.00     0.025 C 
HETATM   10  C4  UNL     1     -52.883   2.112 -18.995  1.00  0.00     0.002 C 
HETATM   11  C5  UNL     1     -53.441   2.547 -20.312  1.00  0.00     0.000 C 
HETATM   12  C6  UNL     1     -52.981   1.630 -21.415  1.00  0.00     0.002 C 
HETATM   13  C7  UNL     1     -53.469   0.244 -21.051  1.00  0.00     0.025 C 
ENDBRANCH   6   8
ENDBRANCH   1   4
BRANCH   1  14
HETATM   14  C13 UNL     1     -49.052  -3.333 -20.600  1.00  0.00     0.031 A 
HETATM   15  C14 UNL     1     -49.003  -4.442 -19.717  1.00  0.00     0.016 A 
HETATM   16  C15 UNL     1     -47.907  -4.697 -18.948  1.00  0.00     0.001 A 
HETATM   17  C16 UNL     1     -46.829  -3.855 -19.028  1.00  0.00     0.002 A 
HETATM   18  C17 UNL     1     -46.834  -2.778 -19.860  1.00  0.00     0.037 A 
HETATM   19  C18 UNL     1     -47.979  -2.505 -20.673  1.00  0.00     0.115 A 
BRANCH  19  20
HETATM   20  N4  UNL     1     -47.815  -1.427 -21.552  1.00  0.00    -0.115 N 
HETATM   21  O6  UNL     1     -47.257  -1.374 -22.612  1.00  0.00    -0.532 OA
HETATM   22  O7  UNL     1     -48.471  -0.197 -21.195  1.00  0.00    -0.532 OA
ENDBRANCH  19  20
ENDBRANCH   1  14
BRANCH   2  23
HETATM   23  N3  UNL     1     -51.849  -3.617 -22.941  1.00  0.00    -0.279 N 
ATOM     24  H3  UNL     1     -52.629  -4.182 -22.602  1.00  0.00     0.189 HD
BRANCH  23  25
HETATM   25  C9  UNL     1     -52.046  -2.784 -24.096  1.00  0.00     0.163 A 
HETATM   26  C10 UNL     1     -52.353  -1.472 -24.156  1.00  0.00     0.061 A 
HETATM   27  C11 UNL     1     -52.431  -1.120 -25.483  1.00  0.00     0.057 A 
HETATM   28  C12 UNL     1     -52.161  -2.266 -26.194  1.00  0.00     0.193 A 
HETATM   29  O5  UNL     1     -51.938  -3.228 -25.348  1.00  0.00    -0.278 OA
BRANCH  28  30
HETATM   30  S1  UNL     1     -52.136  -2.361 -27.959  1.00  0.00     0.161 S 
HETATM   31  O2  UNL     1     -53.543  -2.659 -28.423  1.00  0.00    -0.590 OA
HETATM   32  O3  UNL     1     -51.618  -1.074 -28.522  1.00  0.00    -0.590 OA
HETATM   33  O4  UNL     1     -51.168  -3.672 -28.364  1.00  0.00    -0.590 OA
ENDBRANCH  28  30
ENDBRANCH  23  25
ENDBRANCH   2  23
TORSDOF 7
ENDMDL
MODEL 2
REMARK VINA RESULT: -7.317144615      2.301      5.337
REMARK  7 active torsions:
REMARK  status: ('A' for Active; 'I' for Inactive)
REMARK       I    between atoms: C1_2  and  N1_3 
REMARK    1  A    between atoms: C1_2  and  C8_11 
REMARK    2  A    between atoms: N1_3  and  C2_5 
REMARK    3  A    between atoms: C8_11  and  C13_25 
REMARK    4  A    between atoms: N2_12  and  N3_14 
REMARK    5  A    between atoms: N3_14  and  C9_16 
REMARK    6  A    between atoms: C12_19  and  S1_20 
REMARK    7  A    between atoms: C18_30  and  N4_31 
ROOT
HETATM    1  C8  UNL     1     -50.737   0.296 -21.039  1.00  0.00     0.128 C 
HETATM    2  N2  UNL     1     -51.477   0.549 -22.053  1.00  0.00    -0.293 N 
ATOM      3  H2  UNL     1     -52.370   1.002 -21.859  1.00  0.00     0.187 HD
ENDROOT
BRANCH   1   4
HETATM    4  C1  UNL     1     -49.477  -0.342 -21.322  1.00  0.00     0.270 C 
HETATM    5  O1  UNL     1     -48.405   0.368 -21.457  1.00  0.00    -0.266 OA
HETATM    6  N1  UNL     1     -49.239  -1.712 -21.462  1.00  0.00    -0.351 N 
ATOM      7  H1  UNL     1     -50.000  -2.383 -21.354  1.00  0.00     0.163 HD
BRANCH   6   8
HETATM    8  C2  UNL     1     -47.840  -2.183 -21.774  1.00  0.00     0.084 C 
HETATM    9  C3  UNL     1     -47.755  -3.561 -21.249  1.00  0.00     0.025 C 
HETATM   10  C4  UNL     1     -46.922  -4.501 -22.074  1.00  0.00     0.002 C 
HETATM   11  C5  UNL     1     -47.172  -4.408 -23.544  1.00  0.00     0.000 C 
HETATM   12  C6  UNL     1     -48.248  -3.395 -23.840  1.00  0.00     0.002 C 
HETATM   13  C7  UNL     1     -47.755  -2.074 -23.288  1.00  0.00     0.025 C 
ENDBRANCH   6   8
ENDBRANCH   1   4
BRANCH   1  14
HETATM   14  C13 UNL     1     -51.158   0.720 -19.722  1.00  0.00     0.031 A 
HETATM   15  C14 UNL     1     -50.249   0.400 -18.682  1.00  0.00     0.016 A 
HETATM   16  C15 UNL     1     -50.572   0.575 -17.370  1.00  0.00     0.001 A 
HETATM   17  C16 UNL     1     -51.812   1.066 -17.051  1.00  0.00     0.002 A 
HETATM   18  C17 UNL     1     -52.716   1.382 -18.017  1.00  0.00     0.037 A 
HETATM   19  C18 UNL     1     -52.382   1.205 -19.397  1.00  0.00     0.115 A 
BRANCH  19  20
HETATM   20  N4  UNL     1     -53.363   1.661 -20.287  1.00  0.00    -0.115 N 
HETATM   21  O6  UNL     1     -53.594   2.771 -20.678  1.00  0.00    -0.532 OA
HETATM   22  O7  UNL     1     -54.189   0.659 -20.907  1.00  0.00    -0.532 OA
ENDBRANCH  19  20
ENDBRANCH   1  14
BRANCH   2  23
HETATM   23  N3  UNL     1     -51.208   0.282 -23.355  1.00  0.00    -0.279 N 
ATOM     24  H3  UNL     1     -50.728   0.988 -23.913  1.00  0.00     0.189 HD
BRANCH  23  25
HETATM   25  C9  UNL     1     -51.577  -0.962 -23.975  1.00  0.00     0.163 A 
HETATM   26  C10 UNL     1     -52.191  -2.033 -23.432  1.00  0.00     0.061 A 
HETATM   27  C11 UNL     1     -52.336  -2.977 -24.420  1.00  0.00     0.057 A 
HETATM   28  C12 UNL     1     -51.788  -2.425 -25.554  1.00  0.00     0.193 A 
HETATM   29  O5  UNL     1     -51.351  -1.237 -25.258  1.00  0.00    -0.278 OA
BRANCH  28  30
HETATM   30  S1  UNL     1     -51.715  -3.236 -27.123  1.00  0.00     0.161 S 
HETATM   31  O2  UNL     1     -50.606  -2.593 -27.922  1.00  0.00    -0.590 OA
HETATM   32  O3  UNL     1     -51.485  -4.701 -26.919  1.00  0.00    -0.590 OA
HETATM   33  O4  UNL     1     -53.168  -2.920 -27.905  1.00  0.00    -0.590 OA
ENDBRANCH  28  30
ENDBRANCH  23  25
ENDBRANCH   2  23
TORSDOF 7
ENDMDL
MODEL 3
REMARK VINA RESULT: -7.295825810      3.182      5.897
REMARK  7 active torsions:
REMARK  status: ('A' for Active; 'I' for Inactive)
REMARK       I    between atoms: C1_2  and  N1_3 
REMARK    1  A    between atoms: C1_2  and  C8_11 
REMARK    2  A    between atoms: N1_3  and  C2_5 
REMARK    3  A    between atoms: C8_11  and  C13_25 
REMARK    4  A    between atoms: N2_12  and  N3_14 
REMARK    5  A    between atoms: N3_14  and  C9_16 
REMARK    6  A    between atoms: C12_19  and  S1_20 
REMARK    7  A    between atoms: C18_30  and  N4_31 
ROOT
HETATM    1  C8  UNL     1     -51.481  -0.893 -24.036  1.00  0.00     0.128 C 
HETATM    2  N2  UNL     1     -51.206  -0.406 -25.188  1.00  0.00    -0.293 N 
ATOM      3  H2  UNL     1     -51.034   0.598 -25.225  1.00  0.00     0.187 HD
ENDROOT
BRANCH   1   4
HETATM    4  C1  UNL     1     -51.721  -2.313 -23.993  1.00  0.00     0.270 C 
HETATM    5  O1  UNL     1     -52.808  -2.804 -24.492  1.00  0.00    -0.266 OA
HETATM    6  N1  UNL     1     -50.875  -3.294 -23.469  1.00  0.00    -0.351 N 
ATOM      7  H1  UNL     1     -49.973  -3.039 -23.067  1.00  0.00     0.163 HD
BRANCH   6   8
HETATM    8  C2  UNL     1     -51.316  -4.736 -23.507  1.00  0.00     0.084 C 
HETATM    9  C3  UNL     1     -50.293  -5.447 -24.300  1.00  0.00     0.025 C 
HETATM   10  C4  UNL     1     -49.993  -6.845 -23.836  1.00  0.00     0.002 C 
HETATM   11  C5  UNL     1     -49.838  -6.977 -22.356  1.00  0.00     0.000 C 
HETATM   12  C6  UNL     1     -49.990  -5.638 -21.682  1.00  0.00     0.002 C 
HETATM   13  C7  UNL     1     -51.372  -5.133 -22.040  1.00  0.00     0.025 C 
ENDBRANCH   6   8
ENDBRANCH   1   4
BRANCH   1  14
HETATM   14  C13 UNL     1     -51.460  -0.035 -22.873  1.00  0.00     0.031 A 
HETATM   15  C14 UNL     1     -50.342  -0.224 -22.022  1.00  0.00     0.016 A 
HETATM   16  C15 UNL     1     -50.260   0.379 -20.802  1.00  0.00     0.001 A 
HETATM   17  C16 UNL     1     -51.290   1.184 -20.389  1.00  0.00     0.002 A 
HETATM   18  C17 UNL     1     -52.383   1.390 -21.173  1.00  0.00     0.037 A 
HETATM   19  C18 UNL     1     -52.474   0.763 -22.455  1.00  0.00     0.115 A 
BRANCH  19  20
HETATM   20  N4  UNL     1     -53.602   1.138 -23.198  1.00  0.00    -0.115 N 
HETATM   21  O6  UNL     1     -53.851   0.973 -24.359  1.00  0.00    -0.532 OA
HETATM   22  O7  UNL     1     -54.682   1.748 -22.468  1.00  0.00    -0.532 OA
ENDBRANCH  19  20
ENDBRANCH   1  14
BRANCH   2  23
HETATM   23  N3  UNL     1     -51.119  -1.075 -26.364  1.00  0.00    -0.279 N 
ATOM     24  H3  UNL     1     -51.856  -0.950 -27.058  1.00  0.00     0.189 HD
BRANCH  23  25
HETATM   25  C9  UNL     1     -50.022  -1.954 -26.667  1.00  0.00     0.163 A 
HETATM   26  C10 UNL     1     -48.765  -1.944 -26.180  1.00  0.00     0.061 A 
HETATM   27  C11 UNL     1     -48.081  -2.984 -26.763  1.00  0.00     0.057 A 
HETATM   28  C12 UNL     1     -48.976  -3.599 -27.606  1.00  0.00     0.193 A 
HETATM   29  O5  UNL     1     -50.111  -2.969 -27.525  1.00  0.00    -0.278 OA
BRANCH  28  30
HETATM   30  S1  UNL     1     -48.598  -5.006 -28.607  1.00  0.00     0.161 S 
HETATM   31  O2  UNL     1     -48.840  -6.243 -27.773  1.00  0.00    -0.590 OA
HETATM   32  O3  UNL     1     -49.445  -4.985 -29.841  1.00  0.00    -0.590 OA
HETATM   33  O4  UNL     1     -46.957  -4.930 -28.957  1.00  0.00    -0.590 OA
ENDBRANCH  28  30
ENDBRANCH  23  25
ENDBRANCH   2  23
TORSDOF 7
ENDMDL
MODEL 4
REMARK VINA RESULT: -7.208145375      2.054      5.247
REMARK  7 active torsions:
REMARK  status: ('A' for Active; 'I' for Inactive)
REMARK       I    between atoms: C1_2  and  N1_3 
REMARK    1  A    between atoms: C1_2  and  C8_11 
REMARK    2  A    between atoms: N1_3  and  C2_5 
REMARK    3  A    between atoms: C8_11  and  C13_25 
REMARK    4  A    between atoms: N2_12  and  N3_14 
REMARK    5  A    between atoms: N3_14  and  C9_16 
REMARK    6  A    between atoms: C12_19  and  S1_20 
REMARK    7  A    between atoms: C18_30  and  N4_31 
ROOT
HETATM    1  C8  UNL     1     -51.298  -0.462 -20.580  1.00  0.00     0.128 C 
HETATM    2  N2  UNL     1     -50.859  -0.048 -21.709  1.00  0.00    -0.293 N 
ATOM      3  H2  UNL     1     -50.812   0.963 -21.833  1.00  0.00     0.187 HD
ENDROOT
BRANCH   1   4
HETATM    4  C1  UNL     1     -51.358  -1.891 -20.412  1.00  0.00     0.270 C 
HETATM    5  O1  UNL     1     -52.471  -2.462 -20.085  1.00  0.00    -0.266 OA
HETATM    6  N1  UNL     1     -50.314  -2.805 -20.586  1.00  0.00    -0.351 N 
ATOM      7  H1  UNL     1     -49.388  -2.484 -20.868  1.00  0.00     0.163 HD
BRANCH   6   8
HETATM    8  C2  UNL     1     -50.578  -4.271 -20.348  1.00  0.00     0.084 C 
HETATM    9  C3  UNL     1     -50.661  -4.885 -21.688  1.00  0.00     0.025 C 
HETATM   10  C4  UNL     1     -50.096  -6.275 -21.783  1.00  0.00     0.002 C 
HETATM   11  C5  UNL     1     -48.779  -6.446 -21.098  1.00  0.00     0.000 C 
HETATM   12  C6  UNL     1     -48.315  -5.143 -20.499  1.00  0.00     0.002 C 
HETATM   13  C7  UNL     1     -49.387  -4.719 -19.516  1.00  0.00     0.025 C 
ENDBRANCH   6   8
ENDBRANCH   1   4
BRANCH   1  14
HETATM   14  C13 UNL     1     -51.622   0.493 -19.544  1.00  0.00     0.031 A 
HETATM   15  C14 UNL     1     -50.827   0.388 -18.375  1.00  0.00     0.016 A 
HETATM   16  C15 UNL     1     -51.116   1.096 -17.247  1.00  0.00     0.001 A 
HETATM   17  C16 UNL     1     -52.208   1.924 -17.243  1.00  0.00     0.002 A 
HETATM   18  C17 UNL     1     -53.000   2.052 -18.343  1.00  0.00     0.037 A 
HETATM   19  C18 UNL     1     -52.701   1.316 -19.532  1.00  0.00     0.115 A 
BRANCH  19  20
HETATM   20  N4  UNL     1     -53.536   1.615 -20.616  1.00  0.00    -0.115 N 
HETATM   21  O6  UNL     1     -54.011   0.892 -21.446  1.00  0.00    -0.532 OA
HETATM   22  O7  UNL     1     -53.973   2.981 -20.738  1.00  0.00    -0.532 OA
ENDBRANCH  19  20
ENDBRANCH   1  14
BRANCH   2  23
HETATM   23  N3  UNL     1     -50.451  -0.803 -22.759  1.00  0.00    -0.279 N 
ATOM     24  H3  UNL     1     -49.517  -1.213 -22.737  1.00  0.00     0.189 HD
BRANCH  23  25
HETATM   25  C9  UNL     1     -51.289  -1.045 -23.902  1.00  0.00     0.163 A 
HETATM   26  C10 UNL     1     -52.413  -0.404 -24.282  1.00  0.00     0.061 A 
HETATM   27  C11 UNL     1     -52.856  -0.990 -25.444  1.00  0.00     0.057 A 
HETATM   28  C12 UNL     1     -51.958  -1.992 -25.729  1.00  0.00     0.193 A 
HETATM   29  O5  UNL     1     -51.047  -1.997 -24.802  1.00  0.00    -0.278 OA
BRANCH  28  30
HETATM   30  S1  UNL     1     -52.070  -3.063 -27.130  1.00  0.00     0.161 S 
HETATM   31  O2  UNL     1     -52.096  -4.485 -26.621  1.00  0.00    -0.590 OA
HETATM   32  O3  UNL     1     -53.295  -2.725 -27.922  1.00  0.00    -0.590 OA
HETATM   33  O4  UNL     1     -50.659  -2.856 -28.017  1.00  0.00    -0.590 OA
ENDBRANCH  28  30
ENDBRANCH  23  25
ENDBRANCH   2  23
TORSDOF 7
ENDMDL
MODEL 5
REMARK VINA RESULT: -7.197545886      2.893      5.708
REMARK  7 active torsions:
REMARK  status: ('A' for Active; 'I' for Inactive)
REMARK       I    between atoms: C1_2  and  N1_3 
REMARK    1  A    between atoms: C1_2  and  C8_11 
REMARK    2  A    between atoms: N1_3  and  C2_5 
REMARK    3  A    between atoms: C8_11  and  C13_25 
REMARK    4  A    between atoms: N2_12  and  N3_14 
REMARK    5  A    between atoms: N3_14  and  C9_16 
REMARK    6  A    between atoms: C12_19  and  S1_20 
REMARK    7  A    between atoms: C18_30  and  N4_31 
ROOT
HETATM    1  C8  UNL     1     -51.812  -0.754 -23.898  1.00  0.00     0.128 C 
HETATM    2  N2  UNL     1     -50.706  -0.980 -24.503  1.00  0.00    -0.293 N 
ATOM      3  H2  UNL     1     -50.698  -0.813 -25.509  1.00  0.00     0.187 HD
ENDROOT
BRANCH   1   4
HETATM    4  C1  UNL     1     -51.813  -0.989 -22.478  1.00  0.00     0.270 C 
HETATM    5  O1  UNL     1     -52.027  -2.177 -22.015  1.00  0.00    -0.266 OA
HETATM    6  N1  UNL     1     -51.579  -0.049 -21.469  1.00  0.00    -0.351 N 
ATOM      7  H1  UNL     1     -51.373   0.921 -21.703  1.00  0.00     0.163 HD
BRANCH   6   8
HETATM    8  C2  UNL     1     -51.638  -0.495 -20.028  1.00  0.00     0.084 C 
HETATM    9  C3  UNL     1     -50.412   0.033 -19.397  1.00  0.00     0.025 C 
HETATM   10  C4  UNL     1     -50.577   0.478 -17.970  1.00  0.00     0.002 C 
HETATM   11  C5  UNL     1     -51.806   1.291 -17.723  1.00  0.00     0.000 C 
HETATM   12  C6  UNL     1     -52.574   1.499 -19.003  1.00  0.00     0.002 C 
HETATM   13  C7  UNL     1     -52.931   0.120 -19.516  1.00  0.00     0.025 C 
ENDBRANCH   6   8
ENDBRANCH   1   4
BRANCH   1  14
HETATM   14  C13 UNL     1     -52.935  -0.220 -24.637  1.00  0.00     0.031 A 
HETATM   15  C14 UNL     1     -53.542   0.916 -24.045  1.00  0.00     0.016 A 
HETATM   16  C15 UNL     1     -54.711   1.432 -24.521  1.00  0.00     0.001 A 
HETATM   17  C16 UNL     1     -55.315   0.830 -25.594  1.00  0.00     0.002 A 
HETATM   18  C17 UNL     1     -54.768  -0.265 -26.190  1.00  0.00     0.037 A 
HETATM   19  C18 UNL     1     -53.540  -0.809 -25.699  1.00  0.00     0.115 A 
BRANCH  19  20
HETATM   20  N4  UNL     1     -53.038  -1.872 -26.462  1.00  0.00    -0.115 N 
HETATM   21  O6  UNL     1     -52.402  -2.831 -26.125  1.00  0.00    -0.532 OA
HETATM   22  O7  UNL     1     -53.388  -1.886 -27.858  1.00  0.00    -0.532 OA
ENDBRANCH  19  20
ENDBRANCH   1  14
BRANCH   2  23
HETATM   23  N3  UNL     1     -49.544  -1.415 -23.957  1.00  0.00    -0.279 N 
ATOM     24  H3  UNL     1     -49.172  -0.931 -23.140  1.00  0.00     0.189 HD
BRANCH  23  25
HETATM   25  C9  UNL     1     -48.819  -2.537 -24.489  1.00  0.00     0.163 A 
HETATM   26  C10 UNL     1     -48.005  -3.403 -23.852  1.00  0.00     0.061 A 
HETATM   27  C11 UNL     1     -47.548  -4.308 -24.781  1.00  0.00     0.057 A 
HETATM   28  C12 UNL     1     -48.118  -3.942 -25.977  1.00  0.00     0.193 A 
HETATM   29  O5  UNL     1     -48.861  -2.896 -25.772  1.00  0.00    -0.278 OA
BRANCH  28  30
HETATM   30  S1  UNL     1     -47.851  -4.786 -27.507  1.00  0.00     0.161 S 
HETATM   31  O2  UNL     1     -49.115  -5.545 -27.840  1.00  0.00    -0.590 OA
HETATM   32  O3  UNL     1     -47.495  -3.794 -28.571  1.00  0.00    -0.590 OA
HETATM   33  O4  UNL     1     -46.628  -5.906 -27.242  1.00  0.00    -0.590 OA
ENDBRANCH  28  30
ENDBRANCH  23  25
ENDBRANCH   2  23
TORSDOF 7
ENDMDL
