MODEL 1
REMARK VINA RESULT: -7.326559321      0.000      0.000
REMARK  10 active torsions:
REMARK  status: ('A' for Active; 'I' for Inactive)
REMARK    1  A    between atoms: C2_2  and  C3_4 
REMARK    2  A    between atoms: C3_4  and  C4_5 
REMARK    3  A    between atoms: C4_5  and  C5_6 
REMARK    4  A    between atoms: C6_7  and  C8_9 
REMARK    5  A    between atoms: C8_9  and  C9_10 
REMARK    6  A    between atoms: C11_15  and  C12_16 
REMARK    7  A    between atoms: C12_16  and  O3_17 
REMARK    8  A    between atoms: C12_16  and  O4_19 
REMARK    9  A    between atoms: O4_19  and  C13_20 
REMARK   10  A    between atoms: C18_28  and  O8_29 
ROOT
HETATM    1  C9  UNL     1     -50.390  -3.180 -23.734  1.00  0.00     0.021 C 
HETATM    2  N1  UNL     1     -50.190  -4.477 -23.727  1.00  0.00    -0.274 N 
ATOM      3  H1  UNL     1     -50.346  -4.898 -22.812  1.00  0.00     0.193 HD
HETATM    4  O2  UNL     1     -49.825  -5.369 -24.658  1.00  0.00    -0.280 OA
HETATM    5  C10 UNL     1     -49.213  -5.514 -25.907  1.00  0.00     0.210 C 
HETATM    6  C11 UNL     1     -48.060  -4.593 -26.148  1.00  0.00     0.070 C 
HETATM    7  C15 UNL     1     -48.303  -3.154 -25.896  1.00  0.00     0.045 C 
HETATM    8  C16 UNL     1     -49.761  -2.831 -26.061  1.00  0.00     0.142 C 
HETATM    9  O6  UNL     1     -49.983  -1.900 -27.118  1.00  0.00    -0.313 OA
HETATM   10  C17 UNL     1     -51.346  -1.741 -27.450  1.00  0.00     0.288 C 
HETATM   11  O7  UNL     1     -51.732  -1.288 -28.543  1.00  0.00    -0.262 OA
HETATM   12  C18 UNL     1     -52.269  -2.177 -26.342  1.00  0.00     0.222 C 
HETATM   13  C19 UNL     1     -51.660  -1.608 -25.068  1.00  0.00     0.032 C 
HETATM   14  C20 UNL     1     -51.507  -0.106 -25.316  1.00  0.00     0.014 C 
HETATM   15  C21 UNL     1     -50.283  -2.170 -24.784  1.00  0.00     0.070 C 
ENDROOT
BRANCH   1  16
HETATM   16  C8  UNL     1     -50.777  -2.803 -22.373  1.00  0.00     0.088 C 
BRANCH  16  17
HETATM   17  C6  UNL     1     -50.227  -1.469 -21.883  1.00  0.00    -0.082 C 
HETATM   18  C5  UNL     1     -51.142  -0.565 -21.611  1.00  0.00    -0.024 C 
HETATM   19  C7  UNL     1     -48.777  -1.272 -21.771  1.00  0.00     0.043 C 
BRANCH  18  20
HETATM   20  C4  UNL     1     -51.122   0.803 -21.152  1.00  0.00     0.035 C 
BRANCH  20  21
HETATM   21  C3  UNL     1     -52.106   1.734 -21.754  1.00  0.00     0.081 C 
BRANCH  21  22
HETATM   22  C2  UNL     1     -53.165   1.978 -20.679  1.00  0.00     0.123 C 
HETATM   23  C1  UNL     1     -52.813   1.734 -19.279  1.00  0.00     0.091 C 
HETATM   24  O1  UNL     1     -54.261   2.361 -20.974  1.00  0.00    -0.298 OA
ENDBRANCH  21  22
ENDBRANCH  20  21
ENDBRANCH  18  20
ENDBRANCH  16  17
ENDBRANCH   1  16
BRANCH  12  25
HETATM   25  O8  UNL     1     -53.516  -1.640 -26.516  1.00  0.00    -0.385 OA
ATOM     26  H8  UNL     1     -53.692  -0.984 -25.851  1.00  0.00     0.210 HD
ENDBRANCH  12  25
BRANCH   6  27
HETATM   27  C12 UNL     1     -47.572  -4.763 -27.579  1.00  0.00     0.272 C 
BRANCH  27  28
HETATM   28  O3  UNL     1     -47.576  -3.544 -28.259  1.00  0.00    -0.370 OA
ATOM     29  H3  UNL     1     -46.704  -3.167 -28.288  1.00  0.00     0.212 HD
ENDBRANCH  27  28
BRANCH  27  30
HETATM   30  O4  UNL     1     -48.419  -5.634 -28.304  1.00  0.00    -0.290 OA
BRANCH  30  31
HETATM   31  C13 UNL     1     -49.040  -5.244 -29.471  1.00  0.00     0.257 C 
HETATM   32  C14 UNL     1     -48.652  -5.706 -30.830  1.00  0.00     0.126 C 
HETATM   33  O5  UNL     1     -50.020  -4.426 -29.409  1.00  0.00    -0.266 OA
ENDBRANCH  30  31
ENDBRANCH  27  30
ENDBRANCH   6  27
TORSDOF 10
ENDMDL
MODEL 2
REMARK VINA RESULT: -7.066954850      2.630      8.446
REMARK  10 active torsions:
REMARK  status: ('A' for Active; 'I' for Inactive)
REMARK    1  A    between atoms: C2_2  and  C3_4 
REMARK    2  A    between atoms: C3_4  and  C4_5 
REMARK    3  A    between atoms: C4_5  and  C5_6 
REMARK    4  A    between atoms: C6_7  and  C8_9 
REMARK    5  A    between atoms: C8_9  and  C9_10 
REMARK    6  A    between atoms: C11_15  and  C12_16 
REMARK    7  A    between atoms: C12_16  and  O3_17 
REMARK    8  A    between atoms: C12_16  and  O4_19 
REMARK    9  A    between atoms: O4_19  and  C13_20 
REMARK   10  A    between atoms: C18_28  and  O8_29 
ROOT
HETATM    1  C9  UNL     1     -51.251  -0.080 -24.174  1.00  0.00     0.021 C 
HETATM    2  N1  UNL     1     -52.407   0.525 -24.310  1.00  0.00    -0.274 N 
ATOM      3  H1  UNL     1     -52.587   0.829 -25.267  1.00  0.00     0.193 HD
HETATM    4  O2  UNL     1     -53.403   0.832 -23.468  1.00  0.00    -0.280 OA
HETATM    5  C10 UNL     1     -53.732   1.007 -22.121  1.00  0.00     0.210 C 
HETATM    6  C11 UNL     1     -52.660   1.645 -21.295  1.00  0.00     0.070 C 
HETATM    7  C15 UNL     1     -51.311   1.041 -21.387  1.00  0.00     0.045 C 
HETATM    8  C16 UNL     1     -51.410  -0.409 -21.766  1.00  0.00     0.142 C 
HETATM    9  O6  UNL     1     -50.888  -1.262 -20.750  1.00  0.00    -0.313 OA
HETATM   10  C17 UNL     1     -51.162  -2.630 -20.967  1.00  0.00     0.288 C 
HETATM   11  O7  UNL     1     -51.134  -3.483 -20.061  1.00  0.00    -0.262 OA
HETATM   12  C18 UNL     1     -51.489  -2.936 -22.406  1.00  0.00     0.222 C 
HETATM   13  C19 UNL     1     -50.462  -2.162 -23.222  1.00  0.00     0.032 C 
HETATM   14  C20 UNL     1     -49.096  -2.603 -22.694  1.00  0.00     0.014 C 
HETATM   15  C21 UNL     1     -50.573  -0.665 -23.020  1.00  0.00     0.070 C 
ENDROOT
BRANCH   1  16
HETATM   16  C8  UNL     1     -50.622  -0.096 -25.496  1.00  0.00     0.088 C 
BRANCH  16  17
HETATM   17  C6  UNL     1     -50.500  -1.469 -26.146  1.00  0.00    -0.082 C 
HETATM   18  C5  UNL     1     -49.266  -1.861 -26.375  1.00  0.00    -0.024 C 
HETATM   19  C7  UNL     1     -51.709  -2.229 -26.483  1.00  0.00     0.043 C 
BRANCH  18  20
HETATM   20  C4  UNL     1     -48.657  -3.028 -26.965  1.00  0.00     0.035 C 
BRANCH  20  21
HETATM   21  C3  UNL     1     -48.075  -4.029 -26.040  1.00  0.00     0.081 C 
BRANCH  21  22
HETATM   22  C2  UNL     1     -49.201  -5.010 -25.719  1.00  0.00     0.123 C 
HETATM   23  C1  UNL     1     -50.058  -5.476 -26.811  1.00  0.00     0.091 C 
HETATM   24  O1  UNL     1     -49.381  -5.393 -24.598  1.00  0.00    -0.298 OA
ENDBRANCH  21  22
ENDBRANCH  20  21
ENDBRANCH  18  20
ENDBRANCH  16  17
ENDBRANCH   1  16
BRANCH  12  25
HETATM   25  O8  UNL     1     -51.340  -4.273 -22.659  1.00  0.00    -0.385 OA
ATOM     26  H8  UNL     1     -51.659  -4.485 -23.528  1.00  0.00     0.210 HD
ENDBRANCH  12  25
BRANCH   6  27
HETATM   27  C12 UNL     1     -53.092   1.658 -19.836  1.00  0.00     0.272 C 
BRANCH  27  28
HETATM   28  O3  UNL     1     -53.891   2.768 -19.559  1.00  0.00    -0.370 OA
ATOM     29  H3  UNL     1     -54.747   2.503 -19.244  1.00  0.00     0.212 HD
ENDBRANCH  27  28
BRANCH  27  30
HETATM   30  O4  UNL     1     -51.972   1.741 -18.975  1.00  0.00    -0.290 OA
BRANCH  30  31
HETATM   31  C13 UNL     1     -51.980   1.190 -17.713  1.00  0.00     0.257 C 
HETATM   32  C14 UNL     1     -50.862   0.404 -17.125  1.00  0.00     0.126 C 
HETATM   33  O5  UNL     1     -53.010   1.350 -16.972  1.00  0.00    -0.266 OA
ENDBRANCH  30  31
ENDBRANCH  27  30
ENDBRANCH   6  27
TORSDOF 10
ENDMDL
MODEL 3
REMARK VINA RESULT: -6.991463145      2.129      5.652
REMARK  10 active torsions:
REMARK  status: ('A' for Active; 'I' for Inactive)
REMARK    1  A    between atoms: C2_2  and  C3_4 
REMARK    2  A    between atoms: C3_4  and  C4_5 
REMARK    3  A    between atoms: C4_5  and  C5_6 
REMARK    4  A    between atoms: C6_7  and  C8_9 
REMARK    5  A    between atoms: C8_9  and  C9_10 
REMARK    6  A    between atoms: C11_15  and  C12_16 
REMARK    7  A    between atoms: C12_16  and  O3_17 
REMARK    8  A    between atoms: C12_16  and  O4_19 
REMARK    9  A    between atoms: O4_19  and  C13_20 
REMARK   10  A    between atoms: C18_28  and  O8_29 
ROOT
HETATM    1  C9  UNL     1     -50.859  -2.148 -21.609  1.00  0.00     0.021 C 
HETATM    2  N1  UNL     1     -51.267  -3.185 -22.303  1.00  0.00    -0.274 N 
ATOM      3  H1  UNL     1     -50.882  -4.066 -21.964  1.00  0.00     0.193 HD
HETATM    4  O2  UNL     1     -52.079  -3.340 -23.357  1.00  0.00    -0.280 OA
HETATM    5  C10 UNL     1     -52.667  -2.677 -24.438  1.00  0.00     0.210 C 
HETATM    6  C11 UNL     1     -51.796  -1.652 -25.091  1.00  0.00     0.070 C 
HETATM    7  C15 UNL     1     -51.171  -0.652 -24.196  1.00  0.00     0.045 C 
HETATM    8  C16 UNL     1     -51.998  -0.469 -22.956  1.00  0.00     0.142 C 
HETATM    9  O6  UNL     1     -52.494   0.863 -22.838  1.00  0.00    -0.313 OA
HETATM   10  C17 UNL     1     -53.452   1.019 -21.812  1.00  0.00     0.288 C 
HETATM   11  O7  UNL     1     -54.263   1.962 -21.774  1.00  0.00    -0.262 OA
HETATM   12  C18 UNL     1     -53.379  -0.076 -20.779  1.00  0.00     0.222 C 
HETATM   13  C19 UNL     1     -51.894  -0.262 -20.499  1.00  0.00     0.032 C 
HETATM   14  C20 UNL     1     -51.369   1.120 -20.108  1.00  0.00     0.014 C 
HETATM   15  C21 UNL     1     -51.127  -0.717 -21.723  1.00  0.00     0.070 C 
ENDROOT
BRANCH   1  16
HETATM   16  C8  UNL     1     -49.966  -2.660 -20.567  1.00  0.00     0.088 C 
BRANCH  16  17
HETATM   17  C6  UNL     1     -48.498  -2.769 -20.960  1.00  0.00    -0.082 C 
HETATM   18  C5  UNL     1     -48.288  -3.058 -22.225  1.00  0.00    -0.024 C 
HETATM   19  C7  UNL     1     -47.453  -2.577 -19.947  1.00  0.00     0.043 C 
BRANCH  18  20
HETATM   20  C4  UNL     1     -47.120  -3.277 -23.044  1.00  0.00     0.035 C 
BRANCH  20  21
HETATM   21  C3  UNL     1     -47.217  -4.314 -24.097  1.00  0.00     0.081 C 
BRANCH  21  22
HETATM   22  C2  UNL     1     -48.471  -3.980 -24.903  1.00  0.00     0.123 C 
HETATM   23  C1  UNL     1     -48.405  -2.898 -25.887  1.00  0.00     0.091 C 
HETATM   24  O1  UNL     1     -49.489  -4.590 -24.736  1.00  0.00    -0.298 OA
ENDBRANCH  21  22
ENDBRANCH  20  21
ENDBRANCH  18  20
ENDBRANCH  16  17
ENDBRANCH   1  16
BRANCH  12  25
HETATM   25  O8  UNL     1     -54.003   0.312 -19.624  1.00  0.00    -0.385 OA
ATOM     26  H8  UNL     1     -53.365   0.603 -18.982  1.00  0.00     0.210 HD
ENDBRANCH  12  25
BRANCH   6  27
HETATM   27  C12 UNL     1     -52.596  -0.920 -26.160  1.00  0.00     0.272 C 
BRANCH  27  28
HETATM   28  O3  UNL     1     -53.939  -1.296 -26.126  1.00  0.00    -0.370 OA
ATOM     29  H3  UNL     1     -54.333  -1.235 -26.988  1.00  0.00     0.212 HD
ENDBRANCH  27  28
BRANCH  27  30
HETATM   30  O4  UNL     1     -52.120  -1.234 -27.455  1.00  0.00    -0.290 OA
BRANCH  30  31
HETATM   31  C13 UNL     1     -52.449  -2.414 -28.086  1.00  0.00     0.257 C 
HETATM   32  C14 UNL     1     -51.573  -3.614 -28.145  1.00  0.00     0.126 C 
HETATM   33  O5  UNL     1     -53.581  -2.509 -28.673  1.00  0.00    -0.266 OA
ENDBRANCH  30  31
ENDBRANCH  27  30
ENDBRANCH   6  27
TORSDOF 10
ENDMDL
MODEL 4
REMARK VINA RESULT: -6.965796192      2.391      8.580
REMARK  10 active torsions:
REMARK  status: ('A' for Active; 'I' for Inactive)
REMARK    1  A    between atoms: C2_2  and  C3_4 
REMARK    2  A    between atoms: C3_4  and  C4_5 
REMARK    3  A    between atoms: C4_5  and  C5_6 
REMARK    4  A    between atoms: C6_7  and  C8_9 
REMARK    5  A    between atoms: C8_9  and  C9_10 
REMARK    6  A    between atoms: C11_15  and  C12_16 
REMARK    7  A    between atoms: C12_16  and  O3_17 
REMARK    8  A    between atoms: C12_16  and  O4_19 
REMARK    9  A    between atoms: O4_19  and  C13_20 
REMARK   10  A    between atoms: C18_28  and  O8_29 
ROOT
HETATM    1  C9  UNL     1     -51.110  -0.480 -24.065  1.00  0.00     0.021 C 
HETATM    2  N1  UNL     1     -52.208   0.190 -24.325  1.00  0.00    -0.274 N 
ATOM      3  H1  UNL     1     -52.303   0.431 -25.311  1.00  0.00     0.193 HD
HETATM    4  O2  UNL     1     -53.232   0.627 -23.579  1.00  0.00    -0.280 OA
HETATM    5  C10 UNL     1     -53.632   0.926 -22.274  1.00  0.00     0.210 C 
HETATM    6  C11 UNL     1     -52.573   1.551 -21.423  1.00  0.00     0.070 C 
HETATM    7  C15 UNL     1     -51.269   0.852 -21.377  1.00  0.00     0.045 C 
HETATM    8  C16 UNL     1     -51.447  -0.613 -21.657  1.00  0.00     0.142 C 
HETATM    9  O6  UNL     1     -51.055  -1.418 -20.548  1.00  0.00    -0.313 OA
HETATM   10  C17 UNL     1     -51.412  -2.777 -20.685  1.00  0.00     0.288 C 
HETATM   11  O7  UNL     1     -51.504  -3.558 -19.721  1.00  0.00    -0.262 OA
HETATM   12  C18 UNL     1     -51.667  -3.169 -22.118  1.00  0.00     0.222 C 
HETATM   13  C19 UNL     1     -50.536  -2.531 -22.914  1.00  0.00     0.032 C 
HETATM   14  C20 UNL     1     -49.243  -3.021 -22.262  1.00  0.00     0.014 C 
HETATM   15  C21 UNL     1     -50.552  -1.019 -22.828  1.00  0.00     0.070 C 
ENDROOT
BRANCH   1  16
HETATM   16  C8  UNL     1     -50.399  -0.639 -25.336  1.00  0.00     0.088 C 
BRANCH  16  17
HETATM   17  C6  UNL     1     -51.030  -1.616 -26.319  1.00  0.00    -0.082 C 
HETATM   18  C5  UNL     1     -51.032  -2.870 -25.924  1.00  0.00    -0.024 C 
HETATM   19  C7  UNL     1     -51.555  -1.130 -27.601  1.00  0.00     0.043 C 
BRANCH  18  20
HETATM   20  C4  UNL     1     -51.481  -4.120 -26.487  1.00  0.00     0.035 C 
BRANCH  20  21
HETATM   21  C3  UNL     1     -50.449  -5.143 -26.776  1.00  0.00     0.081 C 
BRANCH  21  22
HETATM   22  C2  UNL     1     -49.625  -4.593 -27.940  1.00  0.00     0.123 C 
HETATM   23  C1  UNL     1     -48.197  -4.348 -27.735  1.00  0.00     0.091 C 
HETATM   24  O1  UNL     1     -50.136  -4.366 -29.000  1.00  0.00    -0.298 OA
ENDBRANCH  21  22
ENDBRANCH  20  21
ENDBRANCH  18  20
ENDBRANCH  16  17
ENDBRANCH   1  16
BRANCH  12  25
HETATM   25  O8  UNL     1     -51.599  -4.529 -22.263  1.00  0.00    -0.385 OA
ATOM     26  H8  UNL     1     -51.928  -4.790 -23.116  1.00  0.00     0.210 HD
ENDBRANCH  12  25
BRANCH   6  27
HETATM   27  C12 UNL     1     -53.096   1.705 -20.002  1.00  0.00     0.272 C 
BRANCH  27  28
HETATM   28  O3  UNL     1     -53.923   2.823 -19.890  1.00  0.00    -0.370 OA
ATOM     29  H3  UNL     1     -54.248   2.920 -19.002  1.00  0.00     0.212 HD
ENDBRANCH  27  28
BRANCH  27  30
HETATM   30  O4  UNL     1     -52.033   1.893 -19.087  1.00  0.00    -0.290 OA
BRANCH  30  31
HETATM   31  C13 UNL     1     -52.043   1.328 -17.831  1.00  0.00     0.257 C 
HETATM   32  C14 UNL     1     -50.910   0.571 -17.235  1.00  0.00     0.126 C 
HETATM   33  O5  UNL     1     -53.089   1.446 -17.105  1.00  0.00    -0.266 OA
ENDBRANCH  30  31
ENDBRANCH  27  30
ENDBRANCH   6  27
TORSDOF 10
ENDMDL
MODEL 5
REMARK VINA RESULT: -6.925328924      1.931      8.416
REMARK  10 active torsions:
REMARK  status: ('A' for Active; 'I' for Inactive)
REMARK    1  A    between atoms: C2_2  and  C3_4 
REMARK    2  A    between atoms: C3_4  and  C4_5 
REMARK    3  A    between atoms: C4_5  and  C5_6 
REMARK    4  A    between atoms: C6_7  and  C8_9 
REMARK    5  A    between atoms: C8_9  and  C9_10 
REMARK    6  A    between atoms: C11_15  and  C12_16 
REMARK    7  A    between atoms: C12_16  and  O3_17 
REMARK    8  A    between atoms: C12_16  and  O4_19 
REMARK    9  A    between atoms: O4_19  and  C13_20 
REMARK   10  A    between atoms: C18_28  and  O8_29 
ROOT
HETATM    1  C9  UNL     1     -49.773  -1.919 -25.714  1.00  0.00     0.021 C 
HETATM    2  N1  UNL     1     -50.746  -1.372 -26.403  1.00  0.00    -0.274 N 
ATOM      3  H1  UNL     1     -50.525  -1.273 -27.393  1.00  0.00     0.193 HD
HETATM    4  O2  UNL     1     -51.966  -0.914 -26.090  1.00  0.00    -0.280 OA
HETATM    5  C10 UNL     1     -52.773  -0.472 -25.038  1.00  0.00     0.210 C 
HETATM    6  C11 UNL     1     -52.059   0.337 -24.002  1.00  0.00     0.070 C 
HETATM    7  C15 UNL     1     -50.821  -0.253 -23.444  1.00  0.00     0.045 C 
HETATM    8  C16 UNL     1     -50.863  -1.751 -23.542  1.00  0.00     0.142 C 
HETATM    9  O6  UNL     1     -50.826  -2.370 -22.258  1.00  0.00    -0.313 OA
HETATM   10  C17 UNL     1     -51.086  -3.757 -22.294  1.00  0.00     0.288 C 
HETATM   11  O7  UNL     1     -51.463  -4.406 -21.302  1.00  0.00    -0.262 OA
HETATM   12  C18 UNL     1     -50.857  -4.356 -23.658  1.00  0.00     0.222 C 
HETATM   13  C19 UNL     1     -49.547  -3.750 -24.145  1.00  0.00     0.032 C 
HETATM   14  C20 UNL     1     -48.519  -4.053 -23.054  1.00  0.00     0.014 C 
HETATM   15  C21 UNL     1     -49.628  -2.245 -24.297  1.00  0.00     0.070 C 
ENDROOT
BRANCH   1  16
HETATM   16  C8  UNL     1     -48.688  -2.196 -26.658  1.00  0.00     0.088 C 
BRANCH  16  17
HETATM   17  C6  UNL     1     -48.776  -3.534 -27.381  1.00  0.00    -0.082 C 
HETATM   18  C5  UNL     1     -47.628  -3.996 -27.823  1.00  0.00    -0.024 C 
HETATM   19  C7  UNL     1     -50.079  -4.188 -27.554  1.00  0.00     0.043 C 
BRANCH  18  20
HETATM   20  C4  UNL     1     -47.211  -5.167 -28.556  1.00  0.00     0.035 C 
BRANCH  20  21
HETATM   21  C3  UNL     1     -47.039  -5.024 -30.020  1.00  0.00     0.081 C 
BRANCH  21  22
HETATM   22  C2  UNL     1     -48.316  -5.577 -30.650  1.00  0.00     0.123 C 
HETATM   23  C1  UNL     1     -48.474  -7.029 -30.756  1.00  0.00     0.091 C 
HETATM   24  O1  UNL     1     -49.172  -4.841 -31.050  1.00  0.00    -0.298 OA
ENDBRANCH  21  22
ENDBRANCH  20  21
ENDBRANCH  18  20
ENDBRANCH  16  17
ENDBRANCH   1  16
BRANCH  12  25
HETATM   25  O8  UNL     1     -50.711  -5.714 -23.569  1.00  0.00    -0.385 OA
ATOM     26  H8  UNL     1     -51.107  -6.039 -22.769  1.00  0.00     0.210 HD
ENDBRANCH  12  25
BRANCH   6  27
HETATM   27  C12 UNL     1     -53.015   0.642 -22.857  1.00  0.00     0.272 C 
BRANCH  27  28
HETATM   28  O3  UNL     1     -54.115   1.374 -23.304  1.00  0.00    -0.370 OA
ATOM     29  H3  UNL     1     -54.120   1.438 -24.252  1.00  0.00     0.212 HD
ENDBRANCH  27  28
BRANCH  27  30
HETATM   30  O4  UNL     1     -52.383   1.427 -21.863  1.00  0.00    -0.290 OA
BRANCH  30  31
HETATM   31  C13 UNL     1     -53.029   1.794 -20.704  1.00  0.00     0.257 C 
HETATM   32  C14 UNL     1     -52.600   1.403 -19.335  1.00  0.00     0.126 C 
HETATM   33  O5  UNL     1     -54.077   2.523 -20.782  1.00  0.00    -0.266 OA
ENDBRANCH  30  31
ENDBRANCH  27  30
ENDBRANCH   6  27
TORSDOF 10
ENDMDL
