MODEL 1
REMARK VINA RESULT: -9.162524918      0.000      0.000
REMARK  7 active torsions:
REMARK  status: ('A' for Active; 'I' for Inactive)
REMARK    1  A    between atoms: C2_3  and  C3_4 
REMARK    2  A    between atoms: C3_4  and  C4_5 
REMARK    3  A    between atoms: C4_5  and  C5_6 
REMARK    4  A    between atoms: C5_6  and  C6_7 
REMARK    5  A    between atoms: C6_7  and  N2_8 
REMARK    6  A    between atoms: N3_11  and  C8_12 
REMARK    7  A    between atoms: C10_14  and  N4_15 
ROOT
HETATM    1  N1  UNL     1     -55.740   2.655 -22.377  1.00  0.00    -0.197 NA
HETATM    2  C1  UNL     1     -54.942   1.915 -22.026  1.00  0.00     0.059 C 
HETATM    3  C2  UNL     1     -53.927   0.974 -21.607  1.00  0.00     0.124 C 
ENDROOT
BRANCH   3   4
HETATM    4  C3  UNL     1     -52.651   1.116 -22.409  1.00  0.00     0.014 C 
BRANCH   4   5
HETATM    5  C4  UNL     1     -51.938  -0.207 -22.349  1.00  0.00     0.002 C 
BRANCH   5   6
HETATM    6  C5  UNL     1     -52.334  -1.172 -23.441  1.00  0.00     0.020 C 
BRANCH   6   7
HETATM    7  C6  UNL     1     -51.849  -0.775 -24.788  1.00  0.00     0.134 C 
BRANCH   7   8
HETATM    8  N2  UNL     1     -52.340  -1.524 -25.889  1.00  0.00    -0.295 N 
HETATM    9  C7  UNL     1     -51.599  -2.588 -26.321  1.00  0.00     0.337 A 
HETATM   10  O1  UNL     1     -50.506  -2.827 -25.703  1.00  0.00    -0.246 OA
HETATM   11  N3  UNL     1     -52.013  -3.333 -27.342  1.00  0.00    -0.222 N 
HETATM   12  C13 UNL     1     -53.146  -3.125 -28.019  1.00  0.00     0.292 A 
HETATM   13  O5  UNL     1     -53.524  -3.844 -28.988  1.00  0.00    -0.264 OA
HETATM   14  C14 UNL     1     -53.915  -2.054 -27.605  1.00  0.00     0.172 A 
HETATM   15  O6  UNL     1     -55.052  -1.636 -28.090  1.00  0.00    -0.302 OA
HETATM   16  C21 UNL     1     -53.488  -1.269 -26.537  1.00  0.00     0.091 A 
HETATM   17  C15 UNL     1     -55.410  -0.590 -27.385  1.00  0.00     0.089 A 
HETATM   18  C16 UNL     1     -56.553   0.190 -27.535  1.00  0.00     0.038 A 
HETATM   19  C20 UNL     1     -54.484  -0.308 -26.405  1.00  0.00     0.028 A 
HETATM   20  C17 UNL     1     -56.697   1.241 -26.663  1.00  0.00     0.003 A 
HETATM   21  C18 UNL     1     -55.781   1.528 -25.689  1.00  0.00     0.001 A 
HETATM   22  C19 UNL     1     -54.628   0.744 -25.534  1.00  0.00     0.017 A 
BRANCH  11  23
HETATM   23  C8  UNL     1     -51.210  -4.428 -27.754  1.00  0.00     0.117 A 
HETATM   24  C9  UNL     1     -51.185  -5.598 -27.023  1.00  0.00     0.073 A 
HETATM   25  C10 UNL     1     -50.391  -6.665 -27.439  1.00  0.00     0.120 A 
HETATM   26  C11 UNL     1     -49.641  -6.527 -28.581  1.00  0.00     0.127 A 
HETATM   27  N5  UNL     1     -49.659  -5.373 -29.309  1.00  0.00    -0.329 N 
HETATM   28  C12 UNL     1     -50.437  -4.345 -28.891  1.00  0.00     0.273 A 
ATOM     29  H5  UNL     1     -49.096  -5.285 -30.155  1.00  0.00     0.168 HD
HETATM   30  O4  UNL     1     -50.468  -3.272 -29.546  1.00  0.00    -0.266 OA
BRANCH  25  31
HETATM   31  N4  UNL     1     -50.383  -7.860 -26.670  1.00  0.00    -0.114 N 
HETATM   32  O2  UNL     1     -49.925  -8.923 -27.133  1.00  0.00    -0.532 OA
HETATM   33  O3  UNL     1     -50.883  -7.873 -25.393  1.00  0.00    -0.532 OA
ENDBRANCH  25  31
ENDBRANCH  11  23
ENDBRANCH   7   8
ENDBRANCH   6   7
ENDBRANCH   5   6
ENDBRANCH   4   5
ENDBRANCH   3   4
TORSDOF 7
ENDMDL
MODEL 2
REMARK VINA RESULT: -8.876221690      1.086      2.137
REMARK  7 active torsions:
REMARK  status: ('A' for Active; 'I' for Inactive)
REMARK    1  A    between atoms: C2_3  and  C3_4 
REMARK    2  A    between atoms: C3_4  and  C4_5 
REMARK    3  A    between atoms: C4_5  and  C5_6 
REMARK    4  A    between atoms: C5_6  and  C6_7 
REMARK    5  A    between atoms: C6_7  and  N2_8 
REMARK    6  A    between atoms: N3_11  and  C8_12 
REMARK    7  A    between atoms: C10_14  and  N4_15 
ROOT
HETATM    1  N1  UNL     1     -55.619   2.708 -22.352  1.00  0.00    -0.197 NA
HETATM    2  C1  UNL     1     -54.859   2.072 -21.781  1.00  0.00     0.059 C 
HETATM    3  C2  UNL     1     -53.913   1.248 -21.062  1.00  0.00     0.124 C 
ENDROOT
BRANCH   3   4
HETATM    4  C3  UNL     1     -53.704  -0.095 -21.728  1.00  0.00     0.014 C 
BRANCH   4   5
HETATM    5  C4  UNL     1     -52.465   0.017 -22.573  1.00  0.00     0.002 C 
BRANCH   5   6
HETATM    6  C5  UNL     1     -52.199  -1.189 -23.442  1.00  0.00     0.020 C 
BRANCH   6   7
HETATM    7  C6  UNL     1     -51.704  -0.846 -24.799  1.00  0.00     0.134 C 
BRANCH   7   8
HETATM    8  N2  UNL     1     -52.230  -1.599 -25.881  1.00  0.00    -0.295 N 
HETATM    9  C7  UNL     1     -51.516  -2.681 -26.314  1.00  0.00     0.337 A 
HETATM   10  O1  UNL     1     -50.414  -2.931 -25.715  1.00  0.00    -0.246 OA
HETATM   11  N3  UNL     1     -51.964  -3.432 -27.316  1.00  0.00    -0.222 N 
HETATM   12  C13 UNL     1     -53.107  -3.213 -27.972  1.00  0.00     0.292 A 
HETATM   13  O5  UNL     1     -53.518  -3.938 -28.925  1.00  0.00    -0.264 OA
HETATM   14  C14 UNL     1     -53.849  -2.124 -27.557  1.00  0.00     0.172 A 
HETATM   15  O6  UNL     1     -54.989  -1.693 -28.023  1.00  0.00    -0.302 OA
HETATM   16  C21 UNL     1     -53.387  -1.334 -26.508  1.00  0.00     0.091 A 
HETATM   17  C15 UNL     1     -55.315  -0.633 -27.324  1.00  0.00     0.089 A 
HETATM   18  C16 UNL     1     -56.448   0.164 -27.461  1.00  0.00     0.038 A 
HETATM   19  C20 UNL     1     -54.364  -0.354 -26.367  1.00  0.00     0.028 A 
HETATM   20  C17 UNL     1     -56.556   1.228 -26.599  1.00  0.00     0.003 A 
HETATM   21  C18 UNL     1     -55.615   1.512 -25.648  1.00  0.00     0.001 A 
HETATM   22  C19 UNL     1     -54.472   0.711 -25.507  1.00  0.00     0.017 A 
BRANCH  11  23
HETATM   23  C8  UNL     1     -51.188  -4.546 -27.731  1.00  0.00     0.117 A 
HETATM   24  C9  UNL     1     -50.407  -4.477 -28.866  1.00  0.00     0.073 A 
HETATM   25  C10 UNL     1     -49.651  -5.578 -29.262  1.00  0.00     0.120 A 
HETATM   26  C11 UNL     1     -49.700  -6.723 -28.504  1.00  0.00     0.127 A 
HETATM   27  N5  UNL     1     -50.471  -6.799 -27.381  1.00  0.00    -0.329 N 
HETATM   28  C12 UNL     1     -51.200  -5.719 -27.009  1.00  0.00     0.273 A 
ATOM     29  H5  UNL     1     -50.498  -7.657 -26.829  1.00  0.00     0.168 HD
HETATM   30  O4  UNL     1     -51.917  -5.768 -25.978  1.00  0.00    -0.266 OA
BRANCH  25  31
HETATM   31  N4  UNL     1     -48.853  -5.482 -30.434  1.00  0.00    -0.114 N 
HETATM   32  O2  UNL     1     -49.130  -4.668 -31.338  1.00  0.00    -0.532 OA
HETATM   33  O3  UNL     1     -47.755  -6.286 -30.601  1.00  0.00    -0.532 OA
ENDBRANCH  25  31
ENDBRANCH  11  23
ENDBRANCH   7   8
ENDBRANCH   6   7
ENDBRANCH   5   6
ENDBRANCH   4   5
ENDBRANCH   3   4
TORSDOF 7
ENDMDL
MODEL 3
REMARK VINA RESULT: -8.551948512      1.315      1.570
REMARK  7 active torsions:
REMARK  status: ('A' for Active; 'I' for Inactive)
REMARK    1  A    between atoms: C2_3  and  C3_4 
REMARK    2  A    between atoms: C3_4  and  C4_5 
REMARK    3  A    between atoms: C4_5  and  C5_6 
REMARK    4  A    between atoms: C5_6  and  C6_7 
REMARK    5  A    between atoms: C6_7  and  N2_8 
REMARK    6  A    between atoms: N3_11  and  C8_12 
REMARK    7  A    between atoms: C10_14  and  N4_15 
ROOT
HETATM    1  N1  UNL     1     -52.918  -2.911 -19.787  1.00  0.00    -0.197 NA
HETATM    2  C1  UNL     1     -52.643  -1.812 -19.944  1.00  0.00     0.059 C 
HETATM    3  C2  UNL     1     -52.294  -0.427 -20.170  1.00  0.00     0.124 C 
ENDROOT
BRANCH   3   4
HETATM    4  C3  UNL     1     -53.104   0.190 -21.290  1.00  0.00     0.014 C 
BRANCH   4   5
HETATM    5  C4  UNL     1     -52.214   0.250 -22.501  1.00  0.00     0.002 C 
BRANCH   5   6
HETATM    6  C5  UNL     1     -52.365  -0.925 -23.437  1.00  0.00     0.020 C 
BRANCH   6   7
HETATM    7  C6  UNL     1     -51.779  -0.692 -24.782  1.00  0.00     0.134 C 
BRANCH   7   8
HETATM    8  N2  UNL     1     -52.307  -1.460 -25.851  1.00  0.00    -0.295 N 
HETATM    9  C7  UNL     1     -51.585  -2.538 -26.283  1.00  0.00     0.337 A 
HETATM   10  O1  UNL     1     -50.475  -2.769 -25.694  1.00  0.00    -0.246 OA
HETATM   11  N3  UNL     1     -52.035  -3.303 -27.274  1.00  0.00    -0.222 N 
HETATM   12  C13 UNL     1     -53.187  -3.102 -27.919  1.00  0.00     0.292 A 
HETATM   13  O5  UNL     1     -53.600  -3.840 -28.861  1.00  0.00    -0.264 OA
HETATM   14  C14 UNL     1     -53.938  -2.018 -27.505  1.00  0.00     0.172 A 
HETATM   15  O6  UNL     1     -55.088  -1.605 -27.963  1.00  0.00    -0.302 OA
HETATM   16  C21 UNL     1     -53.474  -1.214 -26.468  1.00  0.00     0.091 A 
HETATM   17  C15 UNL     1     -55.419  -0.543 -27.269  1.00  0.00     0.089 A 
HETATM   18  C16 UNL     1     -56.562   0.240 -27.401  1.00  0.00     0.038 A 
HETATM   19  C20 UNL     1     -54.461  -0.244 -26.325  1.00  0.00     0.028 A 
HETATM   20  C17 UNL     1     -56.674   1.310 -26.547  1.00  0.00     0.003 A 
HETATM   21  C18 UNL     1     -55.726   1.613 -25.608  1.00  0.00     0.001 A 
HETATM   22  C19 UNL     1     -54.573   0.826 -25.472  1.00  0.00     0.017 A 
BRANCH  11  23
HETATM   23  C8  UNL     1     -51.250  -4.410 -27.687  1.00  0.00     0.117 A 
HETATM   24  C9  UNL     1     -51.243  -5.581 -26.956  1.00  0.00     0.073 A 
HETATM   25  C10 UNL     1     -50.467  -6.660 -27.374  1.00  0.00     0.120 A 
HETATM   26  C11 UNL     1     -49.717  -6.534 -28.517  1.00  0.00     0.127 A 
HETATM   27  N5  UNL     1     -49.718  -5.380 -29.245  1.00  0.00    -0.329 N 
HETATM   28  C12 UNL     1     -50.478  -4.339 -28.826  1.00  0.00     0.273 A 
ATOM     29  H5  UNL     1     -49.155  -5.301 -30.092  1.00  0.00     0.168 HD
HETATM   30  O4  UNL     1     -50.494  -3.266 -29.481  1.00  0.00    -0.266 OA
BRANCH  25  31
HETATM   31  N4  UNL     1     -50.477  -7.855 -26.604  1.00  0.00    -0.114 N 
HETATM   32  O2  UNL     1     -50.110  -8.941 -27.094  1.00  0.00    -0.532 OA
HETATM   33  O3  UNL     1     -50.894  -7.842 -25.298  1.00  0.00    -0.532 OA
ENDBRANCH  25  31
ENDBRANCH  11  23
ENDBRANCH   7   8
ENDBRANCH   6   7
ENDBRANCH   5   6
ENDBRANCH   4   5
ENDBRANCH   3   4
TORSDOF 7
ENDMDL
MODEL 4
REMARK VINA RESULT: -8.189789785      4.219      6.628
REMARK  7 active torsions:
REMARK  status: ('A' for Active; 'I' for Inactive)
REMARK    1  A    between atoms: C2_3  and  C3_4 
REMARK    2  A    between atoms: C3_4  and  C4_5 
REMARK    3  A    between atoms: C4_5  and  C5_6 
REMARK    4  A    between atoms: C5_6  and  C6_7 
REMARK    5  A    between atoms: C6_7  and  N2_8 
REMARK    6  A    between atoms: N3_11  and  C8_12 
REMARK    7  A    between atoms: C10_14  and  N4_15 
ROOT
HETATM    1  N1  UNL     1     -53.931  -3.339 -29.145  1.00  0.00    -0.197 NA
HETATM    2  C1  UNL     1     -52.794  -3.308 -29.022  1.00  0.00     0.059 C 
HETATM    3  C2  UNL     1     -51.358  -3.243 -28.869  1.00  0.00     0.124 C 
ENDROOT
BRANCH   3   4
HETATM    4  C3  UNL     1     -50.930  -2.092 -27.984  1.00  0.00     0.014 C 
BRANCH   4   5
HETATM    5  C4  UNL     1     -50.577  -2.672 -26.642  1.00  0.00     0.002 C 
BRANCH   5   6
HETATM    6  C5  UNL     1     -51.570  -2.351 -25.550  1.00  0.00     0.020 C 
BRANCH   6   7
HETATM    7  C6  UNL     1     -50.954  -1.726 -24.352  1.00  0.00     0.134 C 
BRANCH   7   8
HETATM    8  N2  UNL     1     -51.506  -2.077 -23.093  1.00  0.00    -0.295 N 
HETATM    9  C7  UNL     1     -50.890  -3.065 -22.376  1.00  0.00     0.337 A 
HETATM   10  O1  UNL     1     -49.860  -3.611 -22.902  1.00  0.00    -0.246 OA
HETATM   11  N3  UNL     1     -51.355  -3.430 -21.185  1.00  0.00    -0.222 N 
HETATM   12  C13 UNL     1     -52.425  -2.891 -20.594  1.00  0.00     0.292 A 
HETATM   13  O5  UNL     1     -52.854  -3.251 -19.460  1.00  0.00    -0.264 OA
HETATM   14  C14 UNL     1     -53.070  -1.890 -21.297  1.00  0.00     0.172 A 
HETATM   15  O6  UNL     1     -54.126  -1.207 -20.951  1.00  0.00    -0.302 OA
HETATM   16  C21 UNL     1     -52.589  -1.503 -22.544  1.00  0.00     0.091 A 
HETATM   17  C15 UNL     1     -54.379  -0.368 -21.926  1.00  0.00     0.089 A 
HETATM   18  C16 UNL     1     -55.410   0.563 -22.005  1.00  0.00     0.038 A 
HETATM   19  C20 UNL     1     -53.463  -0.499 -22.947  1.00  0.00     0.028 A 
HETATM   20  C17 UNL     1     -55.458   1.329 -23.144  1.00  0.00     0.003 A 
HETATM   21  C18 UNL     1     -54.553   1.203 -24.163  1.00  0.00     0.001 A 
HETATM   22  C19 UNL     1     -53.512   0.266 -24.086  1.00  0.00     0.017 A 
BRANCH  11  23
HETATM   23  C8  UNL     1     -50.681  -4.460 -20.479  1.00  0.00     0.117 A 
HETATM   24  C9  UNL     1     -50.912  -5.787 -20.778  1.00  0.00     0.073 A 
HETATM   25  C10 UNL     1     -50.245  -6.788 -20.075  1.00  0.00     0.120 A 
HETATM   26  C11 UNL     1     -49.361  -6.428 -19.088  1.00  0.00     0.127 A 
HETATM   27  N5  UNL     1     -49.127  -5.118 -18.785  1.00  0.00    -0.329 N 
HETATM   28  C12 UNL     1     -49.784  -4.156 -19.478  1.00  0.00     0.273 A 
ATOM     29  H5  UNL     1     -48.468  -4.866 -18.049  1.00  0.00     0.168 HD
HETATM   30  O4  UNL     1     -49.585  -2.943 -19.215  1.00  0.00    -0.266 OA
BRANCH  25  31
HETATM   31  N4  UNL     1     -50.499  -8.147 -20.403  1.00  0.00    -0.114 N 
HETATM   32  O2  UNL     1     -51.092  -8.903 -19.608  1.00  0.00    -0.532 OA
HETATM   33  O3  UNL     1     -50.096  -8.663 -21.608  1.00  0.00    -0.532 OA
ENDBRANCH  25  31
ENDBRANCH  11  23
ENDBRANCH   7   8
ENDBRANCH   6   7
ENDBRANCH   5   6
ENDBRANCH   4   5
ENDBRANCH   3   4
TORSDOF 7
ENDMDL
MODEL 5
REMARK VINA RESULT: -8.134251665      3.894      6.082
REMARK  7 active torsions:
REMARK  status: ('A' for Active; 'I' for Inactive)
REMARK    1  A    between atoms: C2_3  and  C3_4 
REMARK    2  A    between atoms: C3_4  and  C4_5 
REMARK    3  A    between atoms: C4_5  and  C5_6 
REMARK    4  A    between atoms: C5_6  and  C6_7 
REMARK    5  A    between atoms: C6_7  and  N2_8 
REMARK    6  A    between atoms: N3_11  and  C8_12 
REMARK    7  A    between atoms: C10_14  and  N4_15 
ROOT
HETATM    1  N1  UNL     1     -54.258  -2.967 -29.194  1.00  0.00    -0.197 NA
HETATM    2  C1  UNL     1     -53.516  -2.155 -29.511  1.00  0.00     0.059 C 
HETATM    3  C2  UNL     1     -52.584  -1.117 -29.889  1.00  0.00     0.124 C 
ENDROOT
BRANCH   3   4
HETATM    4  C3  UNL     1     -51.685  -0.711 -28.742  1.00  0.00     0.014 C 
BRANCH   4   5
HETATM    5  C4  UNL     1     -50.866  -1.918 -28.372  1.00  0.00     0.002 C 
BRANCH   5   6
HETATM    6  C5  UNL     1     -50.666  -2.096 -26.885  1.00  0.00     0.020 C 
BRANCH   6   7
HETATM    7  C6  UNL     1     -51.834  -2.703 -26.198  1.00  0.00     0.134 C 
BRANCH   7   8
HETATM    8  N2  UNL     1     -51.878  -2.581 -24.785  1.00  0.00    -0.295 N 
HETATM    9  C7  UNL     1     -51.131  -3.452 -24.043  1.00  0.00     0.337 A 
HETATM   10  O1  UNL     1     -50.449  -4.326 -24.681  1.00  0.00    -0.246 OA
HETATM   11  N3  UNL     1     -51.123  -3.379 -22.715  1.00  0.00    -0.222 N 
HETATM   12  C13 UNL     1     -51.817  -2.485 -22.004  1.00  0.00     0.292 A 
HETATM   13  O5  UNL     1     -51.798  -2.430 -20.740  1.00  0.00    -0.264 OA
HETATM   14  C14 UNL     1     -52.583  -1.592 -22.728  1.00  0.00     0.172 A 
HETATM   15  O6  UNL     1     -53.346  -0.631 -22.284  1.00  0.00    -0.302 OA
HETATM   16  C21 UNL     1     -52.596  -1.662 -24.118  1.00  0.00     0.091 A 
HETATM   17  C15 UNL     1     -53.878  -0.047 -23.330  1.00  0.00     0.089 A 
HETATM   18  C16 UNL     1     -54.760   1.029 -23.350  1.00  0.00     0.038 A 
HETATM   19  C20 UNL     1     -53.455  -0.638 -24.501  1.00  0.00     0.028 A 
HETATM   20  C17 UNL     1     -55.177   1.457 -24.587  1.00  0.00     0.003 A 
HETATM   21  C18 UNL     1     -54.762   0.874 -25.753  1.00  0.00     0.001 A 
HETATM   22  C19 UNL     1     -53.873  -0.210 -25.737  1.00  0.00     0.017 A 
BRANCH  11  23
HETATM   23  C8  UNL     1     -50.331  -4.305 -21.987  1.00  0.00     0.117 A 
HETATM   24  C9  UNL     1     -49.042  -3.988 -21.612  1.00  0.00     0.073 A 
HETATM   25  C10 UNL     1     -48.276  -4.907 -20.899  1.00  0.00     0.120 A 
HETATM   26  C11 UNL     1     -48.827  -6.125 -20.582  1.00  0.00     0.127 A 
HETATM   27  N5  UNL     1     -50.101  -6.446 -20.950  1.00  0.00    -0.329 N 
HETATM   28  C12 UNL     1     -50.834  -5.541 -21.643  1.00  0.00     0.273 A 
ATOM     29  H5  UNL     1     -50.496  -7.355 -20.707  1.00  0.00     0.168 HD
HETATM   30  O4  UNL     1     -52.009  -5.817 -21.992  1.00  0.00    -0.266 OA
BRANCH  25  31
HETATM   31  N4  UNL     1     -46.951  -4.556 -20.523  1.00  0.00    -0.114 N 
HETATM   32  O2  UNL     1     -46.238  -5.339 -19.865  1.00  0.00    -0.532 OA
HETATM   33  O3  UNL     1     -46.422  -3.341 -20.877  1.00  0.00    -0.532 OA
ENDBRANCH  25  31
ENDBRANCH  11  23
ENDBRANCH   7   8
ENDBRANCH   6   7
ENDBRANCH   5   6
ENDBRANCH   4   5
ENDBRANCH   3   4
TORSDOF 7
ENDMDL
