MODEL 1
REMARK VINA RESULT: -8.387014580      0.000      0.000
REMARK  7 active torsions:
REMARK  status: ('A' for Active; 'I' for Inactive)
REMARK    1  A    between atoms: C1_2  and  C2_3 
REMARK       I    between atoms: C1_2  and  N4_23 
REMARK    2  A    between atoms: C2_3  and  S1_4 
REMARK    3  A    between atoms: S1_4  and  C3_5 
REMARK    4  A    between atoms: C4_10  and  C5_11 
REMARK    5  A    between atoms: N3_16  and  C9_17 
REMARK    6  A    between atoms: C9_17  and  C10_18 
REMARK    7  A    between atoms: N4_23  and  C14_25 
ROOT
HETATM    1  C3  UNL     1     -52.010  -5.289 -24.882  1.00  0.00     0.163 A 
HETATM    2  N1  UNL     1     -52.114  -6.611 -24.787  1.00  0.00    -0.278 N 
ATOM      3  H1  UNL     1     -52.693  -7.116 -24.116  1.00  0.00     0.189 HD
HETATM    4  N2  UNL     1     -51.355  -7.153 -25.693  1.00  0.00    -0.281 N 
ATOM      5  H2  UNL     1     -51.242  -8.155 -25.848  1.00  0.00     0.188 HD
HETATM    6  C4  UNL     1     -50.744  -6.185 -26.394  1.00  0.00     0.159 A 
HETATM    7  N3  UNL     1     -51.138  -5.021 -25.903  1.00  0.00    -0.307 N 
ENDROOT
BRANCH   1   8
HETATM    8  S1  UNL     1     -52.844  -4.095 -23.871  1.00  0.00    -0.083 SA
BRANCH   8   9
HETATM    9  C2  UNL     1     -51.841  -3.582 -22.484  1.00  0.00     0.185 C 
BRANCH   9  10
HETATM   10  C1  UNL     1     -52.618  -2.594 -21.636  1.00  0.00     0.232 C 
HETATM   11  O1  UNL     1     -53.413  -3.076 -20.807  1.00  0.00    -0.272 OA
HETATM   12  N4  UNL     1     -52.382  -1.237 -21.850  1.00  0.00    -0.324 N 
ATOM     13  H4  UNL     1     -51.700  -0.985 -22.565  1.00  0.00     0.169 HD
BRANCH  12  14
HETATM   14  C14 UNL     1     -53.013  -0.185 -21.156  1.00  0.00     0.071 A 
HETATM   15  C15 UNL     1     -52.777   0.229 -19.884  1.00  0.00     0.032 A 
HETATM   16  C16 UNL     1     -53.463   1.295 -19.276  1.00  0.00     0.005 A 
HETATM   17  C17 UNL     1     -54.431   1.972 -19.978  1.00  0.00     0.040 A 
HETATM   18  C18 UNL     1     -54.693   1.577 -21.264  1.00  0.00     0.107 A 
HETATM   19  C19 UNL     1     -54.015   0.539 -21.839  1.00  0.00     0.131 A 
HETATM   20  O5  UNL     1     -55.601   2.063 -22.211  1.00  0.00    -0.323 OA
HETATM   21  O4  UNL     1     -54.503   0.389 -23.125  1.00  0.00    -0.321 OA
HETATM   22  C20 UNL     1     -55.246   1.538 -23.483  1.00  0.00     0.352 C 
ENDBRANCH  12  14
ENDBRANCH   9  10
ENDBRANCH   8   9
ENDBRANCH   1   8
BRANCH   7  23
HETATM   23  C9  UNL     1     -50.788  -3.693 -26.314  1.00  0.00     0.165 C 
BRANCH  23  24
HETATM   24  C10 UNL     1     -51.624  -3.184 -27.485  1.00  0.00     0.140 C 
HETATM   25  C11 UNL     1     -50.729  -2.670 -28.584  1.00  0.00     0.035 C 
HETATM   26  C12 UNL     1     -50.649  -1.204 -28.290  1.00  0.00     0.029 C 
HETATM   27  C13 UNL     1     -52.046  -0.973 -27.713  1.00  0.00     0.168 C 
HETATM   28  O3  UNL     1     -52.418  -2.152 -27.135  1.00  0.00    -0.384 OA
ENDBRANCH  23  24
ENDBRANCH   7  23
BRANCH   6  29
HETATM   29  C5  UNL     1     -49.823  -6.444 -27.523  1.00  0.00     0.120 A 
HETATM   30  C6  UNL     1     -48.675  -7.208 -27.481  1.00  0.00     0.043 A 
HETATM   31  C7  UNL     1     -48.093  -7.211 -28.732  1.00  0.00     0.027 A 
HETATM   32  C8  UNL     1     -48.927  -6.431 -29.503  1.00  0.00     0.142 A 
HETATM   33  O2  UNL     1     -49.928  -6.005 -28.744  1.00  0.00    -0.319 OA
ENDBRANCH   6  29
TORSDOF 7
ENDMDL
MODEL 2
REMARK VINA RESULT: -8.344415484      2.359      3.860
REMARK  7 active torsions:
REMARK  status: ('A' for Active; 'I' for Inactive)
REMARK    1  A    between atoms: C1_2  and  C2_3 
REMARK       I    between atoms: C1_2  and  N4_23 
REMARK    2  A    between atoms: C2_3  and  S1_4 
REMARK    3  A    between atoms: S1_4  and  C3_5 
REMARK    4  A    between atoms: C4_10  and  C5_11 
REMARK    5  A    between atoms: N3_16  and  C9_17 
REMARK    6  A    between atoms: C9_17  and  C10_18 
REMARK    7  A    between atoms: N4_23  and  C14_25 
ROOT
HETATM    1  C3  UNL     1     -51.454  -1.360 -24.243  1.00  0.00     0.163 A 
HETATM    2  N1  UNL     1     -52.349  -0.378 -24.206  1.00  0.00    -0.278 N 
ATOM      3  H1  UNL     1     -52.595   0.172 -23.383  1.00  0.00     0.189 HD
HETATM    4  N2  UNL     1     -52.860  -0.237 -25.394  1.00  0.00    -0.281 N 
ATOM      5  H2  UNL     1     -53.573   0.444 -25.653  1.00  0.00     0.188 HD
HETATM    6  C4  UNL     1     -52.299  -1.130 -26.224  1.00  0.00     0.159 A 
HETATM    7  N3  UNL     1     -51.424  -1.837 -25.527  1.00  0.00    -0.307 N 
ENDROOT
BRANCH   1   8
HETATM    8  S1  UNL     1     -50.480  -1.945 -22.882  1.00  0.00    -0.083 SA
BRANCH   8   9
HETATM    9  C2  UNL     1     -51.450  -2.915 -21.738  1.00  0.00     0.185 C 
BRANCH   9  10
HETATM   10  C1  UNL     1     -52.460  -2.021 -21.047  1.00  0.00     0.232 C 
HETATM   11  O1  UNL     1     -53.547  -2.544 -20.736  1.00  0.00    -0.272 OA
HETATM   12  N4  UNL     1     -52.094  -0.696 -20.815  1.00  0.00    -0.324 N 
ATOM     13  H4  UNL     1     -51.167  -0.403 -21.124  1.00  0.00     0.169 HD
BRANCH  12  14
HETATM   14  C14 UNL     1     -52.905   0.271 -20.188  1.00  0.00     0.071 A 
HETATM   15  C15 UNL     1     -52.957   0.579 -18.865  1.00  0.00     0.032 A 
HETATM   16  C16 UNL     1     -53.805   1.566 -18.332  1.00  0.00     0.005 A 
HETATM   17  C17 UNL     1     -54.639   2.272 -19.165  1.00  0.00     0.040 A 
HETATM   18  C18 UNL     1     -54.611   1.983 -20.506  1.00  0.00     0.107 A 
HETATM   19  C19 UNL     1     -53.779   1.021 -21.006  1.00  0.00     0.131 A 
HETATM   20  O5  UNL     1     -55.326   2.522 -21.580  1.00  0.00    -0.323 OA
HETATM   21  O4  UNL     1     -53.983   0.969 -22.373  1.00  0.00    -0.321 OA
HETATM   22  C20 UNL     1     -54.691   2.121 -22.787  1.00  0.00     0.352 C 
ENDBRANCH  12  14
ENDBRANCH   9  10
ENDBRANCH   8   9
ENDBRANCH   1   8
BRANCH   7  23
HETATM   23  C9  UNL     1     -50.558  -2.895 -25.956  1.00  0.00     0.165 C 
BRANCH  23  24
HETATM   24  C10 UNL     1     -51.141  -4.285 -25.720  1.00  0.00     0.140 C 
HETATM   25  C11 UNL     1     -51.100  -5.094 -26.992  1.00  0.00     0.035 C 
HETATM   26  C12 UNL     1     -52.460  -4.864 -27.575  1.00  0.00     0.029 C 
HETATM   27  C13 UNL     1     -53.282  -4.741 -26.292  1.00  0.00     0.168 C 
HETATM   28  O3  UNL     1     -52.435  -4.240 -25.346  1.00  0.00    -0.384 OA
ENDBRANCH  23  24
ENDBRANCH   7  23
BRANCH   6  29
HETATM   29  C5  UNL     1     -52.628  -1.234 -27.663  1.00  0.00     0.120 A 
HETATM   30  C6  UNL     1     -51.792  -0.927 -28.716  1.00  0.00     0.043 A 
HETATM   31  C7  UNL     1     -52.460  -1.157 -29.902  1.00  0.00     0.027 A 
HETATM   32  C8  UNL     1     -53.705  -1.604 -29.514  1.00  0.00     0.142 A 
HETATM   33  O2  UNL     1     -53.750  -1.631 -28.189  1.00  0.00    -0.319 OA
ENDBRANCH   6  29
TORSDOF 7
ENDMDL
MODEL 3
REMARK VINA RESULT: -8.335626366      1.687      3.690
REMARK  7 active torsions:
REMARK  status: ('A' for Active; 'I' for Inactive)
REMARK    1  A    between atoms: C1_2  and  C2_3 
REMARK       I    between atoms: C1_2  and  N4_23 
REMARK    2  A    between atoms: C2_3  and  S1_4 
REMARK    3  A    between atoms: S1_4  and  C3_5 
REMARK    4  A    between atoms: C4_10  and  C5_11 
REMARK    5  A    between atoms: N3_16  and  C9_17 
REMARK    6  A    between atoms: C9_17  and  C10_18 
REMARK    7  A    between atoms: N4_23  and  C14_25 
ROOT
HETATM    1  C3  UNL     1     -53.112  -3.108 -24.680  1.00  0.00     0.163 A 
HETATM    2  N1  UNL     1     -53.622  -1.892 -24.519  1.00  0.00    -0.278 N 
ATOM      3  H1  UNL     1     -53.875  -1.465 -23.628  1.00  0.00     0.189 HD
HETATM    4  N2  UNL     1     -53.747  -1.336 -25.688  1.00  0.00    -0.281 N 
ATOM      5  H2  UNL     1     -54.115  -0.400 -25.861  1.00  0.00     0.188 HD
HETATM    6  C4  UNL     1     -53.316  -2.189 -26.631  1.00  0.00     0.159 A 
HETATM    7  N3  UNL     1     -52.918  -3.295 -26.023  1.00  0.00    -0.307 N 
ENDROOT
BRANCH   1   8
HETATM    8  S1  UNL     1     -52.749  -4.275 -23.394  1.00  0.00    -0.083 SA
BRANCH   8   9
HETATM    9  C2  UNL     1     -51.752  -3.550 -22.101  1.00  0.00     0.185 C 
BRANCH   9  10
HETATM   10  C1  UNL     1     -52.582  -2.543 -21.328  1.00  0.00     0.232 C 
HETATM   11  O1  UNL     1     -53.443  -3.007 -20.557  1.00  0.00    -0.272 OA
HETATM   12  N4  UNL     1     -52.315  -1.192 -21.540  1.00  0.00    -0.324 N 
ATOM     13  H4  UNL     1     -51.577  -0.956 -22.203  1.00  0.00     0.169 HD
BRANCH  12  14
HETATM   14  C14 UNL     1     -52.986  -0.125 -20.909  1.00  0.00     0.071 A 
HETATM   15  C15 UNL     1     -52.810   0.334 -19.642  1.00  0.00     0.032 A 
HETATM   16  C16 UNL     1     -53.532   1.411 -19.101  1.00  0.00     0.005 A 
HETATM   17  C17 UNL     1     -54.476   2.054 -19.865  1.00  0.00     0.040 A 
HETATM   18  C18 UNL     1     -54.678   1.613 -21.148  1.00  0.00     0.107 A 
HETATM   19  C19 UNL     1     -53.965   0.565 -21.658  1.00  0.00     0.131 A 
HETATM   20  O5  UNL     1     -55.549   2.057 -22.149  1.00  0.00    -0.323 OA
HETATM   21  O4  UNL     1     -54.395   0.367 -22.958  1.00  0.00    -0.321 OA
HETATM   22  C20 UNL     1     -55.134   1.495 -23.386  1.00  0.00     0.352 C 
ENDBRANCH  12  14
ENDBRANCH   9  10
ENDBRANCH   8   9
ENDBRANCH   1   8
BRANCH   7  23
HETATM   23  C9  UNL     1     -52.362  -4.492 -26.582  1.00  0.00     0.165 C 
BRANCH  23  24
HETATM   24  C10 UNL     1     -50.836  -4.488 -26.619  1.00  0.00     0.140 C 
HETATM   25  C11 UNL     1     -50.346  -4.441 -28.043  1.00  0.00     0.035 C 
HETATM   26  C12 UNL     1     -50.131  -5.887 -28.369  1.00  0.00     0.029 C 
HETATM   27  C13 UNL     1     -49.697  -6.405 -26.998  1.00  0.00     0.168 C 
HETATM   28  O3  UNL     1     -50.310  -5.605 -26.078  1.00  0.00    -0.384 OA
ENDBRANCH  23  24
ENDBRANCH   7  23
BRANCH   6  29
HETATM   29  C5  UNL     1     -53.292  -1.873 -28.076  1.00  0.00     0.120 A 
HETATM   30  C6  UNL     1     -52.282  -1.219 -28.752  1.00  0.00     0.043 A 
HETATM   31  C7  UNL     1     -52.628  -1.117 -30.084  1.00  0.00     0.027 A 
HETATM   32  C8  UNL     1     -53.862  -1.725 -30.168  1.00  0.00     0.142 A 
HETATM   33  O2  UNL     1     -54.205  -2.152 -28.960  1.00  0.00    -0.319 OA
ENDBRANCH   6  29
TORSDOF 7
ENDMDL
MODEL 4
REMARK VINA RESULT: -8.258048719      2.165      4.008
REMARK  7 active torsions:
REMARK  status: ('A' for Active; 'I' for Inactive)
REMARK    1  A    between atoms: C1_2  and  C2_3 
REMARK       I    between atoms: C1_2  and  N4_23 
REMARK    2  A    between atoms: C2_3  and  S1_4 
REMARK    3  A    between atoms: S1_4  and  C3_5 
REMARK    4  A    between atoms: C4_10  and  C5_11 
REMARK    5  A    between atoms: N3_16  and  C9_17 
REMARK    6  A    between atoms: C9_17  and  C10_18 
REMARK    7  A    between atoms: N4_23  and  C14_25 
ROOT
HETATM    1  C3  UNL     1     -51.047  -3.178 -22.911  1.00  0.00     0.163 A 
HETATM    2  N1  UNL     1     -50.517  -1.965 -23.032  1.00  0.00    -0.278 N 
ATOM      3  H1  UNL     1     -50.256  -1.349 -22.262  1.00  0.00     0.189 HD
HETATM    4  N2  UNL     1     -50.385  -1.693 -24.297  1.00  0.00    -0.281 N 
ATOM      5  H2  UNL     1     -50.004  -0.828 -24.680  1.00  0.00     0.188 HD
HETATM    6  C4  UNL     1     -50.831  -2.733 -25.020  1.00  0.00     0.159 A 
HETATM    7  N3  UNL     1     -51.247  -3.664 -24.176  1.00  0.00    -0.307 N 
ENDROOT
BRANCH   1   8
HETATM    8  S1  UNL     1     -51.428  -4.011 -21.393  1.00  0.00    -0.083 SA
BRANCH   8   9
HETATM    9  C2  UNL     1     -52.016  -2.879 -20.143  1.00  0.00     0.185 C 
BRANCH   9  10
HETATM   10  C1  UNL     1     -53.057  -1.956 -20.746  1.00  0.00     0.232 C 
HETATM   11  O1  UNL     1     -54.147  -2.473 -21.054  1.00  0.00    -0.272 OA
HETATM   12  N4  UNL     1     -52.714  -0.614 -20.905  1.00  0.00    -0.324 N 
ATOM     13  H4  UNL     1     -51.781  -0.329 -20.606  1.00  0.00     0.169 HD
BRANCH  12  14
HETATM   14  C14 UNL     1     -53.554   0.379 -21.446  1.00  0.00     0.071 A 
HETATM   15  C15 UNL     1     -54.251   1.333 -20.775  1.00  0.00     0.032 A 
HETATM   16  C16 UNL     1     -55.068   2.286 -21.408  1.00  0.00     0.005 A 
HETATM   17  C17 UNL     1     -55.192   2.276 -22.776  1.00  0.00     0.040 A 
HETATM   18  C18 UNL     1     -54.502   1.324 -23.482  1.00  0.00     0.107 A 
HETATM   19  C19 UNL     1     -53.711   0.408 -22.849  1.00  0.00     0.131 A 
HETATM   20  O5  UNL     1     -54.428   1.068 -24.856  1.00  0.00    -0.323 OA
HETATM   21  O4  UNL     1     -53.159  -0.404 -23.824  1.00  0.00    -0.321 OA
HETATM   22  C20 UNL     1     -53.326   0.202 -25.091  1.00  0.00     0.352 C 
ENDBRANCH  12  14
ENDBRANCH   9  10
ENDBRANCH   8   9
ENDBRANCH   1   8
BRANCH   7  23
HETATM   23  C9  UNL     1     -51.791  -4.961 -24.446  1.00  0.00     0.165 C 
BRANCH  23  24
HETATM   24  C10 UNL     1     -50.726  -6.013 -24.742  1.00  0.00     0.140 C 
HETATM   25  C11 UNL     1     -51.189  -7.372 -24.283  1.00  0.00     0.035 C 
HETATM   26  C12 UNL     1     -50.599  -7.480 -22.911  1.00  0.00     0.029 C 
HETATM   27  C13 UNL     1     -49.305  -6.691 -23.117  1.00  0.00     0.168 C 
HETATM   28  O3  UNL     1     -49.573  -5.770 -24.088  1.00  0.00    -0.384 OA
ENDBRANCH  23  24
ENDBRANCH   7  23
BRANCH   6  29
HETATM   29  C5  UNL     1     -50.807  -2.776 -26.499  1.00  0.00     0.120 A 
HETATM   30  C6  UNL     1     -51.028  -1.712 -27.350  1.00  0.00     0.043 A 
HETATM   31  C7  UNL     1     -50.918  -2.151 -28.654  1.00  0.00     0.027 A 
HETATM   32  C8  UNL     1     -50.630  -3.494 -28.543  1.00  0.00     0.142 A 
HETATM   33  O2  UNL     1     -50.576  -3.809 -27.256  1.00  0.00    -0.319 OA
ENDBRANCH   6  29
TORSDOF 7
ENDMDL
MODEL 5
REMARK VINA RESULT: -8.199130425      1.694      3.692
REMARK  7 active torsions:
REMARK  status: ('A' for Active; 'I' for Inactive)
REMARK    1  A    between atoms: C1_2  and  C2_3 
REMARK       I    between atoms: C1_2  and  N4_23 
REMARK    2  A    between atoms: C2_3  and  S1_4 
REMARK    3  A    between atoms: S1_4  and  C3_5 
REMARK    4  A    between atoms: C4_10  and  C5_11 
REMARK    5  A    between atoms: N3_16  and  C9_17 
REMARK    6  A    between atoms: C9_17  and  C10_18 
REMARK    7  A    between atoms: N4_23  and  C14_25 
ROOT
HETATM    1  C3  UNL     1     -52.343  -3.527 -24.825  1.00  0.00     0.163 A 
HETATM    2  N1  UNL     1     -53.502  -2.913 -24.612  1.00  0.00    -0.278 N 
ATOM      3  H1  UNL     1     -53.986  -2.848 -23.716  1.00  0.00     0.189 HD
HETATM    4  N2  UNL     1     -53.918  -2.408 -25.735  1.00  0.00    -0.281 N 
ATOM      5  H2  UNL     1     -54.782  -1.883 -25.864  1.00  0.00     0.188 HD
HETATM    6  C4  UNL     1     -53.027  -2.688 -26.701  1.00  0.00     0.159 A 
HETATM    7  N3  UNL     1     -52.043  -3.383 -26.154  1.00  0.00    -0.307 N 
ENDROOT
BRANCH   1   8
HETATM    8  S1  UNL     1     -51.365  -4.376 -23.613  1.00  0.00    -0.083 SA
BRANCH   8   9
HETATM    9  C2  UNL     1     -50.891  -3.300 -22.268  1.00  0.00     0.185 C 
BRANCH   9  10
HETATM   10  C1  UNL     1     -52.054  -2.396 -21.910  1.00  0.00     0.232 C 
HETATM   11  O1  UNL     1     -53.071  -2.953 -21.452  1.00  0.00    -0.272 OA
HETATM   12  N4  UNL     1     -51.894  -1.028 -22.119  1.00  0.00    -0.324 N 
ATOM     13  H4  UNL     1     -51.003  -0.711 -22.501  1.00  0.00     0.169 HD
BRANCH  12  14
HETATM   14  C14 UNL     1     -52.868  -0.046 -21.843  1.00  0.00     0.071 A 
HETATM   15  C15 UNL     1     -53.158   0.521 -20.643  1.00  0.00     0.032 A 
HETATM   16  C16 UNL     1     -54.154   1.498 -20.469  1.00  0.00     0.005 A 
HETATM   17  C17 UNL     1     -54.892   1.921 -21.548  1.00  0.00     0.040 A 
HETATM   18  C18 UNL     1     -54.623   1.366 -22.773  1.00  0.00     0.107 A 
HETATM   19  C19 UNL     1     -53.650   0.419 -22.923  1.00  0.00     0.131 A 
HETATM   20  O5  UNL     1     -55.192   1.589 -24.031  1.00  0.00    -0.323 OA
HETATM   21  O4  UNL     1     -53.624   0.063 -24.260  1.00  0.00    -0.321 OA
HETATM   22  C20 UNL     1     -54.340   1.020 -25.016  1.00  0.00     0.352 C 
ENDBRANCH  12  14
ENDBRANCH   9  10
ENDBRANCH   8   9
ENDBRANCH   1   8
BRANCH   7  23
HETATM   23  C9  UNL     1     -50.851  -3.903 -26.755  1.00  0.00     0.165 C 
BRANCH  23  24
HETATM   24  C10 UNL     1     -51.105  -5.103 -27.662  1.00  0.00     0.140 C 
HETATM   25  C11 UNL     1     -50.823  -6.387 -26.925  1.00  0.00     0.035 C 
HETATM   26  C12 UNL     1     -49.404  -6.682 -27.302  1.00  0.00     0.029 C 
HETATM   27  C13 UNL     1     -49.385  -6.119 -28.724  1.00  0.00     0.168 C 
HETATM   28  O3  UNL     1     -50.299  -5.106 -28.742  1.00  0.00    -0.384 OA
ENDBRANCH  23  24
ENDBRANCH   7  23
BRANCH   6  29
HETATM   29  C5  UNL     1     -53.171  -2.244 -28.105  1.00  0.00     0.120 A 
HETATM   30  C6  UNL     1     -52.367  -1.332 -28.759  1.00  0.00     0.043 A 
HETATM   31  C7  UNL     1     -52.819  -1.184 -30.054  1.00  0.00     0.027 A 
HETATM   32  C8  UNL     1     -53.904  -2.030 -30.140  1.00  0.00     0.142 A 
HETATM   33  O2  UNL     1     -54.066  -2.628 -28.967  1.00  0.00    -0.319 OA
ENDBRANCH   6  29
TORSDOF 7
ENDMDL
