MODEL 1
REMARK VINA RESULT: -7.012885323      0.000      0.000
REMARK  11 active torsions:
REMARK  status: ('A' for Active; 'I' for Inactive)
REMARK    1  A    between atoms: C2_2  and  S1_4 
REMARK    2  A    between atoms: S1_4  and  C4_5 
REMARK    3  A    between atoms: C4_5  and  C5_6 
REMARK    4  A    between atoms: C5_6  and  O2_8 
REMARK    5  A    between atoms: O2_8  and  N1_9 
REMARK    6  A    between atoms: N2_15  and  C10_16 
REMARK    7  A    between atoms: C13_19  and  N3_20 
REMARK    8  A    between atoms: C14_23  and  O5_24 
REMARK    9  A    between atoms: C15_26  and  C16_27 
REMARK   10  A    between atoms: C16_27  and  O7_29 
REMARK   11  A    between atoms: O7_29  and  C17_30 
ROOT
HETATM    1  C10 UNL     1     -52.349  -1.159 -23.213  1.00  0.00     0.055 A 
HETATM    2  C11 UNL     1     -52.471  -0.245 -24.265  1.00  0.00     0.033 A 
HETATM    3  C12 UNL     1     -53.492   0.639 -24.388  1.00  0.00     0.041 A 
HETATM    4  C13 UNL     1     -54.476   0.617 -23.385  1.00  0.00     0.137 A 
HETATM    5  C14 UNL     1     -54.425  -0.238 -22.337  1.00  0.00     0.117 A 
HETATM    6  C15 UNL     1     -53.331  -1.142 -22.260  1.00  0.00     0.102 A 
ENDROOT
BRANCH   1   7
HETATM    7  N2  UNL     1     -51.271  -2.073 -23.216  1.00  0.00    -0.334 N 
HETATM    8  C6  UNL     1     -51.183  -3.347 -23.890  1.00  0.00     0.105 C 
HETATM    9  N1  UNL     1     -51.761  -3.596 -25.021  1.00  0.00    -0.245 N 
HETATM   10  C7  UNL     1     -50.345  -4.292 -23.077  1.00  0.00     0.080 C 
ATOM     11  H1  UNL     1     -52.304  -2.858 -25.470  1.00  0.00     0.196 HD
HETATM   12  C8  UNL     1     -49.830  -3.413 -21.957  1.00  0.00     0.028 C 
HETATM   13  C9  UNL     1     -49.985  -1.982 -22.501  1.00  0.00     0.131 C 
BRANCH   9  14
HETATM   14  O2  UNL     1     -51.666  -4.821 -25.637  1.00  0.00    -0.197 OA
BRANCH  14  15
HETATM   15  C5  UNL     1     -51.942  -4.967 -26.974  1.00  0.00     0.290 C 
HETATM   16  O1  UNL     1     -51.101  -5.564 -27.688  1.00  0.00    -0.262 OA
BRANCH  15  17
HETATM   17  C4  UNL     1     -53.173  -4.464 -27.627  1.00  0.00     0.192 C 
BRANCH  17  18
HETATM   18  S1  UNL     1     -52.819  -3.335 -28.976  1.00  0.00    -0.126 SA
BRANCH  18  19
HETATM   19  C2  UNL     1     -52.011  -1.885 -28.336  1.00  0.00    -0.035 C 
HETATM   20  C1  UNL     1     -52.744  -0.897 -27.867  1.00  0.00     0.026 C 
HETATM   21  C3  UNL     1     -50.538  -1.795 -28.333  1.00  0.00     0.055 C 
ENDBRANCH  18  19
ENDBRANCH  17  18
ENDBRANCH  15  17
ENDBRANCH  14  15
ENDBRANCH   9  14
ENDBRANCH   1   7
BRANCH   6  22
HETATM   22  C16 UNL     1     -53.302  -2.015 -21.104  1.00  0.00     0.298 C 
HETATM   23  O6  UNL     1     -53.552  -3.236 -21.143  1.00  0.00    -0.259 OA
BRANCH  22  24
HETATM   24  O7  UNL     1     -52.979  -1.502 -19.853  1.00  0.00    -0.318 OA
BRANCH  24  25
HETATM   25  C17 UNL     1     -52.030  -0.455 -19.699  1.00  0.00     0.174 C 
HETATM   26  C18 UNL     1     -52.662   0.728 -19.001  1.00  0.00     0.034 C 
ENDBRANCH  24  25
ENDBRANCH  22  24
ENDBRANCH   6  22
BRANCH   5  27
HETATM   27  O5  UNL     1     -55.357  -0.301 -21.325  1.00  0.00    -0.357 OA
ATOM     28  H5  UNL     1     -55.933  -1.039 -21.162  1.00  0.00     0.217 HD
ENDBRANCH   5  27
BRANCH   4  29
HETATM   29  N3  UNL     1     -55.510   1.555 -23.559  1.00  0.00    -0.113 N 
HETATM   30  O3  UNL     1     -56.190   1.684 -24.584  1.00  0.00    -0.532 OA
HETATM   31  O4  UNL     1     -55.831   2.467 -22.540  1.00  0.00    -0.532 OA
ENDBRANCH   4  29
TORSDOF 11
ENDMDL
MODEL 2
REMARK VINA RESULT: -6.802565689      2.565      6.944
REMARK  11 active torsions:
REMARK  status: ('A' for Active; 'I' for Inactive)
REMARK    1  A    between atoms: C2_2  and  S1_4 
REMARK    2  A    between atoms: S1_4  and  C4_5 
REMARK    3  A    between atoms: C4_5  and  C5_6 
REMARK    4  A    between atoms: C5_6  and  O2_8 
REMARK    5  A    between atoms: O2_8  and  N1_9 
REMARK    6  A    between atoms: N2_15  and  C10_16 
REMARK    7  A    between atoms: C13_19  and  N3_20 
REMARK    8  A    between atoms: C14_23  and  O5_24 
REMARK    9  A    between atoms: C15_26  and  C16_27 
REMARK   10  A    between atoms: C16_27  and  O7_29 
REMARK   11  A    between atoms: O7_29  and  C17_30 
ROOT
HETATM    1  C10 UNL     1     -51.679  -1.784 -24.710  1.00  0.00     0.055 A 
HETATM    2  C11 UNL     1     -50.789  -1.074 -23.896  1.00  0.00     0.033 A 
HETATM    3  C12 UNL     1     -50.067  -1.633 -22.894  1.00  0.00     0.041 A 
HETATM    4  C13 UNL     1     -50.238  -3.011 -22.678  1.00  0.00     0.137 A 
HETATM    5  C14 UNL     1     -51.080  -3.763 -23.426  1.00  0.00     0.117 A 
HETATM    6  C15 UNL     1     -51.811  -3.123 -24.463  1.00  0.00     0.102 A 
ENDROOT
BRANCH   1   7
HETATM    7  N2  UNL     1     -52.423  -1.086 -25.689  1.00  0.00    -0.334 N 
HETATM    8  C6  UNL     1     -53.611  -0.287 -25.506  1.00  0.00     0.105 C 
HETATM    9  N1  UNL     1     -53.849   0.400 -24.435  1.00  0.00    -0.245 N 
HETATM   10  C7  UNL     1     -54.487  -0.397 -26.721  1.00  0.00     0.080 C 
ATOM     11  H1  UNL     1     -53.165   0.387 -23.679  1.00  0.00     0.196 HD
HETATM   12  C8  UNL     1     -53.636  -1.200 -27.683  1.00  0.00     0.028 C 
HETATM   13  C9  UNL     1     -52.204  -1.032 -27.146  1.00  0.00     0.131 C 
BRANCH   9  14
HETATM   14  O2  UNL     1     -54.993   1.147 -24.284  1.00  0.00    -0.197 OA
BRANCH  14  15
HETATM   15  C5  UNL     1     -55.461   1.487 -23.039  1.00  0.00     0.290 C 
HETATM   16  O1  UNL     1     -55.937   2.636 -22.880  1.00  0.00    -0.262 OA
BRANCH  15  17
HETATM   17  C4  UNL     1     -55.440   0.578 -21.868  1.00  0.00     0.192 C 
BRANCH  17  18
HETATM   18  S1  UNL     1     -54.071   0.921 -20.761  1.00  0.00    -0.126 SA
BRANCH  18  19
HETATM   19  C2  UNL     1     -53.060  -0.535 -20.602  1.00  0.00    -0.035 C 
HETATM   20  C1  UNL     1     -51.948  -0.469 -19.901  1.00  0.00     0.026 C 
HETATM   21  C3  UNL     1     -53.467  -1.797 -21.250  1.00  0.00     0.055 C 
ENDBRANCH  18  19
ENDBRANCH  17  18
ENDBRANCH  15  17
ENDBRANCH  14  15
ENDBRANCH   9  14
ENDBRANCH   1   7
BRANCH   6  22
HETATM   22  C16 UNL     1     -52.675  -3.974 -25.257  1.00  0.00     0.298 C 
HETATM   23  O6  UNL     1     -53.919  -3.901 -25.259  1.00  0.00    -0.259 OA
BRANCH  22  24
HETATM   24  O7  UNL     1     -52.123  -4.946 -26.084  1.00  0.00    -0.318 OA
BRANCH  24  25
HETATM   25  C17 UNL     1     -52.026  -4.761 -27.490  1.00  0.00     0.174 C 
HETATM   26  C18 UNL     1     -50.630  -4.320 -27.866  1.00  0.00     0.034 C 
ENDBRANCH  24  25
ENDBRANCH  22  24
ENDBRANCH   6  22
BRANCH   5  27
HETATM   27  O5  UNL     1     -51.285  -5.115 -23.263  1.00  0.00    -0.357 OA
ATOM     28  H5  UNL     1     -52.135  -5.529 -23.168  1.00  0.00     0.217 HD
ENDBRANCH   5  27
BRANCH   4  29
HETATM   29  N3  UNL     1     -49.464  -3.541 -21.631  1.00  0.00    -0.113 N 
HETATM   30  O3  UNL     1     -48.880  -4.631 -21.657  1.00  0.00    -0.532 OA
HETATM   31  O4  UNL     1     -49.324  -2.844 -20.419  1.00  0.00    -0.532 OA
ENDBRANCH   4  29
TORSDOF 11
ENDMDL
MODEL 3
REMARK VINA RESULT: -6.776573869      0.792      1.046
REMARK  11 active torsions:
REMARK  status: ('A' for Active; 'I' for Inactive)
REMARK    1  A    between atoms: C2_2  and  S1_4 
REMARK    2  A    between atoms: S1_4  and  C4_5 
REMARK    3  A    between atoms: C4_5  and  C5_6 
REMARK    4  A    between atoms: C5_6  and  O2_8 
REMARK    5  A    between atoms: O2_8  and  N1_9 
REMARK    6  A    between atoms: N2_15  and  C10_16 
REMARK    7  A    between atoms: C13_19  and  N3_20 
REMARK    8  A    between atoms: C14_23  and  O5_24 
REMARK    9  A    between atoms: C15_26  and  C16_27 
REMARK   10  A    between atoms: C16_27  and  O7_29 
REMARK   11  A    between atoms: O7_29  and  C17_30 
ROOT
HETATM    1  C10 UNL     1     -52.553  -1.011 -23.158  1.00  0.00     0.055 A 
HETATM    2  C11 UNL     1     -52.734  -0.070 -24.178  1.00  0.00     0.033 A 
HETATM    3  C12 UNL     1     -53.697   0.884 -24.169  1.00  0.00     0.041 A 
HETATM    4  C13 UNL     1     -54.555   0.911 -23.056  1.00  0.00     0.137 A 
HETATM    5  C14 UNL     1     -54.441   0.034 -22.030  1.00  0.00     0.117 A 
HETATM    6  C15 UNL     1     -53.411  -0.944 -22.094  1.00  0.00     0.102 A 
ENDROOT
BRANCH   1   7
HETATM    7  N2  UNL     1     -51.550  -1.996 -23.300  1.00  0.00    -0.334 N 
HETATM    8  C6  UNL     1     -51.630  -3.257 -23.998  1.00  0.00     0.105 C 
HETATM    9  N1  UNL     1     -52.350  -3.439 -25.058  1.00  0.00    -0.245 N 
HETATM   10  C7  UNL     1     -50.774  -4.276 -23.302  1.00  0.00     0.080 C 
ATOM     11  H1  UNL     1     -52.888  -2.656 -25.430  1.00  0.00     0.196 HD
HETATM   12  C8  UNL     1     -50.073  -3.461 -22.236  1.00  0.00     0.028 C 
HETATM   13  C9  UNL     1     -50.188  -2.010 -22.737  1.00  0.00     0.131 C 
BRANCH   9  14
HETATM   14  O2  UNL     1     -52.414  -4.654 -25.699  1.00  0.00    -0.197 OA
BRANCH  14  15
HETATM   15  C5  UNL     1     -52.397  -4.736 -27.070  1.00  0.00     0.290 C 
HETATM   16  O1  UNL     1     -51.427  -5.313 -27.614  1.00  0.00    -0.262 OA
BRANCH  15  17
HETATM   17  C4  UNL     1     -53.457  -4.185 -27.946  1.00  0.00     0.192 C 
BRANCH  17  18
HETATM   18  S1  UNL     1     -52.809  -3.043 -29.168  1.00  0.00    -0.126 SA
BRANCH  18  19
HETATM   19  C2  UNL     1     -51.942  -1.726 -28.344  1.00  0.00    -0.035 C 
HETATM   20  C1  UNL     1     -52.634  -0.770 -27.760  1.00  0.00     0.026 C 
HETATM   21  C3  UNL     1     -50.466  -1.707 -28.320  1.00  0.00     0.055 C 
ENDBRANCH  18  19
ENDBRANCH  17  18
ENDBRANCH  15  17
ENDBRANCH  14  15
ENDBRANCH   9  14
ENDBRANCH   1   7
BRANCH   6  22
HETATM   22  C16 UNL     1     -53.307  -1.839 -20.960  1.00  0.00     0.298 C 
HETATM   23  O6  UNL     1     -53.653  -3.036 -20.979  1.00  0.00    -0.259 OA
BRANCH  22  24
HETATM   24  O7  UNL     1     -52.793  -1.375 -19.753  1.00  0.00    -0.318 OA
BRANCH  24  25
HETATM   25  C17 UNL     1     -52.328  -2.267 -18.750  1.00  0.00     0.174 C 
HETATM   26  C18 UNL     1     -50.820  -2.361 -18.789  1.00  0.00     0.034 C 
ENDBRANCH  24  25
ENDBRANCH  22  24
ENDBRANCH   6  22
BRANCH   5  27
HETATM   27  O5  UNL     1     -55.248   0.016 -20.915  1.00  0.00    -0.357 OA
ATOM     28  H5  UNL     1     -55.416   0.764 -20.353  1.00  0.00     0.217 HD
ENDBRANCH   5  27
BRANCH   4  29
HETATM   29  N3  UNL     1     -55.534   1.920 -23.095  1.00  0.00    -0.113 N 
HETATM   30  O3  UNL     1     -55.721   2.765 -22.211  1.00  0.00    -0.532 OA
HETATM   31  O4  UNL     1     -56.422   2.018 -24.178  1.00  0.00    -0.532 OA
ENDBRANCH   4  29
TORSDOF 11
ENDMDL
MODEL 4
REMARK VINA RESULT: -6.684097634      2.809      6.897
REMARK  11 active torsions:
REMARK  status: ('A' for Active; 'I' for Inactive)
REMARK    1  A    between atoms: C2_2  and  S1_4 
REMARK    2  A    between atoms: S1_4  and  C4_5 
REMARK    3  A    between atoms: C4_5  and  C5_6 
REMARK    4  A    between atoms: C5_6  and  O2_8 
REMARK    5  A    between atoms: O2_8  and  N1_9 
REMARK    6  A    between atoms: N2_15  and  C10_16 
REMARK    7  A    between atoms: C13_19  and  N3_20 
REMARK    8  A    between atoms: C14_23  and  O5_24 
REMARK    9  A    between atoms: C15_26  and  C16_27 
REMARK   10  A    between atoms: C16_27  and  O7_29 
REMARK   11  A    between atoms: O7_29  and  C17_30 
ROOT
HETATM    1  C10 UNL     1     -51.383  -2.713 -25.673  1.00  0.00     0.055 A 
HETATM    2  C11 UNL     1     -50.747  -2.027 -26.713  1.00  0.00     0.033 A 
HETATM    3  C12 UNL     1     -50.418  -2.588 -27.903  1.00  0.00     0.041 A 
HETATM    4  C13 UNL     1     -50.746  -3.943 -28.079  1.00  0.00     0.137 A 
HETATM    5  C14 UNL     1     -51.364  -4.671 -27.119  1.00  0.00     0.117 A 
HETATM    6  C15 UNL     1     -51.685  -4.029 -25.892  1.00  0.00     0.102 A 
ENDROOT
BRANCH   1   7
HETATM    7  N2  UNL     1     -51.628  -2.041 -24.454  1.00  0.00    -0.334 N 
HETATM    8  C6  UNL     1     -52.217  -0.738 -24.255  1.00  0.00     0.105 C 
HETATM    9  N1  UNL     1     -53.125  -0.241 -25.033  1.00  0.00    -0.245 N 
HETATM   10  C7  UNL     1     -51.611  -0.087 -23.046  1.00  0.00     0.080 C 
ATOM     11  H1  UNL     1     -53.451  -0.794 -25.826  1.00  0.00     0.196 HD
HETATM   12  C8  UNL     1     -50.736  -1.182 -22.472  1.00  0.00     0.028 C 
HETATM   13  C9  UNL     1     -51.305  -2.475 -23.083  1.00  0.00     0.131 C 
BRANCH   9  14
HETATM   14  O2  UNL     1     -53.664   1.006 -24.825  1.00  0.00    -0.197 OA
BRANCH  14  15
HETATM   15  C5  UNL     1     -55.012   1.229 -24.959  1.00  0.00     0.290 C 
HETATM   16  O1  UNL     1     -55.516   1.132 -26.104  1.00  0.00    -0.262 OA
BRANCH  15  17
HETATM   17  C4  UNL     1     -55.911   1.577 -23.834  1.00  0.00     0.192 C 
BRANCH  17  18
HETATM   18  S1  UNL     1     -55.019   2.242 -22.427  1.00  0.00    -0.126 SA
BRANCH  18  19
HETATM   19  C2  UNL     1     -54.667   0.930 -21.277  1.00  0.00    -0.035 C 
HETATM   20  C1  UNL     1     -54.031   1.212 -20.159  1.00  0.00     0.026 C 
HETATM   21  C3  UNL     1     -55.085  -0.453 -21.577  1.00  0.00     0.055 C 
ENDBRANCH  18  19
ENDBRANCH  17  18
ENDBRANCH  15  17
ENDBRANCH  14  15
ENDBRANCH   9  14
ENDBRANCH   1   7
BRANCH   6  22
HETATM   22  C16 UNL     1     -52.374  -4.839 -24.907  1.00  0.00     0.298 C 
HETATM   23  O6  UNL     1     -53.555  -4.656 -24.553  1.00  0.00    -0.259 OA
BRANCH  22  24
HETATM   24  O7  UNL     1     -51.714  -5.897 -24.293  1.00  0.00    -0.318 OA
BRANCH  24  25
HETATM   25  C17 UNL     1     -50.356  -5.794 -23.887  1.00  0.00     0.174 C 
HETATM   26  C18 UNL     1     -49.558  -6.963 -24.418  1.00  0.00     0.034 C 
ENDBRANCH  24  25
ENDBRANCH  22  24
ENDBRANCH   6  22
BRANCH   5  27
HETATM   27  O5  UNL     1     -51.713  -5.997 -27.238  1.00  0.00    -0.357 OA
ATOM     28  H5  UNL     1     -51.509  -6.673 -26.601  1.00  0.00     0.217 HD
ENDBRANCH   5  27
BRANCH   4  29
HETATM   29  N3  UNL     1     -50.386  -4.475 -29.330  1.00  0.00    -0.113 N 
HETATM   30  O3  UNL     1     -50.622  -3.947 -30.424  1.00  0.00    -0.532 OA
HETATM   31  O4  UNL     1     -49.731  -5.714 -29.422  1.00  0.00    -0.532 OA
ENDBRANCH   4  29
TORSDOF 11
ENDMDL
MODEL 5
REMARK VINA RESULT: -6.669872287      2.507      6.997
REMARK  11 active torsions:
REMARK  status: ('A' for Active; 'I' for Inactive)
REMARK    1  A    between atoms: C2_2  and  S1_4 
REMARK    2  A    between atoms: S1_4  and  C4_5 
REMARK    3  A    between atoms: C4_5  and  C5_6 
REMARK    4  A    between atoms: C5_6  and  O2_8 
REMARK    5  A    between atoms: O2_8  and  N1_9 
REMARK    6  A    between atoms: N2_15  and  C10_16 
REMARK    7  A    between atoms: C13_19  and  N3_20 
REMARK    8  A    between atoms: C14_23  and  O5_24 
REMARK    9  A    between atoms: C15_26  and  C16_27 
REMARK   10  A    between atoms: C16_27  and  O7_29 
REMARK   11  A    between atoms: O7_29  and  C17_30 
ROOT
HETATM    1  C10 UNL     1     -51.375  -3.089 -25.270  1.00  0.00     0.055 A 
HETATM    2  C11 UNL     1     -50.884  -2.734 -24.008  1.00  0.00     0.033 A 
HETATM    3  C12 UNL     1     -50.868  -3.568 -22.939  1.00  0.00     0.041 A 
HETATM    4  C13 UNL     1     -51.380  -4.862 -23.132  1.00  0.00     0.137 A 
HETATM    5  C14 UNL     1     -51.871  -5.276 -24.324  1.00  0.00     0.117 A 
HETATM    6  C15 UNL     1     -51.862  -4.360 -25.410  1.00  0.00     0.102 A 
ENDROOT
BRANCH   1   7
HETATM    7  N2  UNL     1     -51.393  -2.120 -26.298  1.00  0.00    -0.334 N 
HETATM    8  C6  UNL     1     -52.383  -1.097 -26.544  1.00  0.00     0.105 C 
HETATM    9  N1  UNL     1     -53.054  -0.516 -25.602  1.00  0.00    -0.245 N 
HETATM   10  C7  UNL     1     -52.496  -0.847 -28.020  1.00  0.00     0.080 C 
ATOM     11  H1  UNL     1     -52.878  -0.783 -24.634  1.00  0.00     0.196 HD
HETATM   12  C8  UNL     1     -51.382  -1.696 -28.597  1.00  0.00     0.028 C 
HETATM   13  C9  UNL     1     -50.437  -1.934 -27.405  1.00  0.00     0.131 C 
BRANCH   9  14
HETATM   14  O2  UNL     1     -53.996   0.450 -25.865  1.00  0.00    -0.197 OA
BRANCH  14  15
HETATM   15  C5  UNL     1     -54.652   1.099 -24.848  1.00  0.00     0.290 C 
HETATM   16  O1  UNL     1     -55.835   1.463 -25.046  1.00  0.00    -0.262 OA
BRANCH  15  17
HETATM   17  C4  UNL     1     -54.047   1.397 -23.528  1.00  0.00     0.192 C 
BRANCH  17  18
HETATM   18  S1  UNL     1     -54.706   0.358 -22.224  1.00  0.00    -0.126 SA
BRANCH  18  19
HETATM   19  C2  UNL     1     -53.420  -0.710 -21.612  1.00  0.00    -0.035 C 
HETATM   20  C1  UNL     1     -53.716  -1.954 -21.298  1.00  0.00     0.026 C 
HETATM   21  C3  UNL     1     -52.043  -0.203 -21.460  1.00  0.00     0.055 C 
ENDBRANCH  18  19
ENDBRANCH  17  18
ENDBRANCH  15  17
ENDBRANCH  14  15
ENDBRANCH   9  14
ENDBRANCH   1   7
BRANCH   6  22
HETATM   22  C16 UNL     1     -52.367  -4.858 -26.674  1.00  0.00     0.298 C 
HETATM   23  O6  UNL     1     -53.419  -4.462 -27.212  1.00  0.00    -0.259 OA
BRANCH  22  24
HETATM   24  O7  UNL     1     -51.665  -5.841 -27.364  1.00  0.00    -0.318 OA
BRANCH  24  25
HETATM   25  C17 UNL     1     -50.261  -5.751 -27.565  1.00  0.00     0.174 C 
HETATM   26  C18 UNL     1     -49.962  -5.260 -28.963  1.00  0.00     0.034 C 
ENDBRANCH  24  25
ENDBRANCH  22  24
ENDBRANCH   6  22
BRANCH   5  27
HETATM   27  O5  UNL     1     -52.381  -6.531 -24.573  1.00  0.00    -0.357 OA
ATOM     28  H5  UNL     1     -52.188  -7.053 -25.343  1.00  0.00     0.217 HD
ENDBRANCH   5  27
BRANCH   4  29
HETATM   29  N3  UNL     1     -51.338  -5.685 -21.993  1.00  0.00    -0.113 N 
HETATM   30  O3  UNL     1     -51.479  -6.914 -21.997  1.00  0.00    -0.532 OA
HETATM   31  O4  UNL     1     -51.153  -5.133 -20.715  1.00  0.00    -0.532 OA
ENDBRANCH   4  29
TORSDOF 11
ENDMDL
