MODEL 1
REMARK VINA RESULT: -7.503400972      0.000      0.000
REMARK  8 active torsions:
REMARK  status: ('A' for Active; 'I' for Inactive)
REMARK    1  A    between atoms: C4_6  and  C5_7 
REMARK    2  A    between atoms: C6_10  and  N3_11 
REMARK    3  A    between atoms: N3_11  and  C7_13 
REMARK    4  A    between atoms: C7_13  and  C8_14 
REMARK    5  A    between atoms: N4_19  and  C12_20 
REMARK    6  A    between atoms: C12_20  and  C13_21 
REMARK    7  A    between atoms: C13_21  and  C14_22 
REMARK    8  A    between atoms: C18_28  and  C19_29 
ROOT
HETATM    1  C5  UNL     1     -51.941  -1.053 -24.090  1.00  0.00     0.164 C 
HETATM    2  N2  UNL     1     -53.186  -1.327 -24.724  1.00  0.00    -0.215 N 
ATOM      3  H2  UNL     1     -54.108  -1.165 -24.319  1.00  0.00     0.178 HD
HETATM    4  C6  UNL     1     -52.955  -1.814 -25.898  1.00  0.00     0.673 C 
HETATM    5  N4  UNL     1     -51.551  -1.928 -26.102  1.00  0.00    -0.205 N 
HETATM    6  C18 UNL     1     -51.056  -2.142 -24.718  1.00  0.00     0.189 C 
ENDROOT
BRANCH   4   7
HETATM    7  N3  UNL     1     -53.979  -2.203 -26.829  1.00  0.00    -0.220 N 
ATOM      8  H3  UNL     1     -54.382  -3.140 -26.782  1.00  0.00     0.178 HD
BRANCH   7   9
HETATM    9  C7  UNL     1     -54.444  -1.255 -27.848  1.00  0.00     0.203 C 
BRANCH   9  10
HETATM   10  C8  UNL     1     -55.367  -0.262 -27.285  1.00  0.00     0.070 A 
HETATM   11  C9  UNL     1     -56.685  -0.081 -27.642  1.00  0.00     0.036 A 
HETATM   12  C10 UNL     1     -57.181   0.964 -26.861  1.00  0.00     0.027 A 
HETATM   13  C11 UNL     1     -56.112   1.352 -26.070  1.00  0.00     0.142 A 
HETATM   14  O1  UNL     1     -55.055   0.603 -26.350  1.00  0.00    -0.325 OA
ENDBRANCH   9  10
ENDBRANCH   7   9
ENDBRANCH   4   7
BRANCH   5  15
HETATM   15  C12 UNL     1     -50.813  -1.859 -27.313  1.00  0.00     0.145 C 
BRANCH  15  16
HETATM   16  C13 UNL     1     -51.237  -2.990 -28.227  1.00  0.00     0.054 C 
BRANCH  16  17
HETATM   17  C14 UNL     1     -50.659  -4.312 -27.788  1.00  0.00     0.146 C 
HETATM   18  C15 UNL     1     -51.820  -5.188 -27.379  1.00  0.00     0.199 C 
HETATM   19  O2  UNL     1     -51.389  -6.366 -26.838  1.00  0.00    -0.387 OA
HETATM   20  C16 UNL     1     -50.039  -6.520 -27.004  1.00  0.00     0.193 C 
HETATM   21  C17 UNL     1     -49.508  -6.151 -28.354  1.00  0.00     0.194 C 
HETATM   22  O3  UNL     1     -49.991  -4.955 -28.827  1.00  0.00    -0.382 OA
ENDBRANCH  16  17
ENDBRANCH  15  16
ENDBRANCH   5  15
BRANCH   1  23
HETATM   23  C4  UNL     1     -51.937  -1.030 -22.649  1.00  0.00    -0.017 A 
HETATM   24  C3  UNL     1     -50.810  -0.737 -21.931  1.00  0.00     0.096 A 
HETATM   25  N1  UNL     1     -50.816  -0.734 -20.560  1.00  0.00    -0.375 N 
HETATM   26  C2  UNL     1     -51.915  -1.017 -19.843  1.00  0.00     0.087 A 
ATOM     27  H1  UNL     1     -49.953  -0.510 -20.066  1.00  0.00     0.164 HD
HETATM   28  C1  UNL     1     -53.070  -1.315 -20.534  1.00  0.00     0.018 A 
HETATM   29  C22 UNL     1     -53.073  -1.320 -21.930  1.00  0.00     0.012 A 
ENDBRANCH   1  23
BRANCH   6  30
HETATM   30  C19 UNL     1     -51.409  -3.493 -24.271  1.00  0.00     0.103 A 
HETATM   31  C20 UNL     1     -50.564  -4.411 -23.703  1.00  0.00     0.056 A 
HETATM   32  C21 UNL     1     -51.311  -5.562 -23.432  1.00  0.00     0.117 A 
HETATM   33  N5  UNL     1     -52.549  -5.261 -23.854  1.00  0.00    -0.272 N 
HETATM   34  O4  UNL     1     -52.587  -4.059 -24.337  1.00  0.00    -0.240 OA
ATOM     35  H5  UNL     1     -53.349  -5.891 -23.802  1.00  0.00     0.193 HD
ENDBRANCH   6  30
TORSDOF 8
ENDMDL
MODEL 2
REMARK VINA RESULT: -7.330465908      2.325      3.178
REMARK  8 active torsions:
REMARK  status: ('A' for Active; 'I' for Inactive)
REMARK    1  A    between atoms: C4_6  and  C5_7 
REMARK    2  A    between atoms: C6_10  and  N3_11 
REMARK    3  A    between atoms: N3_11  and  C7_13 
REMARK    4  A    between atoms: C7_13  and  C8_14 
REMARK    5  A    between atoms: N4_19  and  C12_20 
REMARK    6  A    between atoms: C12_20  and  C13_21 
REMARK    7  A    between atoms: C13_21  and  C14_22 
REMARK    8  A    between atoms: C18_28  and  C19_29 
ROOT
HETATM    1  C5  UNL     1     -50.851  -2.396 -23.203  1.00  0.00     0.164 C 
HETATM    2  N2  UNL     1     -52.193  -1.997 -23.459  1.00  0.00    -0.215 N 
ATOM      3  H2  UNL     1     -52.912  -1.839 -22.753  1.00  0.00     0.178 HD
HETATM    4  C6  UNL     1     -52.352  -1.869 -24.735  1.00  0.00     0.673 C 
HETATM    5  N4  UNL     1     -51.143  -2.208 -25.405  1.00  0.00    -0.205 N 
HETATM    6  C18 UNL     1     -50.546  -3.202 -24.476  1.00  0.00     0.189 C 
ENDROOT
BRANCH   4   7
HETATM    7  N3  UNL     1     -53.583  -1.472 -25.363  1.00  0.00    -0.220 N 
ATOM      8  H3  UNL     1     -54.280  -2.176 -25.608  1.00  0.00     0.178 HD
BRANCH   7   9
HETATM    9  C7  UNL     1     -53.836  -0.056 -25.651  1.00  0.00     0.203 C 
BRANCH   9  10
HETATM   10  C8  UNL     1     -54.214   0.686 -24.442  1.00  0.00     0.070 A 
HETATM   11  C9  UNL     1     -55.413   1.327 -24.221  1.00  0.00     0.036 A 
HETATM   12  C10 UNL     1     -55.343   1.899 -22.950  1.00  0.00     0.027 A 
HETATM   13  C11 UNL     1     -54.085   1.561 -22.479  1.00  0.00     0.142 A 
HETATM   14  O1  UNL     1     -53.445   0.843 -23.391  1.00  0.00    -0.325 OA
ENDBRANCH   9  10
ENDBRANCH   7   9
ENDBRANCH   4   7
BRANCH   5  15
HETATM   15  C12 UNL     1     -50.637  -1.725 -26.640  1.00  0.00     0.145 C 
BRANCH  15  16
HETATM   16  C13 UNL     1     -50.711  -2.825 -27.679  1.00  0.00     0.054 C 
BRANCH  16  17
HETATM   17  C14 UNL     1     -51.906  -2.661 -28.583  1.00  0.00     0.146 C 
HETATM   18  C15 UNL     1     -52.940  -3.668 -28.137  1.00  0.00     0.199 C 
HETATM   19  O2  UNL     1     -54.014  -3.689 -28.983  1.00  0.00    -0.387 OA
HETATM   20  C16 UNL     1     -53.956  -2.655 -29.877  1.00  0.00     0.193 C 
HETATM   21  C17 UNL     1     -53.559  -1.329 -29.306  1.00  0.00     0.194 C 
HETATM   22  O3  UNL     1     -52.473  -1.395 -28.466  1.00  0.00    -0.382 OA
ENDBRANCH  16  17
ENDBRANCH  15  16
ENDBRANCH   5  15
BRANCH   1  23
HETATM   23  C4  UNL     1     -50.606  -3.100 -21.970  1.00  0.00    -0.017 A 
HETATM   24  C3  UNL     1     -51.613  -3.416 -21.101  1.00  0.00     0.096 A 
HETATM   25  N1  UNL     1     -51.362  -4.073 -19.924  1.00  0.00    -0.375 N 
HETATM   26  C2  UNL     1     -50.126  -4.442 -19.553  1.00  0.00     0.087 A 
ATOM     27  H1  UNL     1     -52.144  -4.288 -19.305  1.00  0.00     0.164 HD
HETATM   28  C1  UNL     1     -49.086  -4.142 -20.406  1.00  0.00     0.018 A 
HETATM   29  C22 UNL     1     -49.332  -3.474 -21.607  1.00  0.00     0.012 A 
ENDBRANCH   1  23
BRANCH   6  30
HETATM   30  C19 UNL     1     -51.296  -4.459 -24.550  1.00  0.00     0.103 A 
HETATM   31  C20 UNL     1     -50.774  -5.725 -24.493  1.00  0.00     0.056 A 
HETATM   32  C21 UNL     1     -51.838  -6.626 -24.601  1.00  0.00     0.117 A 
HETATM   33  N5  UNL     1     -52.923  -5.846 -24.716  1.00  0.00    -0.272 N 
HETATM   34  O4  UNL     1     -52.591  -4.594 -24.684  1.00  0.00    -0.240 OA
ATOM     35  H5  UNL     1     -53.878  -6.191 -24.814  1.00  0.00     0.193 HD
ENDBRANCH   6  30
TORSDOF 8
ENDMDL
MODEL 3
REMARK VINA RESULT: -7.310544606      2.752      5.548
REMARK  8 active torsions:
REMARK  status: ('A' for Active; 'I' for Inactive)
REMARK    1  A    between atoms: C4_6  and  C5_7 
REMARK    2  A    between atoms: C6_10  and  N3_11 
REMARK    3  A    between atoms: N3_11  and  C7_13 
REMARK    4  A    between atoms: C7_13  and  C8_14 
REMARK    5  A    between atoms: N4_19  and  C12_20 
REMARK    6  A    between atoms: C12_20  and  C13_21 
REMARK    7  A    between atoms: C13_21  and  C14_22 
REMARK    8  A    between atoms: C18_28  and  C19_29 
ROOT
HETATM    1  C5  UNL     1     -53.332  -1.608 -23.606  1.00  0.00     0.164 C 
HETATM    2  N2  UNL     1     -53.650  -2.878 -23.047  1.00  0.00    -0.215 N 
ATOM      3  H2  UNL     1     -54.458  -3.083 -22.460  1.00  0.00     0.178 HD
HETATM    4  C6  UNL     1     -52.746  -3.728 -23.407  1.00  0.00     0.673 C 
HETATM    5  N4  UNL     1     -51.756  -3.072 -24.192  1.00  0.00    -0.205 N 
HETATM    6  C18 UNL     1     -51.797  -1.691 -23.646  1.00  0.00     0.189 C 
ENDROOT
BRANCH   4   7
HETATM    7  N3  UNL     1     -52.743  -5.116 -23.032  1.00  0.00    -0.220 N 
ATOM      8  H3  UNL     1     -53.434  -5.753 -23.430  1.00  0.00     0.178 HD
BRANCH   7   9
HETATM    9  C7  UNL     1     -51.748  -5.617 -22.078  1.00  0.00     0.203 C 
BRANCH   9  10
HETATM   10  C8  UNL     1     -50.665  -6.344 -22.753  1.00  0.00     0.070 A 
HETATM   11  C9  UNL     1     -49.348  -5.948 -22.839  1.00  0.00     0.036 A 
HETATM   12  C10 UNL     1     -48.672  -6.930 -23.565  1.00  0.00     0.027 A 
HETATM   13  C11 UNL     1     -49.642  -7.869 -23.876  1.00  0.00     0.142 A 
HETATM   14  O1  UNL     1     -50.809  -7.487 -23.378  1.00  0.00    -0.325 OA
ENDBRANCH   9  10
ENDBRANCH   7   9
ENDBRANCH   4   7
BRANCH   5  15
HETATM   15  C12 UNL     1     -50.939  -3.598 -25.227  1.00  0.00     0.145 C 
BRANCH  15  16
HETATM   16  C13 UNL     1     -50.611  -2.500 -26.217  1.00  0.00     0.054 C 
BRANCH  16  17
HETATM   17  C14 UNL     1     -51.551  -2.509 -27.396  1.00  0.00     0.146 C 
HETATM   18  C15 UNL     1     -50.748  -2.092 -28.606  1.00  0.00     0.199 C 
HETATM   19  O2  UNL     1     -51.545  -1.941 -29.705  1.00  0.00    -0.387 OA
HETATM   20  C16 UNL     1     -52.809  -2.406 -29.465  1.00  0.00     0.193 C 
HETATM   21  C17 UNL     1     -52.890  -3.710 -28.734  1.00  0.00     0.194 C 
HETATM   22  O3  UNL     1     -52.057  -3.782 -27.644  1.00  0.00    -0.382 OA
ENDBRANCH  16  17
ENDBRANCH  15  16
ENDBRANCH   5  15
BRANCH   1  23
HETATM   23  C4  UNL     1     -53.855  -0.449 -22.929  1.00  0.00    -0.017 A 
HETATM   24  C3  UNL     1     -54.676  -0.553 -21.840  1.00  0.00     0.096 A 
HETATM   25  N1  UNL     1     -55.180   0.558 -21.216  1.00  0.00    -0.375 N 
HETATM   26  C2  UNL     1     -54.904   1.805 -21.628  1.00  0.00     0.087 A 
ATOM     27  H1  UNL     1     -55.788   0.433 -20.406  1.00  0.00     0.164 HD
HETATM   28  C1  UNL     1     -54.078   1.948 -22.722  1.00  0.00     0.018 A 
HETATM   29  C22 UNL     1     -53.560   0.822 -23.365  1.00  0.00     0.012 A 
ENDBRANCH   1  23
BRANCH   6  30
HETATM   30  C19 UNL     1     -51.189  -1.670 -22.313  1.00  0.00     0.103 A 
HETATM   31  C20 UNL     1     -50.076  -2.363 -21.913  1.00  0.00     0.056 A 
HETATM   32  C21 UNL     1     -49.847  -2.055 -20.568  1.00  0.00     0.117 A 
HETATM   33  N5  UNL     1     -50.833  -1.202 -20.250  1.00  0.00    -0.272 N 
HETATM   34  O4  UNL     1     -51.600  -0.990 -21.273  1.00  0.00    -0.240 OA
ATOM     35  H5  UNL     1     -50.960  -0.778 -19.331  1.00  0.00     0.193 HD
ENDBRANCH   6  30
TORSDOF 8
ENDMDL
MODEL 4
REMARK VINA RESULT: -7.291908192      2.694      4.770
REMARK  8 active torsions:
REMARK  status: ('A' for Active; 'I' for Inactive)
REMARK    1  A    between atoms: C4_6  and  C5_7 
REMARK    2  A    between atoms: C6_10  and  N3_11 
REMARK    3  A    between atoms: N3_11  and  C7_13 
REMARK    4  A    between atoms: C7_13  and  C8_14 
REMARK    5  A    between atoms: N4_19  and  C12_20 
REMARK    6  A    between atoms: C12_20  and  C13_21 
REMARK    7  A    between atoms: C13_21  and  C14_22 
REMARK    8  A    between atoms: C18_28  and  C19_29 
ROOT
HETATM    1  C5  UNL     1     -50.267  -3.795 -21.533  1.00  0.00     0.164 C 
HETATM    2  N2  UNL     1     -51.649  -3.478 -21.408  1.00  0.00    -0.215 N 
ATOM      3  H2  UNL     1     -52.253  -3.752 -20.633  1.00  0.00     0.178 HD
HETATM    4  C6  UNL     1     -52.011  -2.786 -22.437  1.00  0.00     0.673 C 
HETATM    5  N4  UNL     1     -50.909  -2.632 -23.324  1.00  0.00    -0.205 N 
HETATM    6  C18 UNL     1     -50.130  -3.871 -23.063  1.00  0.00     0.189 C 
ENDROOT
BRANCH   4   7
HETATM    7  N3  UNL     1     -53.342  -2.284 -22.648  1.00  0.00    -0.220 N 
ATOM      8  H3  UNL     1     -53.828  -2.481 -23.523  1.00  0.00     0.178 HD
BRANCH   7   9
HETATM    9  C7  UNL     1     -54.001  -1.489 -21.606  1.00  0.00     0.203 C 
BRANCH   9  10
HETATM   10  C8  UNL     1     -54.264  -0.116 -22.055  1.00  0.00     0.070 A 
HETATM   11  C9  UNL     1     -53.320   0.861 -22.285  1.00  0.00     0.036 A 
HETATM   12  C10 UNL     1     -54.007   2.005 -22.695  1.00  0.00     0.027 A 
HETATM   13  C11 UNL     1     -55.343   1.638 -22.684  1.00  0.00     0.142 A 
HETATM   14  O1  UNL     1     -55.455   0.375 -22.299  1.00  0.00    -0.325 OA
ENDBRANCH   9  10
ENDBRANCH   7   9
ENDBRANCH   4   7
BRANCH   5  15
HETATM   15  C12 UNL     1     -50.625  -1.574 -24.225  1.00  0.00     0.145 C 
BRANCH  15  16
HETATM   16  C13 UNL     1     -50.874  -2.040 -25.645  1.00  0.00     0.054 C 
BRANCH  16  17
HETATM   17  C14 UNL     1     -52.153  -1.470 -26.205  1.00  0.00     0.146 C 
HETATM   18  C15 UNL     1     -53.104  -2.627 -26.402  1.00  0.00     0.199 C 
HETATM   19  O2  UNL     1     -54.249  -2.229 -27.033  1.00  0.00    -0.387 OA
HETATM   20  C16 UNL     1     -54.311  -0.866 -27.126  1.00  0.00     0.193 C 
HETATM   21  C17 UNL     1     -53.911  -0.115 -25.894  1.00  0.00     0.194 C 
HETATM   22  O3  UNL     1     -52.752  -0.577 -25.321  1.00  0.00    -0.382 OA
ENDBRANCH  16  17
ENDBRANCH  15  16
ENDBRANCH   5  15
BRANCH   1  23
HETATM   23  C4  UNL     1     -49.800  -4.962 -20.828  1.00  0.00    -0.017 A 
HETATM   24  C3  UNL     1     -50.615  -5.687 -20.003  1.00  0.00     0.096 A 
HETATM   25  N1  UNL     1     -50.152  -6.785 -19.326  1.00  0.00    -0.375 N 
HETATM   26  C2  UNL     1     -48.885  -7.214 -19.428  1.00  0.00     0.087 A 
ATOM     27  H1  UNL     1     -50.796  -7.296 -18.722  1.00  0.00     0.164 HD
HETATM   28  C1  UNL     1     -48.035  -6.509 -20.252  1.00  0.00     0.018 A 
HETATM   29  C22 UNL     1     -48.498  -5.389 -20.946  1.00  0.00     0.012 A 
ENDBRANCH   1  23
BRANCH   6  30
HETATM   30  C19 UNL     1     -50.827  -5.022 -23.642  1.00  0.00     0.103 A 
HETATM   31  C20 UNL     1     -50.252  -6.184 -24.089  1.00  0.00     0.056 A 
HETATM   32  C21 UNL     1     -51.277  -7.009 -24.562  1.00  0.00     0.117 A 
HETATM   33  N5  UNL     1     -52.395  -6.292 -24.370  1.00  0.00    -0.272 N 
HETATM   34  O4  UNL     1     -52.115  -5.145 -23.837  1.00  0.00    -0.240 OA
ATOM     35  H5  UNL     1     -53.335  -6.607 -24.610  1.00  0.00     0.193 HD
ENDBRANCH   6  30
TORSDOF 8
ENDMDL
MODEL 5
REMARK VINA RESULT: -7.289925765      2.835      7.598
REMARK  8 active torsions:
REMARK  status: ('A' for Active; 'I' for Inactive)
REMARK    1  A    between atoms: C4_6  and  C5_7 
REMARK    2  A    between atoms: C6_10  and  N3_11 
REMARK    3  A    between atoms: N3_11  and  C7_13 
REMARK    4  A    between atoms: C7_13  and  C8_14 
REMARK    5  A    between atoms: N4_19  and  C12_20 
REMARK    6  A    between atoms: C12_20  and  C13_21 
REMARK    7  A    between atoms: C13_21  and  C14_22 
REMARK    8  A    between atoms: C18_28  and  C19_29 
ROOT
HETATM    1  C5  UNL     1     -52.043  -0.914 -24.879  1.00  0.00     0.164 C 
HETATM    2  N2  UNL     1     -51.055  -1.392 -23.972  1.00  0.00    -0.215 N 
ATOM      3  H2  UNL     1     -50.081  -1.586 -24.204  1.00  0.00     0.178 HD
HETATM    4  C6  UNL     1     -51.596  -1.541 -22.809  1.00  0.00     0.673 C 
HETATM    5  N4  UNL     1     -52.978  -1.208 -22.876  1.00  0.00    -0.205 N 
HETATM    6  C18 UNL     1     -53.309  -1.553 -24.283  1.00  0.00     0.189 C 
ENDROOT
BRANCH   4   7
HETATM    7  N3  UNL     1     -50.895  -2.004 -21.643  1.00  0.00    -0.220 N 
ATOM      8  H3  UNL     1     -51.238  -1.763 -20.712  1.00  0.00     0.178 HD
BRANCH   7   9
HETATM    9  C7  UNL     1     -49.687  -2.825 -21.789  1.00  0.00     0.203 C 
BRANCH   9  10
HETATM   10  C8  UNL     1     -50.006  -4.258 -21.831  1.00  0.00     0.070 A 
HETATM   11  C9  UNL     1     -49.586  -5.157 -22.787  1.00  0.00     0.036 A 
HETATM   12  C10 UNL     1     -50.118  -6.400 -22.440  1.00  0.00     0.027 A 
HETATM   13  C11 UNL     1     -50.837  -6.166 -21.280  1.00  0.00     0.142 A 
HETATM   14  O1  UNL     1     -50.747  -4.885 -20.950  1.00  0.00    -0.325 OA
ENDBRANCH   9  10
ENDBRANCH   7   9
ENDBRANCH   4   7
BRANCH   5  15
HETATM   15  C12 UNL     1     -53.824  -0.684 -21.865  1.00  0.00     0.145 C 
BRANCH  15  16
HETATM   16  C13 UNL     1     -53.313   0.676 -21.433  1.00  0.00     0.054 C 
BRANCH  16  17
HETATM   17  C14 UNL     1     -52.839   0.667 -20.002  1.00  0.00     0.146 C 
HETATM   18  C15 UNL     1     -53.919   1.322 -19.174  1.00  0.00     0.199 C 
HETATM   19  O2  UNL     1     -53.523   1.483 -17.876  1.00  0.00    -0.387 OA
HETATM   20  C16 UNL     1     -52.349   0.823 -17.634  1.00  0.00     0.193 C 
HETATM   21  C17 UNL     1     -52.249  -0.553 -18.216  1.00  0.00     0.194 C 
HETATM   22  O3  UNL     1     -52.667  -0.629 -19.522  1.00  0.00    -0.382 OA
ENDBRANCH  16  17
ENDBRANCH  15  16
ENDBRANCH   5  15
BRANCH   1  23
HETATM   23  C4  UNL     1     -51.831  -1.187 -26.277  1.00  0.00    -0.017 A 
HETATM   24  C3  UNL     1     -52.633  -0.659 -27.251  1.00  0.00     0.096 A 
HETATM   25  N1  UNL     1     -52.429  -0.942 -28.577  1.00  0.00    -0.375 N 
HETATM   26  C2  UNL     1     -51.441  -1.746 -28.999  1.00  0.00     0.087 A 
ATOM     27  H1  UNL     1     -53.052  -0.526 -29.269  1.00  0.00     0.164 HD
HETATM   28  C1  UNL     1     -50.611  -2.295 -28.045  1.00  0.00     0.018 A 
HETATM   29  C22 UNL     1     -50.811  -2.013 -26.693  1.00  0.00     0.012 A 
ENDBRANCH   1  23
BRANCH   6  30
HETATM   30  C19 UNL     1     -53.340  -3.010 -24.439  1.00  0.00     0.103 A 
HETATM   31  C20 UNL     1     -53.811  -3.704 -25.524  1.00  0.00     0.056 A 
HETATM   32  C21 UNL     1     -53.653  -5.067 -25.254  1.00  0.00     0.117 A 
HETATM   33  N5  UNL     1     -53.102  -5.102 -24.031  1.00  0.00    -0.272 N 
HETATM   34  O4  UNL     1     -52.927  -3.902 -23.575  1.00  0.00    -0.240 OA
ATOM     35  H5  UNL     1     -52.854  -5.955 -23.530  1.00  0.00     0.193 HD
ENDBRANCH   6  30
TORSDOF 8
ENDMDL
