MODEL 1
REMARK VINA RESULT: -8.709266395      0.000      0.000
REMARK  7 active torsions:
REMARK  status: ('A' for Active; 'I' for Inactive)
REMARK    1  A    between atoms: C4_5  and  N2_6 
REMARK    2  A    between atoms: C7_11  and  C8_12 
REMARK    3  A    between atoms: C8_12  and  C9_14 
REMARK    4  A    between atoms: C9_14  and  N3_15 
REMARK    5  A    between atoms: C9_14  and  C15_25 
REMARK    6  A    between atoms: N3_15  and  N4_17 
REMARK    7  A    between atoms: C20_30  and  N5_31 
ROOT
HETATM    1  N1  UNL     1     -53.311  -3.055 -20.624  1.00  0.00    -0.191 NA
HETATM    2  C1  UNL     1     -53.501  -2.303 -21.501  1.00  0.00     0.100 C 
HETATM    3  C2  UNL     1     -53.748  -1.354 -22.553  1.00  0.00     0.060 A 
HETATM    4  C3  UNL     1     -54.450  -0.181 -22.233  1.00  0.00     0.059 A 
HETATM    5  C4  UNL     1     -54.732   0.784 -23.168  1.00  0.00     0.104 A 
HETATM    6  C5  UNL     1     -54.294   0.559 -24.452  1.00  0.00     0.037 A 
HETATM    7  C6  UNL     1     -53.602  -0.597 -24.769  1.00  0.00     0.019 A 
HETATM    8  C7  UNL     1     -53.309  -1.588 -23.831  1.00  0.00     0.033 A 
ENDROOT
BRANCH   8   9
HETATM    9  C8  UNL     1     -52.598  -2.795 -24.191  1.00  0.00     0.189 C 
HETATM   10  O3  UNL     1     -53.220  -3.892 -24.192  1.00  0.00    -0.290 OA
BRANCH   9  11
HETATM   11  C9  UNL     1     -51.159  -2.879 -24.570  1.00  0.00     0.209 C 
BRANCH  11  12
HETATM   12  N3  UNL     1     -50.981  -3.822 -25.660  1.00  0.00    -0.320 N 
ATOM     13  H3  UNL     1     -50.167  -4.437 -25.677  1.00  0.00     0.181 HD
BRANCH  12  14
HETATM   14  N4  UNL     1     -51.926  -3.883 -26.681  1.00  0.00    -0.312 N 
HETATM   15  C10 UNL     1     -51.851  -3.166 -27.756  1.00  0.00     0.007 C 
HETATM   16  C11 UNL     1     -52.912  -3.311 -28.778  1.00  0.00     0.080 C 
HETATM   17  C14 UNL     1     -50.749  -2.210 -28.003  1.00  0.00     0.080 C 
HETATM   18  C12 UNL     1     -53.142  -2.051 -29.567  1.00  0.00     0.173 C 
HETATM   19  O4  UNL     1     -51.875  -1.556 -29.947  1.00  0.00    -0.390 OA
HETATM   20  C13 UNL     1     -51.313  -1.035 -28.768  1.00  0.00     0.173 C 
ATOM     21  H4  UNL     1     -52.713  -4.523 -26.577  1.00  0.00     0.186 HD
ENDBRANCH  12  14
ENDBRANCH  11  12
BRANCH  11  22
HETATM   22  C15 UNL     1     -50.430  -3.443 -23.407  1.00  0.00     0.006 A 
HETATM   23  C16 UNL     1     -50.184  -4.836 -23.403  1.00  0.00     0.012 A 
HETATM   24  C17 UNL     1     -49.540  -5.476 -22.376  1.00  0.00     0.001 A 
HETATM   25  C18 UNL     1     -49.109  -4.758 -21.300  1.00  0.00     0.002 A 
HETATM   26  C19 UNL     1     -49.326  -3.411 -21.264  1.00  0.00     0.037 A 
HETATM   27  C20 UNL     1     -49.991  -2.737 -22.323  1.00  0.00     0.111 A 
BRANCH  27  28
HETATM   28  N5  UNL     1     -50.139  -1.340 -22.229  1.00  0.00    -0.115 N 
HETATM   29  O5  UNL     1     -49.918  -0.526 -23.090  1.00  0.00    -0.532 OA
HETATM   30  O6  UNL     1     -50.615  -0.850 -21.009  1.00  0.00    -0.532 OA
ENDBRANCH  27  28
ENDBRANCH  11  22
ENDBRANCH   9  11
ENDBRANCH   8   9
BRANCH   5  31
HETATM   31  N2  UNL     1     -55.449   1.971 -22.813  1.00  0.00    -0.116 N 
HETATM   32  O1  UNL     1     -56.241   2.469 -23.641  1.00  0.00    -0.532 OA
HETATM   33  O2  UNL     1     -55.316   2.588 -21.616  1.00  0.00    -0.532 OA
ENDBRANCH   5  31
TORSDOF 7
ENDMDL
MODEL 2
REMARK VINA RESULT: -8.308371741      1.932      5.070
REMARK  7 active torsions:
REMARK  status: ('A' for Active; 'I' for Inactive)
REMARK    1  A    between atoms: C4_5  and  N2_6 
REMARK    2  A    between atoms: C7_11  and  C8_12 
REMARK    3  A    between atoms: C8_12  and  C9_14 
REMARK    4  A    between atoms: C9_14  and  N3_15 
REMARK    5  A    between atoms: C9_14  and  C15_25 
REMARK    6  A    between atoms: N3_15  and  N4_17 
REMARK    7  A    between atoms: C20_30  and  N5_31 
ROOT
HETATM    1  N1  UNL     1     -53.336  -3.300 -20.865  1.00  0.00    -0.191 NA
HETATM    2  C1  UNL     1     -53.508  -2.388 -21.580  1.00  0.00     0.100 C 
HETATM    3  C2  UNL     1     -53.728  -1.247 -22.426  1.00  0.00     0.060 A 
HETATM    4  C3  UNL     1     -54.261  -0.085 -21.845  1.00  0.00     0.059 A 
HETATM    5  C4  UNL     1     -54.503   1.055 -22.571  1.00  0.00     0.104 A 
HETATM    6  C5  UNL     1     -54.200   1.020 -23.912  1.00  0.00     0.037 A 
HETATM    7  C6  UNL     1     -53.675  -0.125 -24.487  1.00  0.00     0.019 A 
HETATM    8  C7  UNL     1     -53.424  -1.291 -23.763  1.00  0.00     0.033 A 
ENDROOT
BRANCH   8   9
HETATM    9  C8  UNL     1     -52.889  -2.480 -24.391  1.00  0.00     0.189 C 
HETATM   10  O3  UNL     1     -53.682  -3.279 -24.959  1.00  0.00    -0.290 OA
BRANCH   9  11
HETATM   11  C9  UNL     1     -51.452  -2.870 -24.435  1.00  0.00     0.209 C 
BRANCH  11  12
HETATM   12  N3  UNL     1     -50.619  -1.781 -23.958  1.00  0.00    -0.320 N 
ATOM     13  H3  UNL     1     -50.308  -1.054 -24.602  1.00  0.00     0.181 HD
BRANCH  12  14
HETATM   14  N4  UNL     1     -50.248  -1.733 -22.617  1.00  0.00    -0.312 N 
HETATM   15  C10 UNL     1     -49.880  -2.779 -21.949  1.00  0.00     0.007 C 
HETATM   16  C11 UNL     1     -49.507  -2.614 -20.525  1.00  0.00     0.080 C 
HETATM   17  C14 UNL     1     -49.819  -4.130 -22.549  1.00  0.00     0.080 C 
HETATM   18  C12 UNL     1     -49.781  -3.841 -19.701  1.00  0.00     0.173 C 
HETATM   19  O4  UNL     1     -49.289  -4.951 -20.424  1.00  0.00    -0.390 OA
HETATM   20  C13 UNL     1     -50.195  -5.132 -21.484  1.00  0.00     0.173 C 
ATOM     21  H4  UNL     1     -50.266  -0.832 -22.139  1.00  0.00     0.186 HD
ENDBRANCH  12  14
ENDBRANCH  11  12
BRANCH  11  22
HETATM   22  C15 UNL     1     -51.096  -3.072 -25.863  1.00  0.00     0.006 A 
HETATM   23  C16 UNL     1     -50.978  -1.921 -26.676  1.00  0.00     0.012 A 
HETATM   24  C17 UNL     1     -50.675  -1.980 -28.011  1.00  0.00     0.001 A 
HETATM   25  C18 UNL     1     -50.476  -3.191 -28.604  1.00  0.00     0.002 A 
HETATM   26  C19 UNL     1     -50.580  -4.328 -27.855  1.00  0.00     0.037 A 
HETATM   27  C20 UNL     1     -50.893  -4.279 -26.470  1.00  0.00     0.111 A 
BRANCH  27  28
HETATM   28  N5  UNL     1     -50.942  -5.493 -25.759  1.00  0.00    -0.115 N 
HETATM   29  O5  UNL     1     -51.922  -6.039 -25.319  1.00  0.00    -0.532 OA
HETATM   30  O6  UNL     1     -49.720  -6.143 -25.562  1.00  0.00    -0.532 OA
ENDBRANCH  27  28
ENDBRANCH  11  22
ENDBRANCH   9  11
ENDBRANCH   8   9
BRANCH   5  31
HETATM   31  N2  UNL     1     -55.046   2.225 -21.950  1.00  0.00    -0.116 N 
HETATM   32  O1  UNL     1     -55.802   2.966 -22.615  1.00  0.00    -0.532 OA
HETATM   33  O2  UNL     1     -54.786   2.575 -20.670  1.00  0.00    -0.532 OA
ENDBRANCH   5  31
TORSDOF 7
ENDMDL
MODEL 3
REMARK VINA RESULT: -8.265926634      2.086      5.009
REMARK  7 active torsions:
REMARK  status: ('A' for Active; 'I' for Inactive)
REMARK    1  A    between atoms: C4_5  and  N2_6 
REMARK    2  A    between atoms: C7_11  and  C8_12 
REMARK    3  A    between atoms: C8_12  and  C9_14 
REMARK    4  A    between atoms: C9_14  and  N3_15 
REMARK    5  A    between atoms: C9_14  and  C15_25 
REMARK    6  A    between atoms: N3_15  and  N4_17 
REMARK    7  A    between atoms: C20_30  and  N5_31 
ROOT
HETATM    1  N1  UNL     1     -53.475  -3.339 -20.898  1.00  0.00    -0.191 NA
HETATM    2  C1  UNL     1     -53.490  -2.295 -21.428  1.00  0.00     0.100 C 
HETATM    3  C2  UNL     1     -53.525  -0.998 -22.048  1.00  0.00     0.060 A 
HETATM    4  C3  UNL     1     -54.160   0.048 -21.358  1.00  0.00     0.059 A 
HETATM    5  C4  UNL     1     -54.241   1.321 -21.867  1.00  0.00     0.104 A 
HETATM    6  C5  UNL     1     -53.668   1.541 -23.097  1.00  0.00     0.037 A 
HETATM    7  C6  UNL     1     -53.042   0.511 -23.779  1.00  0.00     0.019 A 
HETATM    8  C7  UNL     1     -52.951  -0.787 -23.276  1.00  0.00     0.033 A 
ENDROOT
BRANCH   8   9
HETATM    9  C8  UNL     1     -52.305  -1.850 -24.014  1.00  0.00     0.189 C 
HETATM   10  O3  UNL     1     -51.120  -2.166 -23.717  1.00  0.00    -0.290 OA
BRANCH   9  11
HETATM   11  C9  UNL     1     -52.913  -2.634 -25.126  1.00  0.00     0.209 C 
BRANCH  11  12
HETATM   12  N3  UNL     1     -52.506  -4.026 -25.041  1.00  0.00    -0.320 N 
ATOM     13  H3  UNL     1     -52.246  -4.535 -25.885  1.00  0.00     0.181 HD
BRANCH  12  14
HETATM   14  N4  UNL     1     -52.473  -4.660 -23.802  1.00  0.00    -0.312 N 
HETATM   15  C10 UNL     1     -51.477  -5.388 -23.408  1.00  0.00     0.007 C 
HETATM   16  C11 UNL     1     -51.547  -6.018 -22.070  1.00  0.00     0.080 C 
HETATM   17  C14 UNL     1     -50.275  -5.614 -24.241  1.00  0.00     0.080 C 
HETATM   18  C12 UNL     1     -50.781  -7.309 -21.989  1.00  0.00     0.173 C 
HETATM   19  O4  UNL     1     -49.521  -7.089 -22.589  1.00  0.00    -0.390 OA
HETATM   20  C13 UNL     1     -49.775  -7.014 -23.969  1.00  0.00     0.173 C 
ATOM     21  H4  UNL     1     -53.270  -4.547 -23.176  1.00  0.00     0.186 HD
ENDBRANCH  12  14
ENDBRANCH  11  12
BRANCH  11  22
HETATM   22  C15 UNL     1     -52.347  -2.111 -26.394  1.00  0.00     0.006 A 
HETATM   23  C16 UNL     1     -51.055  -2.551 -26.764  1.00  0.00     0.012 A 
HETATM   24  C17 UNL     1     -50.418  -2.124 -27.900  1.00  0.00     0.001 A 
HETATM   25  C18 UNL     1     -51.038  -1.233 -28.725  1.00  0.00     0.002 A 
HETATM   26  C19 UNL     1     -52.287  -0.782 -28.405  1.00  0.00     0.037 A 
HETATM   27  C20 UNL     1     -52.956  -1.219 -27.231  1.00  0.00     0.111 A 
BRANCH  27  28
HETATM   28  N5  UNL     1     -54.258  -0.739 -26.994  1.00  0.00    -0.115 N 
HETATM   29  O5  UNL     1     -54.570   0.224 -26.340  1.00  0.00    -0.532 OA
HETATM   30  O6  UNL     1     -55.298  -1.449 -27.601  1.00  0.00    -0.532 OA
ENDBRANCH  27  28
ENDBRANCH  11  22
ENDBRANCH   9  11
ENDBRANCH   8   9
BRANCH   5  31
HETATM   31  N2  UNL     1     -54.894   2.367 -21.140  1.00  0.00    -0.116 N 
HETATM   32  O1  UNL     1     -55.721   3.090 -21.736  1.00  0.00    -0.532 OA
HETATM   33  O2  UNL     1     -54.664   2.617 -19.831  1.00  0.00    -0.532 OA
ENDBRANCH   5  31
TORSDOF 7
ENDMDL
MODEL 4
REMARK VINA RESULT: -8.234756656      1.452      2.083
REMARK  7 active torsions:
REMARK  status: ('A' for Active; 'I' for Inactive)
REMARK    1  A    between atoms: C4_5  and  N2_6 
REMARK    2  A    between atoms: C7_11  and  C8_12 
REMARK    3  A    between atoms: C8_12  and  C9_14 
REMARK    4  A    between atoms: C9_14  and  N3_15 
REMARK    5  A    between atoms: C9_14  and  C15_25 
REMARK    6  A    between atoms: N3_15  and  N4_17 
REMARK    7  A    between atoms: C20_30  and  N5_31 
ROOT
HETATM    1  N1  UNL     1     -53.145  -3.116 -20.527  1.00  0.00    -0.191 NA
HETATM    2  C1  UNL     1     -53.357  -2.360 -21.395  1.00  0.00     0.100 C 
HETATM    3  C2  UNL     1     -53.630  -1.406 -22.436  1.00  0.00     0.060 A 
HETATM    4  C3  UNL     1     -54.304  -0.223 -22.089  1.00  0.00     0.059 A 
HETATM    5  C4  UNL     1     -54.606   0.747 -23.013  1.00  0.00     0.104 A 
HETATM    6  C5  UNL     1     -54.220   0.518 -24.312  1.00  0.00     0.037 A 
HETATM    7  C6  UNL     1     -53.556  -0.647 -24.656  1.00  0.00     0.019 A 
HETATM    8  C7  UNL     1     -53.242  -1.643 -23.730  1.00  0.00     0.033 A 
ENDROOT
BRANCH   8   9
HETATM    9  C8  UNL     1     -52.561  -2.860 -24.117  1.00  0.00     0.189 C 
HETATM   10  O3  UNL     1     -53.207  -3.944 -24.125  1.00  0.00    -0.290 OA
BRANCH   9  11
HETATM   11  C9  UNL     1     -51.131  -2.968 -24.520  1.00  0.00     0.209 C 
BRANCH  11  12
HETATM   12  N3  UNL     1     -50.995  -3.858 -25.660  1.00  0.00    -0.320 N 
ATOM     13  H3  UNL     1     -50.182  -4.469 -25.737  1.00  0.00     0.181 HD
BRANCH  12  14
HETATM   14  N4  UNL     1     -51.979  -3.872 -26.645  1.00  0.00    -0.312 N 
HETATM   15  C10 UNL     1     -51.901  -3.173 -27.731  1.00  0.00     0.007 C 
HETATM   16  C11 UNL     1     -53.006  -3.263 -28.712  1.00  0.00     0.080 C 
HETATM   17  C14 UNL     1     -50.754  -2.288 -28.030  1.00  0.00     0.080 C 
HETATM   18  C12 UNL     1     -53.189  -2.001 -29.508  1.00  0.00     0.173 C 
HETATM   19  O4  UNL     1     -51.909  -1.587 -29.940  1.00  0.00    -0.390 OA
HETATM   20  C13 UNL     1     -51.273  -1.089 -28.789  1.00  0.00     0.173 C 
ATOM     21  H4  UNL     1     -52.799  -4.462 -26.504  1.00  0.00     0.186 HD
ENDBRANCH  12  14
ENDBRANCH  11  12
BRANCH  11  22
HETATM   22  C15 UNL     1     -50.406  -3.615 -23.397  1.00  0.00     0.006 A 
HETATM   23  C16 UNL     1     -49.971  -2.786 -22.337  1.00  0.00     0.012 A 
HETATM   24  C17 UNL     1     -49.275  -3.262 -21.256  1.00  0.00     0.001 A 
HETATM   25  C18 UNL     1     -48.977  -4.590 -21.179  1.00  0.00     0.002 A 
HETATM   26  C19 UNL     1     -49.379  -5.425 -22.181  1.00  0.00     0.037 A 
HETATM   27  C20 UNL     1     -50.102  -4.943 -23.306  1.00  0.00     0.111 A 
BRANCH  27  28
HETATM   28  N5  UNL     1     -50.516  -5.875 -24.276  1.00  0.00    -0.115 N 
HETATM   29  O5  UNL     1     -51.612  -6.364 -24.394  1.00  0.00    -0.532 OA
HETATM   30  O6  UNL     1     -49.554  -6.256 -25.216  1.00  0.00    -0.532 OA
ENDBRANCH  27  28
ENDBRANCH  11  22
ENDBRANCH   9  11
ENDBRANCH   8   9
BRANCH   5  31
HETATM   31  N2  UNL     1     -55.293   1.943 -22.629  1.00  0.00    -0.116 N 
HETATM   32  O1  UNL     1     -56.150   2.422 -23.403  1.00  0.00    -0.532 OA
HETATM   33  O2  UNL     1     -55.064   2.589 -21.462  1.00  0.00    -0.532 OA
ENDBRANCH   5  31
TORSDOF 7
ENDMDL
MODEL 5
REMARK VINA RESULT: -8.178980243      1.021      1.874
REMARK  7 active torsions:
REMARK  status: ('A' for Active; 'I' for Inactive)
REMARK    1  A    between atoms: C4_5  and  N2_6 
REMARK    2  A    between atoms: C7_11  and  C8_12 
REMARK    3  A    between atoms: C8_12  and  C9_14 
REMARK    4  A    between atoms: C9_14  and  N3_15 
REMARK    5  A    between atoms: C9_14  and  C15_25 
REMARK    6  A    between atoms: N3_15  and  N4_17 
REMARK    7  A    between atoms: C20_30  and  N5_31 
ROOT
HETATM    1  N1  UNL     1     -52.775  -0.473 -26.499  1.00  0.00    -0.191 NA
HETATM    2  C1  UNL     1     -53.076  -0.538 -25.369  1.00  0.00     0.100 C 
HETATM    3  C2  UNL     1     -53.460  -0.581 -23.984  1.00  0.00     0.060 A 
HETATM    4  C3  UNL     1     -53.975   0.590 -23.404  1.00  0.00     0.059 A 
HETATM    5  C4  UNL     1     -54.371   0.645 -22.090  1.00  0.00     0.104 A 
HETATM    6  C5  UNL     1     -54.246  -0.506 -21.349  1.00  0.00     0.037 A 
HETATM    7  C6  UNL     1     -53.738  -1.660 -21.919  1.00  0.00     0.019 A 
HETATM    8  C7  UNL     1     -53.330  -1.733 -23.252  1.00  0.00     0.033 A 
ENDROOT
BRANCH   8   9
HETATM    9  C8  UNL     1     -52.789  -2.948 -23.820  1.00  0.00     0.189 C 
HETATM   10  O3  UNL     1     -53.525  -3.970 -23.892  1.00  0.00    -0.290 OA
BRANCH   9  11
HETATM   11  C9  UNL     1     -51.406  -3.123 -24.347  1.00  0.00     0.209 C 
BRANCH  11  12
HETATM   12  N3  UNL     1     -51.366  -4.213 -25.305  1.00  0.00    -0.320 N 
ATOM     13  H3  UNL     1     -50.694  -4.972 -25.190  1.00  0.00     0.181 HD
BRANCH  12  14
HETATM   14  N4  UNL     1     -52.249  -4.218 -26.381  1.00  0.00    -0.312 N 
HETATM   15  C10 UNL     1     -51.947  -3.738 -27.544  1.00  0.00     0.007 C 
HETATM   16  C11 UNL     1     -52.964  -3.794 -28.619  1.00  0.00     0.080 C 
HETATM   17  C14 UNL     1     -50.628  -3.136 -27.842  1.00  0.00     0.080 C 
HETATM   18  C12 UNL     1     -52.830  -2.672 -29.612  1.00  0.00     0.173 C 
HETATM   19  O4  UNL     1     -51.463  -2.574 -29.954  1.00  0.00    -0.390 OA
HETATM   20  C13 UNL     1     -50.840  -2.010 -28.827  1.00  0.00     0.173 C 
ATOM     21  H4  UNL     1     -53.178  -4.619 -26.247  1.00  0.00     0.186 HD
ENDBRANCH  12  14
ENDBRANCH  11  12
BRANCH  11  22
HETATM   22  C15 UNL     1     -50.551  -3.539 -23.206  1.00  0.00     0.006 A 
HETATM   23  C16 UNL     1     -50.322  -4.924 -23.032  1.00  0.00     0.012 A 
HETATM   24  C17 UNL     1     -49.569  -5.431 -22.006  1.00  0.00     0.001 A 
HETATM   25  C18 UNL     1     -49.006  -4.583 -21.099  1.00  0.00     0.002 A 
HETATM   26  C19 UNL     1     -49.202  -3.238 -21.231  1.00  0.00     0.037 A 
HETATM   27  C20 UNL     1     -49.980  -2.700 -22.291  1.00  0.00     0.111 A 
BRANCH  27  28
HETATM   28  N5  UNL     1     -50.101  -1.301 -22.380  1.00  0.00    -0.115 N 
HETATM   29  O5  UNL     1     -49.842  -0.608 -23.332  1.00  0.00    -0.532 OA
HETATM   30  O6  UNL     1     -50.594  -0.650 -21.246  1.00  0.00    -0.532 OA
ENDBRANCH  27  28
ENDBRANCH  11  22
ENDBRANCH   9  11
ENDBRANCH   8   9
BRANCH   5  31
HETATM   31  N2  UNL     1     -54.894   1.853 -21.527  1.00  0.00    -0.116 N 
HETATM   32  O1  UNL     1     -54.579   2.158 -20.356  1.00  0.00    -0.532 OA
HETATM   33  O2  UNL     1     -55.716   2.691 -22.199  1.00  0.00    -0.532 OA
ENDBRANCH   5  31
TORSDOF 7
ENDMDL
