MODEL 1
REMARK VINA RESULT: -7.274958000      0.000      0.000
REMARK  8 active torsions:
REMARK  status: ('A' for Active; 'I' for Inactive)
REMARK    1  A    between atoms: O1_2  and  C2_3 
REMARK    2  A    between atoms: C2_3  and  C3_5 
REMARK    3  A    between atoms: C10_14  and  C11_15 
REMARK    4  A    between atoms: C13_18  and  C14_19 
REMARK    5  A    between atoms: C14_19  and  C15_20 
REMARK    6  A    between atoms: C15_20  and  O5_22 
REMARK    7  A    between atoms: O5_22  and  C16_23 
REMARK    8  A    between atoms: C17_25  and  O7_26 
ROOT
HETATM    1  C3  UNL     1     -52.706   1.407 -20.233  1.00  0.00     0.075 A 
HETATM    2  C4  UNL     1     -52.689   1.601 -18.847  1.00  0.00     0.043 A 
HETATM    3  C5  UNL     1     -51.755   1.020 -18.017  1.00  0.00     0.046 A 
HETATM    4  C6  UNL     1     -51.789   1.259 -16.582  1.00  0.00     0.099 C 
HETATM    5  N1  UNL     1     -51.816   1.431 -15.441  1.00  0.00    -0.191 NA
HETATM    6  C7  UNL     1     -50.795   0.212 -18.589  1.00  0.00     0.038 A 
HETATM    7  C8  UNL     1     -50.767  -0.010 -19.947  1.00  0.00     0.025 A 
HETATM    8  C9  UNL     1     -49.980  -0.733 -20.819  1.00  0.00     0.084 A 
HETATM    9 CL1  UNL     1     -48.604  -1.699 -20.332  1.00  0.00    -0.080 Cl
HETATM   10  C10 UNL     1     -50.471  -0.555 -22.113  1.00  0.00     0.135 A 
HETATM   11  O8  UNL     1     -51.503   0.237 -22.015  1.00  0.00    -0.304 OA
HETATM   12  C18 UNL     1     -51.721   0.590 -20.752  1.00  0.00     0.104 A 
ENDROOT
BRANCH   1  13
HETATM   13  C2  UNL     1     -53.710   2.040 -21.069  1.00  0.00     0.295 C 
HETATM   14  O2  UNL     1     -53.930   3.255 -20.942  1.00  0.00    -0.259 OA
BRANCH  13  15
HETATM   15  O1  UNL     1     -54.412   1.305 -21.997  1.00  0.00    -0.322 OA
HETATM   16  C1  UNL     1     -54.335   1.529 -23.391  1.00  0.00     0.213 C 
ENDBRANCH  13  15
ENDBRANCH   1  13
BRANCH  10  17
HETATM   17  C11 UNL     1     -49.863  -1.189 -23.284  1.00  0.00     0.144 A 
HETATM   18  O3  UNL     1     -48.877  -2.054 -23.284  1.00  0.00    -0.316 OA
HETATM   19  C12 UNL     1     -48.562  -2.432 -24.473  1.00  0.00     0.153 A 
HETATM   20  C13 UNL     1     -49.390  -1.780 -25.360  1.00  0.00     0.009 A 
HETATM   21  C17 UNL     1     -50.215  -0.992 -24.606  1.00  0.00     0.111 A 
BRANCH  20  22
HETATM   22  C14 UNL     1     -49.316  -1.969 -26.815  1.00  0.00     0.155 C 
BRANCH  22  23
HETATM   23  C15 UNL     1     -50.483  -2.703 -27.372  1.00  0.00     0.270 C 
HETATM   24  O4  UNL     1     -50.500  -3.070 -28.574  1.00  0.00    -0.264 OA
BRANCH  23  25
HETATM   25  O5  UNL     1     -51.582  -3.004 -26.597  1.00  0.00    -0.252 OA
BRANCH  25  26
HETATM   26  C16 UNL     1     -52.873  -2.740 -27.028  1.00  0.00     0.406 C 
HETATM   27  O6  UNL     1     -53.450  -1.683 -26.693  1.00  0.00    -0.276 OA
ENDBRANCH  25  26
ENDBRANCH  23  25
ENDBRANCH  22  23
ENDBRANCH  20  22
BRANCH  21  28
HETATM   28  O7  UNL     1     -51.204  -0.165 -25.073  1.00  0.00    -0.357 OA
ATOM     29  H7  UNL     1     -51.538  -0.130 -25.961  1.00  0.00     0.217 HD
ENDBRANCH  21  28
ENDBRANCH  10  17
TORSDOF 8
ENDMDL
MODEL 2
REMARK VINA RESULT: -7.160872149      3.170      5.264
REMARK  8 active torsions:
REMARK  status: ('A' for Active; 'I' for Inactive)
REMARK    1  A    between atoms: O1_2  and  C2_3 
REMARK    2  A    between atoms: C2_3  and  C3_5 
REMARK    3  A    between atoms: C10_14  and  C11_15 
REMARK    4  A    between atoms: C13_18  and  C14_19 
REMARK    5  A    between atoms: C14_19  and  C15_20 
REMARK    6  A    between atoms: C15_20  and  O5_22 
REMARK    7  A    between atoms: O5_22  and  C16_23 
REMARK    8  A    between atoms: C17_25  and  O7_26 
ROOT
HETATM    1  C3  UNL     1     -52.598  -0.941 -25.243  1.00  0.00     0.075 A 
HETATM    2  C4  UNL     1     -52.899  -0.014 -24.239  1.00  0.00     0.043 A 
HETATM    3  C5  UNL     1     -52.044   0.272 -23.197  1.00  0.00     0.046 A 
HETATM    4  C6  UNL     1     -52.413   1.246 -22.181  1.00  0.00     0.099 C 
HETATM    5  N1  UNL     1     -52.702   2.007 -21.363  1.00  0.00    -0.191 NA
HETATM    6  C7  UNL     1     -50.837  -0.393 -23.151  1.00  0.00     0.038 A 
HETATM    7  C8  UNL     1     -50.491  -1.314 -24.114  1.00  0.00     0.025 A 
HETATM    8  C9  UNL     1     -49.409  -2.130 -24.366  1.00  0.00     0.084 A 
HETATM    9 CL1  UNL     1     -47.979  -2.204 -23.359  1.00  0.00    -0.080 Cl
HETATM   10  C10 UNL     1     -49.661  -2.855 -25.530  1.00  0.00     0.135 A 
HETATM   11  O8  UNL     1     -50.839  -2.489 -25.952  1.00  0.00    -0.304 OA
HETATM   12  C18 UNL     1     -51.376  -1.576 -25.148  1.00  0.00     0.104 A 
ENDROOT
BRANCH   1  13
HETATM   13  C2  UNL     1     -53.531  -1.210 -26.323  1.00  0.00     0.295 C 
HETATM   14  O2  UNL     1     -54.582  -0.553 -26.397  1.00  0.00    -0.259 OA
BRANCH  13  15
HETATM   15  O1  UNL     1     -53.256  -2.181 -27.259  1.00  0.00    -0.322 OA
HETATM   16  C1  UNL     1     -53.135  -1.918 -28.643  1.00  0.00     0.213 C 
ENDBRANCH  13  15
ENDBRANCH   1  13
BRANCH  10  17
HETATM   17  C11 UNL     1     -48.709  -3.821 -26.081  1.00  0.00     0.144 A 
HETATM   18  O3  UNL     1     -47.849  -4.547 -25.407  1.00  0.00    -0.316 OA
HETATM   19  C12 UNL     1     -47.146  -5.305 -26.174  1.00  0.00     0.153 A 
HETATM   20  C13 UNL     1     -47.549  -5.087 -27.473  1.00  0.00     0.009 A 
HETATM   21  C17 UNL     1     -48.539  -4.146 -27.415  1.00  0.00     0.111 A 
BRANCH  20  22
HETATM   22  C14 UNL     1     -46.960  -5.784 -28.624  1.00  0.00     0.155 C 
BRANCH  22  23
HETATM   23  C15 UNL     1     -47.871  -6.792 -29.229  1.00  0.00     0.270 C 
HETATM   24  O4  UNL     1     -48.299  -7.761 -28.553  1.00  0.00    -0.264 OA
BRANCH  23  25
HETATM   25  O5  UNL     1     -48.277  -6.701 -30.542  1.00  0.00    -0.252 OA
BRANCH  25  26
HETATM   26  C16 UNL     1     -48.123  -5.533 -31.275  1.00  0.00     0.406 C 
HETATM   27  O6  UNL     1     -49.018  -4.661 -31.273  1.00  0.00    -0.276 OA
ENDBRANCH  25  26
ENDBRANCH  23  25
ENDBRANCH  22  23
ENDBRANCH  20  22
BRANCH  21  28
HETATM   28  O7  UNL     1     -49.233  -3.625 -28.476  1.00  0.00    -0.357 OA
ATOM     29  H7  UNL     1     -49.416  -2.707 -28.635  1.00  0.00     0.217 HD
ENDBRANCH  21  28
ENDBRANCH  10  17
TORSDOF 8
ENDMDL
MODEL 3
REMARK VINA RESULT: -7.025547150      2.343      3.930
REMARK  8 active torsions:
REMARK  status: ('A' for Active; 'I' for Inactive)
REMARK    1  A    between atoms: O1_2  and  C2_3 
REMARK    2  A    between atoms: C2_3  and  C3_5 
REMARK    3  A    between atoms: C10_14  and  C11_15 
REMARK    4  A    between atoms: C13_18  and  C14_19 
REMARK    5  A    between atoms: C14_19  and  C15_20 
REMARK    6  A    between atoms: C15_20  and  O5_22 
REMARK    7  A    between atoms: O5_22  and  C16_23 
REMARK    8  A    between atoms: C17_25  and  O7_26 
ROOT
HETATM    1  C3  UNL     1     -50.268  -0.645 -18.518  1.00  0.00     0.075 A 
HETATM    2  C4  UNL     1     -50.489  -0.042 -17.276  1.00  0.00     0.043 A 
HETATM    3  C5  UNL     1     -51.397   0.976 -17.083  1.00  0.00     0.046 A 
HETATM    4  C6  UNL     1     -51.583   1.564 -15.766  1.00  0.00     0.099 C 
HETATM    5  N1  UNL     1     -51.728   2.047 -14.728  1.00  0.00    -0.191 NA
HETATM    6  C7  UNL     1     -52.119   1.412 -18.174  1.00  0.00     0.038 A 
HETATM    7  C8  UNL     1     -51.940   0.852 -19.419  1.00  0.00     0.025 A 
HETATM    8  C9  UNL     1     -52.471   1.039 -20.677  1.00  0.00     0.084 A 
HETATM    9 CL1  UNL     1     -53.701   2.224 -21.060  1.00  0.00    -0.080 Cl
HETATM   10  C10 UNL     1     -51.866   0.138 -21.553  1.00  0.00     0.135 A 
HETATM   11  O8  UNL     1     -51.013  -0.553 -20.848  1.00  0.00    -0.304 OA
HETATM   12  C18 UNL     1     -51.018  -0.170 -19.576  1.00  0.00     0.104 A 
ENDROOT
BRANCH   1  13
HETATM   13  C2  UNL     1     -49.298  -1.716 -18.674  1.00  0.00     0.295 C 
HETATM   14  O2  UNL     1     -49.457  -2.775 -18.047  1.00  0.00    -0.259 OA
BRANCH  13  15
HETATM   15  O1  UNL     1     -48.215  -1.562 -19.509  1.00  0.00    -0.322 OA
HETATM   16  C1  UNL     1     -47.968  -2.392 -20.627  1.00  0.00     0.213 C 
ENDBRANCH  13  15
ENDBRANCH   1  13
BRANCH  10  17
HETATM   17  C11 UNL     1     -52.202   0.071 -22.977  1.00  0.00     0.144 A 
HETATM   18  O3  UNL     1     -53.163   0.722 -23.587  1.00  0.00    -0.316 OA
HETATM   19  C12 UNL     1     -53.209   0.454 -24.845  1.00  0.00     0.153 A 
HETATM   20  C13 UNL     1     -52.208  -0.450 -25.125  1.00  0.00     0.009 A 
HETATM   21  C17 UNL     1     -51.570  -0.693 -23.940  1.00  0.00     0.111 A 
BRANCH  20  22
HETATM   22  C14 UNL     1     -51.962  -0.985 -26.471  1.00  0.00     0.155 C 
BRANCH  22  23
HETATM   23  C15 UNL     1     -52.356  -2.411 -26.615  1.00  0.00     0.270 C 
HETATM   24  O4  UNL     1     -53.343  -2.738 -27.321  1.00  0.00    -0.264 OA
BRANCH  23  25
HETATM   25  O5  UNL     1     -51.660  -3.419 -25.985  1.00  0.00    -0.252 OA
BRANCH  25  26
HETATM   26  C16 UNL     1     -52.270  -4.268 -25.073  1.00  0.00     0.406 C 
HETATM   27  O6  UNL     1     -52.598  -3.852 -23.942  1.00  0.00    -0.276 OA
ENDBRANCH  25  26
ENDBRANCH  23  25
ENDBRANCH  22  23
ENDBRANCH  20  22
BRANCH  21  28
HETATM   28  O7  UNL     1     -50.504  -1.533 -23.746  1.00  0.00    -0.357 OA
ATOM     29  H7  UNL     1     -50.263  -2.275 -24.288  1.00  0.00     0.217 HD
ENDBRANCH  21  28
ENDBRANCH  10  17
TORSDOF 8
ENDMDL
MODEL 4
REMARK VINA RESULT: -6.993375415      3.846      8.040
REMARK  8 active torsions:
REMARK  status: ('A' for Active; 'I' for Inactive)
REMARK    1  A    between atoms: O1_2  and  C2_3 
REMARK    2  A    between atoms: C2_3  and  C3_5 
REMARK    3  A    between atoms: C10_14  and  C11_15 
REMARK    4  A    between atoms: C13_18  and  C14_19 
REMARK    5  A    between atoms: C14_19  and  C15_20 
REMARK    6  A    between atoms: C15_20  and  O5_22 
REMARK    7  A    between atoms: O5_22  and  C16_23 
REMARK    8  A    between atoms: C17_25  and  O7_26 
ROOT
HETATM    1  C3  UNL     1     -52.752  -0.205 -24.883  1.00  0.00     0.075 A 
HETATM    2  C4  UNL     1     -52.124  -0.849 -25.955  1.00  0.00     0.043 A 
HETATM    3  C5  UNL     1     -50.904  -1.480 -25.844  1.00  0.00     0.046 A 
HETATM    4  C6  UNL     1     -50.300  -2.133 -26.995  1.00  0.00     0.099 C 
HETATM    5  N1  UNL     1     -49.806  -2.642 -27.906  1.00  0.00    -0.191 NA
HETATM    6  C7  UNL     1     -50.281  -1.472 -24.613  1.00  0.00     0.038 A 
HETATM    7  C8  UNL     1     -50.857  -0.853 -23.526  1.00  0.00     0.025 A 
HETATM    8  C9  UNL     1     -50.524  -0.660 -22.203  1.00  0.00     0.084 A 
HETATM    9 CL1  UNL     1     -49.052  -1.250 -21.462  1.00  0.00    -0.080 Cl
HETATM   10  C10 UNL     1     -51.545   0.067 -21.589  1.00  0.00     0.135 A 
HETATM   11  O8  UNL     1     -52.443   0.296 -22.507  1.00  0.00    -0.304 OA
HETATM   12  C18 UNL     1     -52.084  -0.228 -23.674  1.00  0.00     0.104 A 
ENDROOT
BRANCH   1  13
HETATM   13  C2  UNL     1     -54.039   0.448 -25.047  1.00  0.00     0.295 C 
HETATM   14  O2  UNL     1     -54.273   1.494 -24.419  1.00  0.00    -0.259 OA
BRANCH  13  15
HETATM   15  O1  UNL     1     -54.990  -0.081 -25.888  1.00  0.00    -0.322 OA
HETATM   16  C1  UNL     1     -56.185   0.591 -26.235  1.00  0.00     0.213 C 
ENDBRANCH  13  15
ENDBRANCH   1  13
BRANCH  10  17
HETATM   17  C11 UNL     1     -51.507   0.446 -20.176  1.00  0.00     0.144 A 
HETATM   18  O3  UNL     1     -50.559   0.166 -19.314  1.00  0.00    -0.316 OA
HETATM   19  C12 UNL     1     -50.811   0.637 -18.143  1.00  0.00     0.153 A 
HETATM   20  C13 UNL     1     -52.022   1.291 -18.200  1.00  0.00     0.009 A 
HETATM   21  C17 UNL     1     -52.464   1.169 -19.488  1.00  0.00     0.111 A 
BRANCH  20  22
HETATM   22  C14 UNL     1     -52.632   1.955 -17.039  1.00  0.00     0.155 C 
BRANCH  22  23
HETATM   23  C15 UNL     1     -52.098   1.469 -15.740  1.00  0.00     0.270 C 
HETATM   24  O4  UNL     1     -51.266   2.151 -15.089  1.00  0.00    -0.264 OA
BRANCH  23  25
HETATM   25  O5  UNL     1     -52.493   0.263 -15.203  1.00  0.00    -0.252 OA
BRANCH  25  26
HETATM   26  C16 UNL     1     -52.257  -0.057 -13.874  1.00  0.00     0.406 C 
HETATM   27  O6  UNL     1     -53.180   0.002 -13.034  1.00  0.00    -0.276 OA
ENDBRANCH  25  26
ENDBRANCH  23  25
ENDBRANCH  22  23
ENDBRANCH  20  22
BRANCH  21  28
HETATM   28  O7  UNL     1     -53.632   1.670 -20.001  1.00  0.00    -0.357 OA
ATOM     29  H7  UNL     1     -54.510   1.357 -19.817  1.00  0.00     0.217 HD
ENDBRANCH  21  28
ENDBRANCH  10  17
TORSDOF 8
ENDMDL
MODEL 5
REMARK VINA RESULT: -6.968545972      2.953      4.723
REMARK  8 active torsions:
REMARK  status: ('A' for Active; 'I' for Inactive)
REMARK    1  A    between atoms: O1_2  and  C2_3 
REMARK    2  A    between atoms: C2_3  and  C3_5 
REMARK    3  A    between atoms: C10_14  and  C11_15 
REMARK    4  A    between atoms: C13_18  and  C14_19 
REMARK    5  A    between atoms: C14_19  and  C15_20 
REMARK    6  A    between atoms: C15_20  and  O5_22 
REMARK    7  A    between atoms: O5_22  and  C16_23 
REMARK    8  A    between atoms: C17_25  and  O7_26 
ROOT
HETATM    1  C3  UNL     1     -53.023  -0.510 -24.876  1.00  0.00     0.075 A 
HETATM    2  C4  UNL     1     -53.343   0.389 -23.853  1.00  0.00     0.043 A 
HETATM    3  C5  UNL     1     -52.506   0.651 -22.791  1.00  0.00     0.046 A 
HETATM    4  C6  UNL     1     -52.895   1.597 -21.756  1.00  0.00     0.099 C 
HETATM    5  N1  UNL     1     -53.200   2.335 -20.923  1.00  0.00    -0.191 NA
HETATM    6  C7  UNL     1     -51.296  -0.009 -22.743  1.00  0.00     0.038 A 
HETATM    7  C8  UNL     1     -50.932  -0.904 -23.724  1.00  0.00     0.025 A 
HETATM    8  C9  UNL     1     -49.842  -1.708 -23.980  1.00  0.00     0.084 A 
HETATM    9 CL1  UNL     1     -48.428  -1.803 -22.953  1.00  0.00    -0.080 Cl
HETATM   10  C10 UNL     1     -50.072  -2.404 -25.167  1.00  0.00     0.135 A 
HETATM   11  O8  UNL     1     -51.246  -2.032 -25.597  1.00  0.00    -0.304 OA
HETATM   12  C18 UNL     1     -51.799  -1.142 -24.779  1.00  0.00     0.104 A 
ENDROOT
BRANCH   1  13
HETATM   13  C2  UNL     1     -53.937  -0.755 -25.977  1.00  0.00     0.295 C 
HETATM   14  O2  UNL     1     -53.487  -1.160 -27.062  1.00  0.00    -0.259 OA
BRANCH  13  15
HETATM   15  O1  UNL     1     -55.288  -0.544 -25.825  1.00  0.00    -0.322 OA
HETATM   16  C1  UNL     1     -55.933   0.666 -26.169  1.00  0.00     0.213 C 
ENDBRANCH  13  15
ENDBRANCH   1  13
BRANCH  10  17
HETATM   17  C11 UNL     1     -49.108  -3.352 -25.728  1.00  0.00     0.144 A 
HETATM   18  O3  UNL     1     -48.392  -4.228 -25.064  1.00  0.00    -0.316 OA
HETATM   19  C12 UNL     1     -47.632  -4.921 -25.837  1.00  0.00     0.153 A 
HETATM   20  C13 UNL     1     -47.836  -4.492 -27.130  1.00  0.00     0.009 A 
HETATM   21  C17 UNL     1     -48.771  -3.497 -27.061  1.00  0.00     0.111 A 
BRANCH  20  22
HETATM   22  C14 UNL     1     -47.131  -5.062 -28.287  1.00  0.00     0.155 C 
BRANCH  22  23
HETATM   23  C15 UNL     1     -48.044  -5.678 -29.284  1.00  0.00     0.270 C 
HETATM   24  O4  UNL     1     -48.232  -6.921 -29.304  1.00  0.00    -0.264 OA
BRANCH  23  25
HETATM   25  O5  UNL     1     -48.713  -4.917 -30.218  1.00  0.00    -0.252 OA
BRANCH  25  26
HETATM   26  C16 UNL     1     -48.551  -5.124 -31.580  1.00  0.00     0.406 C 
HETATM   27  O6  UNL     1     -48.033  -4.242 -32.298  1.00  0.00    -0.276 OA
ENDBRANCH  25  26
ENDBRANCH  23  25
ENDBRANCH  22  23
ENDBRANCH  20  22
BRANCH  21  28
HETATM   28  O7  UNL     1     -49.280  -2.780 -28.113  1.00  0.00    -0.357 OA
ATOM     29  H7  UNL     1     -49.317  -3.059 -29.020  1.00  0.00     0.217 HD
ENDBRANCH  21  28
ENDBRANCH  10  17
TORSDOF 8
ENDMDL
