MODEL 1
REMARK VINA RESULT: -7.423349318      0.000      0.000
REMARK  6 active torsions:
REMARK  status: ('A' for Active; 'I' for Inactive)
REMARK    1  A    between atoms: C5_6  and  C6_7 
REMARK       I    between atoms: C6_7  and  N2_9 
REMARK    2  A    between atoms: N2_9  and  C7_11 
REMARK    3  A    between atoms: C8_12  and  N3_13 
REMARK    4  A    between atoms: N3_13  and  O2_14 
REMARK    5  A    between atoms: C11_19  and  N5_20 
REMARK    6  A    between atoms: C13_24  and  N6_25 
ROOT
HETATM    1  N1  UNL     1     -47.713  -3.333 -28.092  1.00  0.00    -0.191 NA
HETATM    2  C1  UNL     1     -48.306  -3.063 -27.116  1.00  0.00     0.099 C 
HETATM    3  C2  UNL     1     -49.013  -2.724 -25.897  1.00  0.00     0.046 A 
HETATM    4  C3  UNL     1     -50.074  -1.853 -25.919  1.00  0.00     0.024 A 
HETATM    5  C4  UNL     1     -50.770  -1.524 -24.763  1.00  0.00     0.020 A 
HETATM    6  C5  UNL     1     -50.381  -2.082 -23.578  1.00  0.00     0.054 A 
HETATM    7  C14 UNL     1     -49.328  -2.951 -23.515  1.00  0.00     0.051 A 
HETATM    8 CL1  UNL     1     -48.821  -3.666 -22.008  1.00  0.00    -0.083 Cl
HETATM    9  C15 UNL     1     -48.631  -3.282 -24.685  1.00  0.00     0.047 A 
ENDROOT
BRANCH   6  10
HETATM   10  C6  UNL     1     -51.180  -1.759 -22.328  1.00  0.00     0.258 C 
HETATM   11  O1  UNL     1     -52.022  -2.621 -22.117  1.00  0.00    -0.267 OA
HETATM   12  N2  UNL     1     -50.842  -0.585 -21.650  1.00  0.00    -0.319 N 
ATOM     13  H2  UNL     1     -50.067  -0.095 -22.096  1.00  0.00     0.169 HD
BRANCH  12  14
HETATM   14  C7  UNL     1     -51.297   0.081 -20.521  1.00  0.00     0.093 A 
HETATM   15  C8  UNL     1     -50.806  -0.091 -19.258  1.00  0.00     0.084 A 
HETATM   16  C10 UNL     1     -51.251   0.663 -18.149  1.00  0.00     0.065 A 
HETATM   17  C11 UNL     1     -52.205   1.599 -18.320  1.00  0.00     0.107 A 
HETATM   18  C12 UNL     1     -52.709   1.779 -19.575  1.00  0.00     0.074 A 
HETATM   19  C13 UNL     1     -52.289   1.046 -20.700  1.00  0.00     0.134 A 
BRANCH  15  20
HETATM   20  N3  UNL     1     -49.824  -1.044 -18.877  1.00  0.00    -0.060 NA
HETATM   21  C9  UNL     1     -50.392  -2.333 -18.772  1.00  0.00     0.184 C 
HETATM   22  N4  UNL     1     -50.877  -3.380 -18.700  1.00  0.00    -0.176 NA
BRANCH  20  23
HETATM   23  O2  UNL     1     -48.792  -1.062 -19.772  1.00  0.00    -0.294 OA
ATOM     24  H2  UNL     1     -48.382  -1.919 -19.797  1.00  0.00     0.238 HD
ENDBRANCH  20  23
ENDBRANCH  15  20
BRANCH  17  25
HETATM   25  N5  UNL     1     -52.661   2.386 -17.206  1.00  0.00    -0.116 N 
HETATM   26  O3  UNL     1     -52.353   2.080 -16.054  1.00  0.00    -0.532 OA
HETATM   27  O4  UNL     1     -53.443   3.483 -17.433  1.00  0.00    -0.532 OA
ENDBRANCH  17  25
BRANCH  19  28
HETATM   28  N6  UNL     1     -52.941   1.375 -21.898  1.00  0.00    -0.113 N 
HETATM   29  O5  UNL     1     -52.469   1.265 -23.014  1.00  0.00    -0.532 OA
HETATM   30  O6  UNL     1     -54.262   1.801 -21.829  1.00  0.00    -0.532 OA
ENDBRANCH  19  28
ENDBRANCH  12  14
ENDBRANCH   6  10
TORSDOF 6
ENDMDL
MODEL 2
REMARK VINA RESULT: -7.267540619      2.315      2.678
REMARK  6 active torsions:
REMARK  status: ('A' for Active; 'I' for Inactive)
REMARK    1  A    between atoms: C5_6  and  C6_7 
REMARK       I    between atoms: C6_7  and  N2_9 
REMARK    2  A    between atoms: N2_9  and  C7_11 
REMARK    3  A    between atoms: C8_12  and  N3_13 
REMARK    4  A    between atoms: N3_13  and  O2_14 
REMARK    5  A    between atoms: C11_19  and  N5_20 
REMARK    6  A    between atoms: C13_24  and  N6_25 
ROOT
HETATM    1  N1  UNL     1     -53.560  -2.318 -28.629  1.00  0.00    -0.191 NA
HETATM    2  C1  UNL     1     -53.111  -2.057 -27.577  1.00  0.00     0.099 C 
HETATM    3  C2  UNL     1     -52.539  -1.759 -26.279  1.00  0.00     0.046 A 
HETATM    4  C3  UNL     1     -52.144  -0.483 -25.962  1.00  0.00     0.024 A 
HETATM    5  C4  UNL     1     -51.603  -0.176 -24.721  1.00  0.00     0.020 A 
HETATM    6  C5  UNL     1     -51.460  -1.174 -23.799  1.00  0.00     0.054 A 
HETATM    7  C14 UNL     1     -51.839  -2.457 -24.078  1.00  0.00     0.051 A 
HETATM    8 CL1  UNL     1     -51.657  -3.739 -22.910  1.00  0.00    -0.083 Cl
HETATM    9  C15 UNL     1     -52.387  -2.761 -25.331  1.00  0.00     0.047 A 
ENDROOT
BRANCH   6  10
HETATM   10  C6  UNL     1     -50.917  -0.819 -22.425  1.00  0.00     0.258 C 
HETATM   11  O1  UNL     1     -49.694  -0.849 -22.421  1.00  0.00    -0.267 OA
HETATM   12  N2  UNL     1     -51.856  -0.529 -21.432  1.00  0.00    -0.319 N 
ATOM     13  H2  UNL     1     -52.812  -0.583 -21.783  1.00  0.00     0.169 HD
BRANCH  12  14
HETATM   14  C7  UNL     1     -51.813  -0.184 -20.089  1.00  0.00     0.093 A 
HETATM   15  C8  UNL     1     -51.250  -0.943 -19.103  1.00  0.00     0.084 A 
HETATM   16  C10 UNL     1     -51.165  -0.519 -17.757  1.00  0.00     0.065 A 
HETATM   17  C11 UNL     1     -51.657   0.686 -17.408  1.00  0.00     0.107 A 
HETATM   18  C12 UNL     1     -52.227   1.454 -18.381  1.00  0.00     0.074 A 
HETATM   19  C13 UNL     1     -52.328   1.061 -19.728  1.00  0.00     0.134 A 
BRANCH  15  20
HETATM   20  N3  UNL     1     -50.707  -2.245 -19.271  1.00  0.00    -0.060 NA
HETATM   21  C9  UNL     1     -49.299  -2.219 -19.154  1.00  0.00     0.184 C 
HETATM   22  N4  UNL     1     -48.149  -2.175 -19.047  1.00  0.00    -0.176 NA
BRANCH  20  23
HETATM   23  O2  UNL     1     -51.234  -3.111 -18.355  1.00  0.00    -0.294 OA
ATOM     24  H2  UNL     1     -50.907  -2.920 -17.483  1.00  0.00     0.238 HD
ENDBRANCH  20  23
ENDBRANCH  15  20
BRANCH  17  25
HETATM   25  N5  UNL     1     -51.568   1.141 -16.046  1.00  0.00    -0.116 N 
HETATM   26  O3  UNL     1     -51.992   2.252 -15.728  1.00  0.00    -0.532 OA
HETATM   27  O4  UNL     1     -51.008   0.330 -15.101  1.00  0.00    -0.532 OA
ENDBRANCH  17  25
BRANCH  19  28
HETATM   28  N6  UNL     1     -52.959   1.990 -20.569  1.00  0.00    -0.113 N 
HETATM   29  O5  UNL     1     -53.900   2.698 -20.262  1.00  0.00    -0.532 OA
HETATM   30  O6  UNL     1     -52.437   2.182 -21.843  1.00  0.00    -0.532 OA
ENDBRANCH  19  28
ENDBRANCH  12  14
ENDBRANCH   6  10
TORSDOF 6
ENDMDL
MODEL 3
REMARK VINA RESULT: -7.105677033      3.583      8.631
REMARK  6 active torsions:
REMARK  status: ('A' for Active; 'I' for Inactive)
REMARK    1  A    between atoms: C5_6  and  C6_7 
REMARK       I    between atoms: C6_7  and  N2_9 
REMARK    2  A    between atoms: N2_9  and  C7_11 
REMARK    3  A    between atoms: C8_12  and  N3_13 
REMARK    4  A    between atoms: N3_13  and  O2_14 
REMARK    5  A    between atoms: C11_19  and  N5_20 
REMARK    6  A    between atoms: C13_24  and  N6_25 
ROOT
HETATM    1  N1  UNL     1     -52.446   1.811 -18.316  1.00  0.00    -0.191 NA
HETATM    2  C1  UNL     1     -52.277   1.095 -19.230  1.00  0.00     0.099 C 
HETATM    3  C2  UNL     1     -52.086   0.192 -20.348  1.00  0.00     0.046 A 
HETATM    4  C3  UNL     1     -52.159   0.650 -21.641  1.00  0.00     0.024 A 
HETATM    5  C4  UNL     1     -51.970  -0.198 -22.724  1.00  0.00     0.020 A 
HETATM    6  C5  UNL     1     -51.707  -1.518 -22.490  1.00  0.00     0.054 A 
HETATM    7  C14 UNL     1     -51.628  -2.011 -21.218  1.00  0.00     0.051 A 
HETATM    8 CL1  UNL     1     -51.297  -3.695 -20.908  1.00  0.00    -0.083 Cl
HETATM    9  C15 UNL     1     -51.818  -1.151 -20.128  1.00  0.00     0.047 A 
ENDROOT
BRANCH   6  10
HETATM   10  C6  UNL     1     -51.447  -2.427 -23.679  1.00  0.00     0.258 C 
HETATM   11  O1  UNL     1     -52.414  -3.146 -23.894  1.00  0.00    -0.267 OA
HETATM   12  N2  UNL     1     -50.206  -2.304 -24.307  1.00  0.00    -0.319 N 
ATOM     13  H2  UNL     1     -49.628  -1.583 -23.874  1.00  0.00     0.169 HD
BRANCH  12  14
HETATM   14  C7  UNL     1     -49.562  -2.915 -25.374  1.00  0.00     0.093 A 
HETATM   15  C8  UNL     1     -49.767  -2.614 -26.690  1.00  0.00     0.084 A 
HETATM   16  C10 UNL     1     -49.035  -3.213 -27.741  1.00  0.00     0.065 A 
HETATM   17  C11 UNL     1     -48.088  -4.127 -27.454  1.00  0.00     0.107 A 
HETATM   18  C12 UNL     1     -47.874  -4.442 -26.144  1.00  0.00     0.074 A 
HETATM   19  C13 UNL     1     -48.585  -3.865 -25.075  1.00  0.00     0.134 A 
BRANCH  15  20
HETATM   20  N3  UNL     1     -50.736  -1.703 -27.187  1.00  0.00    -0.060 NA
HETATM   21  C9  UNL     1     -52.008  -2.314 -27.259  1.00  0.00     0.184 C 
HETATM   22  N4  UNL     1     -53.040  -2.834 -27.302  1.00  0.00    -0.176 NA
BRANCH  20  23
HETATM   23  O2  UNL     1     -50.801  -0.587 -26.402  1.00  0.00    -0.294 OA
ATOM     24  H2  UNL     1     -51.666  -0.493 -26.020  1.00  0.00     0.238 HD
ENDBRANCH  20  23
ENDBRANCH  15  20
BRANCH  17  25
HETATM   25  N5  UNL     1     -47.323  -4.737 -28.508  1.00  0.00    -0.116 N 
HETATM   26  O3  UNL     1     -47.216  -4.187 -29.605  1.00  0.00    -0.532 OA
HETATM   27  O4  UNL     1     -46.709  -5.937 -28.286  1.00  0.00    -0.532 OA
ENDBRANCH  17  25
BRANCH  19  28
HETATM   28  N6  UNL     1     -48.223  -4.334 -23.803  1.00  0.00    -0.113 N 
HETATM   29  O5  UNL     1     -48.947  -4.950 -23.043  1.00  0.00    -0.532 OA
HETATM   30  O6  UNL     1     -46.910  -4.149 -23.386  1.00  0.00    -0.532 OA
ENDBRANCH  19  28
ENDBRANCH  12  14
ENDBRANCH   6  10
TORSDOF 6
ENDMDL
MODEL 4
REMARK VINA RESULT: -7.007925892      2.721      7.302
REMARK  6 active torsions:
REMARK  status: ('A' for Active; 'I' for Inactive)
REMARK    1  A    between atoms: C5_6  and  C6_7 
REMARK       I    between atoms: C6_7  and  N2_9 
REMARK    2  A    between atoms: N2_9  and  C7_11 
REMARK    3  A    between atoms: C8_12  and  N3_13 
REMARK    4  A    between atoms: N3_13  and  O2_14 
REMARK    5  A    between atoms: C11_19  and  N5_20 
REMARK    6  A    between atoms: C13_24  and  N6_25 
ROOT
HETATM    1  N1  UNL     1     -51.980   1.175 -14.709  1.00  0.00    -0.191 NA
HETATM    2  C1  UNL     1     -51.743   0.936 -15.833  1.00  0.00     0.099 C 
HETATM    3  C2  UNL     1     -51.453   0.613 -17.216  1.00  0.00     0.046 A 
HETATM    4  C3  UNL     1     -52.071   1.288 -18.239  1.00  0.00     0.024 A 
HETATM    5  C4  UNL     1     -51.798   0.999 -19.570  1.00  0.00     0.020 A 
HETATM    6  C5  UNL     1     -50.895   0.016 -19.860  1.00  0.00     0.054 A 
HETATM    7  C14 UNL     1     -50.261  -0.679 -18.869  1.00  0.00     0.051 A 
HETATM    8 CL1  UNL     1     -49.108  -1.938 -19.227  1.00  0.00    -0.083 Cl
HETATM    9  C15 UNL     1     -50.537  -0.382 -17.527  1.00  0.00     0.047 A 
ENDROOT
BRANCH   6  10
HETATM   10  C6  UNL     1     -50.562  -0.257 -21.317  1.00  0.00     0.258 C 
HETATM   11  O1  UNL     1     -49.436   0.138 -21.586  1.00  0.00    -0.267 OA
HETATM   12  N2  UNL     1     -51.548  -0.885 -22.081  1.00  0.00    -0.319 N 
ATOM     13  H2  UNL     1     -52.382  -1.096 -21.531  1.00  0.00     0.169 HD
BRANCH  12  14
HETATM   14  C7  UNL     1     -51.678  -1.296 -23.400  1.00  0.00     0.093 A 
HETATM   15  C8  UNL     1     -51.174  -2.458 -23.912  1.00  0.00     0.084 A 
HETATM   16  C10 UNL     1     -51.392  -2.870 -25.246  1.00  0.00     0.065 A 
HETATM   17  C11 UNL     1     -52.128  -2.098 -26.069  1.00  0.00     0.107 A 
HETATM   18  C12 UNL     1     -52.635  -0.932 -25.573  1.00  0.00     0.074 A 
HETATM   19  C13 UNL     1     -52.435  -0.492 -24.252  1.00  0.00     0.134 A 
BRANCH  15  20
HETATM   20  N3  UNL     1     -50.355  -3.382 -23.211  1.00  0.00    -0.060 NA
HETATM   21  C9  UNL     1     -49.022  -2.920 -23.143  1.00  0.00     0.184 C 
HETATM   22  N4  UNL     1     -47.939  -2.517 -23.095  1.00  0.00    -0.176 NA
BRANCH  20  23
HETATM   23  O2  UNL     1     -50.836  -3.598 -21.951  1.00  0.00    -0.294 OA
ATOM     24  H2  UNL     1     -51.549  -4.227 -21.965  1.00  0.00     0.238 HD
ENDBRANCH  20  23
ENDBRANCH  15  20
BRANCH  17  25
HETATM   25  N5  UNL     1     -52.373  -2.507 -27.426  1.00  0.00    -0.116 N 
HETATM   26  O3  UNL     1     -51.461  -2.957 -28.119  1.00  0.00    -0.532 OA
HETATM   27  O4  UNL     1     -53.632  -2.396 -27.944  1.00  0.00    -0.532 OA
ENDBRANCH  17  25
BRANCH  19  28
HETATM   28  N6  UNL     1     -53.031   0.740 -23.943  1.00  0.00    -0.113 N 
HETATM   29  O5  UNL     1     -52.633   1.529 -23.105  1.00  0.00    -0.532 OA
HETATM   30  O6  UNL     1     -54.129   1.144 -24.693  1.00  0.00    -0.532 OA
ENDBRANCH  19  28
ENDBRANCH  12  14
ENDBRANCH   6  10
TORSDOF 6
ENDMDL
MODEL 5
REMARK VINA RESULT: -6.997611021      2.528      3.585
REMARK  6 active torsions:
REMARK  status: ('A' for Active; 'I' for Inactive)
REMARK    1  A    between atoms: C5_6  and  C6_7 
REMARK       I    between atoms: C6_7  and  N2_9 
REMARK    2  A    between atoms: N2_9  and  C7_11 
REMARK    3  A    between atoms: C8_12  and  N3_13 
REMARK    4  A    between atoms: N3_13  and  O2_14 
REMARK    5  A    between atoms: C11_19  and  N5_20 
REMARK    6  A    between atoms: C13_24  and  N6_25 
ROOT
HETATM    1  N1  UNL     1     -47.073  -7.942 -27.584  1.00  0.00    -0.191 NA
HETATM    2  C1  UNL     1     -47.413  -7.025 -26.935  1.00  0.00     0.099 C 
HETATM    3  C2  UNL     1     -47.851  -5.885 -26.155  1.00  0.00     0.046 A 
HETATM    4  C3  UNL     1     -48.143  -6.018 -24.820  1.00  0.00     0.024 A 
HETATM    5  C4  UNL     1     -48.555  -4.935 -24.055  1.00  0.00     0.020 A 
HETATM    6  C5  UNL     1     -48.673  -3.712 -24.652  1.00  0.00     0.054 A 
HETATM    7  C14 UNL     1     -48.393  -3.541 -25.978  1.00  0.00     0.051 A 
HETATM    8 CL1  UNL     1     -48.544  -1.985 -26.751  1.00  0.00    -0.083 Cl
HETATM    9  C15 UNL     1     -47.975  -4.636 -26.746  1.00  0.00     0.047 A 
ENDROOT
BRANCH   6  10
HETATM   10  C6  UNL     1     -49.072  -2.523 -23.795  1.00  0.00     0.258 C 
HETATM   11  O1  UNL     1     -48.082  -1.949 -23.362  1.00  0.00    -0.267 OA
HETATM   12  N2  UNL     1     -50.440  -2.285 -23.646  1.00  0.00    -0.319 N 
ATOM     13  H2  UNL     1     -51.005  -2.959 -24.164  1.00  0.00     0.169 HD
BRANCH  12  14
HETATM   14  C7  UNL     1     -51.224  -1.360 -22.971  1.00  0.00     0.093 A 
HETATM   15  C8  UNL     1     -51.396  -1.319 -21.617  1.00  0.00     0.084 A 
HETATM   16  C10 UNL     1     -52.147  -0.314 -20.966  1.00  0.00     0.065 A 
HETATM   17  C11 UNL     1     -52.731   0.658 -21.694  1.00  0.00     0.107 A 
HETATM   18  C12 UNL     1     -52.572   0.628 -23.049  1.00  0.00     0.074 A 
HETATM   19  C13 UNL     1     -51.832  -0.358 -23.728  1.00  0.00     0.134 A 
BRANCH  15  20
HETATM   20  N3  UNL     1     -50.885  -2.266 -20.690  1.00  0.00    -0.060 NA
HETATM   21  C9  UNL     1     -49.684  -1.801 -20.109  1.00  0.00     0.184 C 
HETATM   22  N4  UNL     1     -48.706  -1.397 -19.643  1.00  0.00    -0.176 NA
BRANCH  20  23
HETATM   23  O2  UNL     1     -51.802  -2.531 -19.713  1.00  0.00    -0.294 OA
ATOM     24  H2  UNL     1     -51.387  -2.947 -18.965  1.00  0.00     0.238 HD
ENDBRANCH  20  23
ENDBRANCH  15  20
BRANCH  17  25
HETATM   25  N5  UNL     1     -53.487   1.697 -21.049  1.00  0.00    -0.116 N 
HETATM   26  O3  UNL     1     -53.162   2.109 -19.935  1.00  0.00    -0.532 OA
HETATM   27  O4  UNL     1     -54.572   2.231 -21.682  1.00  0.00    -0.532 OA
ENDBRANCH  17  25
BRANCH  19  28
HETATM   28  N6  UNL     1     -51.801  -0.217 -25.124  1.00  0.00    -0.113 N 
HETATM   29  O5  UNL     1     -50.806  -0.000 -25.791  1.00  0.00    -0.532 OA
HETATM   30  O6  UNL     1     -52.985  -0.406 -25.828  1.00  0.00    -0.532 OA
ENDBRANCH  19  28
ENDBRANCH  12  14
ENDBRANCH   6  10
TORSDOF 6
ENDMDL
