MODEL 1
REMARK VINA RESULT: -7.632674913      0.000      0.000
REMARK  6 active torsions:
REMARK  status: ('A' for Active; 'I' for Inactive)
REMARK    1  A    between atoms: N1_2  and  N3_5 
REMARK       I    between atoms: N3_5  and  C3_6 
REMARK    2  A    between atoms: C3_6  and  C4_8 
REMARK    3  A    between atoms: N6_12  and  C5_13 
REMARK    4  A    between atoms: C11_21  and  N7_22 
REMARK    5  A    between atoms: N7_22  and  N8_24 
REMARK    6  A    between atoms: C12_26  and  C13_27 
ROOT
HETATM    1  C1  UNL     1     -55.838   0.676 -25.828  1.00  0.00     0.206 C 
HETATM    2  N1  UNL     1     -54.481   0.182 -25.529  1.00  0.00    -0.162 N 
HETATM    3  C2  UNL     1     -53.831   0.712 -24.361  1.00  0.00     0.211 C 
HETATM    4  N2  UNL     1     -53.303   1.097 -23.409  1.00  0.00    -0.169 NA
ENDROOT
BRANCH   2   5
HETATM    5  N3  UNL     1     -53.849  -0.743 -26.247  1.00  0.00    -0.268 NA
HETATM    6  C3  UNL     1     -53.210  -1.683 -26.977  1.00  0.00     0.368 C 
HETATM    7  O1  UNL     1     -53.609  -2.444 -27.836  1.00  0.00    -0.247 OA
BRANCH   6   8
HETATM    8  C4  UNL     1     -51.696  -1.763 -26.639  1.00  0.00     0.178 A 
HETATM    9  N4  UNL     1     -50.691  -1.693 -27.444  1.00  0.00    -0.274 N 
HETATM   10  N5  UNL     1     -49.561  -1.960 -26.815  1.00  0.00    -0.013 NA
ATOM     11  H4  UNL     1     -50.760  -1.462 -28.436  1.00  0.00     0.184 HD
HETATM   12  N6  UNL     1     -49.859  -2.213 -25.501  1.00  0.00    -0.220 N 
HETATM   13  C11 UNL     1     -51.194  -2.081 -25.403  1.00  0.00     0.175 A 
BRANCH  12  14
HETATM   14  C5  UNL     1     -48.853  -2.602 -24.596  1.00  0.00     0.058 A 
HETATM   15  C6  UNL     1     -48.408  -1.595 -23.691  1.00  0.00     0.034 A 
HETATM   16  C7  UNL     1     -47.488  -1.817 -22.714  1.00  0.00     0.046 A 
HETATM   17  C8  UNL     1     -46.943  -3.079 -22.575  1.00  0.00     0.138 A 
HETATM   18  F1  UNL     1     -46.026  -3.261 -21.589  1.00  0.00    -0.204 F 
HETATM   19  C9  UNL     1     -47.340  -4.091 -23.435  1.00  0.00     0.074 A 
HETATM   20 CL1  UNL     1     -46.661  -5.668 -23.230  1.00  0.00    -0.081 Cl
HETATM   21  C10 UNL     1     -48.292  -3.833 -24.433  1.00  0.00     0.058 A 
ENDBRANCH  12  14
BRANCH  13  22
HETATM   22  N7  UNL     1     -51.942  -2.230 -24.216  1.00  0.00    -0.282 N 
ATOM     23  H7  UNL     1     -52.792  -2.781 -24.334  1.00  0.00     0.188 HD
BRANCH  22  24
HETATM   24  N8  UNL     1     -51.752  -1.788 -22.961  1.00  0.00    -0.309 N 
HETATM   25  C12 UNL     1     -51.854  -2.207 -21.795  1.00  0.00     0.127 C 
ATOM     26  H8  UNL     1     -51.428  -0.821 -22.967  1.00  0.00     0.186 HD
BRANCH  25  27
HETATM   27  C13 UNL     1     -51.509  -1.325 -20.647  1.00  0.00     0.045 A 
HETATM   28  S1  UNL     1     -49.912  -1.194 -19.945  1.00  0.00    -0.097 SA
HETATM   29  C14 UNL     1     -50.314  -0.011 -18.725  1.00  0.00     0.076 A 
HETATM   30  C15 UNL     1     -51.611   0.210 -18.932  1.00  0.00     0.063 A 
HETATM   31 CL2  UNL     1     -52.505   1.387 -17.899  1.00  0.00    -0.082 Cl
HETATM   32  C16 UNL     1     -52.232  -0.478 -19.934  1.00  0.00     0.074 A 
HETATM   33 CL3  UNL     1     -53.999  -0.268 -20.275  1.00  0.00    -0.081 Cl
ENDBRANCH  25  27
ENDBRANCH  22  24
ENDBRANCH  13  22
ENDBRANCH   6   8
ENDBRANCH   2   5
TORSDOF 6
ENDMDL
MODEL 2
REMARK VINA RESULT: -7.606473951      1.202      1.287
REMARK  6 active torsions:
REMARK  status: ('A' for Active; 'I' for Inactive)
REMARK    1  A    between atoms: N1_2  and  N3_5 
REMARK       I    between atoms: N3_5  and  C3_6 
REMARK    2  A    between atoms: C3_6  and  C4_8 
REMARK    3  A    between atoms: N6_12  and  C5_13 
REMARK    4  A    between atoms: C11_21  and  N7_22 
REMARK    5  A    between atoms: N7_22  and  N8_24 
REMARK    6  A    between atoms: C12_26  and  C13_27 
ROOT
HETATM    1  C1  UNL     1     -55.992   0.582 -25.937  1.00  0.00     0.206 C 
HETATM    2  N1  UNL     1     -54.603   0.176 -25.652  1.00  0.00    -0.162 N 
HETATM    3  C2  UNL     1     -53.958   0.787 -24.522  1.00  0.00     0.211 C 
HETATM    4  N2  UNL     1     -53.433   1.239 -23.599  1.00  0.00    -0.169 NA
ENDROOT
BRANCH   2   5
HETATM    5  N3  UNL     1     -53.936  -0.741 -26.348  1.00  0.00    -0.268 NA
HETATM    6  C3  UNL     1     -53.262  -1.674 -27.056  1.00  0.00     0.368 C 
HETATM    7  O1  UNL     1     -53.626  -2.453 -27.915  1.00  0.00    -0.247 OA
BRANCH   6   8
HETATM    8  C4  UNL     1     -51.753  -1.715 -26.689  1.00  0.00     0.178 A 
HETATM    9  N4  UNL     1     -50.735  -1.564 -27.466  1.00  0.00    -0.274 N 
HETATM   10  N5  UNL     1     -49.609  -1.822 -26.826  1.00  0.00    -0.013 NA
ATOM     11  H4  UNL     1     -50.792  -1.283 -28.445  1.00  0.00     0.184 HD
HETATM   12  N6  UNL     1     -49.923  -2.157 -25.534  1.00  0.00    -0.220 N 
HETATM   13  C11 UNL     1     -51.265  -2.080 -25.459  1.00  0.00     0.175 A 
BRANCH  12  14
HETATM   14  C5  UNL     1     -48.923  -2.556 -24.628  1.00  0.00     0.058 A 
HETATM   15  C6  UNL     1     -48.491  -1.562 -23.702  1.00  0.00     0.034 A 
HETATM   16  C7  UNL     1     -47.577  -1.797 -22.722  1.00  0.00     0.046 A 
HETATM   17  C8  UNL     1     -47.025  -3.058 -22.601  1.00  0.00     0.138 A 
HETATM   18  F1  UNL     1     -46.116  -3.252 -21.612  1.00  0.00    -0.204 F 
HETATM   19  C9  UNL     1     -47.409  -4.056 -23.483  1.00  0.00     0.074 A 
HETATM   20 CL1  UNL     1     -46.722  -5.633 -23.301  1.00  0.00    -0.081 Cl
HETATM   21  C10 UNL     1     -48.355  -3.786 -24.484  1.00  0.00     0.058 A 
ENDBRANCH  12  14
BRANCH  13  22
HETATM   22  N7  UNL     1     -52.031  -2.321 -24.300  1.00  0.00    -0.282 N 
ATOM     23  H7  UNL     1     -52.750  -3.034 -24.424  1.00  0.00     0.188 HD
BRANCH  22  24
HETATM   24  N8  UNL     1     -51.997  -1.795 -23.063  1.00  0.00    -0.309 N 
HETATM   25  C12 UNL     1     -51.736  -2.150 -21.901  1.00  0.00     0.127 C 
ATOM     26  H8  UNL     1     -52.265  -0.811 -23.085  1.00  0.00     0.186 HD
BRANCH  25  27
HETATM   27  C13 UNL     1     -51.828  -1.177 -20.780  1.00  0.00     0.045 A 
HETATM   28  S1  UNL     1     -53.211  -0.155 -20.466  1.00  0.00    -0.097 SA
HETATM   29  C14 UNL     1     -52.573   0.639 -19.048  1.00  0.00     0.076 A 
HETATM   30  C15 UNL     1     -51.373   0.079 -18.902  1.00  0.00     0.063 A 
HETATM   31 CL2  UNL     1     -50.302   0.576 -17.539  1.00  0.00    -0.082 Cl
HETATM   32  C16 UNL     1     -50.986  -0.867 -19.807  1.00  0.00     0.074 A 
HETATM   33 CL3  UNL     1     -49.363  -1.665 -19.710  1.00  0.00    -0.081 Cl
ENDBRANCH  25  27
ENDBRANCH  22  24
ENDBRANCH  13  22
ENDBRANCH   6   8
ENDBRANCH   2   5
TORSDOF 6
ENDMDL
MODEL 3
REMARK VINA RESULT: -7.561019013      4.247      7.346
REMARK  6 active torsions:
REMARK  status: ('A' for Active; 'I' for Inactive)
REMARK    1  A    between atoms: N1_2  and  N3_5 
REMARK       I    between atoms: N3_5  and  C3_6 
REMARK    2  A    between atoms: C3_6  and  C4_8 
REMARK    3  A    between atoms: N6_12  and  C5_13 
REMARK    4  A    between atoms: C11_21  and  N7_22 
REMARK    5  A    between atoms: N7_22  and  N8_24 
REMARK    6  A    between atoms: C12_26  and  C13_27 
ROOT
HETATM    1  C1  UNL     1     -49.523  -6.062 -24.819  1.00  0.00     0.206 C 
HETATM    2  N1  UNL     1     -50.270  -5.400 -23.732  1.00  0.00    -0.162 N 
HETATM    3  C2  UNL     1     -51.643  -5.059 -23.991  1.00  0.00     0.211 C 
HETATM    4  N2  UNL     1     -52.756  -4.808 -24.163  1.00  0.00    -0.169 NA
ENDROOT
BRANCH   2   5
HETATM    5  N3  UNL     1     -49.764  -5.141 -22.530  1.00  0.00    -0.268 NA
HETATM    6  C3  UNL     1     -49.247  -4.880 -21.308  1.00  0.00     0.368 C 
HETATM    7  O1  UNL     1     -48.255  -5.299 -20.747  1.00  0.00    -0.247 OA
BRANCH   6   8
HETATM    8  C4  UNL     1     -50.094  -3.843 -20.521  1.00  0.00     0.178 A 
HETATM    9  N4  UNL     1     -50.727  -4.005 -19.409  1.00  0.00    -0.274 N 
HETATM   10  N5  UNL     1     -51.466  -2.947 -19.126  1.00  0.00    -0.013 NA
ATOM     11  H4  UNL     1     -50.665  -4.839 -18.825  1.00  0.00     0.184 HD
HETATM   12  N6  UNL     1     -51.290  -2.028 -20.129  1.00  0.00    -0.220 N 
HETATM   13  C11 UNL     1     -50.426  -2.597 -20.990  1.00  0.00     0.175 A 
BRANCH  12  14
HETATM   14  C5  UNL     1     -52.013  -0.821 -20.136  1.00  0.00     0.058 A 
HETATM   15  C6  UNL     1     -51.807   0.034 -19.014  1.00  0.00     0.034 A 
HETATM   16  C7  UNL     1     -52.378   1.262 -18.891  1.00  0.00     0.046 A 
HETATM   17  C8  UNL     1     -53.208   1.723 -19.895  1.00  0.00     0.138 A 
HETATM   18  F1  UNL     1     -53.762   2.953 -19.734  1.00  0.00    -0.204 F 
HETATM   19  C9  UNL     1     -53.444   0.926 -21.004  1.00  0.00     0.074 A 
HETATM   20 CL1  UNL     1     -54.469   1.532 -22.258  1.00  0.00    -0.081 Cl
HETATM   21  C10 UNL     1     -52.840  -0.336 -21.104  1.00  0.00     0.058 A 
ENDBRANCH  12  14
BRANCH  13  22
HETATM   22  N7  UNL     1     -49.937  -1.996 -22.169  1.00  0.00    -0.282 N 
ATOM     23  H7  UNL     1     -49.073  -1.471 -22.034  1.00  0.00     0.188 HD
BRANCH  22  24
HETATM   24  N8  UNL     1     -50.388  -1.982 -23.435  1.00  0.00    -0.309 N 
HETATM   25  C12 UNL     1     -51.122  -1.288 -24.160  1.00  0.00     0.127 C 
ATOM     26  H8  UNL     1     -50.018  -2.776 -23.956  1.00  0.00     0.186 HD
BRANCH  25  27
HETATM   27  C13 UNL     1     -51.344  -1.662 -25.582  1.00  0.00     0.045 A 
HETATM   28  S1  UNL     1     -50.192  -2.534 -26.568  1.00  0.00    -0.097 SA
HETATM   29  C14 UNL     1     -51.156  -2.588 -28.023  1.00  0.00     0.076 A 
HETATM   30  C15 UNL     1     -52.275  -1.959 -27.669  1.00  0.00     0.063 A 
HETATM   31 CL2  UNL     1     -53.614  -1.756 -28.859  1.00  0.00    -0.082 Cl
HETATM   32  C16 UNL     1     -52.371  -1.475 -26.396  1.00  0.00     0.074 A 
HETATM   33 CL3  UNL     1     -53.839  -0.580 -25.829  1.00  0.00    -0.081 Cl
ENDBRANCH  25  27
ENDBRANCH  22  24
ENDBRANCH  13  22
ENDBRANCH   6   8
ENDBRANCH   2   5
TORSDOF 6
ENDMDL
MODEL 4
REMARK VINA RESULT: -7.408401497      3.665      6.636
REMARK  6 active torsions:
REMARK  status: ('A' for Active; 'I' for Inactive)
REMARK    1  A    between atoms: N1_2  and  N3_5 
REMARK       I    between atoms: N3_5  and  C3_6 
REMARK    2  A    between atoms: C3_6  and  C4_8 
REMARK    3  A    between atoms: N6_12  and  C5_13 
REMARK    4  A    between atoms: C11_21  and  N7_22 
REMARK    5  A    between atoms: N7_22  and  N8_24 
REMARK    6  A    between atoms: C12_26  and  C13_27 
ROOT
HETATM    1  C1  UNL     1     -55.489   0.546 -25.551  1.00  0.00     0.206 C 
HETATM    2  N1  UNL     1     -54.178  -0.127 -25.603  1.00  0.00    -0.162 N 
HETATM    3  C2  UNL     1     -53.912  -0.961 -26.744  1.00  0.00     0.211 C 
HETATM    4  N2  UNL     1     -53.663  -1.607 -27.668  1.00  0.00    -0.169 NA
ENDROOT
BRANCH   2   5
HETATM    5  N3  UNL     1     -53.225   0.023 -24.687  1.00  0.00    -0.268 NA
HETATM    6  C3  UNL     1     -52.255   0.175 -23.759  1.00  0.00     0.368 C 
HETATM    7  O1  UNL     1     -51.056  -0.013 -23.809  1.00  0.00    -0.247 OA
BRANCH   6   8
HETATM    8  C4  UNL     1     -52.811   0.698 -22.407  1.00  0.00     0.178 A 
HETATM    9  N4  UNL     1     -53.819   1.477 -22.203  1.00  0.00    -0.274 N 
HETATM   10  N5  UNL     1     -53.893   1.833 -20.933  1.00  0.00    -0.013 NA
ATOM     11  H4  UNL     1     -54.472   1.779 -22.926  1.00  0.00     0.184 HD
HETATM   12  N6  UNL     1     -52.859   1.230 -20.264  1.00  0.00    -0.220 N 
HETATM   13  C11 UNL     1     -52.195   0.520 -21.194  1.00  0.00     0.175 A 
BRANCH  12  14
HETATM   14  C5  UNL     1     -52.639   1.485 -18.897  1.00  0.00     0.058 A 
HETATM   15  C6  UNL     1     -53.273   2.647 -18.371  1.00  0.00     0.034 A 
HETATM   16  C7  UNL     1     -53.215   3.006 -17.060  1.00  0.00     0.046 A 
HETATM   17  C8  UNL     1     -52.506   2.216 -16.175  1.00  0.00     0.138 A 
HETATM   18  F1  UNL     1     -52.470   2.608 -14.876  1.00  0.00    -0.204 F 
HETATM   19  C9  UNL     1     -51.866   1.078 -16.640  1.00  0.00     0.074 A 
HETATM   20 CL1  UNL     1     -51.003   0.091 -15.513  1.00  0.00    -0.081 Cl
HETATM   21  C10 UNL     1     -51.945   0.732 -17.998  1.00  0.00     0.058 A 
ENDBRANCH  12  14
BRANCH  13  22
HETATM   22  N7  UNL     1     -51.062  -0.284 -20.949  1.00  0.00    -0.282 N 
ATOM     23  H7  UNL     1     -50.240   0.242 -20.653  1.00  0.00     0.188 HD
BRANCH  22  24
HETATM   24  N8  UNL     1     -50.856  -1.611 -21.029  1.00  0.00    -0.309 N 
HETATM   25  C12 UNL     1     -51.504  -2.667 -20.932  1.00  0.00     0.127 C 
ATOM     26  H8  UNL     1     -49.876  -1.809 -21.229  1.00  0.00     0.186 HD
BRANCH  25  27
HETATM   27  C13 UNL     1     -50.831  -3.981 -21.115  1.00  0.00     0.045 A 
HETATM   28  S1  UNL     1     -49.724  -4.695 -19.966  1.00  0.00    -0.097 SA
HETATM   29  C14 UNL     1     -49.403  -6.160 -20.861  1.00  0.00     0.076 A 
HETATM   30  C15 UNL     1     -50.151  -6.017 -21.953  1.00  0.00     0.063 A 
HETATM   31 CL2  UNL     1     -50.164  -7.304 -23.216  1.00  0.00    -0.082 Cl
HETATM   32  C16 UNL     1     -50.895  -4.879 -22.085  1.00  0.00     0.074 A 
HETATM   33 CL3  UNL     1     -51.922  -4.580 -23.546  1.00  0.00    -0.081 Cl
ENDBRANCH  25  27
ENDBRANCH  22  24
ENDBRANCH  13  22
ENDBRANCH   6   8
ENDBRANCH   2   5
TORSDOF 6
ENDMDL
MODEL 5
REMARK VINA RESULT: -7.407999228      1.699      2.107
REMARK  6 active torsions:
REMARK  status: ('A' for Active; 'I' for Inactive)
REMARK    1  A    between atoms: N1_2  and  N3_5 
REMARK       I    between atoms: N3_5  and  C3_6 
REMARK    2  A    between atoms: C3_6  and  C4_8 
REMARK    3  A    between atoms: N6_12  and  C5_13 
REMARK    4  A    between atoms: C11_21  and  N7_22 
REMARK    5  A    between atoms: N7_22  and  N8_24 
REMARK    6  A    between atoms: C12_26  and  C13_27 
ROOT
HETATM    1  C1  UNL     1     -53.205   0.436 -24.604  1.00  0.00     0.206 C 
HETATM    2  N1  UNL     1     -54.089  -0.077 -25.668  1.00  0.00    -0.162 N 
HETATM    3  C2  UNL     1     -55.418   0.469 -25.738  1.00  0.00     0.211 C 
HETATM    4  N2  UNL     1     -56.477   0.918 -25.836  1.00  0.00    -0.169 NA
ENDROOT
BRANCH   2   5
HETATM    5  N3  UNL     1     -53.719  -0.974 -26.578  1.00  0.00    -0.268 NA
HETATM    6  C3  UNL     1     -53.346  -1.885 -27.504  1.00  0.00     0.368 C 
HETATM    7  O1  UNL     1     -53.893  -2.274 -28.516  1.00  0.00    -0.247 OA
BRANCH   6   8
HETATM    8  C4  UNL     1     -51.959  -2.509 -27.190  1.00  0.00     0.178 A 
HETATM    9  N4  UNL     1     -50.987  -2.750 -28.002  1.00  0.00    -0.274 N 
HETATM   10  N5  UNL     1     -50.027  -3.432 -27.403  1.00  0.00    -0.013 NA
ATOM     11  H4  UNL     1     -50.962  -2.454 -28.977  1.00  0.00     0.184 HD
HETATM   12  N6  UNL     1     -50.406  -3.639 -26.101  1.00  0.00    -0.220 N 
HETATM   13  C11 UNL     1     -51.611  -3.053 -25.979  1.00  0.00     0.175 A 
BRANCH  12  14
HETATM   14  C5  UNL     1     -49.608  -4.407 -25.231  1.00  0.00     0.058 A 
HETATM   15  C6  UNL     1     -48.391  -3.799 -24.804  1.00  0.00     0.034 A 
HETATM   16  C7  UNL     1     -47.535  -4.375 -23.918  1.00  0.00     0.046 A 
HETATM   17  C8  UNL     1     -47.841  -5.616 -23.394  1.00  0.00     0.138 A 
HETATM   18  F1  UNL     1     -46.960  -6.159 -22.515  1.00  0.00    -0.204 F 
HETATM   19  C9  UNL     1     -49.010  -6.251 -23.783  1.00  0.00     0.074 A 
HETATM   20 CL1  UNL     1     -49.385  -7.794 -23.099  1.00  0.00    -0.081 Cl
HETATM   21  C10 UNL     1     -49.876  -5.631 -24.698  1.00  0.00     0.058 A 
ENDBRANCH  12  14
BRANCH  13  22
HETATM   22  N7  UNL     1     -52.373  -2.998 -24.794  1.00  0.00    -0.282 N 
ATOM     23  H7  UNL     1     -53.341  -3.297 -24.914  1.00  0.00     0.188 HD
BRANCH  22  24
HETATM   24  N8  UNL     1     -52.073  -2.628 -23.536  1.00  0.00    -0.309 N 
HETATM   25  C12 UNL     1     -51.151  -2.065 -22.921  1.00  0.00     0.127 C 
ATOM     26  H8  UNL     1     -52.824  -2.887 -22.898  1.00  0.00     0.186 HD
BRANCH  25  27
HETATM   27  C13 UNL     1     -51.253  -1.845 -21.453  1.00  0.00     0.045 A 
HETATM   28  S1  UNL     1     -51.331  -3.124 -20.263  1.00  0.00    -0.097 SA
HETATM   29  C14 UNL     1     -51.416  -2.098 -18.853  1.00  0.00     0.076 A 
HETATM   30  C15 UNL     1     -51.372  -0.871 -19.368  1.00  0.00     0.063 A 
HETATM   31 CL2  UNL     1     -51.428   0.569 -18.284  1.00  0.00    -0.082 Cl
HETATM   32  C16 UNL     1     -51.288  -0.741 -20.725  1.00  0.00     0.074 A 
HETATM   33 CL3  UNL     1     -51.251   0.885 -21.522  1.00  0.00    -0.081 Cl
ENDBRANCH  25  27
ENDBRANCH  22  24
ENDBRANCH  13  22
ENDBRANCH   6   8
ENDBRANCH   2   5
TORSDOF 6
ENDMDL
