MODEL 1
REMARK VINA RESULT: -7.901326498      0.000      0.000
REMARK  7 active torsions:
REMARK  status: ('A' for Active; 'I' for Inactive)
REMARK    1  A    between atoms: C2_2  and  O1_3 
REMARK    2  A    between atoms: O1_3  and  C3_4 
REMARK    3  A    between atoms: C3_4  and  C4_6 
REMARK    4  A    between atoms: C5_9  and  C6_10 
REMARK    5  A    between atoms: C6_10  and  S1_11 
REMARK    6  A    between atoms: S1_11  and  C7_12 
REMARK    7  A    between atoms: N4_19  and  C9_20 
ROOT
HETATM    1  C7  UNL     1     -53.240  -0.017 -24.691  1.00  0.00     0.170 A 
HETATM    2  N2  UNL     1     -54.358   0.369 -25.292  1.00  0.00    -0.275 N 
ATOM      3  H2  UNL     1     -54.956   1.130 -24.971  1.00  0.00     0.189 HD
HETATM    4  N3  UNL     1     -54.589  -0.364 -26.356  1.00  0.00    -0.249 N 
ATOM      5  H3  UNL     1     -55.378  -0.278 -26.996  1.00  0.00     0.192 HD
HETATM    6  C8  UNL     1     -53.587  -1.244 -26.435  1.00  0.00     0.348 A 
HETATM    7  O3  UNL     1     -53.457  -2.125 -27.330  1.00  0.00    -0.245 OA
HETATM    8  N4  UNL     1     -52.731  -1.044 -25.400  1.00  0.00    -0.236 N 
ENDROOT
BRANCH   1   9
HETATM    9  S1  UNL     1     -52.456   0.620 -23.219  1.00  0.00    -0.084 SA
BRANCH   9  10
HETATM   10  C6  UNL     1     -53.647   1.334 -22.078  1.00  0.00     0.167 C 
BRANCH  10  11
HETATM   11  C5  UNL     1     -53.112   1.338 -20.700  1.00  0.00     0.136 A 
HETATM   12  N1  UNL     1     -53.633   1.940 -19.609  1.00  0.00    -0.331 N 
HETATM   13  C4  UNL     1     -52.843   1.700 -18.557  1.00  0.00     0.159 A 
ATOM     14  H1  UNL     1     -54.492   2.491 -19.590  1.00  0.00     0.168 HD
HETATM   15  C15 UNL     1     -51.816   0.922 -19.062  1.00  0.00     0.192 A 
HETATM   16  O4  UNL     1     -52.017   0.734 -20.328  1.00  0.00    -0.280 OA
HETATM   17  N5  UNL     1     -50.729   0.423 -18.292  1.00  0.00    -0.072 NA
BRANCH  13  18
HETATM   18  C3  UNL     1     -52.985   2.135 -17.175  1.00  0.00     0.314 C 
HETATM   19  O2  UNL     1     -52.935   1.314 -16.234  1.00  0.00    -0.257 OA
BRANCH  18  20
HETATM   20  O1  UNL     1     -53.179   3.468 -16.863  1.00  0.00    -0.317 OA
BRANCH  20  21
HETATM   21  C2  UNL     1     -52.923   4.008 -15.578  1.00  0.00     0.175 C 
HETATM   22  C1  UNL     1     -53.670   5.324 -15.495  1.00  0.00     0.034 C 
ENDBRANCH  20  21
ENDBRANCH  18  20
ENDBRANCH  13  18
ENDBRANCH  10  11
ENDBRANCH   9  10
ENDBRANCH   1   9
BRANCH   8  23
HETATM   23  C9  UNL     1     -51.542  -1.799 -25.159  1.00  0.00     0.108 A 
HETATM   24  C10 UNL     1     -50.346  -1.532 -25.791  1.00  0.00     0.066 A 
HETATM   25 CL1  UNL     1     -50.254  -0.215 -26.945  1.00  0.00    -0.082 Cl
HETATM   26  C11 UNL     1     -49.217  -2.291 -25.526  1.00  0.00     0.052 A 
HETATM   27  C12 UNL     1     -49.235  -3.338 -24.628  1.00  0.00     0.060 A 
HETATM   28 CL2  UNL     1     -47.787  -4.289 -24.307  1.00  0.00    -0.082 Cl
HETATM   29  C13 UNL     1     -50.430  -3.608 -23.994  1.00  0.00     0.096 A 
HETATM   30 CL3  UNL     1     -50.512  -4.930 -22.839  1.00  0.00    -0.079 Cl
HETATM   31  C14 UNL     1     -51.553  -2.851 -24.260  1.00  0.00     0.168 A 
HETATM   32  F1  UNL     1     -52.747  -3.101 -23.642  1.00  0.00    -0.202 F 
ENDBRANCH   8  23
TORSDOF 7
ENDMDL
MODEL 2
REMARK VINA RESULT: -7.860561380      3.555      5.008
REMARK  7 active torsions:
REMARK  status: ('A' for Active; 'I' for Inactive)
REMARK    1  A    between atoms: C2_2  and  O1_3 
REMARK    2  A    between atoms: O1_3  and  C3_4 
REMARK    3  A    between atoms: C3_4  and  C4_6 
REMARK    4  A    between atoms: C5_9  and  C6_10 
REMARK    5  A    between atoms: C6_10  and  S1_11 
REMARK    6  A    between atoms: S1_11  and  C7_12 
REMARK    7  A    between atoms: N4_19  and  C9_20 
ROOT
HETATM    1  C7  UNL     1     -51.477  -3.332 -25.832  1.00  0.00     0.170 A 
HETATM    2  N2  UNL     1     -51.041  -3.752 -27.012  1.00  0.00    -0.275 N 
ATOM      3  H2  UNL     1     -51.061  -4.722 -27.327  1.00  0.00     0.189 HD
HETATM    4  N3  UNL     1     -50.578  -2.748 -27.719  1.00  0.00    -0.249 N 
ATOM      5  H3  UNL     1     -50.185  -2.794 -28.659  1.00  0.00     0.192 HD
HETATM    6  C8  UNL     1     -50.724  -1.655 -26.966  1.00  0.00     0.348 A 
HETATM    7  O3  UNL     1     -50.391  -0.485 -27.304  1.00  0.00    -0.245 OA
HETATM    8  N4  UNL     1     -51.285  -1.999 -25.779  1.00  0.00    -0.236 N 
ENDROOT
BRANCH   1   9
HETATM    9  S1  UNL     1     -52.199  -4.257 -24.486  1.00  0.00    -0.084 SA
BRANCH   9  10
HETATM   10  C6  UNL     1     -50.955  -5.128 -23.525  1.00  0.00     0.167 C 
BRANCH  10  11
HETATM   11  C5  UNL     1     -50.626  -4.377 -22.295  1.00  0.00     0.136 A 
HETATM   12  N1  UNL     1     -51.467  -3.977 -21.317  1.00  0.00    -0.331 N 
HETATM   13  C4  UNL     1     -50.769  -3.325 -20.380  1.00  0.00     0.159 A 
ATOM     14  H1  UNL     1     -52.473  -4.144 -21.295  1.00  0.00     0.168 HD
HETATM   15  C15 UNL     1     -49.463  -3.349 -20.836  1.00  0.00     0.192 A 
HETATM   16  O4  UNL     1     -49.427  -3.979 -21.968  1.00  0.00    -0.280 OA
HETATM   17  N5  UNL     1     -48.359  -2.768 -20.153  1.00  0.00    -0.072 NA
BRANCH  13  18
HETATM   18  C3  UNL     1     -51.231  -2.712 -19.143  1.00  0.00     0.314 C 
HETATM   19  O2  UNL     1     -51.438  -3.401 -18.121  1.00  0.00    -0.257 OA
BRANCH  18  20
HETATM   20  O1  UNL     1     -51.452  -1.349 -19.061  1.00  0.00    -0.317 OA
BRANCH  20  21
HETATM   21  C2  UNL     1     -50.818  -0.517 -18.107  1.00  0.00     0.175 C 
HETATM   22  C1  UNL     1     -51.654   0.742 -17.992  1.00  0.00     0.034 C 
ENDBRANCH  20  21
ENDBRANCH  18  20
ENDBRANCH  13  18
ENDBRANCH  10  11
ENDBRANCH   9  10
ENDBRANCH   1   9
BRANCH   8  23
HETATM   23  C9  UNL     1     -51.591  -1.090 -24.719  1.00  0.00     0.108 A 
HETATM   24  C10 UNL     1     -52.785  -0.406 -24.644  1.00  0.00     0.066 A 
HETATM   25 CL1  UNL     1     -53.997  -0.643 -25.888  1.00  0.00    -0.082 Cl
HETATM   26  C11 UNL     1     -53.040   0.467 -23.597  1.00  0.00     0.052 A 
HETATM   27  C12 UNL     1     -52.120   0.690 -22.592  1.00  0.00     0.060 A 
HETATM   28 CL2  UNL     1     -52.466   1.804 -21.272  1.00  0.00    -0.082 Cl
HETATM   29  C13 UNL     1     -50.924   0.007 -22.666  1.00  0.00     0.096 A 
HETATM   30 CL3  UNL     1     -49.716   0.252 -21.413  1.00  0.00    -0.079 Cl
HETATM   31  C14 UNL     1     -50.674  -0.862 -23.708  1.00  0.00     0.168 A 
HETATM   32  F1  UNL     1     -49.495  -1.549 -23.799  1.00  0.00    -0.202 F 
ENDBRANCH   8  23
TORSDOF 7
ENDMDL
MODEL 3
REMARK VINA RESULT: -7.859171126      3.907      5.223
REMARK  7 active torsions:
REMARK  status: ('A' for Active; 'I' for Inactive)
REMARK    1  A    between atoms: C2_2  and  O1_3 
REMARK    2  A    between atoms: O1_3  and  C3_4 
REMARK    3  A    between atoms: C3_4  and  C4_6 
REMARK    4  A    between atoms: C5_9  and  C6_10 
REMARK    5  A    between atoms: C6_10  and  S1_11 
REMARK    6  A    between atoms: S1_11  and  C7_12 
REMARK    7  A    between atoms: N4_19  and  C9_20 
ROOT
HETATM    1  C7  UNL     1     -50.165  -4.599 -25.011  1.00  0.00     0.170 A 
HETATM    2  N2  UNL     1     -49.529  -5.225 -25.992  1.00  0.00    -0.275 N 
ATOM      3  H2  UNL     1     -49.504  -6.238 -26.114  1.00  0.00     0.189 HD
HETATM    4  N3  UNL     1     -48.934  -4.364 -26.783  1.00  0.00    -0.249 N 
ATOM      5  H3  UNL     1     -48.378  -4.579 -27.611  1.00  0.00     0.192 HD
HETATM    6  C8  UNL     1     -49.199  -3.151 -26.291  1.00  0.00     0.348 A 
HETATM    7  O3  UNL     1     -48.797  -2.059 -26.781  1.00  0.00    -0.245 OA
HETATM    8  N4  UNL     1     -49.969  -3.276 -25.180  1.00  0.00    -0.236 N 
ENDROOT
BRANCH   1   9
HETATM    9  S1  UNL     1     -51.129  -5.267 -23.665  1.00  0.00    -0.084 SA
BRANCH   9  10
HETATM   10  C6  UNL     1     -50.158  -5.439 -22.163  1.00  0.00     0.167 C 
BRANCH  10  11
HETATM   11  C5  UNL     1     -50.625  -4.492 -21.128  1.00  0.00     0.136 A 
HETATM   12  N1  UNL     1     -50.170  -4.352 -19.864  1.00  0.00    -0.331 N 
HETATM   13  C4  UNL     1     -50.861  -3.383 -19.255  1.00  0.00     0.159 A 
ATOM     14  H1  UNL     1     -49.419  -4.899 -19.442  1.00  0.00     0.168 HD
HETATM   15  C15 UNL     1     -51.759  -2.940 -20.210  1.00  0.00     0.192 A 
HETATM   16  O4  UNL     1     -51.583  -3.622 -21.297  1.00  0.00    -0.280 OA
HETATM   17  N5  UNL     1     -52.709  -1.902 -20.004  1.00  0.00    -0.072 NA
BRANCH  13  18
HETATM   18  C3  UNL     1     -50.736  -2.871 -17.898  1.00  0.00     0.314 C 
HETATM   19  O2  UNL     1     -51.392  -3.370 -16.959  1.00  0.00    -0.257 OA
BRANCH  18  20
HETATM   20  O1  UNL     1     -49.886  -1.819 -17.607  1.00  0.00    -0.317 OA
BRANCH  20  21
HETATM   21  C2  UNL     1     -50.307  -0.648 -16.931  1.00  0.00     0.175 C 
HETATM   22  C1  UNL     1     -50.692   0.362 -17.994  1.00  0.00     0.034 C 
ENDBRANCH  20  21
ENDBRANCH  18  20
ENDBRANCH  13  18
ENDBRANCH  10  11
ENDBRANCH   9  10
ENDBRANCH   1   9
BRANCH   8  23
HETATM   23  C9  UNL     1     -50.450  -2.189 -24.386  1.00  0.00     0.108 A 
HETATM   24  C10 UNL     1     -51.688  -1.614 -24.578  1.00  0.00     0.066 A 
HETATM   25 CL1  UNL     1     -52.737  -2.223 -25.844  1.00  0.00    -0.082 Cl
HETATM   26  C11 UNL     1     -52.114  -0.561 -23.783  1.00  0.00     0.052 A 
HETATM   27  C12 UNL     1     -51.328  -0.044 -22.774  1.00  0.00     0.060 A 
HETATM   28 CL2  UNL     1     -51.890   1.295 -21.777  1.00  0.00    -0.082 Cl
HETATM   29  C13 UNL     1     -50.088  -0.617 -22.580  1.00  0.00     0.096 A 
HETATM   30 CL3  UNL     1     -49.045   0.001 -21.307  1.00  0.00    -0.079 Cl
HETATM   31  C14 UNL     1     -49.668  -1.666 -23.372  1.00  0.00     0.168 A 
HETATM   32  F1  UNL     1     -48.443  -2.248 -23.195  1.00  0.00    -0.202 F 
ENDBRANCH   8  23
TORSDOF 7
ENDMDL
MODEL 4
REMARK VINA RESULT: -7.734669227      3.481      5.001
REMARK  7 active torsions:
REMARK  status: ('A' for Active; 'I' for Inactive)
REMARK    1  A    between atoms: C2_2  and  O1_3 
REMARK    2  A    between atoms: O1_3  and  C3_4 
REMARK    3  A    between atoms: C3_4  and  C4_6 
REMARK    4  A    between atoms: C5_9  and  C6_10 
REMARK    5  A    between atoms: C6_10  and  S1_11 
REMARK    6  A    between atoms: S1_11  and  C7_12 
REMARK    7  A    between atoms: N4_19  and  C9_20 
ROOT
HETATM    1  C7  UNL     1     -50.171  -4.008 -24.937  1.00  0.00     0.170 A 
HETATM    2  N2  UNL     1     -49.025  -4.518 -25.366  1.00  0.00    -0.275 N 
ATOM      3  H2  UNL     1     -48.673  -5.443 -25.119  1.00  0.00     0.189 HD
HETATM    4  N3  UNL     1     -48.406  -3.670 -26.153  1.00  0.00    -0.249 N 
ATOM      5  H3  UNL     1     -47.508  -3.811 -26.617  1.00  0.00     0.192 HD
HETATM    6  C8  UNL     1     -49.182  -2.585 -26.226  1.00  0.00     0.348 A 
HETATM    7  O3  UNL     1     -48.922  -1.544 -26.893  1.00  0.00    -0.245 OA
HETATM    8  N4  UNL     1     -50.293  -2.776 -25.470  1.00  0.00    -0.236 N 
ENDROOT
BRANCH   1   9
HETATM    9  S1  UNL     1     -51.403  -4.716 -23.855  1.00  0.00    -0.084 SA
BRANCH   9  10
HETATM   10  C6  UNL     1     -50.721  -5.144 -22.249  1.00  0.00     0.167 C 
BRANCH  10  11
HETATM   11  C5  UNL     1     -51.066  -4.116 -21.244  1.00  0.00     0.136 A 
HETATM   12  N1  UNL     1     -51.654  -2.918 -21.451  1.00  0.00    -0.331 N 
HETATM   13  C4  UNL     1     -51.791  -2.290 -20.278  1.00  0.00     0.159 A 
ATOM     14  H1  UNL     1     -51.947  -2.551 -22.357  1.00  0.00     0.168 HD
HETATM   15  C15 UNL     1     -51.257  -3.164 -19.348  1.00  0.00     0.192 A 
HETATM   16  O4  UNL     1     -50.843  -4.227 -19.963  1.00  0.00    -0.280 OA
HETATM   17  N5  UNL     1     -51.187  -2.911 -17.951  1.00  0.00    -0.072 NA
BRANCH  13  18
HETATM   18  C3  UNL     1     -52.363  -0.983 -19.991  1.00  0.00     0.314 C 
HETATM   19  O2  UNL     1     -53.594  -0.784 -20.083  1.00  0.00    -0.257 OA
BRANCH  18  20
HETATM   20  O1  UNL     1     -51.564   0.079 -19.607  1.00  0.00    -0.317 OA
BRANCH  20  21
HETATM   21  C2  UNL     1     -51.993   1.087 -18.709  1.00  0.00     0.175 C 
HETATM   22  C1  UNL     1     -51.446   0.724 -17.343  1.00  0.00     0.034 C 
ENDBRANCH  20  21
ENDBRANCH  18  20
ENDBRANCH  13  18
ENDBRANCH  10  11
ENDBRANCH   9  10
ENDBRANCH   1   9
BRANCH   8  23
HETATM   23  C9  UNL     1     -51.351  -1.828 -25.309  1.00  0.00     0.108 A 
HETATM   24  C10 UNL     1     -52.461  -1.801 -26.126  1.00  0.00     0.066 A 
HETATM   25 CL1  UNL     1     -52.605  -2.968 -27.426  1.00  0.00    -0.082 Cl
HETATM   26  C11 UNL     1     -53.463  -0.863 -25.932  1.00  0.00     0.052 A 
HETATM   27  C12 UNL     1     -53.398   0.078 -24.924  1.00  0.00     0.060 A 
HETATM   28 CL2  UNL     1     -54.684   1.259 -24.697  1.00  0.00    -0.082 Cl
HETATM   29  C13 UNL     1     -52.288   0.053 -24.105  1.00  0.00     0.096 A 
HETATM   30 CL3  UNL     1     -52.153   1.227 -22.804  1.00  0.00    -0.079 Cl
HETATM   31  C14 UNL     1     -51.293  -0.882 -24.300  1.00  0.00     0.168 A 
HETATM   32  F1  UNL     1     -50.184  -0.924 -23.500  1.00  0.00    -0.202 F 
ENDBRANCH   8  23
TORSDOF 7
ENDMDL
MODEL 5
REMARK VINA RESULT: -7.720334685      3.478      5.259
REMARK  7 active torsions:
REMARK  status: ('A' for Active; 'I' for Inactive)
REMARK    1  A    between atoms: C2_2  and  O1_3 
REMARK    2  A    between atoms: O1_3  and  C3_4 
REMARK    3  A    between atoms: C3_4  and  C4_6 
REMARK    4  A    between atoms: C5_9  and  C6_10 
REMARK    5  A    between atoms: C6_10  and  S1_11 
REMARK    6  A    between atoms: S1_11  and  C7_12 
REMARK    7  A    between atoms: N4_19  and  C9_20 
ROOT
HETATM    1  C7  UNL     1     -51.402  -3.269 -25.795  1.00  0.00     0.170 A 
HETATM    2  N2  UNL     1     -50.887  -3.679 -26.947  1.00  0.00    -0.275 N 
ATOM      3  H2  UNL     1     -50.890  -4.646 -27.273  1.00  0.00     0.189 HD
HETATM    4  N3  UNL     1     -50.372  -2.670 -27.609  1.00  0.00    -0.249 N 
ATOM      5  H3  UNL     1     -49.914  -2.708 -28.520  1.00  0.00     0.192 HD
HETATM    6  C8  UNL     1     -50.564  -1.584 -26.856  1.00  0.00     0.348 A 
HETATM    7  O3  UNL     1     -50.203  -0.412 -27.157  1.00  0.00    -0.245 OA
HETATM    8  N4  UNL     1     -51.207  -1.938 -25.714  1.00  0.00    -0.236 N 
ENDROOT
BRANCH   1   9
HETATM    9  S1  UNL     1     -52.220  -4.204 -24.513  1.00  0.00    -0.084 SA
BRANCH   9  10
HETATM   10  C6  UNL     1     -51.073  -5.249 -23.606  1.00  0.00     0.167 C 
BRANCH  10  11
HETATM   11  C5  UNL     1     -50.731  -4.640 -22.303  1.00  0.00     0.136 A 
HETATM   12  N1  UNL     1     -51.536  -3.931 -21.482  1.00  0.00    -0.331 N 
HETATM   13  C4  UNL     1     -50.840  -3.558 -20.402  1.00  0.00     0.159 A 
ATOM     14  H1  UNL     1     -52.517  -3.713 -21.658  1.00  0.00     0.168 HD
HETATM   15  C15 UNL     1     -49.573  -4.077 -20.606  1.00  0.00     0.192 A 
HETATM   16  O4  UNL     1     -49.556  -4.706 -21.739  1.00  0.00    -0.280 OA
HETATM   17  N5  UNL     1     -48.486  -3.927 -19.703  1.00  0.00    -0.072 NA
BRANCH  13  18
HETATM   18  C3  UNL     1     -51.270  -2.785 -19.247  1.00  0.00     0.314 C 
HETATM   19  O2  UNL     1     -51.441  -3.329 -18.135  1.00  0.00    -0.257 OA
BRANCH  18  20
HETATM   20  O1  UNL     1     -51.503  -1.424 -19.345  1.00  0.00    -0.317 OA
BRANCH  20  21
HETATM   21  C2  UNL     1     -50.573  -0.447 -18.911  1.00  0.00     0.175 C 
HETATM   22  C1  UNL     1     -51.376   0.701 -18.333  1.00  0.00     0.034 C 
ENDBRANCH  20  21
ENDBRANCH  18  20
ENDBRANCH  13  18
ENDBRANCH  10  11
ENDBRANCH   9  10
ENDBRANCH   1   9
BRANCH   8  23
HETATM   23  C9  UNL     1     -51.582  -1.038 -24.668  1.00  0.00     0.108 A 
HETATM   24  C10 UNL     1     -50.800  -0.820 -23.555  1.00  0.00     0.066 A 
HETATM   25 CL1  UNL     1     -49.275  -1.669 -23.390  1.00  0.00    -0.082 Cl
HETATM   26  C11 UNL     1     -51.203   0.062 -22.564  1.00  0.00     0.052 A 
HETATM   27  C12 UNL     1     -52.394   0.755 -22.644  1.00  0.00     0.060 A 
HETATM   28 CL2  UNL     1     -52.886   1.871 -21.373  1.00  0.00    -0.082 Cl
HETATM   29  C13 UNL     1     -53.179   0.538 -23.758  1.00  0.00     0.096 A 
HETATM   30 CL3  UNL     1     -54.706   1.394 -23.913  1.00  0.00    -0.079 Cl
HETATM   31  C14 UNL     1     -52.774  -0.340 -24.742  1.00  0.00     0.168 A 
HETATM   32  F1  UNL     1     -53.538  -0.569 -25.853  1.00  0.00    -0.202 F 
ENDBRANCH   8  23
TORSDOF 7
ENDMDL
