MODEL 1
REMARK VINA RESULT: -6.963505127      0.000      0.000
REMARK  8 active torsions:
REMARK  status: ('A' for Active; 'I' for Inactive)
REMARK    1  A    between atoms: O1_2  and  C2_3 
REMARK    2  A    between atoms: C5_8  and  C6_9 
REMARK       I    between atoms: C6_9  and  N1_11 
REMARK    3  A    between atoms: N1_11  and  C7_13 
REMARK    4  A    between atoms: C8_16  and  C9_17 
REMARK    5  A    between atoms: C10_22  and  C11_23 
REMARK    6  A    between atoms: C11_23  and  S1_24 
REMARK    7  A    between atoms: S1_24  and  C12_25 
REMARK    8  A    between atoms: C16_36  and  O4_37 
ROOT
HETATM    1  C7  UNL     1     -51.621  -0.943 -26.324  1.00  0.00     0.154 A 
HETATM    2  N2  UNL     1     -51.947  -0.218 -25.241  1.00  0.00    -0.330 N 
ATOM      3  H2  UNL     1     -51.224   0.169 -24.632  1.00  0.00     0.168 HD
HETATM    4  C8  UNL     1     -53.215  -0.021 -24.987  1.00  0.00     0.134 A 
HETATM    5  C14 UNL     1     -54.129  -0.571 -25.852  1.00  0.00     0.191 A 
HETATM    6  F3  UNL     1     -55.509  -0.501 -25.797  1.00  0.00    -0.195 F 
HETATM    7  S2  UNL     1     -53.133  -1.345 -26.987  1.00  0.00    -0.021 SA
ENDROOT
BRANCH   1   8
HETATM    8  N1  UNL     1     -50.413  -1.220 -26.699  1.00  0.00    -0.303 N 
HETATM    9  C6  UNL     1     -49.545  -2.060 -26.018  1.00  0.00     0.264 C 
HETATM   10  O2  UNL     1     -48.351  -2.212 -26.506  1.00  0.00    -0.267 OA
ATOM     11  H1  UNL     1     -50.076  -0.788 -27.560  1.00  0.00     0.171 HD
BRANCH   9  12
HETATM   12  C5  UNL     1     -49.894  -2.770 -24.804  1.00  0.00     0.115 A 
HETATM   13  C4  UNL     1     -50.648  -3.924 -24.910  1.00  0.00     0.176 A 
HETATM   14  C3  UNL     1     -50.970  -4.633 -23.770  1.00  0.00     0.192 A 
HETATM   15  F2  UNL     1     -51.064  -4.349 -26.127  1.00  0.00    -0.202 F 
HETATM   16  C2  UNL     1     -50.571  -4.241 -22.498  1.00  0.00     0.146 A 
HETATM   17  F1  UNL     1     -51.718  -5.783 -23.844  1.00  0.00    -0.200 F 
HETATM   18  C16 UNL     1     -49.818  -3.087 -22.411  1.00  0.00     0.144 A 
HETATM   19  C15 UNL     1     -49.482  -2.357 -23.553  1.00  0.00     0.171 A 
HETATM   20  F4  UNL     1     -48.747  -1.223 -23.496  1.00  0.00    -0.202 F 
BRANCH  16  21
HETATM   21  O1  UNL     1     -50.916  -4.981 -21.399  1.00  0.00    -0.350 OA
HETATM   22  C1  UNL     1     -50.230  -6.080 -20.884  1.00  0.00     0.210 C 
ENDBRANCH  16  21
BRANCH  18  23
HETATM   23  O4  UNL     1     -49.375  -2.620 -21.195  1.00  0.00    -0.350 OA
HETATM   24  C17 UNL     1     -48.067  -2.957 -20.785  1.00  0.00     0.210 C 
ENDBRANCH  18  23
ENDBRANCH   9  12
ENDBRANCH   1   8
BRANCH   4  25
HETATM   25  C9  UNL     1     -53.694   0.774 -23.805  1.00  0.00     0.195 A 
HETATM   26  N3  UNL     1     -54.775   1.567 -23.731  1.00  0.00    -0.276 N 
HETATM   27  N4  UNL     1     -54.860   2.092 -22.526  1.00  0.00    -0.281 N 
ATOM     28  H3  UNL     1     -55.432   1.736 -24.492  1.00  0.00     0.189 HD
HETATM   29  C10 UNL     1     -53.828   1.633 -21.831  1.00  0.00     0.150 A 
ATOM     30  H4  UNL     1     -55.581   2.730 -22.192  1.00  0.00     0.189 HD
HETATM   31  O3  UNL     1     -53.132   0.828 -22.641  1.00  0.00    -0.275 OA
BRANCH  29  32
HETATM   32  C11 UNL     1     -53.459   1.916 -20.431  1.00  0.00     0.166 C 
BRANCH  32  33
HETATM   33  S1  UNL     1     -52.858   0.434 -19.636  1.00  0.00    -0.109 SA
BRANCH  33  34
HETATM   34  C12 UNL     1     -51.142   0.147 -19.795  1.00  0.00     0.036 C 
HETATM   35  C13 UNL     1     -50.276  -0.203 -18.652  1.00  0.00     0.076 C 
HETATM   36  N5  UNL     1     -50.603   0.244 -20.971  1.00  0.00    -0.397 N 
ATOM     37  H52 UNL     1     -51.201   0.486 -21.761  1.00  0.00     0.156 HD
ATOM     38  H51 UNL     1     -49.601   0.077 -21.064  1.00  0.00     0.156 HD
ENDBRANCH  33  34
ENDBRANCH  32  33
ENDBRANCH  29  32
ENDBRANCH   4  25
TORSDOF 8
ENDMDL
MODEL 2
REMARK VINA RESULT: -6.764008419      2.420      5.655
REMARK  8 active torsions:
REMARK  status: ('A' for Active; 'I' for Inactive)
REMARK    1  A    between atoms: O1_2  and  C2_3 
REMARK    2  A    between atoms: C5_8  and  C6_9 
REMARK       I    between atoms: C6_9  and  N1_11 
REMARK    3  A    between atoms: N1_11  and  C7_13 
REMARK    4  A    between atoms: C8_16  and  C9_17 
REMARK    5  A    between atoms: C10_22  and  C11_23 
REMARK    6  A    between atoms: C11_23  and  S1_24 
REMARK    7  A    between atoms: S1_24  and  C12_25 
REMARK    8  A    between atoms: C16_36  and  O4_37 
ROOT
HETATM    1  C7  UNL     1     -50.729  -2.936 -19.254  1.00  0.00     0.154 A 
HETATM    2  N2  UNL     1     -51.626  -2.125 -19.840  1.00  0.00    -0.330 N 
ATOM      3  H2  UNL     1     -52.278  -2.481 -20.539  1.00  0.00     0.168 HD
HETATM    4  C8  UNL     1     -51.641  -0.864 -19.488  1.00  0.00     0.134 A 
HETATM    5  C14 UNL     1     -50.735  -0.459 -18.540  1.00  0.00     0.191 A 
HETATM    6  F3  UNL     1     -50.559   0.807 -18.011  1.00  0.00    -0.195 F 
HETATM    7  S2  UNL     1     -49.904  -1.897 -18.194  1.00  0.00    -0.021 SA
ENDROOT
BRANCH   1   8
HETATM    8  N1  UNL     1     -50.598  -4.200 -19.500  1.00  0.00    -0.303 N 
HETATM    9  C6  UNL     1     -50.350  -4.743 -20.752  1.00  0.00     0.264 C 
HETATM   10  O2  UNL     1     -50.276  -6.036 -20.842  1.00  0.00    -0.267 OA
ATOM     11  H1  UNL     1     -50.682  -4.845 -18.713  1.00  0.00     0.171 HD
BRANCH   9  12
HETATM   12  C5  UNL     1     -50.173  -3.952 -21.954  1.00  0.00     0.115 A 
HETATM   13  C4  UNL     1     -48.942  -3.363 -22.177  1.00  0.00     0.176 A 
HETATM   14  C3  UNL     1     -48.739  -2.628 -23.328  1.00  0.00     0.192 A 
HETATM   15  F2  UNL     1     -47.948  -3.511 -21.269  1.00  0.00    -0.202 F 
HETATM   16  C2  UNL     1     -49.724  -2.445 -24.291  1.00  0.00     0.146 A 
HETATM   17  F1  UNL     1     -47.528  -2.031 -23.578  1.00  0.00    -0.200 F 
HETATM   18  C16 UNL     1     -50.946  -3.040 -24.051  1.00  0.00     0.144 A 
HETATM   19  C15 UNL     1     -51.170  -3.787 -22.893  1.00  0.00     0.171 A 
HETATM   20  F4  UNL     1     -52.357  -4.381 -22.633  1.00  0.00    -0.202 F 
BRANCH  16  21
HETATM   21  O1  UNL     1     -49.471  -1.706 -25.416  1.00  0.00    -0.350 OA
HETATM   22  C1  UNL     1     -48.900  -2.164 -26.603  1.00  0.00     0.210 C 
ENDBRANCH  16  21
BRANCH  18  23
HETATM   23  O4  UNL     1     -51.983  -2.916 -24.947  1.00  0.00    -0.350 OA
HETATM   24  C17 UNL     1     -52.166  -3.937 -25.904  1.00  0.00     0.210 C 
ENDBRANCH  18  23
ENDBRANCH   9  12
ENDBRANCH   1   8
BRANCH   4  25
HETATM   25  C9  UNL     1     -52.599   0.132 -20.077  1.00  0.00     0.195 A 
HETATM   26  N3  UNL     1     -53.266   1.108 -19.439  1.00  0.00    -0.276 N 
HETATM   27  N4  UNL     1     -54.010   1.773 -20.297  1.00  0.00    -0.281 N 
ATOM     28  H3  UNL     1     -53.204   1.304 -18.440  1.00  0.00     0.189 HD
HETATM   29  C10 UNL     1     -53.818   1.219 -21.487  1.00  0.00     0.150 A 
ATOM     30  H4  UNL     1     -54.619   2.564 -20.087  1.00  0.00     0.189 HD
HETATM   31  O3  UNL     1     -52.949   0.216 -21.320  1.00  0.00    -0.275 OA
BRANCH  29  32
HETATM   32  C11 UNL     1     -54.416   1.587 -22.784  1.00  0.00     0.166 C 
BRANCH  32  33
HETATM   33  S1  UNL     1     -53.521   0.814 -24.121  1.00  0.00    -0.109 SA
BRANCH  33  34
HETATM   34  C12 UNL     1     -54.512   0.178 -25.412  1.00  0.00     0.036 C 
HETATM   35  C13 UNL     1     -55.849   0.712 -25.739  1.00  0.00     0.076 C 
HETATM   36  N5  UNL     1     -54.052  -0.809 -26.119  1.00  0.00    -0.397 N 
ATOM     37  H52 UNL     1     -53.129  -1.178 -25.894  1.00  0.00     0.156 HD
ATOM     38  H51 UNL     1     -54.631  -1.181 -26.872  1.00  0.00     0.156 HD
ENDBRANCH  33  34
ENDBRANCH  32  33
ENDBRANCH  29  32
ENDBRANCH   4  25
TORSDOF 8
ENDMDL
MODEL 3
REMARK VINA RESULT: -6.660334923      4.467      8.370
REMARK  8 active torsions:
REMARK  status: ('A' for Active; 'I' for Inactive)
REMARK    1  A    between atoms: O1_2  and  C2_3 
REMARK    2  A    between atoms: C5_8  and  C6_9 
REMARK       I    between atoms: C6_9  and  N1_11 
REMARK    3  A    between atoms: N1_11  and  C7_13 
REMARK    4  A    between atoms: C8_16  and  C9_17 
REMARK    5  A    between atoms: C10_22  and  C11_23 
REMARK    6  A    between atoms: C11_23  and  S1_24 
REMARK    7  A    between atoms: S1_24  and  C12_25 
REMARK    8  A    between atoms: C16_36  and  O4_37 
ROOT
HETATM    1  C7  UNL     1     -51.397  -1.974 -27.479  1.00  0.00     0.154 A 
HETATM    2  N2  UNL     1     -50.969  -2.929 -28.322  1.00  0.00    -0.330 N 
ATOM      3  H2  UNL     1     -51.603  -3.351 -29.001  1.00  0.00     0.168 HD
HETATM    4  C8  UNL     1     -49.718  -3.305 -28.247  1.00  0.00     0.134 A 
HETATM    5  C14 UNL     1     -48.926  -2.690 -27.309  1.00  0.00     0.191 A 
HETATM    6  F3  UNL     1     -47.587  -2.912 -27.043  1.00  0.00    -0.195 F 
HETATM    7  S2  UNL     1     -50.006  -1.606 -26.576  1.00  0.00    -0.021 SA
ENDROOT
BRANCH   1   8
HETATM    8  N1  UNL     1     -52.602  -1.504 -27.436  1.00  0.00    -0.303 N 
HETATM    9  C6  UNL     1     -53.306  -1.230 -26.273  1.00  0.00     0.264 C 
HETATM   10  O2  UNL     1     -54.522  -0.792 -26.395  1.00  0.00    -0.267 OA
ATOM     11  H1  UNL     1     -53.069  -1.322 -28.325  1.00  0.00     0.171 HD
BRANCH   9  12
HETATM   12  C5  UNL     1     -52.762  -1.405 -24.940  1.00  0.00     0.115 A 
HETATM   13  C4  UNL     1     -52.489  -0.278 -24.188  1.00  0.00     0.176 A 
HETATM   14  C3  UNL     1     -51.997  -0.418 -22.906  1.00  0.00     0.192 A 
HETATM   15  F2  UNL     1     -52.707   0.952 -24.712  1.00  0.00    -0.202 F 
HETATM   16  C2  UNL     1     -51.755  -1.656 -22.321  1.00  0.00     0.146 A 
HETATM   17  F1  UNL     1     -51.716   0.683 -22.134  1.00  0.00    -0.200 F 
HETATM   18  C16 UNL     1     -52.034  -2.770 -23.087  1.00  0.00     0.144 A 
HETATM   19  C15 UNL     1     -52.532  -2.647 -24.385  1.00  0.00     0.171 A 
HETATM   20  F4  UNL     1     -52.813  -3.722 -25.157  1.00  0.00    -0.202 F 
BRANCH  16  21
HETATM   21  O1  UNL     1     -51.267  -1.741 -21.045  1.00  0.00    -0.350 OA
HETATM   22  C1  UNL     1     -49.935  -1.619 -20.652  1.00  0.00     0.210 C 
ENDBRANCH  16  21
BRANCH  18  23
HETATM   23  O4  UNL     1     -51.828  -4.038 -22.593  1.00  0.00    -0.350 OA
HETATM   24  C17 UNL     1     -50.597  -4.672 -22.870  1.00  0.00     0.210 C 
ENDBRANCH  18  23
ENDBRANCH   9  12
ENDBRANCH   1   8
BRANCH   4  25
HETATM   25  C9  UNL     1     -49.132  -4.362 -29.139  1.00  0.00     0.195 A 
HETATM   26  N3  UNL     1     -48.717  -5.591 -28.794  1.00  0.00    -0.276 N 
HETATM   27  N4  UNL     1     -48.265  -6.224 -29.857  1.00  0.00    -0.281 N 
ATOM     28  H3  UNL     1     -48.747  -5.978 -27.850  1.00  0.00     0.189 HD
HETATM   29  C10 UNL     1     -48.391  -5.394 -30.883  1.00  0.00     0.150 A 
ATOM     30  H4  UNL     1     -47.889  -7.171 -29.885  1.00  0.00     0.189 HD
HETATM   31  O3  UNL     1     -48.925  -4.261 -30.412  1.00  0.00    -0.275 OA
BRANCH  29  32
HETATM   32  C11 UNL     1     -48.032  -5.612 -32.297  1.00  0.00     0.166 C 
BRANCH  32  33
HETATM   33  S1  UNL     1     -46.562  -4.689 -32.714  1.00  0.00    -0.109 SA
BRANCH  33  34
HETATM   34  C12 UNL     1     -46.789  -3.420 -33.893  1.00  0.00     0.036 C 
HETATM   35  C13 UNL     1     -45.779  -2.375 -34.156  1.00  0.00     0.076 C 
HETATM   36  N5  UNL     1     -47.895  -3.393 -34.573  1.00  0.00    -0.397 N 
ATOM     37  H52 UNL     1     -48.593  -4.115 -34.392  1.00  0.00     0.156 HD
ATOM     38  H51 UNL     1     -48.028  -2.652 -35.261  1.00  0.00     0.156 HD
ENDBRANCH  33  34
ENDBRANCH  32  33
ENDBRANCH  29  32
ENDBRANCH   4  25
TORSDOF 8
ENDMDL
MODEL 4
REMARK VINA RESULT: -6.642574051      2.912      4.828
REMARK  8 active torsions:
REMARK  status: ('A' for Active; 'I' for Inactive)
REMARK    1  A    between atoms: O1_2  and  C2_3 
REMARK    2  A    between atoms: C5_8  and  C6_9 
REMARK       I    between atoms: C6_9  and  N1_11 
REMARK    3  A    between atoms: N1_11  and  C7_13 
REMARK    4  A    between atoms: C8_16  and  C9_17 
REMARK    5  A    between atoms: C10_22  and  C11_23 
REMARK    6  A    between atoms: C11_23  and  S1_24 
REMARK    7  A    between atoms: S1_24  and  C12_25 
REMARK    8  A    between atoms: C16_36  and  O4_37 
ROOT
HETATM    1  C7  UNL     1     -52.887  -0.767 -24.748  1.00  0.00     0.154 A 
HETATM    2  N2  UNL     1     -52.450  -1.589 -23.778  1.00  0.00    -0.330 N 
ATOM      3  H2  UNL     1     -52.532  -2.601 -23.873  1.00  0.00     0.168 HD
HETATM    4  C8  UNL     1     -51.919  -1.054 -22.708  1.00  0.00     0.134 A 
HETATM    5  C14 UNL     1     -51.843   0.316 -22.654  1.00  0.00     0.191 A 
HETATM    6  F3  UNL     1     -51.328   1.104 -21.641  1.00  0.00    -0.195 F 
HETATM    7  S2  UNL     1     -52.534   0.777 -24.133  1.00  0.00    -0.021 SA
ENDROOT
BRANCH   1   8
HETATM    8  N1  UNL     1     -53.432  -1.150 -25.858  1.00  0.00    -0.303 N 
HETATM    9  C6  UNL     1     -52.889  -2.084 -26.728  1.00  0.00     0.264 C 
HETATM   10  O2  UNL     1     -53.544  -2.339 -27.819  1.00  0.00    -0.267 OA
ATOM     11  H1  UNL     1     -54.329  -0.734 -26.111  1.00  0.00     0.171 HD
BRANCH   9  12
HETATM   12  C5  UNL     1     -51.643  -2.783 -26.486  1.00  0.00     0.115 A 
HETATM   13  C4  UNL     1     -50.479  -2.254 -27.012  1.00  0.00     0.176 A 
HETATM   14  C3  UNL     1     -49.276  -2.886 -26.773  1.00  0.00     0.192 A 
HETATM   15  F2  UNL     1     -50.528  -1.123 -27.757  1.00  0.00    -0.202 F 
HETATM   16  C2  UNL     1     -49.169  -4.047 -26.017  1.00  0.00     0.146 A 
HETATM   17  F1  UNL     1     -48.103  -2.384 -27.282  1.00  0.00    -0.200 F 
HETATM   18  C16 UNL     1     -50.342  -4.561 -25.499  1.00  0.00     0.144 A 
HETATM   19  C15 UNL     1     -51.568  -3.936 -25.731  1.00  0.00     0.171 A 
HETATM   20  F4  UNL     1     -52.731  -4.418 -25.236  1.00  0.00    -0.202 F 
BRANCH  16  21
HETATM   21  O1  UNL     1     -47.950  -4.636 -25.808  1.00  0.00    -0.350 OA
HETATM   22  C1  UNL     1     -47.396  -5.686 -26.537  1.00  0.00     0.210 C 
ENDBRANCH  16  21
BRANCH  18  23
HETATM   23  O4  UNL     1     -50.337  -5.708 -24.737  1.00  0.00    -0.350 OA
HETATM   24  C17 UNL     1     -50.342  -5.576 -23.332  1.00  0.00     0.210 C 
ENDBRANCH  18  23
ENDBRANCH   9  12
ENDBRANCH   1   8
BRANCH   4  25
HETATM   25  C9  UNL     1     -51.398  -1.875 -21.562  1.00  0.00     0.195 A 
HETATM   26  N3  UNL     1     -52.014  -2.150 -20.402  1.00  0.00    -0.276 N 
HETATM   27  N4  UNL     1     -51.235  -2.901 -19.652  1.00  0.00    -0.281 N 
ATOM     28  H3  UNL     1     -52.945  -1.827 -20.140  1.00  0.00     0.189 HD
HETATM   29  C10 UNL     1     -50.117  -3.104 -20.336  1.00  0.00     0.150 A 
ATOM     30  H4  UNL     1     -51.449  -3.258 -18.720  1.00  0.00     0.189 HD
HETATM   31  O3  UNL     1     -50.247  -2.463 -21.503  1.00  0.00    -0.275 OA
BRANCH  29  32
HETATM   32  C11 UNL     1     -48.923  -3.876 -19.947  1.00  0.00     0.166 C 
BRANCH  32  33
HETATM   33  S1  UNL     1     -47.438  -2.975 -20.359  1.00  0.00    -0.109 SA
BRANCH  33  34
HETATM   34  C12 UNL     1     -46.830  -3.239 -21.975  1.00  0.00     0.036 C 
HETATM   35  C13 UNL     1     -45.432  -3.623 -22.257  1.00  0.00     0.076 C 
HETATM   36  N5  UNL     1     -47.643  -3.093 -22.976  1.00  0.00    -0.397 N 
ATOM     37  H52 UNL     1     -48.609  -2.828 -22.783  1.00  0.00     0.156 HD
ATOM     38  H51 UNL     1     -47.288  -3.247 -23.920  1.00  0.00     0.156 HD
ENDBRANCH  33  34
ENDBRANCH  32  33
ENDBRANCH  29  32
ENDBRANCH   4  25
TORSDOF 8
ENDMDL
MODEL 5
REMARK VINA RESULT: -6.608664288      2.761      4.238
REMARK  8 active torsions:
REMARK  status: ('A' for Active; 'I' for Inactive)
REMARK    1  A    between atoms: O1_2  and  C2_3 
REMARK    2  A    between atoms: C5_8  and  C6_9 
REMARK       I    between atoms: C6_9  and  N1_11 
REMARK    3  A    between atoms: N1_11  and  C7_13 
REMARK    4  A    between atoms: C8_16  and  C9_17 
REMARK    5  A    between atoms: C10_22  and  C11_23 
REMARK    6  A    between atoms: C11_23  and  S1_24 
REMARK    7  A    between atoms: S1_24  and  C12_25 
REMARK    8  A    between atoms: C16_36  and  O4_37 
ROOT
HETATM    1  C7  UNL     1     -52.929  -0.769 -24.833  1.00  0.00     0.154 A 
HETATM    2  N2  UNL     1     -52.668  -1.497 -23.734  1.00  0.00    -0.330 N 
ATOM      3  H2  UNL     1     -52.890  -2.492 -23.699  1.00  0.00     0.168 HD
HETATM    4  C8  UNL     1     -52.123  -0.894 -22.708  1.00  0.00     0.134 A 
HETATM    5  C14 UNL     1     -51.853   0.447 -22.830  1.00  0.00     0.191 A 
HETATM    6  F3  UNL     1     -51.285   1.293 -21.895  1.00  0.00    -0.195 F 
HETATM    7  S2  UNL     1     -52.391   0.784 -24.404  1.00  0.00    -0.021 SA
ENDROOT
BRANCH   1   8
HETATM    8  N1  UNL     1     -53.464  -1.227 -25.919  1.00  0.00    -0.303 N 
HETATM    9  C6  UNL     1     -52.904  -2.203 -26.729  1.00  0.00     0.264 C 
HETATM   10  O2  UNL     1     -53.550  -2.535 -27.805  1.00  0.00    -0.267 OA
ATOM     11  H1  UNL     1     -54.366  -0.841 -26.200  1.00  0.00     0.171 HD
BRANCH   9  12
HETATM   12  C5  UNL     1     -51.648  -2.868 -26.440  1.00  0.00     0.115 A 
HETATM   13  C4  UNL     1     -50.486  -2.334 -26.965  1.00  0.00     0.176 A 
HETATM   14  C3  UNL     1     -49.274  -2.932 -26.682  1.00  0.00     0.192 A 
HETATM   15  F2  UNL     1     -50.544  -1.231 -27.750  1.00  0.00    -0.202 F 
HETATM   16  C2  UNL     1     -49.159  -4.063 -25.884  1.00  0.00     0.146 A 
HETATM   17  F1  UNL     1     -48.103  -2.424 -27.189  1.00  0.00    -0.200 F 
HETATM   18  C16 UNL     1     -50.329  -4.583 -25.369  1.00  0.00     0.144 A 
HETATM   19  C15 UNL     1     -51.564  -3.991 -25.644  1.00  0.00     0.171 A 
HETATM   20  F4  UNL     1     -52.726  -4.480 -25.152  1.00  0.00    -0.202 F 
BRANCH  16  21
HETATM   21  O1  UNL     1     -47.932  -4.618 -25.633  1.00  0.00    -0.350 OA
HETATM   22  C1  UNL     1     -47.314  -5.638 -26.356  1.00  0.00     0.210 C 
ENDBRANCH  16  21
BRANCH  18  23
HETATM   23  O4  UNL     1     -50.316  -5.701 -24.567  1.00  0.00    -0.350 OA
HETATM   24  C17 UNL     1     -50.189  -5.522 -23.172  1.00  0.00     0.210 C 
ENDBRANCH  18  23
ENDBRANCH   9  12
ENDBRANCH   1   8
BRANCH   4  25
HETATM   25  C9  UNL     1     -51.788  -1.607 -21.429  1.00  0.00     0.195 A 
HETATM   26  N3  UNL     1     -51.631  -2.927 -21.241  1.00  0.00    -0.276 N 
HETATM   27  N4  UNL     1     -51.342  -3.166 -19.979  1.00  0.00    -0.281 N 
ATOM     28  H3  UNL     1     -51.723  -3.639 -21.967  1.00  0.00     0.189 HD
HETATM   29  C10 UNL     1     -51.316  -1.993 -19.360  1.00  0.00     0.150 A 
ATOM     30  H4  UNL     1     -51.171  -4.079 -19.557  1.00  0.00     0.189 HD
HETATM   31  O3  UNL     1     -51.593  -1.058 -20.274  1.00  0.00    -0.275 OA
BRANCH  29  32
HETATM   32  C11 UNL     1     -51.041  -1.706 -17.940  1.00  0.00     0.166 C 
BRANCH  32  33
HETATM   33  S1  UNL     1     -50.705   0.033 -17.712  1.00  0.00    -0.109 SA
BRANCH  33  34
HETATM   34  C12 UNL     1     -52.117   1.053 -17.571  1.00  0.00     0.036 C 
HETATM   35  C13 UNL     1     -52.513   1.709 -16.310  1.00  0.00     0.076 C 
HETATM   36  N5  UNL     1     -52.852   1.245 -18.624  1.00  0.00    -0.397 N 
ATOM     37  H52 UNL     1     -52.578   0.792 -19.496  1.00  0.00     0.156 HD
ATOM     38  H51 UNL     1     -53.676   1.840 -18.542  1.00  0.00     0.156 HD
ENDBRANCH  33  34
ENDBRANCH  32  33
ENDBRANCH  29  32
ENDBRANCH   4  25
TORSDOF 8
ENDMDL
