MODEL 1
REMARK VINA RESULT: -7.241988054      0.000      0.000
REMARK  7 active torsions:
REMARK  status: ('A' for Active; 'I' for Inactive)
REMARK    1  A    between atoms: C2_2  and  N1_5 
REMARK    2  A    between atoms: C4_9  and  C5_10 
REMARK       I    between atoms: C5_10  and  N3_12 
REMARK    3  A    between atoms: N3_12  and  N4_14 
REMARK    4  A    between atoms: C6_16  and  C7_17 
REMARK    5  A    between atoms: C9_19  and  N5_20 
REMARK    6  A    between atoms: C12_27  and  N6_28 
REMARK    7  A    between atoms: C13_31  and  O6_32 
ROOT
HETATM    1  N4  UNL     1     -50.745  -2.001 -23.978  1.00  0.00    -0.308 N 
ATOM      2  H4  UNL     1     -51.209  -2.627 -23.320  1.00  0.00     0.186 HD
HETATM    3  C6  UNL     1     -50.618  -0.756 -23.729  1.00  0.00     0.121 C 
ENDROOT
BRANCH   1   4
HETATM    4  N3  UNL     1     -50.219  -2.483 -25.207  1.00  0.00    -0.266 N 
HETATM    5  C5  UNL     1     -49.076  -3.284 -25.132  1.00  0.00     0.275 C 
HETATM    6  O1  UNL     1     -48.527  -3.571 -24.005  1.00  0.00    -0.266 OA
ATOM      7  H3  UNL     1     -50.655  -2.255 -26.101  1.00  0.00     0.190 HD
BRANCH   5   8
HETATM    8  C4  UNL     1     -48.446  -3.836 -26.315  1.00  0.00     0.102 A 
HETATM    9  C3  UNL     1     -48.343  -3.216 -27.564  1.00  0.00     0.129 A 
HETATM   10  N2  UNL     1     -47.696  -4.073 -28.345  1.00  0.00    -0.304 N 
HETATM   11  N1  UNL     1     -47.387  -5.166 -27.703  1.00  0.00    -0.231 N 
ATOM     12  H2  UNL     1     -47.469  -3.900 -29.324  1.00  0.00     0.186 HD
HETATM   13  C13 UNL     1     -47.842  -5.050 -26.429  1.00  0.00     0.177 A 
BRANCH  11  14
HETATM   14  C2  UNL     1     -46.689  -6.319 -28.208  1.00  0.00     0.204 C 
HETATM   15  C1  UNL     1     -46.280  -6.101 -29.646  1.00  0.00     0.077 C 
HETATM   16 CL1  UNL     1     -45.279  -6.757 -27.192  1.00  0.00    -0.076 Cl
HETATM   17 CL2  UNL     1     -47.762  -7.764 -28.208  1.00  0.00    -0.076 Cl
ENDBRANCH  11  14
BRANCH  13  18
HETATM   18  O6  UNL     1     -47.681  -6.054 -25.448  1.00  0.00    -0.344 OA
ATOM     19  H6  UNL     1     -48.388  -6.366 -24.894  1.00  0.00     0.219 HD
ENDBRANCH  13  18
ENDBRANCH   5   8
ENDBRANCH   1   4
BRANCH   3  20
HETATM   20  C7  UNL     1     -51.144  -0.196 -22.472  1.00  0.00     0.018 A 
HETATM   21  C8  UNL     1     -52.279   0.586 -22.502  1.00  0.00     0.053 A 
HETATM   22  C9  UNL     1     -52.791   1.122 -21.316  1.00  0.00     0.127 A 
HETATM   23  C10 UNL     1     -52.182   0.887 -20.104  1.00  0.00     0.091 A 
HETATM   24 CL3  UNL     1     -52.874   1.588 -18.660  1.00  0.00    -0.080 Cl
HETATM   25  C11 UNL     1     -51.051   0.107 -20.091  1.00  0.00     0.092 A 
HETATM   26 CL4  UNL     1     -50.244  -0.219 -18.576  1.00  0.00    -0.080 Cl
HETATM   27  C12 UNL     1     -50.520  -0.441 -21.264  1.00  0.00     0.138 A 
BRANCH  22  28
HETATM   28  N5  UNL     1     -53.953   1.918 -21.362  1.00  0.00    -0.114 N 
HETATM   29  O2  UNL     1     -54.896   1.596 -22.088  1.00  0.00    -0.532 OA
HETATM   30  O3  UNL     1     -54.030   3.045 -20.604  1.00  0.00    -0.532 OA
ENDBRANCH  22  28
BRANCH  27  31
HETATM   31  N6  UNL     1     -49.356  -1.245 -21.258  1.00  0.00    -0.113 N 
HETATM   32  O4  UNL     1     -48.254  -0.717 -21.442  1.00  0.00    -0.532 OA
HETATM   33  O5  UNL     1     -49.430  -2.595 -21.052  1.00  0.00    -0.532 OA
ENDBRANCH  27  31
ENDBRANCH   3  20
TORSDOF 7
ENDMDL
MODEL 2
REMARK VINA RESULT: -7.156647082      2.312      9.482
REMARK  7 active torsions:
REMARK  status: ('A' for Active; 'I' for Inactive)
REMARK    1  A    between atoms: C2_2  and  N1_5 
REMARK    2  A    between atoms: C4_9  and  C5_10 
REMARK       I    between atoms: C5_10  and  N3_12 
REMARK    3  A    between atoms: N3_12  and  N4_14 
REMARK    4  A    between atoms: C6_16  and  C7_17 
REMARK    5  A    between atoms: C9_19  and  N5_20 
REMARK    6  A    between atoms: C12_27  and  N6_28 
REMARK    7  A    between atoms: C13_31  and  O6_32 
ROOT
HETATM    1  N4  UNL     1     -49.740  -3.552 -25.064  1.00  0.00    -0.308 N 
ATOM      2  H4  UNL     1     -50.250  -4.415 -25.255  1.00  0.00     0.186 HD
HETATM    3  C6  UNL     1     -48.610  -3.318 -25.607  1.00  0.00     0.121 C 
ENDROOT
BRANCH   1   4
HETATM    4  N3  UNL     1     -50.264  -2.567 -24.185  1.00  0.00    -0.266 N 
HETATM    5  C5  UNL     1     -51.392  -1.866 -24.621  1.00  0.00     0.275 C 
HETATM    6  O1  UNL     1     -51.929  -2.103 -25.766  1.00  0.00    -0.266 OA
ATOM      7  H3  UNL     1     -49.837  -2.380 -23.277  1.00  0.00     0.190 HD
BRANCH   5   8
HETATM    8  C4  UNL     1     -52.018  -0.838 -23.815  1.00  0.00     0.102 A 
HETATM    9  C3  UNL     1     -52.607   0.339 -24.285  1.00  0.00     0.129 A 
HETATM   10  N2  UNL     1     -53.050   0.980 -23.210  1.00  0.00    -0.304 N 
HETATM   11  N1  UNL     1     -52.793   0.317 -22.116  1.00  0.00    -0.231 N 
ATOM     12  H2  UNL     1     -53.531   1.880 -23.235  1.00  0.00     0.186 HD
HETATM   13  C13 UNL     1     -52.147  -0.827 -22.460  1.00  0.00     0.177 A 
BRANCH  11  14
HETATM   14  C2  UNL     1     -53.114   0.686 -20.764  1.00  0.00     0.204 C 
HETATM   15  C1  UNL     1     -53.686   2.084 -20.719  1.00  0.00     0.077 C 
HETATM   16 CL1  UNL     1     -54.218  -0.491 -19.982  1.00  0.00    -0.076 Cl
HETATM   17 CL2  UNL     1     -51.632   0.721 -19.743  1.00  0.00    -0.076 Cl
ENDBRANCH  11  14
BRANCH  13  18
HETATM   18  O6  UNL     1     -51.714  -1.792 -21.521  1.00  0.00    -0.344 OA
ATOM     19  H6  UNL     1     -51.610  -2.713 -21.726  1.00  0.00     0.219 HD
ENDBRANCH  13  18
ENDBRANCH   5   8
ENDBRANCH   1   4
BRANCH   3  20
HETATM   20  C7  UNL     1     -48.013  -4.302 -26.528  1.00  0.00     0.018 A 
HETATM   21  C8  UNL     1     -48.133  -4.114 -27.888  1.00  0.00     0.053 A 
HETATM   22  C9  UNL     1     -47.570  -5.038 -28.775  1.00  0.00     0.127 A 
HETATM   23  C10 UNL     1     -46.890  -6.144 -28.318  1.00  0.00     0.091 A 
HETATM   24 CL3  UNL     1     -46.210  -7.259 -29.480  1.00  0.00    -0.080 Cl
HETATM   25  C11 UNL     1     -46.780  -6.317 -26.958  1.00  0.00     0.092 A 
HETATM   26 CL4  UNL     1     -45.926  -7.707 -26.332  1.00  0.00    -0.080 Cl
HETATM   27  C12 UNL     1     -47.335  -5.407 -26.052  1.00  0.00     0.138 A 
BRANCH  22  28
HETATM   28  N5  UNL     1     -47.699  -4.832 -30.163  1.00  0.00    -0.114 N 
HETATM   29  O2  UNL     1     -46.895  -4.113 -30.760  1.00  0.00    -0.532 OA
HETATM   30  O3  UNL     1     -48.716  -5.428 -30.842  1.00  0.00    -0.532 OA
ENDBRANCH  22  28
BRANCH  27  31
HETATM   31  N6  UNL     1     -47.225  -5.579 -24.653  1.00  0.00    -0.113 N 
HETATM   32  O4  UNL     1     -46.209  -5.181 -24.071  1.00  0.00    -0.532 OA
HETATM   33  O5  UNL     1     -48.223  -6.176 -23.933  1.00  0.00    -0.532 OA
ENDBRANCH  27  31
ENDBRANCH   3  20
TORSDOF 7
ENDMDL
MODEL 3
REMARK VINA RESULT: -7.148731200      3.100      4.252
REMARK  7 active torsions:
REMARK  status: ('A' for Active; 'I' for Inactive)
REMARK    1  A    between atoms: C2_2  and  N1_5 
REMARK    2  A    between atoms: C4_9  and  C5_10 
REMARK       I    between atoms: C5_10  and  N3_12 
REMARK    3  A    between atoms: N3_12  and  N4_14 
REMARK    4  A    between atoms: C6_16  and  C7_17 
REMARK    5  A    between atoms: C9_19  and  N5_20 
REMARK    6  A    between atoms: C12_27  and  N6_28 
REMARK    7  A    between atoms: C13_31  and  O6_32 
ROOT
HETATM    1  N4  UNL     1     -49.383  -3.604 -25.326  1.00  0.00    -0.308 N 
ATOM      2  H4  UNL     1     -48.771  -2.872 -24.964  1.00  0.00     0.186 HD
HETATM    3  C6  UNL     1     -50.603  -3.687 -24.963  1.00  0.00     0.121 C 
ENDROOT
BRANCH   1   4
HETATM    4  N3  UNL     1     -48.906  -4.568 -26.254  1.00  0.00    -0.266 N 
HETATM    5  C5  UNL     1     -48.452  -4.088 -27.486  1.00  0.00     0.275 C 
HETATM    6  O1  UNL     1     -48.466  -2.832 -27.765  1.00  0.00    -0.266 OA
ATOM      7  H3  UNL     1     -48.895  -5.564 -26.032  1.00  0.00     0.190 HD
BRANCH   5   8
HETATM    8  C4  UNL     1     -47.942  -4.972 -28.515  1.00  0.00     0.102 A 
HETATM    9  C3  UNL     1     -46.813  -5.791 -28.419  1.00  0.00     0.129 A 
HETATM   10  N2  UNL     1     -46.719  -6.421 -29.584  1.00  0.00    -0.304 N 
HETATM   11  N1  UNL     1     -47.679  -6.073 -30.396  1.00  0.00    -0.231 N 
ATOM     12  H2  UNL     1     -45.987  -7.094 -29.815  1.00  0.00     0.186 HD
HETATM   13  C13 UNL     1     -48.463  -5.167 -29.757  1.00  0.00     0.177 A 
BRANCH  11  14
HETATM   14  C2  UNL     1     -47.911  -6.537 -31.737  1.00  0.00     0.204 C 
HETATM   15  C1  UNL     1     -48.948  -7.637 -31.744  1.00  0.00     0.077 C 
HETATM   16 CL1  UNL     1     -48.372  -5.205 -32.846  1.00  0.00    -0.076 Cl
HETATM   17 CL2  UNL     1     -46.416  -7.258 -32.431  1.00  0.00    -0.076 Cl
ENDBRANCH  11  14
BRANCH  13  18
HETATM   18  O6  UNL     1     -49.604  -4.572 -30.343  1.00  0.00    -0.344 OA
ATOM     19  H6  UNL     1     -49.936  -3.717 -30.094  1.00  0.00     0.219 HD
ENDBRANCH  13  18
ENDBRANCH   5   8
ENDBRANCH   1   4
BRANCH   3  20
HETATM   20  C7  UNL     1     -51.156  -2.717 -24.002  1.00  0.00     0.018 A 
HETATM   21  C8  UNL     1     -51.045  -2.963 -22.651  1.00  0.00     0.053 A 
HETATM   22  C9  UNL     1     -51.563  -2.050 -21.727  1.00  0.00     0.127 A 
HETATM   23  C10 UNL     1     -52.190  -0.895 -22.138  1.00  0.00     0.091 A 
HETATM   24 CL3  UNL     1     -52.816   0.203 -20.931  1.00  0.00    -0.080 Cl
HETATM   25  C11 UNL     1     -52.294  -0.665 -23.489  1.00  0.00     0.092 A 
HETATM   26 CL4  UNL     1     -53.083   0.787 -24.059  1.00  0.00    -0.080 Cl
HETATM   27  C12 UNL     1     -51.783  -1.563 -24.433  1.00  0.00     0.138 A 
BRANCH  22  28
HETATM   28  N5  UNL     1     -51.440  -2.315 -20.348  1.00  0.00    -0.114 N 
HETATM   29  O2  UNL     1     -52.307  -2.968 -19.764  1.00  0.00    -0.532 OA
HETATM   30  O3  UNL     1     -50.362  -1.848 -19.664  1.00  0.00    -0.532 OA
ENDBRANCH  22  28
BRANCH  27  31
HETATM   31  N6  UNL     1     -51.887  -1.332 -25.824  1.00  0.00    -0.113 N 
HETATM   32  O4  UNL     1     -50.917  -0.867 -26.435  1.00  0.00    -0.532 OA
HETATM   33  O5  UNL     1     -53.039  -1.614 -26.504  1.00  0.00    -0.532 OA
ENDBRANCH  27  31
ENDBRANCH   3  20
TORSDOF 7
ENDMDL
MODEL 4
REMARK VINA RESULT: -7.128651286      3.097      4.342
REMARK  7 active torsions:
REMARK  status: ('A' for Active; 'I' for Inactive)
REMARK    1  A    between atoms: C2_2  and  N1_5 
REMARK    2  A    between atoms: C4_9  and  C5_10 
REMARK       I    between atoms: C5_10  and  N3_12 
REMARK    3  A    between atoms: N3_12  and  N4_14 
REMARK    4  A    between atoms: C6_16  and  C7_17 
REMARK    5  A    between atoms: C9_19  and  N5_20 
REMARK    6  A    between atoms: C12_27  and  N6_28 
REMARK    7  A    between atoms: C13_31  and  O6_32 
ROOT
HETATM    1  N4  UNL     1     -49.393  -3.706 -25.483  1.00  0.00    -0.308 N 
ATOM      2  H4  UNL     1     -48.817  -2.911 -25.205  1.00  0.00     0.186 HD
HETATM    3  C6  UNL     1     -50.577  -3.855 -25.031  1.00  0.00     0.121 C 
ENDROOT
BRANCH   1   4
HETATM    4  N3  UNL     1     -48.906  -4.687 -26.388  1.00  0.00    -0.266 N 
HETATM    5  C5  UNL     1     -48.283  -4.222 -27.549  1.00  0.00     0.275 C 
HETATM    6  O1  UNL     1     -48.158  -2.964 -27.787  1.00  0.00    -0.266 OA
ATOM      7  H3  UNL     1     -49.006  -5.685 -26.198  1.00  0.00     0.190 HD
BRANCH   5   8
HETATM    8  C4  UNL     1     -47.746  -5.124 -28.547  1.00  0.00     0.102 A 
HETATM    9  C3  UNL     1     -46.588  -5.899 -28.427  1.00  0.00     0.129 A 
HETATM   10  N2  UNL     1     -46.475  -6.567 -29.568  1.00  0.00    -0.304 N 
HETATM   11  N1  UNL     1     -47.450  -6.284 -30.388  1.00  0.00    -0.231 N 
ATOM     12  H2  UNL     1     -45.721  -7.221 -29.779  1.00  0.00     0.186 HD
HETATM   13  C13 UNL     1     -48.263  -5.383 -29.779  1.00  0.00     0.177 A 
BRANCH  11  14
HETATM   14  C2  UNL     1     -47.671  -6.804 -31.711  1.00  0.00     0.204 C 
HETATM   15  C1  UNL     1     -46.439  -7.526 -32.207  1.00  0.00     0.077 C 
HETATM   16 CL1  UNL     1     -49.117  -7.860 -31.793  1.00  0.00    -0.076 Cl
HETATM   17 CL2  UNL     1     -47.970  -5.469 -32.879  1.00  0.00    -0.076 Cl
ENDBRANCH  11  14
BRANCH  13  18
HETATM   18  O6  UNL     1     -49.427  -4.851 -30.380  1.00  0.00    -0.344 OA
ATOM     19  H6  UNL     1     -50.297  -4.939 -30.009  1.00  0.00     0.219 HD
ENDBRANCH  13  18
ENDBRANCH   5   8
ENDBRANCH   1   4
BRANCH   3  20
HETATM   20  C7  UNL     1     -51.139  -2.871 -24.089  1.00  0.00     0.018 A 
HETATM   21  C8  UNL     1     -51.001  -3.077 -22.733  1.00  0.00     0.053 A 
HETATM   22  C9  UNL     1     -51.526  -2.150 -21.827  1.00  0.00     0.127 A 
HETATM   23  C10 UNL     1     -52.187  -1.022 -22.261  1.00  0.00     0.091 A 
HETATM   24 CL3  UNL     1     -52.820   0.095 -21.075  1.00  0.00    -0.080 Cl
HETATM   25  C11 UNL     1     -52.317  -0.833 -23.616  1.00  0.00     0.092 A 
HETATM   26 CL4  UNL     1     -53.149   0.584 -24.213  1.00  0.00    -0.080 Cl
HETATM   27  C12 UNL     1     -51.799  -1.745 -24.542  1.00  0.00     0.138 A 
BRANCH  22  28
HETATM   28  N5  UNL     1     -51.376  -2.373 -20.444  1.00  0.00    -0.114 N 
HETATM   29  O2  UNL     1     -52.196  -3.064 -19.836  1.00  0.00    -0.532 OA
HETATM   30  O3  UNL     1     -50.324  -1.822 -19.781  1.00  0.00    -0.532 OA
ENDBRANCH  22  28
BRANCH  27  31
HETATM   31  N6  UNL     1     -51.930  -1.556 -25.937  1.00  0.00    -0.113 N 
HETATM   32  O4  UNL     1     -52.985  -1.876 -26.496  1.00  0.00    -0.532 OA
HETATM   33  O5  UNL     1     -50.909  -1.026 -26.677  1.00  0.00    -0.532 OA
ENDBRANCH  27  31
ENDBRANCH   3  20
TORSDOF 7
ENDMDL
MODEL 5
REMARK VINA RESULT: -7.125182110      3.568      5.264
REMARK  7 active torsions:
REMARK  status: ('A' for Active; 'I' for Inactive)
REMARK    1  A    between atoms: C2_2  and  N1_5 
REMARK    2  A    between atoms: C4_9  and  C5_10 
REMARK       I    between atoms: C5_10  and  N3_12 
REMARK    3  A    between atoms: N3_12  and  N4_14 
REMARK    4  A    between atoms: C6_16  and  C7_17 
REMARK    5  A    between atoms: C9_19  and  N5_20 
REMARK    6  A    between atoms: C12_27  and  N6_28 
REMARK    7  A    between atoms: C13_31  and  O6_32 
ROOT
HETATM    1  N4  UNL     1     -48.931  -4.110 -26.590  1.00  0.00    -0.308 N 
ATOM      2  H4  UNL     1     -49.706  -4.648 -26.201  1.00  0.00     0.186 HD
HETATM    3  C6  UNL     1     -48.767  -2.880 -26.295  1.00  0.00     0.121 C 
ENDROOT
BRANCH   1   4
HETATM    4  N3  UNL     1     -47.997  -4.704 -27.480  1.00  0.00    -0.266 N 
HETATM    5  C5  UNL     1     -48.332  -4.707 -28.837  1.00  0.00     0.275 C 
HETATM    6  O1  UNL     1     -49.434  -4.196 -29.259  1.00  0.00    -0.266 OA
ATOM      7  H3  UNL     1     -47.123  -5.109 -27.144  1.00  0.00     0.190 HD
BRANCH   5   8
HETATM    8  C4  UNL     1     -47.461  -5.283 -29.842  1.00  0.00     0.102 A 
HETATM    9  C3  UNL     1     -46.362  -6.116 -29.608  1.00  0.00     0.129 A 
HETATM   10  N2  UNL     1     -45.861  -6.404 -30.803  1.00  0.00    -0.304 N 
HETATM   11  N1  UNL     1     -46.541  -5.831 -31.758  1.00  0.00    -0.231 N 
ATOM     12  H2  UNL     1     -45.047  -6.999 -30.956  1.00  0.00     0.186 HD
HETATM   13  C13 UNL     1     -47.550  -5.122 -31.190  1.00  0.00     0.177 A 
BRANCH  11  14
HETATM   14  C2  UNL     1     -46.306  -5.906 -33.176  1.00  0.00     0.204 C 
HETATM   15  C1  UNL     1     -45.070  -6.726 -33.464  1.00  0.00     0.077 C 
HETATM   16 CL1  UNL     1     -47.727  -6.539 -34.067  1.00  0.00    -0.076 Cl
HETATM   17 CL2  UNL     1     -45.989  -4.270 -33.856  1.00  0.00    -0.076 Cl
ENDBRANCH  11  14
BRANCH  13  18
HETATM   18  O6  UNL     1     -48.490  -4.371 -31.932  1.00  0.00    -0.344 OA
ATOM     19  H6  UNL     1     -48.958  -3.622 -31.581  1.00  0.00     0.219 HD
ENDBRANCH  13  18
ENDBRANCH   5   8
ENDBRANCH   1   4
BRANCH   3  20
HETATM   20  C7  UNL     1     -49.703  -2.207 -25.378  1.00  0.00     0.018 A 
HETATM   21  C8  UNL     1     -49.318  -1.960 -24.078  1.00  0.00     0.053 A 
HETATM   22  C9  UNL     1     -50.195  -1.320 -23.196  1.00  0.00     0.127 A 
HETATM   23  C10 UNL     1     -51.450  -0.925 -23.599  1.00  0.00     0.091 A 
HETATM   24 CL3  UNL     1     -52.497  -0.130 -22.447  1.00  0.00    -0.080 Cl
HETATM   25  C11 UNL     1     -51.820  -1.179 -24.898  1.00  0.00     0.092 A 
HETATM   26 CL4  UNL     1     -53.405  -0.696 -25.455  1.00  0.00    -0.080 Cl
HETATM   27  C12 UNL     1     -50.960  -1.818 -25.799  1.00  0.00     0.138 A 
BRANCH  22  28
HETATM   28  N5  UNL     1     -49.786  -1.074 -21.870  1.00  0.00    -0.114 N 
HETATM   29  O2  UNL     1     -49.139  -0.059 -21.600  1.00  0.00    -0.532 OA
HETATM   30  O3  UNL     1     -50.105  -1.960 -20.889  1.00  0.00    -0.532 OA
ENDBRANCH  22  28
BRANCH  27  31
HETATM   31  N6  UNL     1     -51.334  -2.082 -27.137  1.00  0.00    -0.113 N 
HETATM   32  O4  UNL     1     -51.933  -3.130 -27.403  1.00  0.00    -0.532 OA
HETATM   33  O5  UNL     1     -51.046  -1.198 -28.139  1.00  0.00    -0.532 OA
ENDBRANCH  27  31
ENDBRANCH   3  20
TORSDOF 7
ENDMDL
