MODEL 1
REMARK VINA RESULT: -7.431290234      0.000      0.000
REMARK  8 active torsions:
REMARK  status: ('A' for Active; 'I' for Inactive)
REMARK    1  A    between atoms: C3_4  and  C4_5 
REMARK    2  A    between atoms: C4_5  and  O2_7 
REMARK    3  A    between atoms: O2_7  and  N2_8 
REMARK    4  A    between atoms: C5_9  and  N3_10 
REMARK    5  A    between atoms: N3_10  and  C7_12 
REMARK    6  A    between atoms: C7_12  and  C8_13 
REMARK    7  A    between atoms: C9_14  and  C10_15 
REMARK    8  A    between atoms: C9_14  and  C15_23 
ROOT
HETATM    1  N2  UNL     1     -51.456  -0.602 -21.734  1.00  0.00    -0.050 N 
HETATM    2  C5  UNL     1     -52.066   0.118 -22.771  1.00  0.00     0.707 A 
HETATM    3  N4  UNL     1     -52.892   1.108 -22.431  1.00  0.00    -0.162 N 
ATOM      4  H4  UNL     1     -53.338   1.666 -23.159  1.00  0.00     0.187 HD
HETATM    5  C16 UNL     1     -53.154   1.392 -21.077  1.00  0.00     0.204 A 
HETATM    6  N5  UNL     1     -54.018   2.474 -20.727  1.00  0.00    -0.063 NA
HETATM    7  N6  UNL     1     -52.640   0.710 -20.154  1.00  0.00    -0.336 N 
ATOM      8  H6  UNL     1     -52.864   0.979 -19.196  1.00  0.00     0.164 HD
HETATM    9  C17 UNL     1     -51.787  -0.386 -20.329  1.00  0.00     0.144 A 
HETATM   10  C18 UNL     1     -50.621  -0.418 -19.388  1.00  0.00     0.066 C 
HETATM   11  C19 UNL     1     -52.594  -1.684 -19.958  1.00  0.00     0.066 C 
ENDROOT
BRANCH   2  12
HETATM   12  N3  UNL     1     -51.934  -0.157 -24.123  1.00  0.00    -0.217 N 
HETATM   13  C6  UNL     1     -53.230  -0.291 -24.886  1.00  0.00     0.169 C 
BRANCH  12  14
HETATM   14  C7  UNL     1     -50.814  -0.351 -24.969  1.00  0.00     0.169 C 
BRANCH  14  15
HETATM   15  C8  UNL     1     -51.141  -1.055 -26.248  1.00  0.00     0.007 C 
HETATM   16  C9  UNL     1     -50.936  -2.245 -26.668  1.00  0.00     0.018 C 
BRANCH  16  17
HETATM   17  C10 UNL     1     -50.283  -3.392 -26.001  1.00  0.00     0.029 A 
HETATM   18  C11 UNL     1     -50.903  -4.022 -24.938  1.00  0.00    -0.006 A 
HETATM   19  C12 UNL     1     -52.261  -3.861 -24.351  1.00  0.00     0.057 C 
HETATM   20  S1  UNL     1     -49.745  -5.152 -24.397  1.00  0.00    -0.079 SA
HETATM   21  C13 UNL     1     -48.503  -4.823 -25.504  1.00  0.00     0.114 A 
HETATM   22 CL1  UNL     1     -46.898  -5.582 -25.643  1.00  0.00    -0.073 Cl
HETATM   23  C14 UNL     1     -49.037  -3.819 -26.280  1.00  0.00     0.157 A 
HETATM   24  F1  UNL     1     -48.192  -3.277 -27.241  1.00  0.00    -0.203 F 
ENDBRANCH  16  17
BRANCH  16  25
HETATM   25  C15 UNL     1     -51.515  -2.574 -28.040  1.00  0.00     0.387 C 
HETATM   26  F2  UNL     1     -52.756  -3.156 -27.909  1.00  0.00    -0.209 F 
HETATM   27  F3  UNL     1     -51.650  -1.383 -28.786  1.00  0.00    -0.209 F 
ENDBRANCH  16  25
ENDBRANCH  14  15
ENDBRANCH  12  14
ENDBRANCH   2  12
BRANCH   1  28
HETATM   28  O2  UNL     1     -50.495  -1.536 -22.064  1.00  0.00    -0.176 OA
BRANCH  28  29
HETATM   29  C4  UNL     1     -49.179  -1.108 -22.195  1.00  0.00     0.307 C 
HETATM   30  O1  UNL     1     -48.875   0.024 -21.794  1.00  0.00    -0.258 OA
BRANCH  29  31
HETATM   31  C3  UNL     1     -48.168  -1.955 -22.787  1.00  0.00     0.105 C 
HETATM   32  C2  UNL     1     -47.479  -2.799 -22.080  1.00  0.00     0.026 C 
HETATM   33  C1  UNL     1     -47.645  -2.985 -20.625  1.00  0.00     0.065 C 
HETATM   34  N1  UNL     1     -46.490  -3.595 -22.790  1.00  0.00    -0.107 NA
ENDBRANCH  29  31
ENDBRANCH  28  29
ENDBRANCH   1  28
TORSDOF 8
ENDMDL
MODEL 2
REMARK VINA RESULT: -7.340392205      4.044      6.828
REMARK  8 active torsions:
REMARK  status: ('A' for Active; 'I' for Inactive)
REMARK    1  A    between atoms: C3_4  and  C4_5 
REMARK    2  A    between atoms: C4_5  and  O2_7 
REMARK    3  A    between atoms: O2_7  and  N2_8 
REMARK    4  A    between atoms: C5_9  and  N3_10 
REMARK    5  A    between atoms: N3_10  and  C7_12 
REMARK    6  A    between atoms: C7_12  and  C8_13 
REMARK    7  A    between atoms: C9_14  and  C10_15 
REMARK    8  A    between atoms: C9_14  and  C15_23 
ROOT
HETATM    1  N2  UNL     1     -49.656  -5.716 -23.645  1.00  0.00    -0.050 N 
HETATM    2  C5  UNL     1     -50.556  -5.372 -22.627  1.00  0.00     0.707 A 
HETATM    3  N4  UNL     1     -50.520  -6.091 -21.504  1.00  0.00    -0.162 N 
ATOM      4  H4  UNL     1     -51.147  -5.857 -20.735  1.00  0.00     0.187 HD
HETATM    5  C16 UNL     1     -49.627  -7.171 -21.370  1.00  0.00     0.204 A 
HETATM    6  N5  UNL     1     -49.580  -7.915 -20.152  1.00  0.00    -0.063 NA
HETATM    7  N6  UNL     1     -48.857  -7.502 -22.308  1.00  0.00    -0.336 N 
ATOM      8  H6  UNL     1     -48.227  -8.287 -22.138  1.00  0.00     0.164 HD
HETATM    9  C17 UNL     1     -48.789  -6.887 -23.563  1.00  0.00     0.144 A 
HETATM   10  C18 UNL     1     -47.397  -6.687 -24.080  1.00  0.00     0.066 C 
HETATM   11  C19 UNL     1     -49.431  -7.869 -24.611  1.00  0.00     0.066 C 
ENDROOT
BRANCH   2  12
HETATM   12  N3  UNL     1     -51.527  -4.387 -22.714  1.00  0.00    -0.217 N 
HETATM   13  C6  UNL     1     -52.433  -4.475 -23.918  1.00  0.00     0.169 C 
BRANCH  12  14
HETATM   14  C7  UNL     1     -51.860  -3.278 -21.897  1.00  0.00     0.169 C 
BRANCH  14  15
HETATM   15  C8  UNL     1     -50.788  -2.236 -21.831  1.00  0.00     0.007 C 
HETATM   16  C9  UNL     1     -50.801  -0.962 -21.930  1.00  0.00     0.018 C 
BRANCH  16  17
HETATM   17  C10 UNL     1     -51.931  -0.032 -22.143  1.00  0.00     0.029 A 
HETATM   18  C11 UNL     1     -52.505   0.621 -21.068  1.00  0.00    -0.006 A 
HETATM   19  C12 UNL     1     -52.115   0.693 -19.634  1.00  0.00     0.057 C 
HETATM   20  S1  UNL     1     -53.839   1.439 -21.748  1.00  0.00    -0.079 SA
HETATM   21  C13 UNL     1     -53.661   0.956 -23.364  1.00  0.00     0.114 A 
HETATM   22 CL1  UNL     1     -54.664   1.378 -24.774  1.00  0.00    -0.073 Cl
HETATM   23  C14 UNL     1     -52.545   0.151 -23.327  1.00  0.00     0.157 A 
HETATM   24  F1  UNL     1     -52.203  -0.471 -24.521  1.00  0.00    -0.203 F 
ENDBRANCH  16  17
BRANCH  16  25
HETATM   25  C15 UNL     1     -49.460  -0.266 -21.722  1.00  0.00     0.387 C 
HETATM   26  F2  UNL     1     -49.061  -0.376 -20.409  1.00  0.00    -0.209 F 
HETATM   27  F3  UNL     1     -48.486  -0.876 -22.543  1.00  0.00    -0.209 F 
ENDBRANCH  16  25
ENDBRANCH  14  15
ENDBRANCH  12  14
ENDBRANCH   2  12
BRANCH   1  28
HETATM   28  O2  UNL     1     -49.581  -4.900 -24.756  1.00  0.00    -0.176 OA
BRANCH  28  29
HETATM   29  C4  UNL     1     -48.994  -3.648 -24.613  1.00  0.00     0.307 C 
HETATM   30  O1  UNL     1     -47.978  -3.539 -23.915  1.00  0.00    -0.258 OA
BRANCH  29  31
HETATM   31  C3  UNL     1     -49.546  -2.480 -25.263  1.00  0.00     0.105 C 
HETATM   32  C2  UNL     1     -49.302  -2.207 -26.509  1.00  0.00     0.026 C 
HETATM   33  C1  UNL     1     -48.453  -3.039 -27.385  1.00  0.00     0.065 C 
HETATM   34  N1  UNL     1     -49.915  -1.003 -27.049  1.00  0.00    -0.107 NA
ENDBRANCH  29  31
ENDBRANCH  28  29
ENDBRANCH   1  28
TORSDOF 8
ENDMDL
MODEL 3
REMARK VINA RESULT: -7.270605154      4.264      6.669
REMARK  8 active torsions:
REMARK  status: ('A' for Active; 'I' for Inactive)
REMARK    1  A    between atoms: C3_4  and  C4_5 
REMARK    2  A    between atoms: C4_5  and  O2_7 
REMARK    3  A    between atoms: O2_7  and  N2_8 
REMARK    4  A    between atoms: C5_9  and  N3_10 
REMARK    5  A    between atoms: N3_10  and  C7_12 
REMARK    6  A    between atoms: C7_12  and  C8_13 
REMARK    7  A    between atoms: C9_14  and  C10_15 
REMARK    8  A    between atoms: C9_14  and  C15_23 
ROOT
HETATM    1  N2  UNL     1     -50.305  -2.587 -25.381  1.00  0.00    -0.050 N 
HETATM    2  C5  UNL     1     -51.555  -3.004 -24.902  1.00  0.00     0.707 A 
HETATM    3  N4  UNL     1     -52.558  -3.076 -25.778  1.00  0.00    -0.162 N 
ATOM      4  H4  UNL     1     -53.477  -3.393 -25.469  1.00  0.00     0.187 HD
HETATM    5  C16 UNL     1     -52.363  -2.717 -27.125  1.00  0.00     0.204 A 
HETATM    6  N5  UNL     1     -53.438  -2.826 -28.059  1.00  0.00    -0.063 NA
HETATM    7  N6  UNL     1     -51.250  -2.299 -27.536  1.00  0.00    -0.336 N 
ATOM      8  H6  UNL     1     -51.176  -2.068 -28.527  1.00  0.00     0.164 HD
HETATM    9  C17 UNL     1     -50.105  -2.123 -26.750  1.00  0.00     0.144 A 
HETATM   10  C18 UNL     1     -48.833  -2.579 -27.398  1.00  0.00     0.066 C 
HETATM   11  C19 UNL     1     -49.887  -0.576 -26.563  1.00  0.00     0.066 C 
ENDROOT
BRANCH   2  12
HETATM   12  N3  UNL     1     -51.854  -3.285 -23.578  1.00  0.00    -0.217 N 
HETATM   13  C6  UNL     1     -51.997  -4.750 -23.243  1.00  0.00     0.169 C 
BRANCH  12  14
HETATM   14  C7  UNL     1     -52.065  -2.471 -22.437  1.00  0.00     0.169 C 
BRANCH  14  15
HETATM   15  C8  UNL     1     -50.844  -1.731 -21.991  1.00  0.00     0.007 C 
HETATM   16  C9  UNL     1     -50.668  -0.677 -21.289  1.00  0.00     0.018 C 
BRANCH  16  17
HETATM   17  C10 UNL     1     -51.655   0.210 -20.636  1.00  0.00     0.029 A 
HETATM   18  C11 UNL     1     -52.481   1.012 -21.401  1.00  0.00    -0.006 A 
HETATM   19  C12 UNL     1     -52.697   1.087 -22.872  1.00  0.00     0.057 C 
HETATM   20  S1  UNL     1     -53.317   1.956 -20.253  1.00  0.00    -0.079 SA
HETATM   21  C13 UNL     1     -52.624   1.337 -18.834  1.00  0.00     0.114 A 
HETATM   22 CL1  UNL     1     -52.951   1.788 -17.142  1.00  0.00    -0.073 Cl
HETATM   23  C14 UNL     1     -51.741   0.393 -19.305  1.00  0.00     0.157 A 
HETATM   24  F1  UNL     1     -50.949  -0.231 -18.349  1.00  0.00    -0.203 F 
ENDBRANCH  16  17
BRANCH  16  25
HETATM   25  C15 UNL     1     -49.217  -0.303 -21.005  1.00  0.00     0.387 C 
HETATM   26  F2  UNL     1     -48.680  -1.148 -20.060  1.00  0.00    -0.209 F 
HETATM   27  F3  UNL     1     -48.465  -0.418 -22.195  1.00  0.00    -0.209 F 
ENDBRANCH  16  25
ENDBRANCH  14  15
ENDBRANCH  12  14
ENDBRANCH   2  12
BRANCH   1  28
HETATM   28  O2  UNL     1     -49.226  -2.640 -24.523  1.00  0.00    -0.176 OA
BRANCH  28  29
HETATM   29  C4  UNL     1     -48.738  -3.889 -24.155  1.00  0.00     0.307 C 
HETATM   30  O1  UNL     1     -48.538  -4.737 -25.035  1.00  0.00    -0.258 OA
BRANCH  29  31
HETATM   31  C3  UNL     1     -48.461  -4.211 -22.773  1.00  0.00     0.105 C 
HETATM   32  C2  UNL     1     -47.416  -3.749 -22.156  1.00  0.00     0.026 C 
HETATM   33  C1  UNL     1     -46.414  -2.863 -22.780  1.00  0.00     0.065 C 
HETATM   34  N1  UNL     1     -47.246  -4.145 -20.766  1.00  0.00    -0.107 NA
ENDBRANCH  29  31
ENDBRANCH  28  29
ENDBRANCH   1  28
TORSDOF 8
ENDMDL
MODEL 4
REMARK VINA RESULT: -7.267091955      4.525      7.386
REMARK  8 active torsions:
REMARK  status: ('A' for Active; 'I' for Inactive)
REMARK    1  A    between atoms: C3_4  and  C4_5 
REMARK    2  A    between atoms: C4_5  and  O2_7 
REMARK    3  A    between atoms: O2_7  and  N2_8 
REMARK    4  A    between atoms: C5_9  and  N3_10 
REMARK    5  A    between atoms: N3_10  and  C7_12 
REMARK    6  A    between atoms: C7_12  and  C8_13 
REMARK    7  A    between atoms: C9_14  and  C10_15 
REMARK    8  A    between atoms: C9_14  and  C15_23 
ROOT
HETATM    1  N2  UNL     1     -49.495  -4.278 -23.822  1.00  0.00    -0.050 N 
HETATM    2  C5  UNL     1     -49.427  -4.342 -22.423  1.00  0.00     0.707 A 
HETATM    3  N4  UNL     1     -48.281  -3.979 -21.845  1.00  0.00    -0.162 N 
ATOM      4  H4  UNL     1     -48.202  -3.994 -20.828  1.00  0.00     0.187 HD
HETATM    5  C16 UNL     1     -47.180  -3.575 -22.623  1.00  0.00     0.204 A 
HETATM    6  N5  UNL     1     -45.969  -3.162 -21.990  1.00  0.00    -0.063 NA
HETATM    7  N6  UNL     1     -47.235  -3.567 -23.879  1.00  0.00    -0.336 N 
ATOM      8  H6  UNL     1     -46.404  -3.252 -24.380  1.00  0.00     0.164 HD
HETATM    9  C17 UNL     1     -48.338  -3.953 -24.649  1.00  0.00     0.144 A 
HETATM   10  C18 UNL     1     -48.622  -3.058 -25.817  1.00  0.00     0.066 C 
HETATM   11  C19 UNL     1     -47.992  -5.334 -25.321  1.00  0.00     0.066 C 
ENDROOT
BRANCH   2  12
HETATM   12  N3  UNL     1     -50.430  -4.815 -21.592  1.00  0.00    -0.217 N 
HETATM   13  C6  UNL     1     -50.329  -6.275 -21.220  1.00  0.00     0.169 C 
BRANCH  12  14
HETATM   14  C7  UNL     1     -51.569  -4.210 -21.003  1.00  0.00     0.169 C 
BRANCH  14  15
HETATM   15  C8  UNL     1     -51.249  -3.354 -19.818  1.00  0.00     0.007 C 
HETATM   16  C9  UNL     1     -51.248  -2.090 -19.628  1.00  0.00     0.018 C 
BRANCH  16  17
HETATM   17  C10 UNL     1     -51.587  -0.986 -20.553  1.00  0.00     0.029 A 
HETATM   18  C11 UNL     1     -50.583  -0.294 -21.204  1.00  0.00    -0.006 A 
HETATM   19  C12 UNL     1     -49.115  -0.523 -21.281  1.00  0.00     0.057 C 
HETATM   20  S1  UNL     1     -51.408   0.960 -22.016  1.00  0.00    -0.079 SA
HETATM   21  C13 UNL     1     -52.994   0.603 -21.530  1.00  0.00     0.114 A 
HETATM   22 CL1  UNL     1     -54.507   1.446 -21.946  1.00  0.00    -0.073 Cl
HETATM   23  C14 UNL     1     -52.831  -0.506 -20.731  1.00  0.00     0.157 A 
HETATM   24  F1  UNL     1     -53.979  -0.981 -20.108  1.00  0.00    -0.203 F 
ENDBRANCH  16  17
BRANCH  16  25
HETATM   25  C15 UNL     1     -50.922  -1.631 -18.211  1.00  0.00     0.387 C 
HETATM   26  F2  UNL     1     -49.559  -1.563 -18.030  1.00  0.00    -0.209 F 
HETATM   27  F3  UNL     1     -51.471  -0.347 -18.000  1.00  0.00    -0.209 F 
ENDBRANCH  16  25
ENDBRANCH  14  15
ENDBRANCH  12  14
ENDBRANCH   2  12
BRANCH   1  28
HETATM   28  O2  UNL     1     -50.712  -4.516 -24.428  1.00  0.00    -0.176 OA
BRANCH  28  29
HETATM   29  C4  UNL     1     -51.553  -3.434 -24.663  1.00  0.00     0.307 C 
HETATM   30  O1  UNL     1     -51.492  -2.454 -23.908  1.00  0.00    -0.258 OA
BRANCH  29  31
HETATM   31  C3  UNL     1     -52.490  -3.434 -25.764  1.00  0.00     0.105 C 
HETATM   32  C2  UNL     1     -52.498  -2.493 -26.659  1.00  0.00     0.026 C 
HETATM   33  C1  UNL     1     -51.573  -1.342 -26.654  1.00  0.00     0.065 C 
HETATM   34  N1  UNL     1     -53.489  -2.604 -27.718  1.00  0.00    -0.107 NA
ENDBRANCH  29  31
ENDBRANCH  28  29
ENDBRANCH   1  28
TORSDOF 8
ENDMDL
MODEL 5
REMARK VINA RESULT: -7.254702489      2.710      4.868
REMARK  8 active torsions:
REMARK  status: ('A' for Active; 'I' for Inactive)
REMARK    1  A    between atoms: C3_4  and  C4_5 
REMARK    2  A    between atoms: C4_5  and  O2_7 
REMARK    3  A    between atoms: O2_7  and  N2_8 
REMARK    4  A    between atoms: C5_9  and  N3_10 
REMARK    5  A    between atoms: N3_10  and  C7_12 
REMARK    6  A    between atoms: C7_12  and  C8_13 
REMARK    7  A    between atoms: C9_14  and  C10_15 
REMARK    8  A    between atoms: C9_14  and  C15_23 
ROOT
HETATM    1  N2  UNL     1     -51.296  -1.525 -22.941  1.00  0.00    -0.050 N 
HETATM    2  C5  UNL     1     -51.546  -2.903 -22.856  1.00  0.00     0.707 A 
HETATM    3  N4  UNL     1     -51.667  -3.433 -21.639  1.00  0.00    -0.162 N 
ATOM      4  H4  UNL     1     -51.868  -4.428 -21.540  1.00  0.00     0.187 HD
HETATM    5  C16 UNL     1     -51.520  -2.635 -20.489  1.00  0.00     0.204 A 
HETATM    6  N5  UNL     1     -51.681  -3.211 -19.192  1.00  0.00    -0.063 NA
HETATM    7  N6  UNL     1     -51.249  -1.410 -20.574  1.00  0.00    -0.336 N 
ATOM      8  H6  UNL     1     -51.168  -0.889 -19.700  1.00  0.00     0.164 HD
HETATM    9  C17 UNL     1     -51.048  -0.700 -21.763  1.00  0.00     0.144 A 
HETATM   10  C18 UNL     1     -51.685   0.656 -21.790  1.00  0.00     0.066 C 
HETATM   11  C19 UNL     1     -49.510  -0.385 -21.877  1.00  0.00     0.066 C 
ENDROOT
BRANCH   2  12
HETATM   12  N3  UNL     1     -51.611  -3.773 -23.933  1.00  0.00    -0.217 N 
HETATM   13  C6  UNL     1     -52.910  -4.529 -24.077  1.00  0.00     0.169 C 
BRANCH  12  14
HETATM   14  C7  UNL     1     -50.695  -4.122 -24.956  1.00  0.00     0.169 C 
BRANCH  14  15
HETATM   15  C8  UNL     1     -49.278  -4.224 -24.486  1.00  0.00     0.007 C 
HETATM   16  C9  UNL     1     -48.212  -4.687 -25.017  1.00  0.00     0.018 C 
BRANCH  16  17
HETATM   17  C10 UNL     1     -47.996  -5.300 -26.346  1.00  0.00     0.029 A 
HETATM   18  C11 UNL     1     -47.851  -6.670 -26.463  1.00  0.00    -0.006 A 
HETATM   19  C12 UNL     1     -48.006  -7.767 -25.470  1.00  0.00     0.057 C 
HETATM   20  S1  UNL     1     -47.472  -6.904 -28.110  1.00  0.00    -0.079 SA
HETATM   21  C13 UNL     1     -47.500  -5.289 -28.629  1.00  0.00     0.114 A 
HETATM   22 CL1  UNL     1     -47.205  -4.634 -30.258  1.00  0.00    -0.073 Cl
HETATM   23  C14 UNL     1     -47.809  -4.599 -27.479  1.00  0.00     0.157 A 
HETATM   24  F1  UNL     1     -47.816  -3.213 -27.584  1.00  0.00    -0.203 F 
ENDBRANCH  16  17
BRANCH  16  25
HETATM   25  C15 UNL     1     -46.936  -4.521 -24.199  1.00  0.00     0.387 C 
HETATM   26  F2  UNL     1     -46.919  -3.291 -23.580  1.00  0.00    -0.209 F 
HETATM   27  F3  UNL     1     -46.884  -5.527 -23.208  1.00  0.00    -0.209 F 
ENDBRANCH  16  25
ENDBRANCH  14  15
ENDBRANCH  12  14
ENDBRANCH   2  12
BRANCH   1  28
HETATM   28  O2  UNL     1     -51.305  -0.934 -24.188  1.00  0.00    -0.176 OA
BRANCH  28  29
HETATM   29  C4  UNL     1     -52.531  -0.566 -24.733  1.00  0.00     0.307 C 
HETATM   30  O1  UNL     1     -53.044   0.505 -24.384  1.00  0.00    -0.258 OA
BRANCH  29  31
HETATM   31  C3  UNL     1     -53.210  -1.408 -25.692  1.00  0.00     0.105 C 
HETATM   32  C2  UNL     1     -52.687  -1.695 -26.846  1.00  0.00     0.026 C 
HETATM   33  C1  UNL     1     -51.369  -1.207 -27.298  1.00  0.00     0.065 C 
HETATM   34  N1  UNL     1     -53.468  -2.551 -27.725  1.00  0.00    -0.107 NA
ENDBRANCH  29  31
ENDBRANCH  28  29
ENDBRANCH   1  28
TORSDOF 8
ENDMDL
