MODEL 1
REMARK VINA RESULT: -7.908348736      0.000      0.000
REMARK  10 active torsions:
REMARK  status: ('A' for Active; 'I' for Inactive)
REMARK    1  A    between atoms: C1_2  and  O2_3 
REMARK    2  A    between atoms: O2_3  and  C2_4 
REMARK    3  A    between atoms: C2_4  and  C3_6 
REMARK    4  A    between atoms: C5_8  and  C6_9 
REMARK    5  A    between atoms: C6_9  and  O5_11 
REMARK    6  A    between atoms: O5_11  and  C7_12 
REMARK    7  A    between atoms: C11_19  and  C12_20 
REMARK    8  A    between atoms: N1_21  and  O6_23 
REMARK    9  A    between atoms: C14_27  and  O7_28 
REMARK   10  A    between atoms: N2_30  and  C15_31 
ROOT
HETATM    1  C3  UNL     1     -50.832  -3.711 -24.038  1.00  0.00     0.099 A 
HETATM    2  C4  UNL     1     -50.961  -3.421 -22.748  1.00  0.00     0.113 A 
HETATM    3  C5  UNL     1     -49.429  -3.260 -22.179  1.00  0.00     0.074 A 
HETATM    4  C14 UNL     1     -48.975  -3.482 -23.218  1.00  0.00     0.160 A 
HETATM    5  N2  UNL     1     -49.558  -3.762 -24.399  1.00  0.00    -0.289 N 
ENDROOT
BRANCH   3   6
HETATM    6  C6  UNL     1     -49.830  -2.927 -20.700  1.00  0.00     0.299 C 
HETATM    7  O4  UNL     1     -50.241  -3.587 -19.827  1.00  0.00    -0.259 OA
BRANCH   6   8
HETATM    8  O5  UNL     1     -49.614  -1.559 -20.450  1.00  0.00    -0.270 OA
BRANCH   8   9
HETATM    9  C7  UNL     1     -50.496  -0.647 -20.034  1.00  0.00     0.143 A 
HETATM   10  C8  UNL     1     -50.640  -0.373 -18.650  1.00  0.00     0.193 A 
HETATM   11  F1  UNL     1     -49.864  -1.113 -17.794  1.00  0.00    -0.200 F 
HETATM   12  C9  UNL     1     -51.518   0.557 -18.182  1.00  0.00     0.197 A 
HETATM   13  F2  UNL     1     -51.561   0.779 -16.815  1.00  0.00    -0.199 F 
HETATM   14  C10 UNL     1     -52.317   1.288 -19.010  1.00  0.00     0.171 A 
HETATM   15  F3  UNL     1     -53.178   2.211 -18.555  1.00  0.00    -0.202 F 
HETATM   16  C11 UNL     1     -52.215   1.049 -20.391  1.00  0.00     0.048 A 
HETATM   17  C13 UNL     1     -51.321   0.105 -20.839  1.00  0.00     0.086 A 
HETATM   18 CL1  UNL     1     -51.272  -0.136 -22.578  1.00  0.00    -0.080 Cl
BRANCH  16  19
HETATM   19  C12 UNL     1     -53.077   1.830 -21.254  1.00  0.00     0.130 C 
HETATM   20  N1  UNL     1     -54.232   1.400 -21.578  1.00  0.00    -0.280 N 
ATOM     21  H1  UNL     1     -54.523   0.493 -21.212  1.00  0.00     0.193 HD
BRANCH  20  22
HETATM   22  O6  UNL     1     -55.092   2.063 -22.373  1.00  0.00    -0.290 OA
ATOM     23  H6  UNL     1     -55.986   2.273 -22.133  1.00  0.00     0.244 HD
ENDBRANCH  20  22
ENDBRANCH  16  19
ENDBRANCH   8   9
ENDBRANCH   6   8
ENDBRANCH   3   6
BRANCH   4  24
HETATM   24  O7  UNL     1     -47.448  -3.462 -23.303  1.00  0.00    -0.345 OA
ATOM     25  H7  UNL     1     -47.018  -4.309 -23.303  1.00  0.00     0.219 HD
ENDBRANCH   4  24
BRANCH   1  26
HETATM   26  C2  UNL     1     -52.001  -3.902 -24.928  1.00  0.00     0.313 C 
HETATM   27  O3  UNL     1     -52.614  -4.993 -24.956  1.00  0.00    -0.257 OA
BRANCH  26  28
HETATM   28  O2  UNL     1     -52.397  -2.857 -25.732  1.00  0.00    -0.247 OA
BRANCH  28  29
HETATM   29  C1  UNL     1     -52.514  -3.072 -27.123  1.00  0.00     0.406 C 
HETATM   30  O1  UNL     1     -53.582  -2.673 -27.663  1.00  0.00    -0.276 OA
ENDBRANCH  28  29
ENDBRANCH  26  28
ENDBRANCH   1  26
BRANCH   5  31
HETATM   31  C15 UNL     1     -48.953  -4.005 -25.649  1.00  0.00     0.041 A 
HETATM   32  C16 UNL     1     -48.834  -2.949 -26.573  1.00  0.00     0.030 A 
HETATM   33  C17 UNL     1     -48.215  -3.220 -27.772  1.00  0.00     0.002 A 
HETATM   34  C18 UNL     1     -47.721  -4.448 -28.100  1.00  0.00     0.000 A 
HETATM   35  C19 UNL     1     -47.821  -5.515 -27.210  1.00  0.00     0.002 A 
HETATM   36  C20 UNL     1     -48.455  -5.234 -25.980  1.00  0.00     0.030 A 
ENDBRANCH   5  31
TORSDOF 10
ENDMDL
MODEL 2
REMARK VINA RESULT: -7.903382331      2.461      3.126
REMARK  10 active torsions:
REMARK  status: ('A' for Active; 'I' for Inactive)
REMARK    1  A    between atoms: C1_2  and  O2_3 
REMARK    2  A    between atoms: O2_3  and  C2_4 
REMARK    3  A    between atoms: C2_4  and  C3_6 
REMARK    4  A    between atoms: C5_8  and  C6_9 
REMARK    5  A    between atoms: C6_9  and  O5_11 
REMARK    6  A    between atoms: O5_11  and  C7_12 
REMARK    7  A    between atoms: C11_19  and  C12_20 
REMARK    8  A    between atoms: N1_21  and  O6_23 
REMARK    9  A    between atoms: C14_27  and  O7_28 
REMARK   10  A    between atoms: N2_30  and  C15_31 
ROOT
HETATM    1  C3  UNL     1     -51.625  -3.204 -23.596  1.00  0.00     0.099 A 
HETATM    2  C4  UNL     1     -51.927  -2.950 -22.328  1.00  0.00     0.113 A 
HETATM    3  C5  UNL     1     -50.515  -2.500 -21.621  1.00  0.00     0.074 A 
HETATM    4  C14 UNL     1     -49.931  -2.626 -22.611  1.00  0.00     0.160 A 
HETATM    5  N2  UNL     1     -50.337  -3.007 -23.836  1.00  0.00    -0.289 N 
ENDROOT
BRANCH   3   6
HETATM    6  C6  UNL     1     -51.109  -2.257 -20.191  1.00  0.00     0.299 C 
HETATM    7  O4  UNL     1     -51.827  -2.887 -19.518  1.00  0.00    -0.259 OA
BRANCH   6   8
HETATM    8  O5  UNL     1     -50.631  -1.034 -19.684  1.00  0.00    -0.270 OA
BRANCH   8   9
HETATM    9  C7  UNL     1     -51.322  -0.060 -19.087  1.00  0.00     0.143 A 
HETATM   10  C8  UNL     1     -52.136   0.811 -19.856  1.00  0.00     0.193 A 
HETATM   11  F1  UNL     1     -52.134   0.615 -21.213  1.00  0.00    -0.200 F 
HETATM   12  C9  UNL     1     -52.867   1.810 -19.287  1.00  0.00     0.197 A 
HETATM   13  F2  UNL     1     -53.660   2.587 -20.116  1.00  0.00    -0.199 F 
HETATM   14  C10 UNL     1     -52.867   2.041 -17.943  1.00  0.00     0.171 A 
HETATM   15  F3  UNL     1     -53.592   3.018 -17.378  1.00  0.00    -0.202 F 
HETATM   16  C11 UNL     1     -52.072   1.207 -17.140  1.00  0.00     0.048 A 
HETATM   17  C13 UNL     1     -51.343   0.205 -17.737  1.00  0.00     0.086 A 
HETATM   18 CL1  UNL     1     -50.368  -0.778 -16.657  1.00  0.00    -0.080 Cl
BRANCH  16  19
HETATM   19  C12 UNL     1     -52.080   1.471 -15.716  1.00  0.00     0.130 C 
HETATM   20  N1  UNL     1     -52.963   0.943 -14.964  1.00  0.00    -0.280 N 
ATOM     21  H1  UNL     1     -53.657   0.333 -15.399  1.00  0.00     0.193 HD
BRANCH  20  22
HETATM   22  O6  UNL     1     -53.040   1.136 -13.635  1.00  0.00    -0.290 OA
ATOM     23  H6  UNL     1     -53.425   0.517 -13.026  1.00  0.00     0.244 HD
ENDBRANCH  20  22
ENDBRANCH  16  19
ENDBRANCH   8   9
ENDBRANCH   6   8
ENDBRANCH   3   6
BRANCH   4  24
HETATM   24  O7  UNL     1     -48.435  -2.312 -22.554  1.00  0.00    -0.345 OA
ATOM     25  H7  UNL     1     -47.849  -3.052 -22.659  1.00  0.00     0.219 HD
ENDBRANCH   4  24
BRANCH   1  26
HETATM   26  C2  UNL     1     -52.647  -3.613 -24.587  1.00  0.00     0.313 C 
HETATM   27  O3  UNL     1     -53.134  -4.766 -24.569  1.00  0.00    -0.257 OA
BRANCH  26  28
HETATM   28  O2  UNL     1     -53.047  -2.701 -25.539  1.00  0.00    -0.247 OA
BRANCH  28  29
HETATM   29  C1  UNL     1     -52.809  -2.986 -26.901  1.00  0.00     0.406 C 
HETATM   30  O1  UNL     1     -53.678  -2.575 -27.718  1.00  0.00    -0.276 OA
ENDBRANCH  28  29
ENDBRANCH  26  28
ENDBRANCH   1  26
BRANCH   5  31
HETATM   31  C15 UNL     1     -49.582  -3.125 -25.022  1.00  0.00     0.041 A 
HETATM   32  C16 UNL     1     -48.937  -4.344 -25.308  1.00  0.00     0.030 A 
HETATM   33  C17 UNL     1     -48.232  -4.428 -26.488  1.00  0.00     0.002 A 
HETATM   34  C18 UNL     1     -48.131  -3.398 -27.376  1.00  0.00     0.000 A 
HETATM   35  C19 UNL     1     -48.757  -2.179 -27.124  1.00  0.00     0.002 A 
HETATM   36  C20 UNL     1     -49.481  -2.096 -25.915  1.00  0.00     0.030 A 
ENDBRANCH   5  31
TORSDOF 10
ENDMDL
MODEL 3
REMARK VINA RESULT: -7.763148171      1.862      2.581
REMARK  10 active torsions:
REMARK  status: ('A' for Active; 'I' for Inactive)
REMARK    1  A    between atoms: C1_2  and  O2_3 
REMARK    2  A    between atoms: O2_3  and  C2_4 
REMARK    3  A    between atoms: C2_4  and  C3_6 
REMARK    4  A    between atoms: C5_8  and  C6_9 
REMARK    5  A    between atoms: C6_9  and  O5_11 
REMARK    6  A    between atoms: O5_11  and  C7_12 
REMARK    7  A    between atoms: C11_19  and  C12_20 
REMARK    8  A    between atoms: N1_21  and  O6_23 
REMARK    9  A    between atoms: C14_27  and  O7_28 
REMARK   10  A    between atoms: N2_30  and  C15_31 
ROOT
HETATM    1  C3  UNL     1     -50.365  -3.803 -23.844  1.00  0.00     0.099 A 
HETATM    2  C4  UNL     1     -50.592  -3.010 -22.803  1.00  0.00     0.113 A 
HETATM    3  C5  UNL     1     -49.210  -2.147 -22.599  1.00  0.00     0.074 A 
HETATM    4  C14 UNL     1     -48.702  -2.668 -23.496  1.00  0.00     0.160 A 
HETATM    5  N2  UNL     1     -49.148  -3.620 -24.337  1.00  0.00    -0.289 N 
ENDROOT
BRANCH   3   6
HETATM    6  C6  UNL     1     -49.709  -1.315 -21.367  1.00  0.00     0.299 C 
HETATM    7  O4  UNL     1     -49.779  -1.560 -20.226  1.00  0.00    -0.259 OA
BRANCH   6   8
HETATM    8  O5  UNL     1     -50.122  -0.039 -21.796  1.00  0.00    -0.270 OA
BRANCH   8   9
HETATM    9  C7  UNL     1     -51.363   0.389 -22.037  1.00  0.00     0.143 A 
HETATM   10  C8  UNL     1     -52.150   0.925 -20.985  1.00  0.00     0.193 A 
HETATM   11  F1  UNL     1     -51.581   0.938 -19.738  1.00  0.00    -0.200 F 
HETATM   12  C9  UNL     1     -53.416   1.384 -21.190  1.00  0.00     0.197 A 
HETATM   13  F2  UNL     1     -54.093   1.923 -20.108  1.00  0.00    -0.199 F 
HETATM   14  C10 UNL     1     -54.013   1.360 -22.415  1.00  0.00     0.171 A 
HETATM   15  F3  UNL     1     -55.257   1.818 -22.622  1.00  0.00    -0.202 F 
HETATM   16  C11 UNL     1     -53.275   0.832 -23.488  1.00  0.00     0.048 A 
HETATM   17  C13 UNL     1     -51.998   0.375 -23.257  1.00  0.00     0.086 A 
HETATM   18 CL1  UNL     1     -51.158  -0.279 -24.653  1.00  0.00    -0.080 Cl
BRANCH  16  19
HETATM   19  C12 UNL     1     -53.928   0.809 -24.781  1.00  0.00     0.130 C 
HETATM   20  N1  UNL     1     -54.500  -0.251 -25.199  1.00  0.00    -0.280 N 
ATOM     21  H1  UNL     1     -54.479  -1.074 -24.596  1.00  0.00     0.193 HD
BRANCH  20  22
HETATM   22  O6  UNL     1     -55.129  -0.355 -26.384  1.00  0.00    -0.290 OA
ATOM     23  H6  UNL     1     -54.684  -0.389 -27.223  1.00  0.00     0.244 HD
ENDBRANCH  20  22
ENDBRANCH  16  19
ENDBRANCH   8   9
ENDBRANCH   6   8
ENDBRANCH   3   6
BRANCH   4  24
HETATM   24  O7  UNL     1     -47.273  -2.223 -23.812  1.00  0.00    -0.345 OA
ATOM     25  H7  UNL     1     -46.746  -2.834 -24.312  1.00  0.00     0.219 HD
ENDBRANCH   4  24
BRANCH   1  26
HETATM   26  C2  UNL     1     -51.393  -4.727 -24.375  1.00  0.00     0.313 C 
HETATM   27  O3  UNL     1     -51.284  -5.965 -24.221  1.00  0.00    -0.257 OA
BRANCH  26  28
HETATM   28  O2  UNL     1     -52.471  -4.200 -25.050  1.00  0.00    -0.247 OA
BRANCH  28  29
HETATM   29  C1  UNL     1     -52.239  -3.415 -26.201  1.00  0.00     0.406 C 
HETATM   30  O1  UNL     1     -53.087  -2.513 -26.443  1.00  0.00    -0.276 OA
ENDBRANCH  28  29
ENDBRANCH  26  28
ENDBRANCH   1  26
BRANCH   5  31
HETATM   31  C15 UNL     1     -48.490  -4.211 -25.435  1.00  0.00     0.041 A 
HETATM   32  C16 UNL     1     -47.755  -5.396 -25.240  1.00  0.00     0.030 A 
HETATM   33  C17 UNL     1     -47.148  -5.956 -26.342  1.00  0.00     0.002 A 
HETATM   34  C18 UNL     1     -47.226  -5.421 -27.593  1.00  0.00     0.000 A 
HETATM   35  C19 UNL     1     -47.946  -4.250 -27.822  1.00  0.00     0.002 A 
HETATM   36  C20 UNL     1     -48.568  -3.679 -26.691  1.00  0.00     0.030 A 
ENDBRANCH   5  31
TORSDOF 10
ENDMDL
MODEL 4
REMARK VINA RESULT: -7.696896309      2.216      2.620
REMARK  10 active torsions:
REMARK  status: ('A' for Active; 'I' for Inactive)
REMARK    1  A    between atoms: C1_2  and  O2_3 
REMARK    2  A    between atoms: O2_3  and  C2_4 
REMARK    3  A    between atoms: C2_4  and  C3_6 
REMARK    4  A    between atoms: C5_8  and  C6_9 
REMARK    5  A    between atoms: C6_9  and  O5_11 
REMARK    6  A    between atoms: O5_11  and  C7_12 
REMARK    7  A    between atoms: C11_19  and  C12_20 
REMARK    8  A    between atoms: N1_21  and  O6_23 
REMARK    9  A    between atoms: C14_27  and  O7_28 
REMARK   10  A    between atoms: N2_30  and  C15_31 
ROOT
HETATM    1  C3  UNL     1     -50.094  -3.903 -23.280  1.00  0.00     0.099 A 
HETATM    2  C4  UNL     1     -50.093  -3.370 -22.063  1.00  0.00     0.113 A 
HETATM    3  C5  UNL     1     -48.664  -2.572 -21.935  1.00  0.00     0.074 A 
HETATM    4  C14 UNL     1     -48.352  -2.872 -23.006  1.00  0.00     0.160 A 
HETATM    5  N2  UNL     1     -48.983  -3.608 -23.940  1.00  0.00    -0.289 N 
ENDROOT
BRANCH   3   6
HETATM    6  C6  UNL     1     -48.893  -2.045 -20.476  1.00  0.00     0.299 C 
HETATM    7  O4  UNL     1     -48.862  -2.573 -19.433  1.00  0.00    -0.259 OA
BRANCH   6   8
HETATM    8  O5  UNL     1     -49.171  -0.666 -20.510  1.00  0.00    -0.270 OA
BRANCH   8   9
HETATM    9  C7  UNL     1     -50.362  -0.063 -20.505  1.00  0.00     0.143 A 
HETATM   10  C8  UNL     1     -51.032   0.202 -21.728  1.00  0.00     0.193 A 
HETATM   11  F1  UNL     1     -50.377  -0.156 -22.878  1.00  0.00    -0.200 F 
HETATM   12  C9  UNL     1     -52.254   0.803 -21.768  1.00  0.00     0.197 A 
HETATM   13  F2  UNL     1     -52.845   0.989 -23.007  1.00  0.00    -0.199 F 
HETATM   14  C10 UNL     1     -52.915   1.192 -20.641  1.00  0.00     0.171 A 
HETATM   15  F3  UNL     1     -54.122   1.778 -20.676  1.00  0.00    -0.202 F 
HETATM   16  C11 UNL     1     -52.289   0.955 -19.406  1.00  0.00     0.048 A 
HETATM   17  C13 UNL     1     -51.056   0.346 -19.390  1.00  0.00     0.086 A 
HETATM   18 CL1  UNL     1     -50.344   0.103 -17.803  1.00  0.00    -0.080 Cl
BRANCH  16  19
HETATM   19  C12 UNL     1     -53.004   1.379 -18.219  1.00  0.00     0.130 C 
HETATM   20  N1  UNL     1     -53.091   2.616 -17.923  1.00  0.00    -0.280 N 
ATOM     21  H1  UNL     1     -52.642   3.289 -18.546  1.00  0.00     0.193 HD
BRANCH  20  22
HETATM   22  O6  UNL     1     -53.737   3.092 -16.843  1.00  0.00    -0.290 OA
ATOM     23  H6  UNL     1     -53.306   3.369 -16.043  1.00  0.00     0.244 HD
ENDBRANCH  20  22
ENDBRANCH  16  19
ENDBRANCH   8   9
ENDBRANCH   6   8
ENDBRANCH   3   6
BRANCH   4  24
HETATM   24  O7  UNL     1     -46.990  -2.361 -23.478  1.00  0.00    -0.345 OA
ATOM     25  H7  UNL     1     -46.244  -2.915 -23.281  1.00  0.00     0.219 HD
ENDBRANCH   4  24
BRANCH   1  26
HETATM   26  C2  UNL     1     -51.239  -4.685 -23.801  1.00  0.00     0.313 C 
HETATM   27  O3  UNL     1     -51.129  -5.912 -24.024  1.00  0.00    -0.257 OA
BRANCH  26  28
HETATM   28  O2  UNL     1     -52.428  -4.035 -24.046  1.00  0.00    -0.247 OA
BRANCH  28  29
HETATM   29  C1  UNL     1     -52.440  -2.953 -24.954  1.00  0.00     0.406 C 
HETATM   30  O1  UNL     1     -52.560  -1.802 -24.452  1.00  0.00    -0.276 OA
ENDBRANCH  28  29
ENDBRANCH  26  28
ENDBRANCH   1  26
BRANCH   5  31
HETATM   31  C15 UNL     1     -48.564  -3.929 -25.247  1.00  0.00     0.041 A 
HETATM   32  C16 UNL     1     -48.808  -3.016 -26.291  1.00  0.00     0.030 A 
HETATM   33  C17 UNL     1     -48.360  -3.354 -27.549  1.00  0.00     0.002 A 
HETATM   34  C18 UNL     1     -47.702  -4.517 -27.822  1.00  0.00     0.000 A 
HETATM   35  C19 UNL     1     -47.443  -5.442 -26.813  1.00  0.00     0.002 A 
HETATM   36  C20 UNL     1     -47.902  -5.092 -25.525  1.00  0.00     0.030 A 
ENDBRANCH   5  31
TORSDOF 10
ENDMDL
MODEL 5
REMARK VINA RESULT: -7.667333534      2.587      3.814
REMARK  10 active torsions:
REMARK  status: ('A' for Active; 'I' for Inactive)
REMARK    1  A    between atoms: C1_2  and  O2_3 
REMARK    2  A    between atoms: O2_3  and  C2_4 
REMARK    3  A    between atoms: C2_4  and  C3_6 
REMARK    4  A    between atoms: C5_8  and  C6_9 
REMARK    5  A    between atoms: C6_9  and  O5_11 
REMARK    6  A    between atoms: O5_11  and  C7_12 
REMARK    7  A    between atoms: C11_19  and  C12_20 
REMARK    8  A    between atoms: N1_21  and  O6_23 
REMARK    9  A    between atoms: C14_27  and  O7_28 
REMARK   10  A    between atoms: N2_30  and  C15_31 
ROOT
HETATM    1  C3  UNL     1     -52.066  -2.034 -25.191  1.00  0.00     0.099 A 
HETATM    2  C4  UNL     1     -52.604  -1.229 -24.282  1.00  0.00     0.113 A 
HETATM    3  C5  UNL     1     -51.377  -0.826 -23.269  1.00  0.00     0.074 A 
HETATM    4  C14 UNL     1     -50.619  -1.460 -23.868  1.00  0.00     0.160 A 
HETATM    5  N2  UNL     1     -50.772  -2.218 -24.970  1.00  0.00    -0.289 N 
ENDROOT
BRANCH   3   6
HETATM    6  C6  UNL     1     -52.227   0.095 -22.328  1.00  0.00     0.299 C 
HETATM    7  O4  UNL     1     -52.506   1.229 -22.375  1.00  0.00    -0.259 OA
BRANCH   6   8
HETATM    8  O5  UNL     1     -52.726  -0.664 -21.251  1.00  0.00    -0.270 OA
BRANCH   8   9
HETATM    9  C7  UNL     1     -52.055  -1.155 -20.207  1.00  0.00     0.143 A 
HETATM   10  C8  UNL     1     -51.674  -2.521 -20.183  1.00  0.00     0.193 A 
HETATM   11  F1  UNL     1     -52.063  -3.286 -21.252  1.00  0.00    -0.200 F 
HETATM   12  C9  UNL     1     -50.979  -3.061 -19.143  1.00  0.00     0.197 A 
HETATM   13  F2  UNL     1     -50.621  -4.397 -19.226  1.00  0.00    -0.199 F 
HETATM   14  C10 UNL     1     -50.602  -2.328 -18.057  1.00  0.00     0.171 A 
HETATM   15  F3  UNL     1     -49.911  -2.854 -17.035  1.00  0.00    -0.202 F 
HETATM   16  C11 UNL     1     -50.961  -0.970 -18.033  1.00  0.00     0.048 A 
HETATM   17  C13 UNL     1     -51.663  -0.447 -19.094  1.00  0.00     0.086 A 
HETATM   18 CL1  UNL     1     -52.080   1.254 -18.971  1.00  0.00    -0.080 Cl
BRANCH  16  19
HETATM   19  C12 UNL     1     -50.557  -0.209 -16.868  1.00  0.00     0.130 C 
HETATM   20  N1  UNL     1     -49.424   0.373 -16.836  1.00  0.00    -0.280 N 
ATOM     21  H1  UNL     1     -48.818   0.283 -17.653  1.00  0.00     0.193 HD
BRANCH  20  22
HETATM   22  O6  UNL     1     -48.975   1.099 -15.796  1.00  0.00    -0.290 OA
ATOM     23  H6  UNL     1     -49.245   0.965 -14.895  1.00  0.00     0.244 HD
ENDBRANCH  20  22
ENDBRANCH  16  19
ENDBRANCH   8   9
ENDBRANCH   6   8
ENDBRANCH   3   6
BRANCH   4  24
HETATM   24  O7  UNL     1     -49.181  -1.461 -23.346  1.00  0.00    -0.345 OA
ATOM     25  H7  UNL     1     -48.510  -1.718 -23.967  1.00  0.00     0.219 HD
ENDBRANCH   4  24
BRANCH   1  26
HETATM   26  C2  UNL     1     -52.849  -2.596 -26.316  1.00  0.00     0.313 C 
HETATM   27  O3  UNL     1     -52.904  -3.832 -26.505  1.00  0.00    -0.257 OA
BRANCH  26  28
HETATM   28  O2  UNL     1     -53.512  -1.731 -27.157  1.00  0.00    -0.247 OA
BRANCH  28  29
HETATM   29  C1  UNL     1     -53.286  -1.823 -28.548  1.00  0.00     0.406 C 
HETATM   30  O1  UNL     1     -54.266  -2.190 -29.251  1.00  0.00    -0.276 OA
ENDBRANCH  28  29
ENDBRANCH  26  28
ENDBRANCH   1  26
BRANCH   5  31
HETATM   31  C15 UNL     1     -49.803  -2.959 -25.677  1.00  0.00     0.041 A 
HETATM   32  C16 UNL     1     -49.463  -4.250 -25.227  1.00  0.00     0.030 A 
HETATM   33  C17 UNL     1     -48.532  -4.953 -25.959  1.00  0.00     0.002 A 
HETATM   34  C18 UNL     1     -47.934  -4.460 -27.082  1.00  0.00     0.000 A 
HETATM   35  C19 UNL     1     -48.248  -3.188 -27.554  1.00  0.00     0.002 A 
HETATM   36  C20 UNL     1     -49.204  -2.470 -26.803  1.00  0.00     0.030 A 
ENDBRANCH   5  31
TORSDOF 10
ENDMDL
