MODEL 1
REMARK VINA RESULT: -7.326512336      0.000      0.000
REMARK  8 active torsions:
REMARK  status: ('A' for Active; 'I' for Inactive)
REMARK    1  A    between atoms: O1_2  and  C2_3 
REMARK    2  A    between atoms: C6_9  and  O2_10 
REMARK    3  A    between atoms: O2_10  and  C7_11 
REMARK    4  A    between atoms: C8_14  and  C9_15 
REMARK    5  A    between atoms: C10_20  and  S1_21 
REMARK    6  A    between atoms: S1_21  and  C11_22 
REMARK    7  A    between atoms: C12_27  and  N5_28 
REMARK    8  A    between atoms: N5_28  and  N6_30 
ROOT
HETATM    1  C7  UNL     1     -51.167  -1.642 -24.807  1.00  0.00     0.245 A 
HETATM    2  N1  UNL     1     -50.869  -2.804 -24.170  1.00  0.00    -0.303 N 
ATOM      3  H1  UNL     1     -50.345  -2.767 -23.295  1.00  0.00     0.171 HD
HETATM    4  C8  UNL     1     -51.239  -3.990 -24.653  1.00  0.00     0.177 A 
HETATM    5  N4  UNL     1     -51.928  -4.019 -25.806  1.00  0.00    -0.171 N 
ATOM      6  H4  UNL     1     -52.219  -4.919 -26.188  1.00  0.00     0.186 HD
HETATM    7  C12 UNL     1     -52.246  -2.886 -26.473  1.00  0.00     0.701 A 
HETATM    8  N7  UNL     1     -51.858  -1.714 -25.958  1.00  0.00    -0.153 N 
ATOM      9  H7  UNL     1     -52.091  -0.852 -26.452  1.00  0.00     0.188 HD
ENDROOT
BRANCH   1  10
HETATM   10  O2  UNL     1     -50.774  -0.414 -24.292  1.00  0.00    -0.275 OA
BRANCH  10  11
HETATM   11  C6  UNL     1     -51.116  -0.104 -22.990  1.00  0.00     0.127 A 
HETATM   12  C5  UNL     1     -52.331   0.495 -22.700  1.00  0.00     0.091 A 
HETATM   13  C4  UNL     1     -52.729   0.827 -21.432  1.00  0.00     0.061 A 
HETATM   14 CL2  UNL     1     -53.412   0.840 -24.033  1.00  0.00    -0.079 Cl
HETATM   15  C3  UNL     1     -51.880   0.556 -20.381  1.00  0.00     0.064 A 
HETATM   16 CL1  UNL     1     -54.275   1.583 -21.103  1.00  0.00    -0.082 Cl
HETATM   17  C2  UNL     1     -50.654  -0.041 -20.624  1.00  0.00     0.094 A 
HETATM   18  C13 UNL     1     -50.281  -0.365 -21.914  1.00  0.00     0.103 A 
HETATM   19 CL4  UNL     1     -48.726  -1.120 -22.195  1.00  0.00    -0.078 Cl
BRANCH  17  20
HETATM   20  O1  UNL     1     -49.797  -0.316 -19.569  1.00  0.00    -0.354 OA
HETATM   21  C1  UNL     1     -50.196  -0.323 -18.222  1.00  0.00     0.210 C 
ENDBRANCH  17  20
ENDBRANCH  10  11
ENDBRANCH   1  10
BRANCH   4  22
HETATM   22  C9  UNL     1     -50.900  -5.236 -23.938  1.00  0.00     0.210 A 
HETATM   23  N2  UNL     1     -51.060  -6.494 -24.389  1.00  0.00    -0.274 N 
HETATM   24  N3  UNL     1     -50.639  -7.332 -23.459  1.00  0.00    -0.272 N 
ATOM     25  H2  UNL     1     -51.442  -6.755 -25.297  1.00  0.00     0.189 HD
HETATM   26  C10 UNL     1     -50.208  -6.607 -22.408  1.00  0.00     0.204 A 
ATOM     27  H3  UNL     1     -50.641  -8.350 -23.526  1.00  0.00     0.189 HD
HETATM   28  O3  UNL     1     -50.384  -5.353 -22.739  1.00  0.00    -0.264 OA
BRANCH  26  29
HETATM   29  S1  UNL     1     -49.531  -7.265 -20.870  1.00  0.00    -0.070 SA
BRANCH  29  30
HETATM   30  C11 UNL     1     -49.196  -5.870 -19.756  1.00  0.00     0.197 C 
HETATM   31 CL3  UNL     1     -47.941  -4.811 -20.378  1.00  0.00    -0.119 Cl
ENDBRANCH  29  30
ENDBRANCH  26  29
ENDBRANCH   4  22
BRANCH   7  32
HETATM   32  N5  UNL     1     -52.910  -2.971 -27.576  1.00  0.00    -0.138 N 
ATOM     33  H5  UNL     1     -52.859  -3.830 -28.123  1.00  0.00     0.205 HD
BRANCH  32  34
HETATM   34  N6  UNL     1     -53.693  -1.920 -28.034  1.00  0.00    -0.331 N 
ATOM     35  H62 UNL     1     -53.735  -1.068 -27.473  1.00  0.00     0.177 HD
ATOM     36  H61 UNL     1     -54.216  -1.986 -28.908  1.00  0.00     0.177 HD
ENDBRANCH  32  34
ENDBRANCH   7  32
TORSDOF 8
ENDMDL
MODEL 2
REMARK VINA RESULT: -7.325777977      1.895      2.106
REMARK  8 active torsions:
REMARK  status: ('A' for Active; 'I' for Inactive)
REMARK    1  A    between atoms: O1_2  and  C2_3 
REMARK    2  A    between atoms: C6_9  and  O2_10 
REMARK    3  A    between atoms: O2_10  and  C7_11 
REMARK    4  A    between atoms: C8_14  and  C9_15 
REMARK    5  A    between atoms: C10_20  and  S1_21 
REMARK    6  A    between atoms: S1_21  and  C11_22 
REMARK    7  A    between atoms: C12_27  and  N5_28 
REMARK    8  A    between atoms: N5_28  and  N6_30 
ROOT
HETATM    1  C7  UNL     1     -51.235  -1.575 -24.992  1.00  0.00     0.245 A 
HETATM    2  N1  UNL     1     -50.854  -2.793 -24.530  1.00  0.00    -0.303 N 
ATOM      3  H1  UNL     1     -50.207  -2.843 -23.743  1.00  0.00     0.171 HD
HETATM    4  C8  UNL     1     -51.299  -3.926 -25.074  1.00  0.00     0.177 A 
HETATM    5  N4  UNL     1     -52.150  -3.842 -26.111  1.00  0.00    -0.171 N 
ATOM      6  H4  UNL     1     -52.500  -4.700 -26.538  1.00  0.00     0.186 HD
HETATM    7  C12 UNL     1     -52.555  -2.648 -26.602  1.00  0.00     0.701 A 
HETATM    8  N7  UNL     1     -52.087  -1.532 -26.031  1.00  0.00    -0.153 N 
ATOM      9  H7  UNL     1     -52.386  -0.626 -26.393  1.00  0.00     0.188 HD
ENDROOT
BRANCH   1  10
HETATM   10  O2  UNL     1     -50.763  -0.403 -24.415  1.00  0.00    -0.275 OA
BRANCH  10  11
HETATM   11  C6  UNL     1     -51.048  -0.159 -23.086  1.00  0.00     0.127 A 
HETATM   12  C5  UNL     1     -52.251   0.417 -22.714  1.00  0.00     0.091 A 
HETATM   13  C4  UNL     1     -52.594   0.684 -21.415  1.00  0.00     0.061 A 
HETATM   14 CL2  UNL     1     -53.391   0.821 -23.979  1.00  0.00    -0.079 Cl
HETATM   15  C3  UNL     1     -51.699   0.366 -20.416  1.00  0.00     0.064 A 
HETATM   16 CL1  UNL     1     -54.127   1.412 -20.981  1.00  0.00    -0.082 Cl
HETATM   17  C2  UNL     1     -50.482  -0.211 -20.743  1.00  0.00     0.094 A 
HETATM   18  C13 UNL     1     -50.165  -0.469 -22.062  1.00  0.00     0.103 A 
HETATM   19 CL4  UNL     1     -48.622  -1.199 -22.448  1.00  0.00    -0.078 Cl
BRANCH  17  20
HETATM   20  O1  UNL     1     -49.578  -0.533 -19.741  1.00  0.00    -0.354 OA
HETATM   21  C1  UNL     1     -49.677  -1.684 -18.941  1.00  0.00     0.210 C 
ENDBRANCH  17  20
ENDBRANCH  10  11
ENDBRANCH   1  10
BRANCH   4  22
HETATM   22  C9  UNL     1     -50.866  -5.237 -24.550  1.00  0.00     0.210 A 
HETATM   23  N2  UNL     1     -51.631  -6.142 -23.912  1.00  0.00    -0.274 N 
HETATM   24  N3  UNL     1     -50.881  -7.183 -23.600  1.00  0.00    -0.272 N 
ATOM     25  H2  UNL     1     -52.624  -6.041 -23.705  1.00  0.00     0.189 HD
HETATM   26  C10 UNL     1     -49.630  -6.943 -24.040  1.00  0.00     0.204 A 
ATOM     27  H3  UNL     1     -51.193  -8.022 -23.112  1.00  0.00     0.189 HD
HETATM   28  O3  UNL     1     -49.667  -5.761 -24.604  1.00  0.00    -0.264 OA
BRANCH  26  29
HETATM   29  S1  UNL     1     -48.213  -8.047 -23.870  1.00  0.00    -0.070 SA
BRANCH  29  30
HETATM   30  C11 UNL     1     -48.019  -8.965 -25.426  1.00  0.00     0.197 C 
HETATM   31 CL3  UNL     1     -49.492  -8.967 -26.382  1.00  0.00    -0.119 Cl
ENDBRANCH  29  30
ENDBRANCH  26  29
ENDBRANCH   4  22
BRANCH   7  32
HETATM   32  N5  UNL     1     -53.374  -2.625 -27.599  1.00  0.00    -0.138 N 
ATOM     33  H5  UNL     1     -54.338  -2.923 -27.458  1.00  0.00     0.205 HD
BRANCH  32  34
HETATM   34  N6  UNL     1     -52.970  -2.202 -28.859  1.00  0.00    -0.331 N 
ATOM     35  H62 UNL     1     -52.053  -2.497 -29.197  1.00  0.00     0.177 HD
ATOM     36  H61 UNL     1     -53.567  -1.613 -29.440  1.00  0.00     0.177 HD
ENDBRANCH  32  34
ENDBRANCH   7  32
TORSDOF 8
ENDMDL
MODEL 3
REMARK VINA RESULT: -7.224712205      4.767      7.002
REMARK  8 active torsions:
REMARK  status: ('A' for Active; 'I' for Inactive)
REMARK    1  A    between atoms: O1_2  and  C2_3 
REMARK    2  A    between atoms: C6_9  and  O2_10 
REMARK    3  A    between atoms: O2_10  and  C7_11 
REMARK    4  A    between atoms: C8_14  and  C9_15 
REMARK    5  A    between atoms: C10_20  and  S1_21 
REMARK    6  A    between atoms: S1_21  and  C11_22 
REMARK    7  A    between atoms: C12_27  and  N5_28 
REMARK    8  A    between atoms: N5_28  and  N6_30 
ROOT
HETATM    1  C7  UNL     1     -51.815   0.322 -21.518  1.00  0.00     0.245 A 
HETATM    2  N1  UNL     1     -51.804   0.571 -20.183  1.00  0.00    -0.303 N 
ATOM      3  H1  UNL     1     -51.029   0.220 -19.621  1.00  0.00     0.171 HD
HETATM    4  C8  UNL     1     -52.778   1.259 -19.585  1.00  0.00     0.177 A 
HETATM    5  N4  UNL     1     -53.792   1.712 -20.341  1.00  0.00    -0.171 N 
ATOM      6  H4  UNL     1     -54.544   2.240 -19.898  1.00  0.00     0.186 HD
HETATM    7  C12 UNL     1     -53.841   1.486 -21.674  1.00  0.00     0.701 A 
HETATM    8  N7  UNL     1     -52.847   0.793 -22.240  1.00  0.00    -0.153 N 
ATOM      9  H7  UNL     1     -52.873   0.616 -23.244  1.00  0.00     0.188 HD
ENDROOT
BRANCH   1  10
HETATM   10  O2  UNL     1     -50.794  -0.396 -22.127  1.00  0.00    -0.275 OA
BRANCH  10  11
HETATM   11  C6  UNL     1     -51.067  -1.668 -22.591  1.00  0.00     0.127 A 
HETATM   12  C5  UNL     1     -51.357  -1.888 -23.927  1.00  0.00     0.091 A 
HETATM   13  C4  UNL     1     -51.636  -3.124 -24.449  1.00  0.00     0.061 A 
HETATM   14 CL2  UNL     1     -51.364  -0.506 -25.001  1.00  0.00    -0.079 Cl
HETATM   15  C3  UNL     1     -51.630  -4.214 -23.606  1.00  0.00     0.064 A 
HETATM   16 CL1  UNL     1     -51.997  -3.364 -26.146  1.00  0.00    -0.082 Cl
HETATM   17  C2  UNL     1     -51.346  -4.040 -22.261  1.00  0.00     0.094 A 
HETATM   18  C13 UNL     1     -51.068  -2.782 -21.764  1.00  0.00     0.103 A 
HETATM   19 CL4  UNL     1     -50.711  -2.590 -20.061  1.00  0.00    -0.078 Cl
BRANCH  17  20
HETATM   20  O1  UNL     1     -51.339  -5.135 -21.409  1.00  0.00    -0.354 OA
HETATM   21  C1  UNL     1     -50.284  -6.059 -21.335  1.00  0.00     0.210 C 
ENDBRANCH  17  20
ENDBRANCH  10  11
ENDBRANCH   1  10
BRANCH   4  22
HETATM   22  C9  UNL     1     -52.739   1.513 -18.131  1.00  0.00     0.210 A 
HETATM   23  N2  UNL     1     -53.425   2.456 -17.460  1.00  0.00    -0.274 N 
HETATM   24  N3  UNL     1     -53.122   2.365 -16.177  1.00  0.00    -0.272 N 
ATOM     25  H2  UNL     1     -54.071   3.128 -17.872  1.00  0.00     0.189 HD
HETATM   26  C10 UNL     1     -52.238   1.358 -16.028  1.00  0.00     0.204 A 
ATOM     27  H3  UNL     1     -53.492   2.953 -15.431  1.00  0.00     0.189 HD
HETATM   28  O3  UNL     1     -52.036   0.876 -17.228  1.00  0.00    -0.264 OA
BRANCH  26  29
HETATM   29  S1  UNL     1     -51.500   0.814 -14.474  1.00  0.00    -0.070 SA
BRANCH  29  30
HETATM   30  C11 UNL     1     -52.680  -0.290 -13.643  1.00  0.00     0.197 C 
HETATM   31 CL3  UNL     1     -52.319  -1.984 -13.929  1.00  0.00    -0.119 Cl
ENDBRANCH  29  30
ENDBRANCH  26  29
ENDBRANCH   4  22
BRANCH   7  32
HETATM   32  N5  UNL     1     -54.838   1.946 -22.352  1.00  0.00    -0.138 N 
ATOM     33  H5  UNL     1     -55.457   2.634 -21.924  1.00  0.00     0.205 HD
BRANCH  32  34
HETATM   34  N6  UNL     1     -55.086   1.523 -23.652  1.00  0.00    -0.331 N 
ATOM     35  H62 UNL     1     -54.589   1.986 -24.413  1.00  0.00     0.177 HD
ATOM     36  H61 UNL     1     -55.746   0.771 -23.850  1.00  0.00     0.177 HD
ENDBRANCH  32  34
ENDBRANCH   7  32
TORSDOF 8
ENDMDL
MODEL 4
REMARK VINA RESULT: -7.176856247      2.212      3.216
REMARK  8 active torsions:
REMARK  status: ('A' for Active; 'I' for Inactive)
REMARK    1  A    between atoms: O1_2  and  C2_3 
REMARK    2  A    between atoms: C6_9  and  O2_10 
REMARK    3  A    between atoms: O2_10  and  C7_11 
REMARK    4  A    between atoms: C8_14  and  C9_15 
REMARK    5  A    between atoms: C10_20  and  S1_21 
REMARK    6  A    between atoms: S1_21  and  C11_22 
REMARK    7  A    between atoms: C12_27  and  N5_28 
REMARK    8  A    between atoms: N5_28  and  N6_30 
ROOT
HETATM    1  C7  UNL     1     -51.246  -1.622 -24.992  1.00  0.00     0.245 A 
HETATM    2  N1  UNL     1     -50.862  -2.845 -24.543  1.00  0.00    -0.303 N 
ATOM      3  H1  UNL     1     -50.222  -2.903 -23.750  1.00  0.00     0.171 HD
HETATM    4  C8  UNL     1     -51.296  -3.973 -25.107  1.00  0.00     0.177 A 
HETATM    5  N4  UNL     1     -52.137  -3.878 -26.151  1.00  0.00    -0.171 N 
ATOM      6  H4  UNL     1     -52.478  -4.732 -26.593  1.00  0.00     0.186 HD
HETATM    7  C12 UNL     1     -52.544  -2.680 -26.629  1.00  0.00     0.701 A 
HETATM    8  N7  UNL     1     -52.089  -1.570 -26.038  1.00  0.00    -0.153 N 
ATOM      9  H7  UNL     1     -52.389  -0.660 -26.390  1.00  0.00     0.188 HD
ENDROOT
BRANCH   1  10
HETATM   10  O2  UNL     1     -50.786  -0.456 -24.394  1.00  0.00    -0.275 OA
BRANCH  10  11
HETATM   11  C6  UNL     1     -51.146  -0.198 -23.085  1.00  0.00     0.127 A 
HETATM   12  C5  UNL     1     -50.301  -0.530 -22.040  1.00  0.00     0.091 A 
HETATM   13  C4  UNL     1     -50.598  -0.301 -20.722  1.00  0.00     0.061 A 
HETATM   14 CL2  UNL     1     -48.769  -1.280 -22.433  1.00  0.00    -0.079 Cl
HETATM   15  C3  UNL     1     -51.803   0.291 -20.410  1.00  0.00     0.064 A 
HETATM   16 CL1  UNL     1     -49.502  -0.733 -19.426  1.00  0.00    -0.082 Cl
HETATM   17  C2  UNL     1     -52.681   0.639 -21.425  1.00  0.00     0.094 A 
HETATM   18  C13 UNL     1     -52.352   0.395 -22.744  1.00  0.00     0.103 A 
HETATM   19 CL4  UNL     1     -53.478   0.845 -24.007  1.00  0.00    -0.078 Cl
BRANCH  17  20
HETATM   20  O1  UNL     1     -53.895   1.234 -21.115  1.00  0.00    -0.354 OA
HETATM   21  C1  UNL     1     -54.039   2.599 -20.815  1.00  0.00     0.210 C 
ENDBRANCH  17  20
ENDBRANCH  10  11
ENDBRANCH   1  10
BRANCH   4  22
HETATM   22  C9  UNL     1     -50.860  -5.288 -24.597  1.00  0.00     0.210 A 
HETATM   23  N2  UNL     1     -51.618  -6.193 -23.950  1.00  0.00    -0.274 N 
HETATM   24  N3  UNL     1     -50.868  -7.239 -23.657  1.00  0.00    -0.272 N 
ATOM     25  H2  UNL     1     -52.607  -6.087 -23.724  1.00  0.00     0.189 HD
HETATM   26  C10 UNL     1     -49.624  -7.003 -24.120  1.00  0.00     0.204 A 
ATOM     27  H3  UNL     1     -51.176  -8.079 -23.167  1.00  0.00     0.189 HD
HETATM   28  O3  UNL     1     -49.665  -5.819 -24.677  1.00  0.00    -0.264 OA
BRANCH  26  29
HETATM   29  S1  UNL     1     -48.210  -8.116 -23.982  1.00  0.00    -0.070 SA
BRANCH  29  30
HETATM   30  C11 UNL     1     -48.050  -9.026 -25.546  1.00  0.00     0.197 C 
HETATM   31 CL3  UNL     1     -49.532  -8.995 -26.486  1.00  0.00    -0.119 Cl
ENDBRANCH  29  30
ENDBRANCH  26  29
ENDBRANCH   4  22
BRANCH   7  32
HETATM   32  N5  UNL     1     -53.354  -2.647 -27.633  1.00  0.00    -0.138 N 
ATOM     33  H5  UNL     1     -54.312  -2.976 -27.511  1.00  0.00     0.205 HD
BRANCH  32  34
HETATM   34  N6  UNL     1     -52.950  -2.174 -28.875  1.00  0.00    -0.331 N 
ATOM     35  H62 UNL     1     -53.438  -1.367 -29.266  1.00  0.00     0.177 HD
ATOM     36  H61 UNL     1     -52.187  -2.614 -29.390  1.00  0.00     0.177 HD
ENDBRANCH  32  34
ENDBRANCH   7  32
TORSDOF 8
ENDMDL
MODEL 5
REMARK VINA RESULT: -7.100075179      4.642      6.941
REMARK  8 active torsions:
REMARK  status: ('A' for Active; 'I' for Inactive)
REMARK    1  A    between atoms: O1_2  and  C2_3 
REMARK    2  A    between atoms: C6_9  and  O2_10 
REMARK    3  A    between atoms: O2_10  and  C7_11 
REMARK    4  A    between atoms: C8_14  and  C9_15 
REMARK    5  A    between atoms: C10_20  and  S1_21 
REMARK    6  A    between atoms: S1_21  and  C11_22 
REMARK    7  A    between atoms: C12_27  and  N5_28 
REMARK    8  A    between atoms: N5_28  and  N6_30 
ROOT
HETATM    1  C7  UNL     1     -51.831   0.285 -21.527  1.00  0.00     0.245 A 
HETATM    2  N1  UNL     1     -51.800   0.528 -20.191  1.00  0.00    -0.303 N 
ATOM      3  H1  UNL     1     -51.019   0.169 -19.642  1.00  0.00     0.171 HD
HETATM    4  C8  UNL     1     -52.760   1.221 -19.577  1.00  0.00     0.177 A 
HETATM    5  N4  UNL     1     -53.781   1.686 -20.316  1.00  0.00    -0.171 N 
ATOM      6  H4  UNL     1     -54.522   2.218 -19.860  1.00  0.00     0.186 HD
HETATM    7  C12 UNL     1     -53.850   1.466 -21.649  1.00  0.00     0.701 A 
HETATM    8  N7  UNL     1     -52.870   0.767 -22.232  1.00  0.00    -0.153 N 
ATOM      9  H7  UNL     1     -52.911   0.595 -23.237  1.00  0.00     0.188 HD
ENDROOT
BRANCH   1  10
HETATM   10  O2  UNL     1     -50.825  -0.438 -22.154  1.00  0.00    -0.275 OA
BRANCH  10  11
HETATM   11  C6  UNL     1     -51.108  -1.714 -22.601  1.00  0.00     0.127 A 
HETATM   12  C5  UNL     1     -51.444  -1.941 -23.925  1.00  0.00     0.091 A 
HETATM   13  C4  UNL     1     -51.736  -3.180 -24.431  1.00  0.00     0.061 A 
HETATM   14 CL2  UNL     1     -51.495  -0.564 -25.005  1.00  0.00    -0.079 Cl
HETATM   15  C3  UNL     1     -51.696  -4.266 -23.583  1.00  0.00     0.064 A 
HETATM   16 CL1  UNL     1     -52.156  -3.430 -26.113  1.00  0.00    -0.082 Cl
HETATM   17  C2  UNL     1     -51.365  -4.085 -22.250  1.00  0.00     0.094 A 
HETATM   18  C13 UNL     1     -51.076  -2.823 -21.770  1.00  0.00     0.103 A 
HETATM   19 CL4  UNL     1     -50.660  -2.621 -20.081  1.00  0.00    -0.078 Cl
BRANCH  17  20
HETATM   20  O1  UNL     1     -51.324  -5.175 -21.393  1.00  0.00    -0.354 OA
HETATM   21  C1  UNL     1     -50.267  -6.100 -21.360  1.00  0.00     0.210 C 
ENDBRANCH  17  20
ENDBRANCH  10  11
ENDBRANCH   1  10
BRANCH   4  22
HETATM   22  C9  UNL     1     -52.698   1.468 -18.122  1.00  0.00     0.210 A 
HETATM   23  N2  UNL     1     -53.426   2.360 -17.426  1.00  0.00    -0.274 N 
HETATM   24  N3  UNL     1     -53.083   2.281 -16.152  1.00  0.00    -0.272 N 
ATOM     25  H2  UNL     1     -54.126   2.991 -17.815  1.00  0.00     0.189 HD
HETATM   26  C10 UNL     1     -52.131   1.334 -16.035  1.00  0.00     0.204 A 
ATOM     27  H3  UNL     1     -53.471   2.839 -15.392  1.00  0.00     0.189 HD
HETATM   28  O3  UNL     1     -51.931   0.873 -17.244  1.00  0.00    -0.264 OA
BRANCH  26  29
HETATM   29  S1  UNL     1     -51.318   0.830 -14.505  1.00  0.00    -0.070 SA
BRANCH  29  30
HETATM   30  C11 UNL     1     -49.607   0.364 -14.900  1.00  0.00     0.197 C 
HETATM   31 CL3  UNL     1     -48.657   1.733 -15.451  1.00  0.00    -0.119 Cl
ENDBRANCH  29  30
ENDBRANCH  26  29
ENDBRANCH   4  22
BRANCH   7  32
HETATM   32  N5  UNL     1     -54.853   1.936 -22.311  1.00  0.00    -0.138 N 
ATOM     33  H5  UNL     1     -55.487   2.592 -21.856  1.00  0.00     0.205 HD
BRANCH  32  34
HETATM   34  N6  UNL     1     -55.087   1.569 -23.631  1.00  0.00    -0.331 N 
ATOM     35  H62 UNL     1     -55.280   2.306 -24.310  1.00  0.00     0.177 HD
ATOM     36  H61 UNL     1     -55.067   0.591 -23.923  1.00  0.00     0.177 HD
ENDBRANCH  32  34
ENDBRANCH   7  32
TORSDOF 8
ENDMDL
