MODEL 1
REMARK VINA RESULT: -5.938256801      0.000      0.000
REMARK  8 active torsions:
REMARK  status: ('A' for Active; 'I' for Inactive)
REMARK    1  A    between atoms: C2_2  and  C3_3 
REMARK    2  A    between atoms: C3_3  and  N1_4 
REMARK    3  A    between atoms: N1_4  and  C4_7 
REMARK    4  A    between atoms: C4_7  and  C5_8 
REMARK    5  A    between atoms: C5_8  and  C6_9 
REMARK    6  A    between atoms: C6_9  and  N2_10 
REMARK    7  A    between atoms: N2_10  and  N3_11 
REMARK    8  A    between atoms: C11_22  and  N6_23 
ROOT
HETATM    1  C1  UNL     1     175.604  16.728  86.230  1.00  0.00     0.048 C 
HETATM    2  C2  UNL     1     174.636  16.116  85.263  1.00  0.00     0.090 C 
HETATM    3  C7  UNL     1     174.679  14.642  85.438  1.00  0.00     0.045 C 
HETATM    4  C8  UNL     1     173.360  13.956  85.408  1.00  0.00     0.050 C 
HETATM    5  C9  UNL     1     172.279  14.751  84.834  1.00  0.00     0.039 A 
HETATM    6  C10 UNL     1     172.267  16.150  84.930  1.00  0.00     0.168 A 
HETATM    7  N4  UNL     1     171.141  16.578  84.315  1.00  0.00    -0.278 N 
ATOM      8  H4  UNL     1     170.852  17.552  84.221  1.00  0.00     0.189 HD
HETATM    9  N5  UNL     1     170.479  15.536  83.858  1.00  0.00    -0.283 N 
ATOM     10  H5  UNL     1     169.593  15.581  83.354  1.00  0.00     0.188 HD
HETATM   11  C11 UNL     1     171.145  14.396  84.157  1.00  0.00     0.124 A 
HETATM   12  O1  UNL     1     173.357  16.706  85.596  1.00  0.00    -0.322 OA
ENDROOT
BRANCH   2  13
HETATM   13  C3  UNL     1     174.903  16.460  83.838  1.00  0.00     0.270 C 
BRANCH  13  14
HETATM   14  N1  UNL     1     175.971  15.770  83.216  1.00  0.00    -0.072 N 
ATOM     15  H12 UNL     1     176.319  15.012  83.803  1.00  0.00     0.277 HD
ATOM     16  H11 UNL     1     175.648  15.216  82.423  1.00  0.00     0.277 HD
BRANCH  14  17
HETATM   17  C4  UNL     1     177.035  16.679  82.834  1.00  0.00     0.238 C 
BRANCH  17  18
HETATM   18  C5  UNL     1     178.396  16.036  83.134  1.00  0.00     0.089 C 
BRANCH  18  19
HETATM   19  C6  UNL     1     178.161  14.962  84.157  1.00  0.00     0.182 C 
BRANCH  19  20
HETATM   20  N2  UNL     1     178.028  13.786  83.738  1.00  0.00    -0.350 NA
BRANCH  20  21
HETATM   21  N3  UNL     1     177.658  12.606  83.500  1.00  0.00    -0.281 N 
ATOM     22  H32 UNL     1     178.531  12.220  83.860  1.00  0.00     0.191 HD
ATOM     23  H31 UNL     1     177.157  11.760  83.226  1.00  0.00     0.191 HD
ENDBRANCH  20  21
ENDBRANCH  19  20
ENDBRANCH  18  19
ENDBRANCH  17  18
ENDBRANCH  14  17
ENDBRANCH  13  14
ENDBRANCH   2  13
BRANCH  11  24
HETATM   24  N6  UNL     1     170.721  13.201  83.826  1.00  0.00    -0.384 N 
ATOM     25  H62 UNL     1     170.971  12.736  82.954  1.00  0.00     0.157 HD
ATOM     26  H61 UNL     1     170.110  12.571  84.345  1.00  0.00     0.157 HD
ENDBRANCH  11  24
TORSDOF 8
ENDMDL
MODEL 2
REMARK VINA RESULT: -5.895876319      2.575      4.221
REMARK  8 active torsions:
REMARK  status: ('A' for Active; 'I' for Inactive)
REMARK    1  A    between atoms: C2_2  and  C3_3 
REMARK    2  A    between atoms: C3_3  and  N1_4 
REMARK    3  A    between atoms: N1_4  and  C4_7 
REMARK    4  A    between atoms: C4_7  and  C5_8 
REMARK    5  A    between atoms: C5_8  and  C6_9 
REMARK    6  A    between atoms: C6_9  and  N2_10 
REMARK    7  A    between atoms: N2_10  and  N3_11 
REMARK    8  A    between atoms: C11_22  and  N6_23 
ROOT
HETATM    1  C1  UNL     1     170.254  16.031  83.351  1.00  0.00     0.048 C 
HETATM    2  C2  UNL     1     171.454  15.647  84.164  1.00  0.00     0.090 C 
HETATM    3  C7  UNL     1     171.159  14.359  84.840  1.00  0.00     0.045 C 
HETATM    4  C8  UNL     1     172.274  13.374  84.854  1.00  0.00     0.050 C 
HETATM    5  C9  UNL     1     173.585  13.943  84.559  1.00  0.00     0.039 A 
HETATM    6  C10 UNL     1     173.729  15.057  83.719  1.00  0.00     0.168 A 
HETATM    7  N4  UNL     1     175.052  15.325  83.642  1.00  0.00    -0.278 N 
ATOM      8  H4  UNL     1     175.472  16.082  83.102  1.00  0.00     0.189 HD
HETATM    9  N5  UNL     1     175.710  14.452  84.375  1.00  0.00    -0.283 N 
ATOM     10  H5  UNL     1     176.724  14.431  84.490  1.00  0.00     0.188 HD
HETATM   11  C11 UNL     1     174.845  13.588  84.955  1.00  0.00     0.124 A 
HETATM   12  O1  UNL     1     172.538  15.570  83.209  1.00  0.00    -0.322 OA
ENDROOT
BRANCH   2  13
HETATM   13  C3  UNL     1     171.852  16.666  85.175  1.00  0.00     0.270 C 
BRANCH  13  14
HETATM   14  N1  UNL     1     171.837  18.015  84.745  1.00  0.00    -0.072 N 
ATOM     15  H12 UNL     1     171.500  18.098  83.786  1.00  0.00     0.277 HD
ATOM     16  H11 UNL     1     171.106  18.550  85.214  1.00  0.00     0.277 HD
BRANCH  14  17
HETATM   17  C4  UNL     1     173.138  18.635  84.908  1.00  0.00     0.238 C 
BRANCH  17  18
HETATM   18  C5  UNL     1     173.918  17.914  86.016  1.00  0.00     0.089 C 
BRANCH  18  19
HETATM   19  C6  UNL     1     175.378  18.123  85.737  1.00  0.00     0.182 C 
BRANCH  19  20
HETATM   20  N2  UNL     1     176.169  17.213  86.086  1.00  0.00    -0.350 NA
BRANCH  20  21
HETATM   21  N3  UNL     1     177.107  16.525  86.568  1.00  0.00    -0.281 N 
ATOM     22  H32 UNL     1     177.525  17.342  87.015  1.00  0.00     0.191 HD
ATOM     23  H31 UNL     1     177.754  15.787  86.846  1.00  0.00     0.191 HD
ENDBRANCH  20  21
ENDBRANCH  19  20
ENDBRANCH  18  19
ENDBRANCH  17  18
ENDBRANCH  14  17
ENDBRANCH  13  14
ENDBRANCH   2  13
BRANCH  11  24
HETATM   24  N6  UNL     1     175.216  12.608  85.742  1.00  0.00    -0.384 N 
ATOM     25  H62 UNL     1     175.023  12.585  86.743  1.00  0.00     0.157 HD
ATOM     26  H61 UNL     1     175.728  11.758  85.510  1.00  0.00     0.157 HD
ENDBRANCH  11  24
TORSDOF 8
ENDMDL
MODEL 3
REMARK VINA RESULT: -5.834918104      1.564      2.047
REMARK  8 active torsions:
REMARK  status: ('A' for Active; 'I' for Inactive)
REMARK    1  A    between atoms: C2_2  and  C3_3 
REMARK    2  A    between atoms: C3_3  and  N1_4 
REMARK    3  A    between atoms: N1_4  and  C4_7 
REMARK    4  A    between atoms: C4_7  and  C5_8 
REMARK    5  A    between atoms: C5_8  and  C6_9 
REMARK    6  A    between atoms: C6_9  and  N2_10 
REMARK    7  A    between atoms: N2_10  and  N3_11 
REMARK    8  A    between atoms: C11_22  and  N6_23 
ROOT
HETATM    1  C1  UNL     1     174.017  13.953  85.515  1.00  0.00     0.048 C 
HETATM    2  C2  UNL     1     173.297  14.880  84.582  1.00  0.00     0.090 C 
HETATM    3  C7  UNL     1     172.582  14.055  83.575  1.00  0.00     0.045 C 
HETATM    4  C8  UNL     1     171.206  14.509  83.238  1.00  0.00     0.050 C 
HETATM    5  C9  UNL     1     170.909  15.881  83.636  1.00  0.00     0.039 A 
HETATM    6  C10 UNL     1     171.516  16.468  84.755  1.00  0.00     0.168 A 
HETATM    7  N4  UNL     1     171.026  17.724  84.857  1.00  0.00    -0.278 N 
ATOM      8  H4  UNL     1     171.279  18.402  85.576  1.00  0.00     0.189 HD
HETATM    9  N5  UNL     1     170.168  17.931  83.879  1.00  0.00    -0.283 N 
ATOM     10  H5  UNL     1     169.654  18.799  83.725  1.00  0.00     0.188 HD
HETATM   11  C11 UNL     1     170.070  16.823  83.108  1.00  0.00     0.124 A 
HETATM   12  O1  UNL     1     172.417  15.652  85.434  1.00  0.00    -0.322 OA
ENDROOT
BRANCH   2  13
HETATM   13  C3  UNL     1     174.185  15.857  83.893  1.00  0.00     0.270 C 
BRANCH  13  14
HETATM   14  N1  UNL     1     175.465  15.384  83.517  1.00  0.00    -0.072 N 
ATOM     15  H12 UNL     1     175.833  14.720  84.197  1.00  0.00     0.277 HD
ATOM     16  H11 UNL     1     175.412  14.765  82.708  1.00  0.00     0.277 HD
BRANCH  14  17
HETATM   17  C4  UNL     1     176.386  16.480  83.289  1.00  0.00     0.238 C 
BRANCH  17  18
HETATM   18  C5  UNL     1     177.802  15.928  83.074  1.00  0.00     0.089 C 
BRANCH  18  19
HETATM   19  C6  UNL     1     178.035  14.885  84.129  1.00  0.00     0.182 C 
BRANCH  19  20
HETATM   20  N2  UNL     1     177.982  13.682  83.773  1.00  0.00    -0.350 NA
BRANCH  20  21
HETATM   21  N3  UNL     1     177.646  12.498  83.510  1.00  0.00    -0.281 N 
ATOM     22  H32 UNL     1     176.845  12.808  82.960  1.00  0.00     0.191 HD
ATOM     23  H31 UNL     1     177.568  11.483  83.432  1.00  0.00     0.191 HD
ENDBRANCH  20  21
ENDBRANCH  19  20
ENDBRANCH  18  19
ENDBRANCH  17  18
ENDBRANCH  14  17
ENDBRANCH  13  14
ENDBRANCH   2  13
BRANCH  11  24
HETATM   24  N6  UNL     1     169.289  16.737  82.059  1.00  0.00    -0.384 N 
ATOM     25  H62 UNL     1     169.608  16.424  81.142  1.00  0.00     0.157 HD
ATOM     26  H61 UNL     1     168.296  16.955  81.979  1.00  0.00     0.157 HD
ENDBRANCH  11  24
TORSDOF 8
ENDMDL
MODEL 4
REMARK VINA RESULT: -5.732883773      2.042      2.988
REMARK  8 active torsions:
REMARK  status: ('A' for Active; 'I' for Inactive)
REMARK    1  A    between atoms: C2_2  and  C3_3 
REMARK    2  A    between atoms: C3_3  and  N1_4 
REMARK    3  A    between atoms: N1_4  and  C4_7 
REMARK    4  A    between atoms: C4_7  and  C5_8 
REMARK    5  A    between atoms: C5_8  and  C6_9 
REMARK    6  A    between atoms: C6_9  and  N2_10 
REMARK    7  A    between atoms: N2_10  and  N3_11 
REMARK    8  A    between atoms: C11_22  and  N6_23 
ROOT
HETATM    1  C1  UNL     1     174.989  19.119  83.832  1.00  0.00     0.048 C 
HETATM    2  C2  UNL     1     174.681  17.871  84.604  1.00  0.00     0.090 C 
HETATM    3  C7  UNL     1     173.244  17.901  84.975  1.00  0.00     0.045 C 
HETATM    4  C8  UNL     1     172.520  16.609  84.834  1.00  0.00     0.050 C 
HETATM    5  C9  UNL     1     173.387  15.440  84.734  1.00  0.00     0.039 A 
HETATM    6  C10 UNL     1     174.664  15.521  84.159  1.00  0.00     0.168 A 
HETATM    7  N4  UNL     1     175.198  14.279  84.208  1.00  0.00    -0.278 N 
ATOM      8  H4  UNL     1     176.122  14.019  83.863  1.00  0.00     0.189 HD
HETATM    9  N5  UNL     1     174.334  13.462  84.771  1.00  0.00    -0.283 N 
ATOM     10  H5  UNL     1     174.488  12.466  84.930  1.00  0.00     0.188 HD
HETATM   11  C11 UNL     1     173.210  14.137  85.109  1.00  0.00     0.124 A 
HETATM   12  O1  UNL     1     175.031  16.787  83.710  1.00  0.00    -0.322 OA
ENDROOT
BRANCH   2  13
HETATM   13  C3  UNL     1     175.512  17.695  85.828  1.00  0.00     0.270 C 
BRANCH  13  14
HETATM   14  N1  UNL     1     176.906  17.887  85.671  1.00  0.00    -0.072 N 
ATOM     15  H12 UNL     1     177.178  17.874  84.689  1.00  0.00     0.277 HD
ATOM     16  H11 UNL     1     177.181  18.842  85.897  1.00  0.00     0.277 HD
BRANCH  14  17
HETATM   17  C4  UNL     1     177.661  16.919  86.445  1.00  0.00     0.238 C 
BRANCH  17  18
HETATM   18  C5  UNL     1     178.913  16.498  85.664  1.00  0.00     0.089 C 
BRANCH  18  19
HETATM   19  C6  UNL     1     178.497  15.410  84.715  1.00  0.00     0.182 C 
BRANCH  19  20
HETATM   20  N2  UNL     1     178.231  15.744  83.535  1.00  0.00    -0.350 NA
BRANCH  20  21
HETATM   21  N3  UNL     1     177.807  16.295  82.485  1.00  0.00    -0.281 N 
ATOM     22  H32 UNL     1     176.843  16.270  82.817  1.00  0.00     0.191 HD
ATOM     23  H31 UNL     1     177.698  16.738  81.573  1.00  0.00     0.191 HD
ENDBRANCH  20  21
ENDBRANCH  19  20
ENDBRANCH  18  19
ENDBRANCH  17  18
ENDBRANCH  14  17
ENDBRANCH  13  14
ENDBRANCH   2  13
BRANCH  11  24
HETATM   24  N6  UNL     1     172.175  13.579  85.687  1.00  0.00    -0.384 N 
ATOM     25  H62 UNL     1     171.765  13.916  86.558  1.00  0.00     0.157 HD
ATOM     26  H61 UNL     1     171.635  12.766  85.390  1.00  0.00     0.157 HD
ENDBRANCH  11  24
TORSDOF 8
ENDMDL
MODEL 5
REMARK VINA RESULT: -5.665339755      1.819      5.036
REMARK  8 active torsions:
REMARK  status: ('A' for Active; 'I' for Inactive)
REMARK    1  A    between atoms: C2_2  and  C3_3 
REMARK    2  A    between atoms: C3_3  and  N1_4 
REMARK    3  A    between atoms: N1_4  and  C4_7 
REMARK    4  A    between atoms: C4_7  and  C5_8 
REMARK    5  A    between atoms: C5_8  and  C6_9 
REMARK    6  A    between atoms: C6_9  and  N2_10 
REMARK    7  A    between atoms: N2_10  and  N3_11 
REMARK    8  A    between atoms: C11_22  and  N6_23 
ROOT
HETATM    1  C1  UNL     1     173.966  18.860  86.810  1.00  0.00     0.048 C 
HETATM    2  C2  UNL     1     174.388  17.890  85.747  1.00  0.00     0.090 C 
HETATM    3  C7  UNL     1     175.609  18.425  85.094  1.00  0.00     0.045 C 
HETATM    4  C8  UNL     1     176.670  17.423  84.805  1.00  0.00     0.050 C 
HETATM    5  C9  UNL     1     176.217  16.037  84.841  1.00  0.00     0.039 A 
HETATM    6  C10 UNL     1     175.169  15.630  85.679  1.00  0.00     0.168 A 
HETATM    7  N4  UNL     1     175.003  14.301  85.488  1.00  0.00    -0.278 N 
ATOM      8  H4  UNL     1     174.313  13.717  85.959  1.00  0.00     0.189 HD
HETATM    9  N5  UNL     1     175.877  13.884  84.596  1.00  0.00    -0.283 N 
ATOM     10  H5  UNL     1     175.966  12.921  84.269  1.00  0.00     0.188 HD
HETATM   11  C11 UNL     1     176.640  14.920  84.175  1.00  0.00     0.124 A 
HETATM   12  O1  UNL     1     174.601  16.642  86.449  1.00  0.00    -0.322 OA
ENDROOT
BRANCH   2  13
HETATM   13  C3  UNL     1     173.343  17.624  84.720  1.00  0.00     0.270 C 
BRANCH  13  14
HETATM   14  N1  UNL     1     172.194  16.924  85.160  1.00  0.00    -0.072 N 
ATOM     15  H12 UNL     1     172.413  15.956  85.397  1.00  0.00     0.277 HD
ATOM     16  H11 UNL     1     171.890  17.244  86.080  1.00  0.00     0.277 HD
BRANCH  14  17
HETATM   17  C4  UNL     1     171.121  17.005  84.187  1.00  0.00     0.238 C 
BRANCH  17  18
HETATM   18  C5  UNL     1     170.551  15.603  83.931  1.00  0.00     0.089 C 
BRANCH  18  19
HETATM   19  C6  UNL     1     171.716  14.659  83.854  1.00  0.00     0.182 C 
BRANCH  19  20
HETATM   20  N2  UNL     1     171.896  13.883  84.824  1.00  0.00    -0.350 NA
BRANCH  20  21
HETATM   21  N3  UNL     1     171.778  13.081  85.788  1.00  0.00    -0.281 N 
ATOM     22  H32 UNL     1     172.503  12.468  85.415  1.00  0.00     0.191 HD
ATOM     23  H31 UNL     1     171.513  12.589  86.641  1.00  0.00     0.191 HD
ENDBRANCH  20  21
ENDBRANCH  19  20
ENDBRANCH  18  19
ENDBRANCH  17  18
ENDBRANCH  14  17
ENDBRANCH  13  14
ENDBRANCH   2  13
BRANCH  11  24
HETATM   24  N6  UNL     1     177.596  14.802  83.286  1.00  0.00    -0.384 N 
ATOM     25  H62 UNL     1     178.200  15.574  83.002  1.00  0.00     0.157 HD
ATOM     26  H61 UNL     1     177.884  13.979  82.759  1.00  0.00     0.157 HD
ENDBRANCH  11  24
TORSDOF 8
ENDMDL
