MODEL 1
REMARK VINA RESULT: -6.402885477      0.000      0.000
REMARK  6 active torsions:
REMARK  status: ('A' for Active; 'I' for Inactive)
REMARK    1  A    between atoms: C2_2  and  C3_3 
REMARK    2  A    between atoms: C3_3  and  C4_4 
REMARK    3  A    between atoms: C7_12  and  N3_13 
REMARK    4  A    between atoms: C8_15  and  C9_16 
REMARK    5  A    between atoms: C9_16  and  O1_17 
REMARK    6  A    between atoms: C11_21  and  N5_22 
ROOT
HETATM    1  C4  UNL     1     171.501  16.075  84.815  1.00  0.00     0.225 C 
HETATM    2  N1  UNL     1     171.948  17.390  84.323  1.00  0.00    -0.061 N 
ATOM      3  H11 UNL     1     171.272  18.149  84.412  1.00  0.00     0.278 HD
ATOM      4  H12 UNL     1     172.038  17.477  83.310  1.00  0.00     0.278 HD
HETATM    5  C5  UNL     1     173.195  17.549  85.092  1.00  0.00     0.291 C 
HETATM    6  C6  UNL     1     173.799  16.182  84.868  1.00  0.00     0.064 A 
HETATM    7  N2  UNL     1     175.049  15.730  84.814  1.00  0.00    -0.193 N 
ATOM      8  H2  UNL     1     175.810  16.396  84.946  1.00  0.00     0.184 HD
HETATM    9  C7  UNL     1     175.360  14.443  84.595  1.00  0.00     0.683 A 
HETATM   10  N4  UNL     1     174.288  13.570  84.420  1.00  0.00    -0.176 N 
ATOM     11  H4  UNL     1     174.482  12.584  84.251  1.00  0.00     0.186 HD
HETATM   12  C11 UNL     1     173.030  13.975  84.465  1.00  0.00     0.125 A 
HETATM   13  C12 UNL     1     172.739  15.304  84.692  1.00  0.00     0.041 A 
ENDROOT
BRANCH   9  14
HETATM   14  N3  UNL     1     176.505  14.005  84.562  1.00  0.00    -0.203 N 
HETATM   15  C8  UNL     1     177.776  14.206  84.162  1.00  0.00     0.105 C 
ATOM     16  H3  UNL     1     176.486  13.103  85.039  1.00  0.00     0.183 HD
BRANCH  15  17
HETATM   17  C9  UNL     1     178.287  15.571  83.796  1.00  0.00     0.212 C 
BRANCH  17  18
HETATM   18  O1  UNL     1     178.148  15.914  82.486  1.00  0.00    -0.391 OA
HETATM   19  C10 UNL     1     177.399  17.048  82.237  1.00  0.00     0.201 C 
ENDBRANCH  17  18
ENDBRANCH  15  17
ENDBRANCH   9  14
BRANCH  12  20
HETATM   20  N5  UNL     1     172.076  13.095  84.295  1.00  0.00    -0.385 N 
ATOM     21  H52 UNL     1     171.117  13.389  84.109  1.00  0.00     0.157 HD
ATOM     22  H51 UNL     1     172.303  12.102  84.355  1.00  0.00     0.157 HD
ENDBRANCH  12  20
BRANCH   1  23
HETATM   23  C3  UNL     1     170.309  15.553  84.102  1.00  0.00     0.037 C 
BRANCH  23  24
HETATM   24  C2  UNL     1     170.150  16.273  82.789  1.00  0.00    -0.002 C 
HETATM   25  C1  UNL     1     168.846  16.939  82.563  1.00  0.00     0.005 C 
ENDBRANCH  23  24
ENDBRANCH   1  23
TORSDOF 6
ENDMDL
MODEL 2
REMARK VINA RESULT: -6.323319900      1.080      1.279
REMARK  6 active torsions:
REMARK  status: ('A' for Active; 'I' for Inactive)
REMARK    1  A    between atoms: C2_2  and  C3_3 
REMARK    2  A    between atoms: C3_3  and  C4_4 
REMARK    3  A    between atoms: C7_12  and  N3_13 
REMARK    4  A    between atoms: C8_15  and  C9_16 
REMARK    5  A    between atoms: C9_16  and  O1_17 
REMARK    6  A    between atoms: C11_21  and  N5_22 
ROOT
HETATM    1  C4  UNL     1     171.034  16.452  84.293  1.00  0.00     0.225 C 
HETATM    2  N1  UNL     1     171.275  17.898  84.439  1.00  0.00    -0.061 N 
ATOM      3  H11 UNL     1     170.443  18.474  84.568  1.00  0.00     0.278 HD
ATOM      4  H12 UNL     1     171.583  18.383  83.596  1.00  0.00     0.278 HD
HETATM    5  C5  UNL     1     172.231  17.894  85.561  1.00  0.00     0.291 C 
HETATM    6  C6  UNL     1     173.165  16.806  85.085  1.00  0.00     0.064 A 
HETATM    7  N2  UNL     1     174.461  16.566  85.269  1.00  0.00    -0.193 N 
ATOM      8  H2  UNL     1     174.996  17.215  85.846  1.00  0.00     0.184 HD
HETATM    9  C7  UNL     1     175.099  15.514  84.734  1.00  0.00     0.683 A 
HETATM   10  N4  UNL     1     174.329  14.656  83.952  1.00  0.00    -0.176 N 
ATOM     11  H4  UNL     1     174.777  13.845  83.527  1.00  0.00     0.186 HD
HETATM   12  C11 UNL     1     173.039  14.856  83.742  1.00  0.00     0.125 A 
HETATM   13  C12 UNL     1     172.408  15.945  84.304  1.00  0.00     0.041 A 
ENDROOT
BRANCH   9  14
HETATM   14  N3  UNL     1     176.288  15.266  84.908  1.00  0.00    -0.203 N 
HETATM   15  C8  UNL     1     177.508  15.148  84.347  1.00  0.00     0.105 C 
ATOM     16  H3  UNL     1     176.401  15.059  85.901  1.00  0.00     0.183 HD
BRANCH  15  17
HETATM   17  C9  UNL     1     177.830  15.760  83.012  1.00  0.00     0.212 C 
BRANCH  17  18
HETATM   18  O1  UNL     1     179.128  16.133  82.839  1.00  0.00    -0.391 OA
HETATM   19  C10 UNL     1     179.785  16.569  83.973  1.00  0.00     0.201 C 
ENDBRANCH  17  18
ENDBRANCH  15  17
ENDBRANCH   9  14
BRANCH  12  20
HETATM   20  N5  UNL     1     172.380  14.003  82.998  1.00  0.00    -0.385 N 
ATOM     21  H52 UNL     1     171.951  14.294  82.120  1.00  0.00     0.157 HD
ATOM     22  H51 UNL     1     172.296  13.037  83.313  1.00  0.00     0.157 HD
ENDBRANCH  12  20
BRANCH   1  23
HETATM   23  C3  UNL     1     170.199  16.109  83.116  1.00  0.00     0.037 C 
BRANCH  23  24
HETATM   24  C2  UNL     1     169.367  17.301  82.723  1.00  0.00    -0.002 C 
HETATM   25  C1  UNL     1     167.909  17.068  82.604  1.00  0.00     0.005 C 
ENDBRANCH  23  24
ENDBRANCH   1  23
TORSDOF 6
ENDMDL
MODEL 3
REMARK VINA RESULT: -6.311878434      0.966      1.271
REMARK  6 active torsions:
REMARK  status: ('A' for Active; 'I' for Inactive)
REMARK    1  A    between atoms: C2_2  and  C3_3 
REMARK    2  A    between atoms: C3_3  and  C4_4 
REMARK    3  A    between atoms: C7_12  and  N3_13 
REMARK    4  A    between atoms: C8_15  and  C9_16 
REMARK    5  A    between atoms: C9_16  and  O1_17 
REMARK    6  A    between atoms: C11_21  and  N5_22 
ROOT
HETATM    1  C4  UNL     1     171.540  16.050  84.840  1.00  0.00     0.225 C 
HETATM    2  N1  UNL     1     171.939  17.374  84.332  1.00  0.00    -0.061 N 
ATOM      3  H11 UNL     1     171.244  18.114  84.431  1.00  0.00     0.278 HD
ATOM      4  H12 UNL     1     172.006  17.457  83.317  1.00  0.00     0.278 HD
HETATM    5  C5  UNL     1     173.196  17.572  85.074  1.00  0.00     0.291 C 
HETATM    6  C6  UNL     1     173.834  16.222  84.846  1.00  0.00     0.064 A 
HETATM    7  N2  UNL     1     175.095  15.805  84.769  1.00  0.00    -0.193 N 
ATOM      8  H2  UNL     1     175.840  16.493  84.882  1.00  0.00     0.184 HD
HETATM    9  C7  UNL     1     175.438  14.526  84.551  1.00  0.00     0.683 A 
HETATM   10  N4  UNL     1     174.388  13.623  84.403  1.00  0.00    -0.176 N 
ATOM     11  H4  UNL     1     174.606  12.641  84.235  1.00  0.00     0.186 HD
HETATM   12  C11 UNL     1     173.120  13.992  84.471  1.00  0.00     0.125 A 
HETATM   13  C12 UNL     1     172.797  15.313  84.696  1.00  0.00     0.041 A 
ENDROOT
BRANCH   9  14
HETATM   14  N3  UNL     1     176.594  14.120  84.497  1.00  0.00    -0.203 N 
HETATM   15  C8  UNL     1     177.881  14.419  84.233  1.00  0.00     0.105 C 
ATOM     16  H3  UNL     1     176.571  13.136  84.765  1.00  0.00     0.183 HD
BRANCH  15  17
HETATM   17  C9  UNL     1     178.377  15.838  84.204  1.00  0.00     0.212 C 
BRANCH  17  18
HETATM   18  O1  UNL     1     178.145  16.561  85.334  1.00  0.00    -0.391 OA
HETATM   19  C10 UNL     1     179.071  16.408  86.348  1.00  0.00     0.201 C 
ENDBRANCH  17  18
ENDBRANCH  15  17
ENDBRANCH   9  14
BRANCH  12  20
HETATM   20  N5  UNL     1     172.188  13.084  84.325  1.00  0.00    -0.385 N 
ATOM     21  H52 UNL     1     171.272  13.327  83.947  1.00  0.00     0.157 HD
ATOM     22  H51 UNL     1     172.388  12.122  84.601  1.00  0.00     0.157 HD
ENDBRANCH  12  20
BRANCH   1  23
HETATM   23  C3  UNL     1     170.348  15.490  84.155  1.00  0.00     0.037 C 
BRANCH  23  24
HETATM   24  C2  UNL     1     170.204  16.122  82.796  1.00  0.00    -0.002 C 
HETATM   25  C1  UNL     1     168.956  16.885  82.560  1.00  0.00     0.005 C 
ENDBRANCH  23  24
ENDBRANCH   1  23
TORSDOF 6
ENDMDL
MODEL 4
REMARK VINA RESULT: -6.260382074      1.447      2.645
REMARK  6 active torsions:
REMARK  status: ('A' for Active; 'I' for Inactive)
REMARK    1  A    between atoms: C2_2  and  C3_3 
REMARK    2  A    between atoms: C3_3  and  C4_4 
REMARK    3  A    between atoms: C7_12  and  N3_13 
REMARK    4  A    between atoms: C8_15  and  C9_16 
REMARK    5  A    between atoms: C9_16  and  O1_17 
REMARK    6  A    between atoms: C11_21  and  N5_22 
ROOT
HETATM    1  C4  UNL     1     172.093  14.923  84.119  1.00  0.00     0.225 C 
HETATM    2  N1  UNL     1     172.140  13.630  84.823  1.00  0.00    -0.061 N 
ATOM      3  H11 UNL     1     171.502  12.913  84.476  1.00  0.00     0.278 HD
ATOM      4  H12 UNL     1     171.761  13.627  85.770  1.00  0.00     0.278 HD
HETATM    5  C5  UNL     1     173.576  13.319  84.707  1.00  0.00     0.291 C 
HETATM    6  C6  UNL     1     174.151  14.657  85.112  1.00  0.00     0.064 A 
HETATM    7  N2  UNL     1     175.285  15.026  85.702  1.00  0.00    -0.193 N 
ATOM      8  H2  UNL     1     175.955  14.301  85.960  1.00  0.00     0.184 HD
HETATM    9  C7  UNL     1     175.593  16.303  85.974  1.00  0.00     0.683 A 
HETATM   10  N4  UNL     1     174.649  17.258  85.605  1.00  0.00    -0.176 N 
ATOM     11  H4  UNL     1     174.845  18.241  85.794  1.00  0.00     0.186 HD
HETATM   12  C11 UNL     1     173.509  16.937  85.017  1.00  0.00     0.125 A 
HETATM   13  C12 UNL     1     173.218  15.616  84.749  1.00  0.00     0.041 A 
ENDROOT
BRANCH   9  14
HETATM   14  N3  UNL     1     176.641  16.664  86.498  1.00  0.00    -0.203 N 
HETATM   15  C8  UNL     1     177.989  16.646  86.453  1.00  0.00     0.105 C 
ATOM     16  H3  UNL     1     176.383  17.212  87.319  1.00  0.00     0.183 HD
BRANCH  15  17
HETATM   17  C9  UNL     1     178.736  16.300  85.196  1.00  0.00     0.212 C 
BRANCH  17  18
HETATM   18  O1  UNL     1     178.257  15.227  84.508  1.00  0.00    -0.391 OA
HETATM   19  C10 UNL     1     177.817  15.483  83.224  1.00  0.00     0.201 C 
ENDBRANCH  17  18
ENDBRANCH  15  17
ENDBRANCH   9  14
BRANCH  12  20
HETATM   20  N5  UNL     1     172.672  17.892  84.695  1.00  0.00    -0.385 N 
ATOM     21  H52 UNL     1     172.111  18.361  85.406  1.00  0.00     0.157 HD
ATOM     22  H51 UNL     1     172.585  18.161  83.715  1.00  0.00     0.157 HD
ENDBRANCH  12  20
BRANCH   1  23
HETATM   23  C3  UNL     1     170.767  15.585  84.190  1.00  0.00     0.037 C 
BRANCH  23  24
HETATM   24  C2  UNL     1     170.255  15.841  82.798  1.00  0.00    -0.002 C 
HETATM   25  C1  UNL     1     169.325  16.984  82.645  1.00  0.00     0.005 C 
ENDBRANCH  23  24
ENDBRANCH   1  23
TORSDOF 6
ENDMDL
MODEL 5
REMARK VINA RESULT: -6.167690720      2.074      2.505
REMARK  6 active torsions:
REMARK  status: ('A' for Active; 'I' for Inactive)
REMARK    1  A    between atoms: C2_2  and  C3_3 
REMARK    2  A    between atoms: C3_3  and  C4_4 
REMARK    3  A    between atoms: C7_12  and  N3_13 
REMARK    4  A    between atoms: C8_15  and  C9_16 
REMARK    5  A    between atoms: C9_16  and  O1_17 
REMARK    6  A    between atoms: C11_21  and  N5_22 
ROOT
HETATM    1  C4  UNL     1     170.544  16.794  84.120  1.00  0.00     0.225 C 
HETATM    2  N1  UNL     1     171.024  18.181  84.239  1.00  0.00    -0.061 N 
ATOM      3  H11 UNL     1     170.307  18.884  84.421  1.00  0.00     0.278 HD
ATOM      4  H12 UNL     1     171.348  18.614  83.374  1.00  0.00     0.278 HD
HETATM    5  C5  UNL     1     172.041  18.018  85.293  1.00  0.00     0.291 C 
HETATM    6  C6  UNL     1     172.753  16.796  84.762  1.00  0.00     0.064 A 
HETATM    7  N2  UNL     1     174.003  16.349  84.859  1.00  0.00    -0.193 N 
ATOM      8  H2  UNL     1     174.673  16.900  85.394  1.00  0.00     0.184 HD
HETATM    9  C7  UNL     1     174.425  15.210  84.289  1.00  0.00     0.683 A 
HETATM   10  N4  UNL     1     173.475  14.491  83.568  1.00  0.00    -0.176 N 
ATOM     11  H4  UNL     1     173.756  13.620  83.119  1.00  0.00     0.186 HD
HETATM   12  C11 UNL     1     172.223  14.898  83.444  1.00  0.00     0.125 A 
HETATM   13  C12 UNL     1     171.815  16.072  84.041  1.00  0.00     0.041 A 
ENDROOT
BRANCH   9  14
HETATM   14  N3  UNL     1     175.567  14.772  84.384  1.00  0.00    -0.203 N 
HETATM   15  C8  UNL     1     176.348  13.728  84.728  1.00  0.00     0.105 C 
ATOM     16  H3  UNL     1     176.191  15.514  84.068  1.00  0.00     0.183 HD
BRANCH  15  17
HETATM   17  C9  UNL     1     175.801  12.333  84.850  1.00  0.00     0.212 C 
BRANCH  17  18
HETATM   18  O1  UNL     1     176.710  11.334  84.687  1.00  0.00    -0.391 OA
HETATM   19  C10 UNL     1     177.647  11.528  83.690  1.00  0.00     0.201 C 
ENDBRANCH  17  18
ENDBRANCH  15  17
ENDBRANCH   9  14
BRANCH  12  20
HETATM   20  N5  UNL     1     171.385  14.166  82.753  1.00  0.00    -0.385 N 
ATOM     21  H52 UNL     1     170.727  13.540  83.218  1.00  0.00     0.157 HD
ATOM     22  H51 UNL     1     171.400  14.227  81.735  1.00  0.00     0.157 HD
ENDBRANCH  12  20
BRANCH   1  23
HETATM   23  C3  UNL     1     169.586  16.595  83.004  1.00  0.00     0.037 C 
BRANCH  23  24
HETATM   24  C2  UNL     1     168.183  16.839  83.495  1.00  0.00    -0.002 C 
HETATM   25  C1  UNL     1     167.177  17.166  82.458  1.00  0.00     0.005 C 
ENDBRANCH  23  24
ENDBRANCH   1  23
TORSDOF 6
ENDMDL
