MODEL 1
REMARK VINA RESULT: -6.230931004      0.000      0.000
REMARK  5 active torsions:
REMARK  status: ('A' for Active; 'I' for Inactive)
REMARK       I    between atoms: C1_4  and  N2_5 
REMARK       I    between atoms: C1_4  and  N4_15 
REMARK    1  A    between atoms: N2_5  and  C2_7 
REMARK    2  A    between atoms: C2_7  and  C3_8 
REMARK    3  A    between atoms: C3_8  and  C4_9 
REMARK    4  A    between atoms: C4_9  and  N3_10 
REMARK    5  A    between atoms: N4_15  and  C9_17 
ROOT
HETATM    1  N1  UNL     1     176.309  12.877  84.698  1.00  0.00    -0.235 N 
ATOM      2  H11 UNL     1     177.218  12.890  84.236  1.00  0.00     0.174 HD
ATOM      3  H12 UNL     1     175.991  12.026  85.163  1.00  0.00     0.174 HD
HETATM    4  C1  UNL     1     175.578  13.916  84.695  1.00  0.00     0.667 C 
HETATM    5  N2  UNL     1     174.316  13.898  85.337  1.00  0.00    -0.227 N 
ATOM      6  H2  UNL     1     174.215  14.223  86.298  1.00  0.00     0.177 HD
HETATM    7  N4  UNL     1     176.021  15.103  84.047  1.00  0.00    -0.222 N 
ATOM      8  H4  UNL     1     175.324  15.747  83.673  1.00  0.00     0.178 HD
ENDROOT
BRANCH   5   9
HETATM    9  C2  UNL     1     173.178  13.409  84.598  1.00  0.00     0.140 C 
BRANCH   9  10
HETATM   10  C3  UNL     1     171.873  13.944  85.173  1.00  0.00     0.050 C 
BRANCH  10  11
HETATM   11  C4  UNL     1     170.945  14.216  84.047  1.00  0.00     0.274 C 
BRANCH  11  12
HETATM   12  N3  UNL     1     170.404  15.525  83.986  1.00  0.00     0.088 N 
HETATM   13  C5  UNL     1     169.975  15.945  82.677  1.00  0.00     0.272 C 
HETATM   14  C6  UNL     1     169.506  17.377  82.978  1.00  0.00     0.032 C 
HETATM   15  C7  UNL     1     170.435  17.814  84.104  1.00  0.00     0.032 C 
HETATM   16  C8  UNL     1     171.280  16.576  84.388  1.00  0.00     0.272 C 
ENDBRANCH  11  12
ENDBRANCH  10  11
ENDBRANCH   9  10
ENDBRANCH   5   9
BRANCH   7  17
HETATM   17  C9  UNL     1     177.424  15.431  83.898  1.00  0.00     0.102 C 
HETATM   18  C10 UNL     1     177.665  16.280  82.665  1.00  0.00     0.053 C 
HETATM   19  C11 UNL     1     179.069  16.858  82.793  1.00  0.00     0.234 C 
HETATM   20  N5  UNL     1     178.989  17.848  83.835  1.00  0.00    -0.075 N 
HETATM   21  C12 UNL     1     178.627  17.317  85.100  1.00  0.00     0.234 C 
ATOM     22  H52 UNL     1     179.862  18.371  83.902  1.00  0.00     0.277 HD
ATOM     23  H51 UNL     1     178.357  18.602  83.568  1.00  0.00     0.277 HD
HETATM   24  C13 UNL     1     178.043  15.957  85.143  1.00  0.00     0.053 C 
ENDBRANCH   7  17
TORSDOF 5
ENDMDL
MODEL 2
REMARK VINA RESULT: -6.203749879      1.392      2.181
REMARK  5 active torsions:
REMARK  status: ('A' for Active; 'I' for Inactive)
REMARK       I    between atoms: C1_4  and  N2_5 
REMARK       I    between atoms: C1_4  and  N4_15 
REMARK    1  A    between atoms: N2_5  and  C2_7 
REMARK    2  A    between atoms: C2_7  and  C3_8 
REMARK    3  A    between atoms: C3_8  and  C4_9 
REMARK    4  A    between atoms: C4_9  and  N3_10 
REMARK    5  A    between atoms: N4_15  and  C9_17 
ROOT
HETATM    1  N1  UNL     1     175.495  16.469  84.074  1.00  0.00    -0.235 N 
ATOM      2  H11 UNL     1     175.902  17.387  84.249  1.00  0.00     0.174 HD
ATOM      3  H12 UNL     1     174.650  16.390  83.508  1.00  0.00     0.174 HD
HETATM    4  C1  UNL     1     176.038  15.429  84.561  1.00  0.00     0.667 C 
HETATM    5  N2  UNL     1     175.473  14.153  84.319  1.00  0.00    -0.227 N 
ATOM      6  H2  UNL     1     175.804  13.573  83.548  1.00  0.00     0.177 HD
HETATM    7  N4  UNL     1     177.216  15.537  85.352  1.00  0.00    -0.222 N 
ATOM      8  H4  UNL     1     177.396  14.830  86.064  1.00  0.00     0.178 HD
ENDROOT
BRANCH   5   9
HETATM    9  C2  UNL     1     174.417  13.694  85.188  1.00  0.00     0.140 C 
BRANCH   9  10
HETATM   10  C3  UNL     1     173.135  13.428  84.410  1.00  0.00     0.050 C 
BRANCH  10  11
HETATM   11  C4  UNL     1     171.990  13.925  85.214  1.00  0.00     0.274 C 
BRANCH  11  12
HETATM   12  N3  UNL     1     171.181  14.915  84.602  1.00  0.00     0.088 N 
HETATM   13  C5  UNL     1     170.975  14.743  83.187  1.00  0.00     0.272 C 
HETATM   14  C6  UNL     1     170.121  15.981  82.872  1.00  0.00     0.032 C 
HETATM   15  C7  UNL     1     170.636  17.017  83.865  1.00  0.00     0.032 C 
HETATM   16  C8  UNL     1     171.665  16.254  84.694  1.00  0.00     0.272 C 
ENDBRANCH  11  12
ENDBRANCH  10  11
ENDBRANCH   9  10
ENDBRANCH   5   9
BRANCH   7  17
HETATM   17  C9  UNL     1     178.170  16.614  85.183  1.00  0.00     0.102 C 
HETATM   18  C10 UNL     1     178.834  16.975  86.498  1.00  0.00     0.053 C 
HETATM   19  C11 UNL     1     180.044  17.839  86.160  1.00  0.00     0.234 C 
HETATM   20  N5  UNL     1     181.005  16.948  85.566  1.00  0.00    -0.075 N 
HETATM   21  C12 UNL     1     180.558  16.346  84.361  1.00  0.00     0.234 C 
ATOM     22  H52 UNL     1     181.895  17.424  85.421  1.00  0.00     0.277 HD
ATOM     23  H51 UNL     1     181.298  16.236  86.236  1.00  0.00     0.277 HD
HETATM   24  C13 UNL     1     179.111  16.399  84.053  1.00  0.00     0.053 C 
ENDBRANCH   7  17
TORSDOF 5
ENDMDL
MODEL 3
REMARK VINA RESULT: -6.154643891      1.200      1.520
REMARK  5 active torsions:
REMARK  status: ('A' for Active; 'I' for Inactive)
REMARK       I    between atoms: C1_4  and  N2_5 
REMARK       I    between atoms: C1_4  and  N4_15 
REMARK    1  A    between atoms: N2_5  and  C2_7 
REMARK    2  A    between atoms: C2_7  and  C3_8 
REMARK    3  A    between atoms: C3_8  and  C4_9 
REMARK    4  A    between atoms: C4_9  and  N3_10 
REMARK    5  A    between atoms: N4_15  and  C9_17 
ROOT
HETATM    1  N1  UNL     1     175.614  12.867  85.049  1.00  0.00    -0.235 N 
ATOM      2  H11 UNL     1     176.554  12.844  84.655  1.00  0.00     0.174 HD
ATOM      3  H12 UNL     1     175.253  12.049  85.541  1.00  0.00     0.174 HD
HETATM    4  C1  UNL     1     174.898  13.909  84.928  1.00  0.00     0.667 C 
HETATM    5  N2  UNL     1     173.592  13.940  85.476  1.00  0.00    -0.227 N 
ATOM      6  H2  UNL     1     173.425  14.325  86.405  1.00  0.00     0.177 HD
HETATM    7  N4  UNL     1     175.400  15.050  84.242  1.00  0.00    -0.222 N 
ATOM      8  H4  UNL     1     174.740  15.674  83.779  1.00  0.00     0.178 HD
ENDROOT
BRANCH   5   9
HETATM    9  C2  UNL     1     172.505  13.414  84.688  1.00  0.00     0.140 C 
BRANCH   9  10
HETATM   10  C3  UNL     1     171.299  14.344  84.716  1.00  0.00     0.050 C 
BRANCH  10  11
HETATM   11  C4  UNL     1     171.688  15.629  84.082  1.00  0.00     0.274 C 
BRANCH  11  12
HETATM   12  N3  UNL     1     171.606  16.781  84.904  1.00  0.00     0.088 N 
HETATM   13  C5  UNL     1     170.700  17.798  84.438  1.00  0.00     0.272 C 
HETATM   14  C6  UNL     1     170.902  18.874  85.516  1.00  0.00     0.032 C 
HETATM   15  C7  UNL     1     172.364  18.697  85.910  1.00  0.00     0.032 C 
HETATM   16  C8  UNL     1     172.826  17.498  85.087  1.00  0.00     0.272 C 
ENDBRANCH  11  12
ENDBRANCH  10  11
ENDBRANCH   9  10
ENDBRANCH   5   9
BRANCH   7  17
HETATM   17  C9  UNL     1     176.814  15.358  84.177  1.00  0.00     0.102 C 
HETATM   18  C10 UNL     1     177.191  15.935  82.826  1.00  0.00     0.053 C 
HETATM   19  C11 UNL     1     178.580  16.546  82.978  1.00  0.00     0.234 C 
HETATM   20  N5  UNL     1     178.399  17.729  83.778  1.00  0.00    -0.075 N 
HETATM   21  C12 UNL     1     177.901  17.467  85.080  1.00  0.00     0.234 C 
ATOM     22  H52 UNL     1     179.265  18.266  83.825  1.00  0.00     0.277 HD
ATOM     23  H51 UNL     1     177.806  18.403  83.294  1.00  0.00     0.277 HD
HETATM   24  C13 UNL     1     177.303  16.139  85.342  1.00  0.00     0.053 C 
ENDBRANCH   7  17
TORSDOF 5
ENDMDL
MODEL 4
REMARK VINA RESULT: -6.118712783      1.689      7.391
REMARK  5 active torsions:
REMARK  status: ('A' for Active; 'I' for Inactive)
REMARK       I    between atoms: C1_4  and  N2_5 
REMARK       I    between atoms: C1_4  and  N4_15 
REMARK    1  A    between atoms: N2_5  and  C2_7 
REMARK    2  A    between atoms: C2_7  and  C3_8 
REMARK    3  A    between atoms: C3_8  and  C4_9 
REMARK    4  A    between atoms: C4_9  and  N3_10 
REMARK    5  A    between atoms: N4_15  and  C9_17 
ROOT
HETATM    1  N1  UNL     1     175.348  15.226  85.956  1.00  0.00    -0.235 N 
ATOM      2  H11 UNL     1     174.503  15.759  86.158  1.00  0.00     0.174 HD
ATOM      3  H12 UNL     1     176.065  15.126  86.674  1.00  0.00     0.174 HD
HETATM    4  C1  UNL     1     175.506  14.691  84.814  1.00  0.00     0.667 C 
HETATM    5  N2  UNL     1     176.680  13.951  84.533  1.00  0.00    -0.227 N 
ATOM      6  H2  UNL     1     176.700  12.939  84.653  1.00  0.00     0.177 HD
HETATM    7  N4  UNL     1     174.506  14.831  83.812  1.00  0.00    -0.222 N 
ATOM      8  H4  UNL     1     174.786  14.799  82.831  1.00  0.00     0.178 HD
ENDROOT
BRANCH   5   9
HETATM    9  C2  UNL     1     177.847  14.664  84.074  1.00  0.00     0.140 C 
BRANCH   9  10
HETATM   10  C3  UNL     1     177.469  15.793  83.125  1.00  0.00     0.050 C 
BRANCH  10  11
HETATM   11  C4  UNL     1     178.032  17.059  83.659  1.00  0.00     0.274 C 
BRANCH  11  12
HETATM   12  N3  UNL     1     179.363  16.994  84.143  1.00  0.00     0.088 N 
HETATM   13  C5  UNL     1     179.575  17.622  85.421  1.00  0.00     0.272 C 
HETATM   14  C6  UNL     1     181.086  17.404  85.597  1.00  0.00     0.032 C 
HETATM   15  C7  UNL     1     181.610  17.449  84.167  1.00  0.00     0.032 C 
HETATM   16  C8  UNL     1     180.352  17.607  83.318  1.00  0.00     0.272 C 
ENDBRANCH  11  12
ENDBRANCH  10  11
ENDBRANCH   9  10
ENDBRANCH   5   9
BRANCH   7  17
HETATM   17  C9  UNL     1     173.105  15.017  84.130  1.00  0.00     0.102 C 
HETATM   18  C10 UNL     1     172.223  14.724  82.932  1.00  0.00     0.053 C 
HETATM   19  C11 UNL     1     170.796  14.599  83.453  1.00  0.00     0.234 C 
HETATM   20  N5  UNL     1     170.754  13.355  84.177  1.00  0.00    -0.075 N 
HETATM   21  C12 UNL     1     171.625  13.316  85.297  1.00  0.00     0.234 C 
ATOM     22  H52 UNL     1     169.798  13.134  84.458  1.00  0.00     0.277 HD
ATOM     23  H51 UNL     1     170.936  12.569  83.553  1.00  0.00     0.277 HD
HETATM   24  C13 UNL     1     172.690  14.341  85.386  1.00  0.00     0.053 C 
ENDBRANCH   7  17
TORSDOF 5
ENDMDL
MODEL 5
REMARK VINA RESULT: -6.062961809      1.380      7.095
REMARK  5 active torsions:
REMARK  status: ('A' for Active; 'I' for Inactive)
REMARK       I    between atoms: C1_4  and  N2_5 
REMARK       I    between atoms: C1_4  and  N4_15 
REMARK    1  A    between atoms: N2_5  and  C2_7 
REMARK    2  A    between atoms: C2_7  and  C3_8 
REMARK    3  A    between atoms: C3_8  and  C4_9 
REMARK    4  A    between atoms: C4_9  and  N3_10 
REMARK    5  A    between atoms: N4_15  and  C9_17 
ROOT
HETATM    1  N1  UNL     1     175.471  15.226  86.050  1.00  0.00    -0.235 N 
ATOM      2  H11 UNL     1     174.709  15.839  86.338  1.00  0.00     0.174 HD
ATOM      3  H12 UNL     1     176.253  15.060  86.683  1.00  0.00     0.174 HD
HETATM    4  C1  UNL     1     175.444  14.672  84.907  1.00  0.00     0.667 C 
HETATM    5  N2  UNL     1     176.502  13.820  84.506  1.00  0.00    -0.227 N 
ATOM      6  H2  UNL     1     176.439  12.811  84.640  1.00  0.00     0.177 HD
HETATM    7  N4  UNL     1     174.354  14.902  84.023  1.00  0.00    -0.222 N 
ATOM      8  H4  UNL     1     174.515  14.838  83.017  1.00  0.00     0.178 HD
ENDROOT
BRANCH   5   9
HETATM    9  C2  UNL     1     177.671  14.414  83.905  1.00  0.00     0.140 C 
BRANCH   9  10
HETATM   10  C3  UNL     1     177.295  15.560  82.976  1.00  0.00     0.050 C 
BRANCH  10  11
HETATM   11  C4  UNL     1     178.373  16.579  83.032  1.00  0.00     0.274 C 
BRANCH  11  12
HETATM   12  N3  UNL     1     179.096  16.655  84.249  1.00  0.00     0.088 N 
HETATM   13  C5  UNL     1     178.738  17.760  85.101  1.00  0.00     0.272 C 
HETATM   14  C6  UNL     1     179.723  17.554  86.262  1.00  0.00     0.032 C 
HETATM   15  C7  UNL     1     180.942  16.950  85.577  1.00  0.00     0.032 C 
HETATM   16  C8  UNL     1     180.510  16.796  84.122  1.00  0.00     0.272 C 
ENDBRANCH  11  12
ENDBRANCH  10  11
ENDBRANCH   9  10
ENDBRANCH   5   9
BRANCH   7  17
HETATM   17  C9  UNL     1     173.023  15.224  84.496  1.00  0.00     0.102 C 
HETATM   18  C10 UNL     1     172.772  16.720  84.463  1.00  0.00     0.053 C 
HETATM   19  C11 UNL     1     171.270  16.921  84.628  1.00  0.00     0.234 C 
HETATM   20  N5  UNL     1     170.681  16.483  83.389  1.00  0.00    -0.075 N 
HETATM   21  C12 UNL     1     170.901  15.110  83.105  1.00  0.00     0.234 C 
ATOM     22  H52 UNL     1     169.684  16.698  83.370  1.00  0.00     0.277 HD
ATOM     23  H51 UNL     1     170.997  17.066  82.614  1.00  0.00     0.277 HD
HETATM   24  C13 UNL     1     171.957  14.403  83.866  1.00  0.00     0.053 C 
ENDBRANCH   7  17
TORSDOF 5
ENDMDL
