MODEL 1
REMARK VINA RESULT: -5.867083224      0.000      0.000
REMARK  8 active torsions:
REMARK  status: ('A' for Active; 'I' for Inactive)
REMARK    1  A    between atoms: C6_8  and  N2_9 
REMARK    2  A    between atoms: N2_9  and  C7_11 
REMARK    3  A    between atoms: C7_11  and  C8_12 
REMARK    4  A    between atoms: C8_12  and  C9_13 
REMARK    5  A    between atoms: C9_13  and  C10_14 
REMARK    6  A    between atoms: C10_14  and  N3_15 
REMARK    7  A    between atoms: C11_21  and  N5_22 
REMARK    8  A    between atoms: N5_22  and  C12_24 
ROOT
HETATM    1  C1  UNL     1     178.679  17.239  86.730  1.00  0.00     0.018 C 
HETATM    2  C2  UNL     1     177.666  16.850  86.207  1.00  0.00    -0.072 C 
HETATM    3  C3  UNL     1     176.467  16.364  85.542  1.00  0.00     0.084 A 
HETATM    4  C4  UNL     1     176.640  15.357  84.578  1.00  0.00     0.045 A 
HETATM    5  C5  UNL     1     178.002  14.839  84.290  1.00  0.00     0.070 C 
HETATM    6  N1  UNL     1     175.573  14.891  83.941  1.00  0.00    -0.194 N 
ATOM      7  H1  UNL     1     175.682  14.160  83.237  1.00  0.00     0.184 HD
HETATM    8  C6  UNL     1     174.337  15.380  84.221  1.00  0.00     0.679 A 
HETATM    9  N4  UNL     1     174.182  16.321  85.125  1.00  0.00    -0.175 N 
ATOM     10  H4  UNL     1     173.238  16.662  85.306  1.00  0.00     0.186 HD
HETATM   11  C11 UNL     1     175.235  16.882  85.852  1.00  0.00     0.141 A 
ENDROOT
BRANCH  11  12
HETATM   12  N5  UNL     1     175.008  17.747  86.678  1.00  0.00    -0.355 N 
ATOM     13  H5  UNL     1     175.230  17.335  87.584  1.00  0.00     0.166 HD
BRANCH  12  14
HETATM   14  C12 UNL     1     174.592  19.009  86.935  1.00  0.00     0.058 C 
HETATM   15  C13 UNL     1     173.545  19.151  88.053  1.00  0.00     0.054 C 
ENDBRANCH  12  14
ENDBRANCH  11  12
BRANCH   8  16
HETATM   16  N2  UNL     1     173.385  14.873  83.564  1.00  0.00    -0.226 N 
ATOM     17  H2  UNL     1     173.524  14.882  82.553  1.00  0.00     0.177 HD
BRANCH  16  18
HETATM   18  C7  UNL     1     172.154  14.292  83.977  1.00  0.00     0.138 C 
BRANCH  18  19
HETATM   19  C8  UNL     1     171.004  15.008  83.363  1.00  0.00     0.022 C 
BRANCH  19  20
HETATM   20  C9  UNL     1     170.645  16.341  83.849  1.00  0.00     0.029 C 
BRANCH  20  21
HETATM   21  C10 UNL     1     169.379  16.971  83.405  1.00  0.00     0.229 C 
BRANCH  21  22
HETATM   22  N3  UNL     1     169.129  16.556  81.998  1.00  0.00    -0.079 N 
ATOM     23  H33 UNL     1     169.273  15.558  81.849  1.00  0.00     0.274 HD
ATOM     24  H32 UNL     1     168.141  16.590  81.747  1.00  0.00     0.274 HD
ATOM     25  H31 UNL     1     169.710  17.134  81.392  1.00  0.00     0.274 HD
ENDBRANCH  21  22
ENDBRANCH  20  21
ENDBRANCH  19  20
ENDBRANCH  18  19
ENDBRANCH  16  18
ENDBRANCH   8  16
TORSDOF 8
ENDMDL
MODEL 2
REMARK VINA RESULT: -5.725279874      2.031      5.498
REMARK  8 active torsions:
REMARK  status: ('A' for Active; 'I' for Inactive)
REMARK    1  A    between atoms: C6_8  and  N2_9 
REMARK    2  A    between atoms: N2_9  and  C7_11 
REMARK    3  A    between atoms: C7_11  and  C8_12 
REMARK    4  A    between atoms: C8_12  and  C9_13 
REMARK    5  A    between atoms: C9_13  and  C10_14 
REMARK    6  A    between atoms: C10_14  and  N3_15 
REMARK    7  A    between atoms: C11_21  and  N5_22 
REMARK    8  A    between atoms: N5_22  and  C12_24 
ROOT
HETATM    1  C1  UNL     1     170.629  15.671  83.577  1.00  0.00     0.018 C 
HETATM    2  C2  UNL     1     171.713  15.832  84.079  1.00  0.00    -0.072 C 
HETATM    3  C3  UNL     1     173.020  15.986  84.699  1.00  0.00     0.084 A 
HETATM    4  C4  UNL     1     173.697  14.806  85.050  1.00  0.00     0.045 A 
HETATM    5  C5  UNL     1     173.074  13.487  84.772  1.00  0.00     0.070 C 
HETATM    6  N1  UNL     1     174.889  14.901  85.626  1.00  0.00    -0.194 N 
ATOM      7  H1  UNL     1     175.395  14.055  85.888  1.00  0.00     0.184 HD
HETATM    8  C6  UNL     1     175.441  16.119  85.871  1.00  0.00     0.679 A 
HETATM    9  N4  UNL     1     174.800  17.218  85.540  1.00  0.00    -0.175 N 
ATOM     10  H4  UNL     1     175.247  18.112  85.740  1.00  0.00     0.186 HD
HETATM   11  C11 UNL     1     173.543  17.232  84.930  1.00  0.00     0.141 A 
ENDROOT
BRANCH  11  12
HETATM   12  N5  UNL     1     173.019  18.294  84.648  1.00  0.00    -0.355 N 
ATOM     13  H5  UNL     1     173.123  18.399  83.639  1.00  0.00     0.166 HD
BRANCH  12  14
HETATM   14  C12 UNL     1     172.360  19.398  85.071  1.00  0.00     0.058 C 
HETATM   15  C13 UNL     1     170.975  19.150  85.693  1.00  0.00     0.054 C 
ENDBRANCH  12  14
ENDBRANCH  11  12
BRANCH   8  16
HETATM   16  N2  UNL     1     176.576  16.106  86.422  1.00  0.00    -0.226 N 
ATOM     17  H2  UNL     1     176.650  15.464  87.212  1.00  0.00     0.177 HD
BRANCH  16  18
HETATM   18  C7  UNL     1     177.771  16.824  86.142  1.00  0.00     0.138 C 
BRANCH  18  19
HETATM   19  C8  UNL     1     178.651  16.042  85.232  1.00  0.00     0.022 C 
BRANCH  19  20
HETATM   20  C9  UNL     1     178.745  16.423  83.821  1.00  0.00     0.029 C 
BRANCH  20  21
HETATM   21  C10 UNL     1     177.708  15.968  82.865  1.00  0.00     0.229 C 
BRANCH  21  22
HETATM   22  N3  UNL     1     177.394  14.546  83.170  1.00  0.00    -0.079 N 
ATOM     23  H33 UNL     1     177.539  13.930  82.370  1.00  0.00     0.274 HD
ATOM     24  H32 UNL     1     178.075  14.118  83.797  1.00  0.00     0.274 HD
ATOM     25  H31 UNL     1     176.443  14.504  83.534  1.00  0.00     0.274 HD
ENDBRANCH  21  22
ENDBRANCH  20  21
ENDBRANCH  19  20
ENDBRANCH  18  19
ENDBRANCH  16  18
ENDBRANCH   8  16
TORSDOF 8
ENDMDL
MODEL 3
REMARK VINA RESULT: -5.722897727      2.811      3.580
REMARK  8 active torsions:
REMARK  status: ('A' for Active; 'I' for Inactive)
REMARK    1  A    between atoms: C6_8  and  N2_9 
REMARK    2  A    between atoms: N2_9  and  C7_11 
REMARK    3  A    between atoms: C7_11  and  C8_12 
REMARK    4  A    between atoms: C8_12  and  C9_13 
REMARK    5  A    between atoms: C9_13  and  C10_14 
REMARK    6  A    between atoms: C10_14  and  N3_15 
REMARK    7  A    between atoms: C11_21  and  N5_22 
REMARK    8  A    between atoms: N5_22  and  C12_24 
ROOT
HETATM    1  C1  UNL     1     180.232  18.794  83.460  1.00  0.00     0.018 C 
HETATM    2  C2  UNL     1     179.372  17.967  83.626  1.00  0.00    -0.072 C 
HETATM    3  C3  UNL     1     178.361  16.945  83.850  1.00  0.00     0.084 A 
HETATM    4  C4  UNL     1     178.552  16.096  84.953  1.00  0.00     0.045 A 
HETATM    5  C5  UNL     1     179.740  16.276  85.826  1.00  0.00     0.070 C 
HETATM    6  N1  UNL     1     177.657  15.144  85.189  1.00  0.00    -0.194 N 
ATOM      7  H1  UNL     1     177.781  14.519  85.986  1.00  0.00     0.184 HD
HETATM    8  C6  UNL     1     176.578  14.998  84.378  1.00  0.00     0.679 A 
HETATM    9  N4  UNL     1     176.406  15.797  83.348  1.00  0.00    -0.175 N 
ATOM     10  H4  UNL     1     175.583  15.654  82.762  1.00  0.00     0.186 HD
HETATM   11  C11 UNL     1     177.285  16.828  83.009  1.00  0.00     0.141 A 
ENDROOT
BRANCH  11  12
HETATM   12  N5  UNL     1     177.050  17.530  82.042  1.00  0.00    -0.355 N 
ATOM     13  H5  UNL     1     177.298  16.972  81.224  1.00  0.00     0.166 HD
BRANCH  12  14
HETATM   14  C12 UNL     1     176.608  18.716  81.563  1.00  0.00     0.058 C 
HETATM   15  C13 UNL     1     175.990  19.666  82.603  1.00  0.00     0.054 C 
ENDBRANCH  12  14
ENDBRANCH  11  12
BRANCH   8  16
HETATM   16  N2  UNL     1     175.784  14.065  84.684  1.00  0.00    -0.226 N 
ATOM     17  H2  UNL     1     176.118  13.134  84.436  1.00  0.00     0.177 HD
BRANCH  16  18
HETATM   18  C7  UNL     1     174.508  14.077  85.312  1.00  0.00     0.138 C 
BRANCH  18  19
HETATM   19  C8  UNL     1     173.457  13.602  84.373  1.00  0.00     0.022 C 
BRANCH  19  20
HETATM   20  C9  UNL     1     172.745  14.573  83.541  1.00  0.00     0.029 C 
BRANCH  20  21
HETATM   21  C10 UNL     1     171.266  14.520  83.450  1.00  0.00     0.229 C 
BRANCH  21  22
HETATM   22  N3  UNL     1     170.816  13.229  84.036  1.00  0.00    -0.079 N 
ATOM     23  H33 UNL     1     169.909  12.928  83.679  1.00  0.00     0.274 HD
ATOM     24  H32 UNL     1     171.363  12.434  83.706  1.00  0.00     0.274 HD
ATOM     25  H31 UNL     1     170.829  13.322  85.051  1.00  0.00     0.274 HD
ENDBRANCH  21  22
ENDBRANCH  20  21
ENDBRANCH  19  20
ENDBRANCH  18  19
ENDBRANCH  16  18
ENDBRANCH   8  16
TORSDOF 8
ENDMDL
MODEL 4
REMARK VINA RESULT: -5.647770768      2.047      5.481
REMARK  8 active torsions:
REMARK  status: ('A' for Active; 'I' for Inactive)
REMARK    1  A    between atoms: C6_8  and  N2_9 
REMARK    2  A    between atoms: N2_9  and  C7_11 
REMARK    3  A    between atoms: C7_11  and  C8_12 
REMARK    4  A    between atoms: C8_12  and  C9_13 
REMARK    5  A    between atoms: C9_13  and  C10_14 
REMARK    6  A    between atoms: C10_14  and  N3_15 
REMARK    7  A    between atoms: C11_21  and  N5_22 
REMARK    8  A    between atoms: N5_22  and  C12_24 
ROOT
HETATM    1  C1  UNL     1     169.170  17.043  83.875  1.00  0.00     0.018 C 
HETATM    2  C2  UNL     1     170.320  16.697  83.959  1.00  0.00    -0.072 C 
HETATM    3  C3  UNL     1     171.698  16.237  84.055  1.00  0.00     0.084 A 
HETATM    4  C4  UNL     1     171.975  14.955  83.552  1.00  0.00     0.045 A 
HETATM    5  C5  UNL     1     170.883  14.147  82.952  1.00  0.00     0.070 C 
HETATM    6  N1  UNL     1     173.217  14.494  83.628  1.00  0.00    -0.194 N 
ATOM      7  H1  UNL     1     173.435  13.565  83.268  1.00  0.00     0.184 HD
HETATM    8  C6  UNL     1     174.200  15.251  84.181  1.00  0.00     0.679 A 
HETATM    9  N4  UNL     1     173.932  16.450  84.649  1.00  0.00    -0.175 N 
ATOM     10  H4  UNL     1     174.697  16.987  85.058  1.00  0.00     0.186 HD
HETATM   11  C11 UNL     1     172.662  17.031  84.621  1.00  0.00     0.141 A 
ENDROOT
BRANCH  11  12
HETATM   12  N5  UNL     1     172.499  18.151  85.069  1.00  0.00    -0.355 N 
ATOM     13  H5  UNL     1     172.788  18.793  84.332  1.00  0.00     0.166 HD
BRANCH  12  14
HETATM   14  C12 UNL     1     172.106  18.927  86.106  1.00  0.00     0.058 C 
HETATM   15  C13 UNL     1     171.163  20.089  85.749  1.00  0.00     0.054 C 
ENDBRANCH  12  14
ENDBRANCH  11  12
BRANCH   8  16
HETATM   16  N2  UNL     1     175.348  14.726  84.208  1.00  0.00    -0.226 N 
ATOM     17  H2  UNL     1     175.358  13.732  83.976  1.00  0.00     0.177 HD
BRANCH  16  18
HETATM   18  C7  UNL     1     176.629  15.268  84.502  1.00  0.00     0.138 C 
BRANCH  18  19
HETATM   19  C8  UNL     1     177.510  15.209  83.304  1.00  0.00     0.022 C 
BRANCH  19  20
HETATM   20  C9  UNL     1     177.733  16.422  82.516  1.00  0.00     0.029 C 
BRANCH  20  21
HETATM   21  C10 UNL     1     176.947  17.645  82.808  1.00  0.00     0.229 C 
BRANCH  21  22
HETATM   22  N3  UNL     1     176.780  18.397  81.536  1.00  0.00    -0.079 N 
ATOM     23  H33 UNL     1     177.457  18.124  80.823  1.00  0.00     0.274 HD
ATOM     24  H32 UNL     1     175.935  18.132  81.029  1.00  0.00     0.274 HD
ATOM     25  H31 UNL     1     176.814  19.393  81.752  1.00  0.00     0.274 HD
ENDBRANCH  21  22
ENDBRANCH  20  21
ENDBRANCH  19  20
ENDBRANCH  18  19
ENDBRANCH  16  18
ENDBRANCH   8  16
TORSDOF 8
ENDMDL
MODEL 5
REMARK VINA RESULT: -5.617492328      2.090      5.025
REMARK  8 active torsions:
REMARK  status: ('A' for Active; 'I' for Inactive)
REMARK    1  A    between atoms: C6_8  and  N2_9 
REMARK    2  A    between atoms: N2_9  and  C7_11 
REMARK    3  A    between atoms: C7_11  and  C8_12 
REMARK    4  A    between atoms: C8_12  and  C9_13 
REMARK    5  A    between atoms: C9_13  and  C10_14 
REMARK    6  A    between atoms: C10_14  and  N3_15 
REMARK    7  A    between atoms: C11_21  and  N5_22 
REMARK    8  A    between atoms: N5_22  and  C12_24 
ROOT
HETATM    1  C1  UNL     1     170.684  17.812  84.547  1.00  0.00     0.018 C 
HETATM    2  C2  UNL     1     171.751  17.254  84.581  1.00  0.00    -0.072 C 
HETATM    3  C3  UNL     1     173.020  16.543  84.612  1.00  0.00     0.084 A 
HETATM    4  C4  UNL     1     173.066  15.300  83.959  1.00  0.00     0.045 A 
HETATM    5  C5  UNL     1     171.854  14.781  83.275  1.00  0.00     0.070 C 
HETATM    6  N1  UNL     1     174.203  14.614  83.971  1.00  0.00    -0.194 N 
ATOM      7  H1  UNL     1     174.253  13.710  83.502  1.00  0.00     0.184 HD
HETATM    8  C6  UNL     1     175.299  15.109  84.603  1.00  0.00     0.679 A 
HETATM    9  N4  UNL     1     175.247  16.273  85.212  1.00  0.00    -0.175 N 
ATOM     10  H4  UNL     1     176.091  16.609  85.675  1.00  0.00     0.186 HD
HETATM   11  C11 UNL     1     174.104  17.075  85.261  1.00  0.00     0.141 A 
ENDROOT
BRANCH  11  12
HETATM   12  N5  UNL     1     174.141  18.145  85.841  1.00  0.00    -0.355 N 
ATOM     13  H5  UNL     1     174.004  18.857  85.123  1.00  0.00     0.166 HD
BRANCH  12  14
HETATM   14  C12 UNL     1     174.281  18.815  87.008  1.00  0.00     0.058 C 
HETATM   15  C13 UNL     1     172.971  19.173  87.732  1.00  0.00     0.054 C 
ENDBRANCH  12  14
ENDBRANCH  11  12
BRANCH   8  16
HETATM   16  N2  UNL     1     176.331  14.384  84.559  1.00  0.00    -0.226 N 
ATOM     17  H2  UNL     1     176.183  13.426  84.876  1.00  0.00     0.177 HD
BRANCH  16  18
HETATM   18  C7  UNL     1     177.664  14.661  84.147  1.00  0.00     0.138 C 
BRANCH  18  19
HETATM   19  C8  UNL     1     177.671  15.411  82.863  1.00  0.00     0.022 C 
BRANCH  19  20
HETATM   20  C9  UNL     1     178.315  16.724  82.801  1.00  0.00     0.029 C 
BRANCH  20  21
HETATM   21  C10 UNL     1     177.495  17.953  82.917  1.00  0.00     0.229 C 
BRANCH  21  22
HETATM   22  N3  UNL     1     176.850  18.200  81.599  1.00  0.00    -0.079 N 
ATOM     23  H33 UNL     1     176.065  18.849  81.659  1.00  0.00     0.274 HD
ATOM     24  H32 UNL     1     177.434  18.752  80.971  1.00  0.00     0.274 HD
ATOM     25  H31 UNL     1     176.587  17.298  81.203  1.00  0.00     0.274 HD
ENDBRANCH  21  22
ENDBRANCH  20  21
ENDBRANCH  19  20
ENDBRANCH  18  19
ENDBRANCH  16  18
ENDBRANCH   8  16
TORSDOF 8
ENDMDL
