MODEL 1
REMARK VINA RESULT: -8.588368291      0.000      0.000
REMARK  4 active torsions:
REMARK  status: ('A' for Active; 'I' for Inactive)
REMARK    1  A    between atoms: C2_2  and  N1_3 
REMARK    2  A    between atoms: C2_2  and  C3_7 
REMARK    3  A    between atoms: C3_7  and  O1_9 
REMARK    4  A    between atoms: O1_9  and  C4_10 
ROOT
HETATM    1  C4  UNL     1       8.777  14.574  49.677  1.00  0.00     0.135 C 
HETATM    2  C5  UNL     1       9.041  13.573  50.730  1.00  0.00     0.037 C 
HETATM    3  C6  UNL     1      10.338  13.828  51.503  1.00  0.00     0.063 C 
HETATM    4  C7  UNL     1      10.121  14.952  52.492  1.00  0.00     0.133 C 
HETATM    5  C8  UNL     1      10.574  14.473  53.854  1.00  0.00     0.071 C 
HETATM    6  N2  UNL     1       8.751  15.258  52.546  1.00  0.00    -0.387 N 
ATOM      7  H2  UNL     1       8.173  14.865  53.288  1.00  0.00     0.156 HD
HETATM    8  C9  UNL     1       8.177  16.093  51.595  1.00  0.00     0.086 C 
HETATM    9  C10 UNL     1       6.648  15.954  51.645  1.00  0.00     0.032 C 
HETATM   10  C11 UNL     1       8.616  15.984  50.182  1.00  0.00     0.072 C 
HETATM   11  C12 UNL     1       9.900  16.716  50.034  1.00  0.00    -0.013 A 
HETATM   12  C13 UNL     1      10.015  17.427  48.856  1.00  0.00     0.011 A 
HETATM   13  C14 UNL     1      11.178  18.159  48.604  1.00  0.00     0.004 A 
HETATM   14  C15 UNL     1      12.222  18.182  49.519  1.00  0.00     0.045 A 
HETATM   15  C16 UNL     1      12.106  17.471  50.697  1.00  0.00     0.150 A 
HETATM   16  F2  UNL     1      13.100  17.477  51.599  1.00  0.00    -0.203 F 
HETATM   17  C17 UNL     1      10.955  16.752  50.937  1.00  0.00     0.117 A 
HETATM   18  O2  UNL     1      10.956  16.067  52.174  1.00  0.00    -0.317 OA
ENDROOT
BRANCH   1  19
HETATM   19  O1  UNL     1       7.618  14.219  48.965  1.00  0.00    -0.349 OA
BRANCH  19  20
HETATM   20  C3  UNL     1       7.787  14.236  47.594  1.00  0.00     0.337 C 
HETATM   21  F1  UNL     1       7.183  15.400  47.056  1.00  0.00    -0.217 F 
BRANCH  20  22
HETATM   22  C2  UNL     1       7.060  13.084  46.980  1.00  0.00     0.239 C 
HETATM   23  C1  UNL     1       5.732  13.564  46.392  1.00  0.00     0.045 C 
BRANCH  22  24
HETATM   24  N1  UNL     1       6.854  12.006  47.917  1.00  0.00    -0.070 N 
ATOM     25  H13 UNL     1       5.925  11.596  47.819  1.00  0.00     0.274 HD
ATOM     26  H12 UNL     1       7.411  11.187  47.675  1.00  0.00     0.274 HD
ATOM     27  H11 UNL     1       7.031  12.311  48.873  1.00  0.00     0.274 HD
ENDBRANCH  22  24
ENDBRANCH  20  22
ENDBRANCH  19  20
ENDBRANCH   1  19
TORSDOF 4
ENDMDL
MODEL 2
REMARK VINA RESULT: -8.427287926      1.974      3.540
REMARK  4 active torsions:
REMARK  status: ('A' for Active; 'I' for Inactive)
REMARK    1  A    between atoms: C2_2  and  N1_3 
REMARK    2  A    between atoms: C2_2  and  C3_7 
REMARK    3  A    between atoms: C3_7  and  O1_9 
REMARK    4  A    between atoms: O1_9  and  C4_10 
ROOT
HETATM    1  C4  UNL     1       7.357  15.047  49.658  1.00  0.00     0.135 C 
HETATM    2  C5  UNL     1       6.826  15.934  50.713  1.00  0.00     0.037 C 
HETATM    3  C6  UNL     1       7.250  15.524  52.126  1.00  0.00     0.063 C 
HETATM    4  C7  UNL     1       8.685  15.944  52.362  1.00  0.00     0.133 C 
HETATM    5  C8  UNL     1       8.736  16.735  53.651  1.00  0.00     0.071 C 
HETATM    6  N2  UNL     1       9.103  16.765  51.302  1.00  0.00    -0.387 N 
ATOM      7  H2  UNL     1       9.079  17.779  51.408  1.00  0.00     0.156 HD
HETATM    8  C9  UNL     1       9.548  16.207  50.109  1.00  0.00     0.086 C 
HETATM    9  C10 UNL     1       9.569  17.284  49.014  1.00  0.00     0.032 C 
HETATM   10  C11 UNL     1       8.861  15.004  49.577  1.00  0.00     0.072 C 
HETATM   11  C12 UNL     1       9.366  13.816  50.311  1.00  0.00    -0.013 A 
HETATM   12  C13 UNL     1       9.551  12.698  49.521  1.00  0.00     0.011 A 
HETATM   13  C14 UNL     1      10.026  11.518  50.097  1.00  0.00     0.004 A 
HETATM   14  C15 UNL     1      10.315  11.449  51.453  1.00  0.00     0.045 A 
HETATM   15  C16 UNL     1      10.130  12.566  52.243  1.00  0.00     0.150 A 
HETATM   16  F2  UNL     1      10.401  12.527  53.557  1.00  0.00    -0.203 F 
HETATM   17  C17 UNL     1       9.661  13.726  51.665  1.00  0.00     0.117 A 
HETATM   18  O2  UNL     1       9.513  14.799  52.575  1.00  0.00    -0.317 OA
ENDROOT
BRANCH   1  19
HETATM   19  O1  UNL     1       6.854  15.444  48.408  1.00  0.00    -0.349 OA
BRANCH  19  20
HETATM   20  C3  UNL     1       7.370  14.717  47.351  1.00  0.00     0.337 C 
HETATM   21  F1  UNL     1       6.979  15.317  46.128  1.00  0.00    -0.217 F 
BRANCH  20  22
HETATM   22  C2  UNL     1       6.771  13.348  47.339  1.00  0.00     0.239 C 
HETATM   23  C1  UNL     1       7.089  12.656  46.012  1.00  0.00     0.045 C 
BRANCH  22  24
HETATM   24  N1  UNL     1       5.350  13.369  47.586  1.00  0.00    -0.070 N 
ATOM     25  H13 UNL     1       5.101  14.066  48.288  1.00  0.00     0.274 HD
ATOM     26  H12 UNL     1       4.837  13.756  46.795  1.00  0.00     0.274 HD
ATOM     27  H11 UNL     1       5.007  12.443  47.839  1.00  0.00     0.274 HD
ENDBRANCH  22  24
ENDBRANCH  20  22
ENDBRANCH  19  20
ENDBRANCH   1  19
TORSDOF 4
ENDMDL
MODEL 3
REMARK VINA RESULT: -8.059030391      2.478      5.198
REMARK  4 active torsions:
REMARK  status: ('A' for Active; 'I' for Inactive)
REMARK    1  A    between atoms: C2_2  and  N1_3 
REMARK    2  A    between atoms: C2_2  and  C3_7 
REMARK    3  A    between atoms: C3_7  and  O1_9 
REMARK    4  A    between atoms: O1_9  and  C4_10 
ROOT
HETATM    1  C4  UNL     1       9.600  14.709  49.990  1.00  0.00     0.135 C 
HETATM    2  C5  UNL     1      10.022  16.123  50.071  1.00  0.00     0.037 C 
HETATM    3  C6  UNL     1       9.513  16.978  48.908  1.00  0.00     0.063 C 
HETATM    4  C7  UNL     1       8.051  17.303  49.125  1.00  0.00     0.133 C 
HETATM    5  C8  UNL     1       7.878  18.801  48.997  1.00  0.00     0.071 C 
HETATM    6  N2  UNL     1       7.680  16.907  50.420  1.00  0.00    -0.387 N 
ATOM      7  H2  UNL     1       7.659  17.595  51.173  1.00  0.00     0.156 HD
HETATM    8  C9  UNL     1       7.342  15.585  50.685  1.00  0.00     0.086 C 
HETATM    9  C10 UNL     1       7.359  15.344  52.202  1.00  0.00     0.032 C 
HETATM   10  C11 UNL     1       8.108  14.500  50.024  1.00  0.00     0.072 C 
HETATM   11  C12 UNL     1       7.596  14.344  48.639  1.00  0.00    -0.013 A 
HETATM   12  C13 UNL     1       7.508  13.034  48.211  1.00  0.00     0.011 A 
HETATM   13  C14 UNL     1       7.037  12.759  46.925  1.00  0.00     0.004 A 
HETATM   14  C15 UNL     1       6.655  13.782  46.069  1.00  0.00     0.045 A 
HETATM   15  C16 UNL     1       6.742  15.091  46.496  1.00  0.00     0.150 A 
HETATM   16  F2  UNL     1       6.379  16.100  45.689  1.00  0.00    -0.203 F 
HETATM   17  C17 UNL     1       7.208  15.353  47.767  1.00  0.00     0.117 A 
HETATM   18  O2  UNL     1       7.251  16.729  48.088  1.00  0.00    -0.317 OA
ENDROOT
BRANCH   1  19
HETATM   19  O1  UNL     1      10.176  13.982  51.045  1.00  0.00    -0.349 OA
BRANCH  19  20
HETATM   20  C3  UNL     1      10.548  12.699  50.690  1.00  0.00     0.337 C 
HETATM   21  F1  UNL     1      10.189  12.458  49.340  1.00  0.00    -0.217 F 
BRANCH  20  22
HETATM   22  C2  UNL     1       9.775  11.706  51.497  1.00  0.00     0.239 C 
HETATM   23  C1  UNL     1       9.426  12.308  52.859  1.00  0.00     0.045 C 
BRANCH  22  24
HETATM   24  N1  UNL     1      10.478  10.456  51.646  1.00  0.00    -0.070 N 
ATOM     25  H13 UNL     1      11.489  10.589  51.636  1.00  0.00     0.274 HD
ATOM     26  H12 UNL     1      10.380  10.079  52.588  1.00  0.00     0.274 HD
ATOM     27  H11 UNL     1      10.182   9.782  50.940  1.00  0.00     0.274 HD
ENDBRANCH  22  24
ENDBRANCH  20  22
ENDBRANCH  19  20
ENDBRANCH   1  19
TORSDOF 4
ENDMDL
MODEL 4
REMARK VINA RESULT: -7.857758756      2.246      3.979
REMARK  4 active torsions:
REMARK  status: ('A' for Active; 'I' for Inactive)
REMARK    1  A    between atoms: C2_2  and  N1_3 
REMARK    2  A    between atoms: C2_2  and  C3_7 
REMARK    3  A    between atoms: C3_7  and  O1_9 
REMARK    4  A    between atoms: O1_9  and  C4_10 
ROOT
HETATM    1  C4  UNL     1       7.736  14.908  49.829  1.00  0.00     0.135 C 
HETATM    2  C5  UNL     1       6.946  15.968  50.488  1.00  0.00     0.037 C 
HETATM    3  C6  UNL     1       6.831  15.789  52.004  1.00  0.00     0.063 C 
HETATM    4  C7  UNL     1       8.127  16.214  52.660  1.00  0.00     0.133 C 
HETATM    5  C8  UNL     1       7.797  17.206  53.754  1.00  0.00     0.071 C 
HETATM    6  N2  UNL     1       8.943  16.839  51.703  1.00  0.00    -0.387 N 
ATOM      7  H2  UNL     1       8.963  17.857  51.643  1.00  0.00     0.156 HD
HETATM    8  C9  UNL     1       9.724  16.082  50.838  1.00  0.00     0.086 C 
HETATM    9  C10 UNL     1      10.200  16.962  49.672  1.00  0.00     0.032 C 
HETATM   10  C11 UNL     1       9.169  14.822  50.284  1.00  0.00     0.072 C 
HETATM   11  C12 UNL     1       9.301  13.761  51.316  1.00  0.00    -0.013 A 
HETATM   12  C13 UNL     1       9.658  12.525  50.815  1.00  0.00     0.011 A 
HETATM   13  C14 UNL     1       9.815  11.447  51.689  1.00  0.00     0.004 A 
HETATM   14  C15 UNL     1       9.619  11.598  53.055  1.00  0.00     0.045 A 
HETATM   15  C16 UNL     1       9.262  12.834  53.555  1.00  0.00     0.150 A 
HETATM   16  F2  UNL     1       9.066  13.008  54.872  1.00  0.00    -0.203 F 
HETATM   17  C17 UNL     1       9.109  13.892  52.685  1.00  0.00     0.117 A 
HETATM   18  O2  UNL     1       8.743  15.103  53.316  1.00  0.00    -0.317 OA
ENDROOT
BRANCH   1  19
HETATM   19  O1  UNL     1       7.721  15.102  48.437  1.00  0.00    -0.349 OA
BRANCH  19  20
HETATM   20  C3  UNL     1       7.256  14.007  47.734  1.00  0.00     0.337 C 
HETATM   21  F1  UNL     1       8.345  13.169  47.386  1.00  0.00    -0.217 F 
BRANCH  20  22
HETATM   22  C2  UNL     1       6.661  14.454  46.437  1.00  0.00     0.239 C 
HETATM   23  C1  UNL     1       6.711  15.980  46.344  1.00  0.00     0.045 C 
BRANCH  22  24
HETATM   24  N1  UNL     1       5.315  13.966  46.256  1.00  0.00    -0.070 N 
ATOM     25  H13 UNL     1       4.661  14.425  46.888  1.00  0.00     0.274 HD
ATOM     26  H12 UNL     1       4.919  14.277  45.369  1.00  0.00     0.274 HD
ATOM     27  H11 UNL     1       5.277  12.951  46.348  1.00  0.00     0.274 HD
ENDBRANCH  22  24
ENDBRANCH  20  22
ENDBRANCH  19  20
ENDBRANCH   1  19
TORSDOF 4
ENDMDL
MODEL 5
REMARK VINA RESULT: -7.707228114      1.659      3.498
REMARK  4 active torsions:
REMARK  status: ('A' for Active; 'I' for Inactive)
REMARK    1  A    between atoms: C2_2  and  N1_3 
REMARK    2  A    between atoms: C2_2  and  C3_7 
REMARK    3  A    between atoms: C3_7  and  O1_9 
REMARK    4  A    between atoms: O1_9  and  C4_10 
ROOT
HETATM    1  C4  UNL     1       7.683  15.444  49.613  1.00  0.00     0.135 C 
HETATM    2  C5  UNL     1       8.772  16.087  48.849  1.00  0.00     0.037 C 
HETATM    3  C6  UNL     1       9.549  17.131  49.655  1.00  0.00     0.063 C 
HETATM    4  C7  UNL     1      10.498  16.430  50.602  1.00  0.00     0.133 C 
HETATM    5  C8  UNL     1      11.880  17.013  50.399  1.00  0.00     0.071 C 
HETATM    6  N2  UNL     1      10.527  15.060  50.293  1.00  0.00    -0.387 N 
ATOM      7  H2  UNL     1      11.277  14.689  49.709  1.00  0.00     0.156 HD
HETATM    8  C9  UNL     1       9.543  14.206  50.776  1.00  0.00     0.086 C 
HETATM    9  C10 UNL     1       9.582  12.883  49.996  1.00  0.00     0.032 C 
HETATM   10  C11 UNL     1       8.139  14.683  50.830  1.00  0.00     0.072 C 
HETATM   11  C12 UNL     1       7.981  15.533  52.038  1.00  0.00    -0.013 A 
HETATM   12  C13 UNL     1       6.782  15.360  52.700  1.00  0.00     0.011 A 
HETATM   13  C14 UNL     1       6.518  16.104  53.852  1.00  0.00     0.004 A 
HETATM   14  C15 UNL     1       7.442  17.014  54.344  1.00  0.00     0.045 A 
HETATM   15  C16 UNL     1       8.641  17.187  53.683  1.00  0.00     0.150 A 
HETATM   16  F2  UNL     1       9.553  18.061  54.137  1.00  0.00    -0.203 F 
HETATM   17  C17 UNL     1       8.893  16.449  52.546  1.00  0.00     0.117 A 
HETATM   18  O2  UNL     1      10.152  16.714  51.960  1.00  0.00    -0.317 OA
ENDROOT
BRANCH   1  19
HETATM   19  O1  UNL     1       6.972  14.566  48.777  1.00  0.00    -0.349 OA
BRANCH  19  20
HETATM   20  C3  UNL     1       7.491  14.481  47.500  1.00  0.00     0.337 C 
HETATM   21  F1  UNL     1       6.678  15.224  46.607  1.00  0.00    -0.217 F 
BRANCH  20  22
HETATM   22  C2  UNL     1       7.428  13.066  47.021  1.00  0.00     0.239 C 
HETATM   23  C1  UNL     1       6.688  13.005  45.684  1.00  0.00     0.045 C 
BRANCH  22  24
HETATM   24  N1  UNL     1       6.821  12.187  47.991  1.00  0.00    -0.070 N 
ATOM     25  H13 UNL     1       6.096  11.607  47.571  1.00  0.00     0.274 HD
ATOM     26  H12 UNL     1       7.462  11.449  48.281  1.00  0.00     0.274 HD
ATOM     27  H11 UNL     1       6.466  12.711  48.790  1.00  0.00     0.274 HD
ENDBRANCH  22  24
ENDBRANCH  20  22
ENDBRANCH  19  20
ENDBRANCH   1  19
TORSDOF 4
ENDMDL
