MODEL 1
REMARK VINA RESULT: -8.584904280      0.000      0.000
REMARK  4 active torsions:
REMARK  status: ('A' for Active; 'I' for Inactive)
REMARK    1  A    between atoms: C2_2  and  C3_5 
REMARK    2  A    between atoms: C9_11  and  C10_12 
REMARK       I    between atoms: C10_12  and  N1_14 
REMARK       I    between atoms: C11_16  and  N3_18 
REMARK       I    between atoms: N3_18  and  C12_20 
REMARK    3  A    between atoms: C12_20  and  C13_22 
REMARK    4  A    between atoms: C13_22  and  C14_23 
ROOT
HETATM    1  C10 UNL     1       8.593  15.380  49.633  1.00  0.00     0.229 C 
HETATM    2  O1  UNL     1       9.002  14.276  49.212  1.00  0.00    -0.273 OA
HETATM    3  N1  UNL     1       8.510  16.433  48.685  1.00  0.00    -0.301 N 
ATOM      4  H1  UNL     1       9.082  17.269  48.800  1.00  0.00     0.171 HD
HETATM    5  C11 UNL     1       7.708  16.331  47.679  1.00  0.00     0.197 C 
HETATM    6  N2  UNL     1       6.935  15.143  47.570  1.00  0.00    -0.063 NA
HETATM    7  N3  UNL     1       7.600  17.373  46.707  1.00  0.00    -0.301 N 
ATOM      8  H3  UNL     1       8.154  18.226  46.784  1.00  0.00     0.171 HD
HETATM    9  C12 UNL     1       6.699  17.181  45.633  1.00  0.00     0.234 C 
HETATM   10  O2  UNL     1       6.004  16.141  45.514  1.00  0.00    -0.273 OA
ENDROOT
BRANCH   1  11
HETATM   11  C9  UNL     1       8.198  15.674  51.008  1.00  0.00     0.092 C 
HETATM   12  C3  UNL     1       9.258  15.635  52.043  1.00  0.00     0.034 C 
HETATM   13  C4  UNL     1      10.530  16.258  51.517  1.00  0.00     0.022 C 
HETATM   14  C5  UNL     1       8.797  16.526  53.185  1.00  0.00     0.016 C 
HETATM   15  C6  UNL     1       7.301  16.556  53.330  1.00  0.00     0.001 C 
HETATM   16  C7  UNL     1       6.621  17.163  52.120  1.00  0.00     0.001 C 
HETATM   17  C8  UNL     1       7.634  17.107  50.997  1.00  0.00     0.015 C 
BRANCH  12  18
HETATM   18  C2  UNL     1       9.596  14.248  52.545  1.00  0.00     0.248 C 
HETATM   19  C1  UNL     1       9.967  14.249  54.005  1.00  0.00     0.091 C 
HETATM   20  F1  UNL     1      10.638  13.660  51.866  1.00  0.00    -0.206 F 
HETATM   21  F2  UNL     1       8.485  13.441  52.391  1.00  0.00    -0.206 F 
ENDBRANCH  12  18
ENDBRANCH   1  11
BRANCH   9  22
HETATM   22  C13 UNL     1       6.603  18.288  44.627  1.00  0.00     0.216 C 
BRANCH  22  23
HETATM   23  C14 UNL     1       7.893  18.608  44.012  1.00  0.00     0.181 C 
HETATM   24  O3  UNL     1       8.940  18.700  44.679  1.00  0.00    -0.648 OA
HETATM   25  O4  UNL     1       7.898  18.805  42.628  1.00  0.00    -0.648 OA
ENDBRANCH  22  23
ENDBRANCH   9  22
TORSDOF 4
ENDMDL
MODEL 2
REMARK VINA RESULT: -7.730274598      0.868      1.082
REMARK  4 active torsions:
REMARK  status: ('A' for Active; 'I' for Inactive)
REMARK    1  A    between atoms: C2_2  and  C3_5 
REMARK    2  A    between atoms: C9_11  and  C10_12 
REMARK       I    between atoms: C10_12  and  N1_14 
REMARK       I    between atoms: C11_16  and  N3_18 
REMARK       I    between atoms: N3_18  and  C12_20 
REMARK    3  A    between atoms: C12_20  and  C13_22 
REMARK    4  A    between atoms: C13_22  and  C14_23 
ROOT
HETATM    1  C10 UNL     1       8.614  15.209  49.745  1.00  0.00     0.229 C 
HETATM    2  O1  UNL     1       8.826  14.052  49.322  1.00  0.00    -0.273 OA
HETATM    3  N1  UNL     1       8.668  16.256  48.789  1.00  0.00    -0.301 N 
ATOM      4  H1  UNL     1       9.371  16.990  48.876  1.00  0.00     0.171 HD
HETATM    5  C11 UNL     1       7.828  16.279  47.809  1.00  0.00     0.197 C 
HETATM    6  N2  UNL     1       6.871  15.229  47.738  1.00  0.00    -0.063 NA
HETATM    7  N3  UNL     1       7.855  17.318  46.830  1.00  0.00    -0.301 N 
ATOM      8  H3  UNL     1       8.540  18.072  46.880  1.00  0.00     0.171 HD
HETATM    9  C12 UNL     1       6.899  17.268  45.788  1.00  0.00     0.234 C 
HETATM   10  O2  UNL     1       6.043  16.352  45.703  1.00  0.00    -0.273 OA
ENDROOT
BRANCH   1  11
HETATM   11  C9  UNL     1       8.316  15.570  51.128  1.00  0.00     0.092 C 
HETATM   12  C3  UNL     1       9.462  15.678  52.063  1.00  0.00     0.034 C 
HETATM   13  C4  UNL     1      10.633  16.348  51.386  1.00  0.00     0.022 C 
HETATM   14  C5  UNL     1       9.034  16.612  53.183  1.00  0.00     0.016 C 
HETATM   15  C6  UNL     1       7.558  16.549  53.461  1.00  0.00     0.001 C 
HETATM   16  C7  UNL     1       6.733  17.021  52.282  1.00  0.00     0.001 C 
HETATM   17  C8  UNL     1       7.648  16.957  51.077  1.00  0.00     0.015 C 
BRANCH  12  18
HETATM   18  C2  UNL     1       9.944  14.356  52.620  1.00  0.00     0.248 C 
HETATM   19  C1  UNL     1       8.814  13.382  52.826  1.00  0.00     0.091 C 
HETATM   20  F1  UNL     1      10.597  14.475  53.825  1.00  0.00    -0.206 F 
HETATM   21  F2  UNL     1      10.827  13.794  51.718  1.00  0.00    -0.206 F 
ENDBRANCH  12  18
ENDBRANCH   1  11
BRANCH   9  22
HETATM   22  C13 UNL     1       6.947  18.369  44.774  1.00  0.00     0.216 C 
BRANCH  22  23
HETATM   23  C14 UNL     1       8.152  19.194  44.889  1.00  0.00     0.181 C 
HETATM   24  O3  UNL     1       8.099  20.417  45.116  1.00  0.00    -0.648 OA
HETATM   25  O4  UNL     1       9.379  18.541  44.734  1.00  0.00    -0.648 OA
ENDBRANCH  22  23
ENDBRANCH   9  22
TORSDOF 4
ENDMDL
MODEL 3
REMARK VINA RESULT: -7.701338640      1.229      1.414
REMARK  4 active torsions:
REMARK  status: ('A' for Active; 'I' for Inactive)
REMARK    1  A    between atoms: C2_2  and  C3_5 
REMARK    2  A    between atoms: C9_11  and  C10_12 
REMARK       I    between atoms: C10_12  and  N1_14 
REMARK       I    between atoms: C11_16  and  N3_18 
REMARK       I    between atoms: N3_18  and  C12_20 
REMARK    3  A    between atoms: C12_20  and  C13_22 
REMARK    4  A    between atoms: C13_22  and  C14_23 
ROOT
HETATM    1  C10 UNL     1       8.568  15.257  49.787  1.00  0.00     0.229 C 
HETATM    2  O1  UNL     1       8.993  14.144  49.411  1.00  0.00    -0.273 OA
HETATM    3  N1  UNL     1       8.462  16.267  48.796  1.00  0.00    -0.301 N 
ATOM      4  H1  UNL     1       9.021  17.117  48.872  1.00  0.00     0.171 HD
HETATM    5  C11 UNL     1       7.657  16.110  47.800  1.00  0.00     0.197 C 
HETATM    6  N2  UNL     1       6.903  14.905  47.746  1.00  0.00    -0.063 NA
HETATM    7  N3  UNL     1       7.526  17.107  46.785  1.00  0.00    -0.301 N 
ATOM      8  H3  UNL     1       8.066  17.972  46.822  1.00  0.00     0.171 HD
HETATM    9  C12 UNL     1       6.622  16.855  45.726  1.00  0.00     0.234 C 
HETATM   10  O2  UNL     1       5.944  15.800  45.655  1.00  0.00    -0.273 OA
ENDROOT
BRANCH   1  11
HETATM   11  C9  UNL     1       8.175  15.603  51.151  1.00  0.00     0.092 C 
HETATM   12  C3  UNL     1       9.247  15.661  52.173  1.00  0.00     0.034 C 
HETATM   13  C4  UNL     1      10.485  16.309  51.601  1.00  0.00     0.022 C 
HETATM   14  C5  UNL     1       8.760  16.588  53.275  1.00  0.00     0.016 C 
HETATM   15  C6  UNL     1       7.266  16.563  53.437  1.00  0.00     0.001 C 
HETATM   16  C7  UNL     1       6.548  17.079  52.207  1.00  0.00     0.001 C 
HETATM   17  C8  UNL     1       7.551  17.009  51.076  1.00  0.00     0.015 C 
BRANCH  12  18
HETATM   18  C2  UNL     1       9.648  14.316  52.739  1.00  0.00     0.248 C 
HETATM   19  C1  UNL     1      10.046  14.408  54.189  1.00  0.00     0.091 C 
HETATM   20  F1  UNL     1      10.700  13.733  52.070  1.00  0.00    -0.206 F 
HETATM   21  F2  UNL     1       8.567  13.461  52.650  1.00  0.00    -0.206 F 
ENDBRANCH  12  18
ENDBRANCH   1  11
BRANCH   9  22
HETATM   22  C13 UNL     1       6.503  17.916  44.674  1.00  0.00     0.216 C 
BRANCH  22  23
HETATM   23  C14 UNL     1       5.112  18.265  44.377  1.00  0.00     0.181 C 
HETATM   24  O3  UNL     1       4.224  17.401  44.251  1.00  0.00    -0.648 OA
HETATM   25  O4  UNL     1       4.820  19.626  44.241  1.00  0.00    -0.648 OA
ENDBRANCH  22  23
ENDBRANCH   9  22
TORSDOF 4
ENDMDL
MODEL 4
REMARK VINA RESULT: -7.699666594      1.823      3.050
REMARK  4 active torsions:
REMARK  status: ('A' for Active; 'I' for Inactive)
REMARK    1  A    between atoms: C2_2  and  C3_5 
REMARK    2  A    between atoms: C9_11  and  C10_12 
REMARK       I    between atoms: C10_12  and  N1_14 
REMARK       I    between atoms: C11_16  and  N3_18 
REMARK       I    between atoms: N3_18  and  C12_20 
REMARK    3  A    between atoms: C12_20  and  C13_22 
REMARK    4  A    between atoms: C13_22  and  C14_23 
ROOT
HETATM    1  C10 UNL     1       8.139  16.227  49.807  1.00  0.00     0.229 C 
HETATM    2  O1  UNL     1       8.031  17.264  50.496  1.00  0.00    -0.273 OA
HETATM    3  N1  UNL     1       7.468  16.219  48.557  1.00  0.00    -0.301 N 
ATOM      4  H1  UNL     1       6.721  15.546  48.383  1.00  0.00     0.171 HD
HETATM    5  C11 UNL     1       7.802  17.064  47.640  1.00  0.00     0.197 C 
HETATM    6  N2  UNL     1       8.850  17.979  47.939  1.00  0.00    -0.063 NA
HETATM    7  N3  UNL     1       7.147  17.084  46.371  1.00  0.00    -0.301 N 
ATOM      8  H3  UNL     1       6.396  16.428  46.155  1.00  0.00     0.171 HD
HETATM    9  C12 UNL     1       7.574  18.043  45.424  1.00  0.00     0.234 C 
HETATM   10  O2  UNL     1       8.497  18.862  45.662  1.00  0.00    -0.273 OA
ENDROOT
BRANCH   1  11
HETATM   11  C9  UNL     1       8.893  15.032  50.177  1.00  0.00     0.092 C 
HETATM   12  C3  UNL     1       8.921  14.664  51.613  1.00  0.00     0.034 C 
HETATM   13  C4  UNL     1       7.560  14.872  52.236  1.00  0.00     0.022 C 
HETATM   14  C5  UNL     1       9.189  13.170  51.683  1.00  0.00     0.016 C 
HETATM   15  C6  UNL     1      10.031  12.677  50.540  1.00  0.00     0.001 C 
HETATM   16  C7  UNL     1       9.335  12.841  49.205  1.00  0.00     0.001 C 
HETATM   17  C8  UNL     1       8.237  13.858  49.426  1.00  0.00     0.015 C 
BRANCH  12  18
HETATM   18  C2  UNL     1       9.929  15.432  52.439  1.00  0.00     0.248 C 
HETATM   19  C1  UNL     1      10.456  14.617  53.591  1.00  0.00     0.091 C 
HETATM   20  F1  UNL     1       9.428  16.599  52.968  1.00  0.00    -0.206 F 
HETATM   21  F2  UNL     1      11.000  15.763  51.631  1.00  0.00    -0.206 F 
ENDBRANCH  12  18
ENDBRANCH   1  11
BRANCH   9  22
HETATM   22  C13 UNL     1       6.872  18.043  44.100  1.00  0.00     0.216 C 
BRANCH  22  23
HETATM   23  C14 UNL     1       5.451  18.380  44.212  1.00  0.00     0.181 C 
HETATM   24  O3  UNL     1       4.996  19.473  43.828  1.00  0.00    -0.648 OA
HETATM   25  O4  UNL     1       4.617  17.408  44.774  1.00  0.00    -0.648 OA
ENDBRANCH  22  23
ENDBRANCH   9  22
TORSDOF 4
ENDMDL
MODEL 5
REMARK VINA RESULT: -7.515351357      1.884      3.086
REMARK  4 active torsions:
REMARK  status: ('A' for Active; 'I' for Inactive)
REMARK    1  A    between atoms: C2_2  and  C3_5 
REMARK    2  A    between atoms: C9_11  and  C10_12 
REMARK       I    between atoms: C10_12  and  N1_14 
REMARK       I    between atoms: C11_16  and  N3_18 
REMARK       I    between atoms: N3_18  and  C12_20 
REMARK    3  A    between atoms: C12_20  and  C13_22 
REMARK    4  A    between atoms: C13_22  and  C14_23 
ROOT
HETATM    1  C10 UNL     1       8.015  16.384  49.437  1.00  0.00     0.229 C 
HETATM    2  O1  UNL     1       7.628  17.262  50.238  1.00  0.00    -0.273 OA
HETATM    3  N1  UNL     1       7.705  16.590  48.068  1.00  0.00    -0.301 N 
ATOM      4  H1  UNL     1       7.099  15.932  47.577  1.00  0.00     0.171 HD
HETATM    5  C11 UNL     1       8.190  17.610  47.443  1.00  0.00     0.197 C 
HETATM    6  N2  UNL     1       9.027  18.494  48.178  1.00  0.00    -0.063 NA
HETATM    7  N3  UNL     1       7.898  17.847  46.065  1.00  0.00    -0.301 N 
ATOM      8  H3  UNL     1       7.298  17.214  45.537  1.00  0.00     0.171 HD
HETATM    9  C12 UNL     1       8.469  18.989  45.458  1.00  0.00     0.234 C 
HETATM   10  O2  UNL     1       9.213  19.786  46.084  1.00  0.00    -0.273 OA
ENDROOT
BRANCH   1  11
HETATM   11  C9  UNL     1       8.752  15.174  49.789  1.00  0.00     0.092 C 
HETATM   12  C3  UNL     1       8.878  14.849  51.230  1.00  0.00     0.034 C 
HETATM   13  C4  UNL     1       7.578  15.127  51.947  1.00  0.00     0.022 C 
HETATM   14  C5  UNL     1       9.098  13.349  51.330  1.00  0.00     0.016 C 
HETATM   15  C6  UNL     1       9.832  12.789  50.143  1.00  0.00     0.001 C 
HETATM   16  C7  UNL     1       9.041  12.938  48.860  1.00  0.00     0.001 C 
HETATM   17  C8  UNL     1       7.999  14.003  49.130  1.00  0.00     0.015 C 
BRANCH  12  18
HETATM   18  C2  UNL     1       9.974  15.604  51.951  1.00  0.00     0.248 C 
HETATM   19  C1  UNL     1      10.659  14.754  52.988  1.00  0.00     0.091 C 
HETATM   20  F1  UNL     1       9.528  16.737  52.591  1.00  0.00    -0.206 F 
HETATM   21  F2  UNL     1      10.924  15.990  51.026  1.00  0.00    -0.206 F 
ENDBRANCH  12  18
ENDBRANCH   1  11
BRANCH   9  22
HETATM   22  C13 UNL     1       8.149  19.216  44.011  1.00  0.00     0.216 C 
BRANCH  22  23
HETATM   23  C14 UNL     1       6.797  18.781  43.656  1.00  0.00     0.181 C 
HETATM   24  O3  UNL     1       6.553  17.622  43.269  1.00  0.00    -0.648 OA
HETATM   25  O4  UNL     1       5.778  19.732  43.772  1.00  0.00    -0.648 OA
ENDBRANCH  22  23
ENDBRANCH   9  22
TORSDOF 4
ENDMDL
