MODEL 1
REMARK VINA RESULT: -7.316916768      0.000      0.000
REMARK  6 active torsions:
REMARK  status: ('A' for Active; 'I' for Inactive)
REMARK    1  A    between atoms: N1_1  and  C1_4 
REMARK    2  A    between atoms: C4_10  and  N3_11 
REMARK    3  A    between atoms: N3_11  and  C5_13 
REMARK    4  A    between atoms: C5_13  and  C6_14 
REMARK    5  A    between atoms: C6_14  and  C7_15 
REMARK    6  A    between atoms: C7_15  and  N4_16 
ROOT
HETATM    1  C1  UNL     1       7.467  13.026  48.223  1.00  0.00     0.677 A 
HETATM    2  N2  UNL     1       7.100  14.318  48.114  1.00  0.00    -0.201 N 
ATOM      3  H2  UNL     1       6.258  14.570  47.596  1.00  0.00     0.183 HD
HETATM    4  C2  UNL     1       7.853  15.283  48.695  1.00  0.00     0.129 A 
HETATM    5  C3  UNL     1       8.986  14.915  49.389  1.00  0.00     0.071 A 
HETATM    6 BR1  UNL     1      10.042  16.275  50.203  1.00  0.00    -0.046 Br
HETATM    7  C4  UNL     1       9.375  13.575  49.509  1.00  0.00     0.135 A 
HETATM    8  N5  UNL     1       8.576  12.680  48.905  1.00  0.00    -0.176 N 
ATOM      9  H5  UNL     1       8.819  11.692  48.967  1.00  0.00     0.186 HD
ENDROOT
BRANCH   7  10
HETATM   10  N3  UNL     1      10.429  13.257  50.159  1.00  0.00    -0.375 N 
ATOM     11  H3  UNL     1      11.301  13.661  49.817  1.00  0.00     0.161 HD
BRANCH  10  12
HETATM   12  C5  UNL     1      10.541  12.414  51.295  1.00  0.00     0.123 C 
BRANCH  12  13
HETATM   13  C6  UNL     1      10.459  13.243  52.583  1.00  0.00     0.050 C 
BRANCH  13  14
HETATM   14  C7  UNL     1       9.083  13.007  53.146  1.00  0.00     0.274 C 
BRANCH  14  15
HETATM   15  N4  UNL     1       8.487  14.199  53.693  1.00  0.00     0.088 N 
HETATM   16  C8  UNL     1       7.667  14.884  52.725  1.00  0.00     0.272 C 
HETATM   17  C9  UNL     1       7.021  16.074  53.429  1.00  0.00     0.030 C 
HETATM   18  C10 UNL     1       8.110  17.045  53.738  1.00  0.00     0.003 C 
HETATM   19  C11 UNL     1       9.149  16.399  54.581  1.00  0.00     0.030 C 
HETATM   20  C12 UNL     1       9.549  15.018  54.214  1.00  0.00     0.272 C 
ENDBRANCH  14  15
ENDBRANCH  13  14
ENDBRANCH  12  13
ENDBRANCH  10  12
ENDBRANCH   7  10
BRANCH   1  21
HETATM   21  N1  UNL     1       6.765  12.094  47.679  1.00  0.00    -0.234 N 
ATOM     22  H12 UNL     1       7.068  11.719  46.780  1.00  0.00     0.174 HD
ATOM     23  H11 UNL     1       5.925  11.738  48.137  1.00  0.00     0.174 HD
ENDBRANCH   1  21
TORSDOF 6
ENDMDL
MODEL 2
REMARK VINA RESULT: -7.307690790      0.561      1.267
REMARK  6 active torsions:
REMARK  status: ('A' for Active; 'I' for Inactive)
REMARK    1  A    between atoms: N1_1  and  C1_4 
REMARK    2  A    between atoms: C4_10  and  N3_11 
REMARK    3  A    between atoms: N3_11  and  C5_13 
REMARK    4  A    between atoms: C5_13  and  C6_14 
REMARK    5  A    between atoms: C6_14  and  C7_15 
REMARK    6  A    between atoms: C7_15  and  N4_16 
ROOT
HETATM    1  C1  UNL     1       7.437  12.961  48.233  1.00  0.00     0.677 A 
HETATM    2  N2  UNL     1       7.063  14.242  48.041  1.00  0.00    -0.201 N 
ATOM      3  H2  UNL     1       6.225  14.455  47.499  1.00  0.00     0.183 HD
HETATM    4  C2  UNL     1       7.802  15.245  48.571  1.00  0.00     0.129 A 
HETATM    5  C3  UNL     1       8.929  14.929  49.299  1.00  0.00     0.071 A 
HETATM    6 BR1  UNL     1       9.966  16.344  50.041  1.00  0.00    -0.046 Br
HETATM    7  C4  UNL     1       9.326  13.601  49.505  1.00  0.00     0.135 A 
HETATM    8  N5  UNL     1       8.539  12.665  48.948  1.00  0.00    -0.176 N 
ATOM      9  H5  UNL     1       8.789  11.685  49.073  1.00  0.00     0.186 HD
ENDROOT
BRANCH   7  10
HETATM   10  N3  UNL     1      10.374  13.331  50.186  1.00  0.00    -0.375 N 
ATOM     11  H3  UNL     1      11.231  13.791  49.882  1.00  0.00     0.161 HD
BRANCH  10  12
HETATM   12  C5  UNL     1      10.495  12.473  51.310  1.00  0.00     0.123 C 
BRANCH  12  13
HETATM   13  C6  UNL     1       9.325  12.693  52.276  1.00  0.00     0.050 C 
BRANCH  13  14
HETATM   14  C7  UNL     1       9.804  13.696  53.292  1.00  0.00     0.274 C 
BRANCH  14  15
HETATM   15  N4  UNL     1       9.166  14.980  53.158  1.00  0.00     0.088 N 
HETATM   16  C8  UNL     1       9.232  15.744  54.379  1.00  0.00     0.272 C 
HETATM   17  C9  UNL     1       8.608  17.110  54.102  1.00  0.00     0.030 C 
HETATM   18  C10 UNL     1       7.149  16.890  53.886  1.00  0.00     0.003 C 
HETATM   19  C11 UNL     1       6.934  15.942  52.762  1.00  0.00     0.030 C 
HETATM   20  C12 UNL     1       7.820  14.753  52.706  1.00  0.00     0.272 C 
ENDBRANCH  14  15
ENDBRANCH  13  14
ENDBRANCH  12  13
ENDBRANCH  10  12
ENDBRANCH   7  10
BRANCH   1  21
HETATM   21  N1  UNL     1       6.747  11.992  47.739  1.00  0.00    -0.234 N 
ATOM     22  H12 UNL     1       5.851  11.765  48.169  1.00  0.00     0.174 HD
ATOM     23  H11 UNL     1       7.089  11.466  46.934  1.00  0.00     0.174 HD
ENDBRANCH   1  21
TORSDOF 6
ENDMDL
MODEL 3
REMARK VINA RESULT: -6.593688487      2.134      3.793
REMARK  6 active torsions:
REMARK  status: ('A' for Active; 'I' for Inactive)
REMARK    1  A    between atoms: N1_1  and  C1_4 
REMARK    2  A    between atoms: C4_10  and  N3_11 
REMARK    3  A    between atoms: N3_11  and  C5_13 
REMARK    4  A    between atoms: C5_13  and  C6_14 
REMARK    5  A    between atoms: C6_14  and  C7_15 
REMARK    6  A    between atoms: C7_15  and  N4_16 
ROOT
HETATM    1  C1  UNL     1       6.845  12.859  47.633  1.00  0.00     0.677 A 
HETATM    2  N2  UNL     1       6.198  13.165  46.491  1.00  0.00    -0.201 N 
ATOM      3  H2  UNL     1       5.686  12.444  45.983  1.00  0.00     0.183 HD
HETATM    4  C2  UNL     1       6.230  14.435  46.019  1.00  0.00     0.129 A 
HETATM    5  C3  UNL     1       6.930  15.389  46.726  1.00  0.00     0.071 A 
HETATM    6 BR1  UNL     1       6.972  17.173  46.058  1.00  0.00    -0.046 Br
HETATM    7  C4  UNL     1       7.604  15.081  47.914  1.00  0.00     0.135 A 
HETATM    8  N5  UNL     1       7.524  13.801  48.314  1.00  0.00    -0.176 N 
ATOM      9  H5  UNL     1       7.999  13.531  49.175  1.00  0.00     0.186 HD
ENDROOT
BRANCH   7  10
HETATM   10  N3  UNL     1       8.246  15.984  48.553  1.00  0.00    -0.375 N 
ATOM     11  H3  UNL     1       8.923  16.518  48.009  1.00  0.00     0.161 HD
BRANCH  10  12
HETATM   12  C5  UNL     1       8.136  16.336  49.924  1.00  0.00     0.123 C 
BRANCH  12  13
HETATM   13  C6  UNL     1       9.306  15.747  50.721  1.00  0.00     0.050 C 
BRANCH  13  14
HETATM   14  C7  UNL     1       8.691  14.898  51.802  1.00  0.00     0.274 C 
BRANCH  14  15
HETATM   15  N4  UNL     1       9.002  13.498  51.663  1.00  0.00     0.088 N 
HETATM   16  C8  UNL     1       9.401  12.908  52.915  1.00  0.00     0.272 C 
HETATM   17  C9  UNL     1       9.621  11.416  52.672  1.00  0.00     0.030 C 
HETATM   18  C10 UNL     1      10.828  11.287  51.806  1.00  0.00     0.003 C 
HETATM   19  C11 UNL     1      10.631  12.033  50.536  1.00  0.00     0.030 C 
HETATM   20  C12 UNL     1      10.001  13.374  50.636  1.00  0.00     0.272 C 
ENDBRANCH  14  15
ENDBRANCH  13  14
ENDBRANCH  12  13
ENDBRANCH  10  12
ENDBRANCH   7  10
BRANCH   1  21
HETATM   21  N1  UNL     1       6.826  11.658  48.099  1.00  0.00    -0.234 N 
ATOM     22  H12 UNL     1       7.685  11.277  48.494  1.00  0.00     0.174 HD
ATOM     23  H11 UNL     1       5.971  11.102  48.074  1.00  0.00     0.174 HD
ENDBRANCH   1  21
TORSDOF 6
ENDMDL
MODEL 4
REMARK VINA RESULT: -6.442068355      2.127      5.102
REMARK  6 active torsions:
REMARK  status: ('A' for Active; 'I' for Inactive)
REMARK    1  A    between atoms: N1_1  and  C1_4 
REMARK    2  A    between atoms: C4_10  and  N3_11 
REMARK    3  A    between atoms: N3_11  and  C5_13 
REMARK    4  A    between atoms: C5_13  and  C6_14 
REMARK    5  A    between atoms: C6_14  and  C7_15 
REMARK    6  A    between atoms: C7_15  and  N4_16 
ROOT
HETATM    1  C1  UNL     1       6.819  16.393  51.719  1.00  0.00     0.677 A 
HETATM    2  N2  UNL     1       7.295  17.162  52.719  1.00  0.00    -0.201 N 
ATOM      3  H2  UNL     1       6.949  18.113  52.842  1.00  0.00     0.183 HD
HETATM    4  C2  UNL     1       8.234  16.667  53.560  1.00  0.00     0.129 A 
HETATM    5  C3  UNL     1       8.683  15.378  53.371  1.00  0.00     0.071 A 
HETATM    6 BR1  UNL     1      10.005  14.687  54.557  1.00  0.00    -0.046 Br
HETATM    7  C4  UNL     1       8.195  14.570  52.336  1.00  0.00     0.135 A 
HETATM    8  N5  UNL     1       7.266  15.134  51.546  1.00  0.00    -0.176 N 
ATOM      9  H5  UNL     1       6.881  14.582  50.780  1.00  0.00     0.186 HD
ENDROOT
BRANCH   7  10
HETATM   10  N3  UNL     1       8.626  13.377  52.181  1.00  0.00    -0.375 N 
ATOM     11  H3  UNL     1       8.145  12.657  52.719  1.00  0.00     0.161 HD
BRANCH  10  12
HETATM   12  C5  UNL     1       9.688  12.926  51.354  1.00  0.00     0.123 C 
BRANCH  12  13
HETATM   13  C6  UNL     1       9.708  13.712  50.038  1.00  0.00     0.050 C 
BRANCH  13  14
HETATM   14  C7  UNL     1       8.926  12.889  49.047  1.00  0.00     0.274 C 
BRANCH  14  15
HETATM   15  N4  UNL     1       7.830  13.614  48.456  1.00  0.00     0.088 N 
HETATM   16  C8  UNL     1       7.469  13.085  47.165  1.00  0.00     0.272 C 
HETATM   17  C9  UNL     1       6.252  13.864  46.672  1.00  0.00     0.030 C 
HETATM   18  C10 UNL     1       6.709  15.254  46.383  1.00  0.00     0.003 C 
HETATM   19  C11 UNL     1       7.302  15.863  47.602  1.00  0.00     0.030 C 
HETATM   20  C12 UNL     1       8.199  15.004  48.414  1.00  0.00     0.272 C 
ENDBRANCH  14  15
ENDBRANCH  13  14
ENDBRANCH  12  13
ENDBRANCH  10  12
ENDBRANCH   7  10
BRANCH   1  21
HETATM   21  N1  UNL     1       5.926  16.844  50.909  1.00  0.00    -0.234 N 
ATOM     22  H12 UNL     1       5.878  16.449  49.970  1.00  0.00     0.174 HD
ATOM     23  H11 UNL     1       5.280  17.578  51.200  1.00  0.00     0.174 HD
ENDBRANCH   1  21
TORSDOF 6
ENDMDL
MODEL 5
REMARK VINA RESULT: -6.438731036      2.417      5.192
REMARK  6 active torsions:
REMARK  status: ('A' for Active; 'I' for Inactive)
REMARK    1  A    between atoms: N1_1  and  C1_4 
REMARK    2  A    between atoms: C4_10  and  N3_11 
REMARK    3  A    between atoms: N3_11  and  C5_13 
REMARK    4  A    between atoms: C5_13  and  C6_14 
REMARK    5  A    between atoms: C6_14  and  C7_15 
REMARK    6  A    between atoms: C7_15  and  N4_16 
ROOT
HETATM    1  C1  UNL     1       9.691  12.101  50.823  1.00  0.00     0.677 A 
HETATM    2  N2  UNL     1       9.211  11.672  52.007  1.00  0.00    -0.201 N 
ATOM      3  H2  UNL     1       8.795  10.744  52.086  1.00  0.00     0.183 HD
HETATM    4  C2  UNL     1       9.282  12.477  53.094  1.00  0.00     0.129 A 
HETATM    5  C3  UNL     1       9.850  13.726  52.960  1.00  0.00     0.071 A 
HETATM    6 BR1  UNL     1       9.948  14.855  54.492  1.00  0.00    -0.046 Br
HETATM    7  C4  UNL     1      10.353  14.181  51.735  1.00  0.00     0.135 A 
HETATM    8  N5  UNL     1      10.244  13.323  50.707  1.00  0.00    -0.176 N 
ATOM      9  H5  UNL     1      10.598  13.611  49.795  1.00  0.00     0.186 HD
ENDROOT
BRANCH   7  10
HETATM   10  N3  UNL     1      10.876  15.343  51.634  1.00  0.00    -0.375 N 
ATOM     11  H3  UNL     1      11.614  15.558  52.305  1.00  0.00     0.161 HD
BRANCH  10  12
HETATM   12  C5  UNL     1      10.563  16.372  50.708  1.00  0.00     0.123 C 
BRANCH  12  13
HETATM   13  C6  UNL     1       9.051  16.418  50.457  1.00  0.00     0.050 C 
BRANCH  13  14
HETATM   14  C7  UNL     1       8.879  16.635  48.976  1.00  0.00     0.274 C 
BRANCH  14  15
HETATM   15  N4  UNL     1       7.804  15.857  48.415  1.00  0.00     0.088 N 
HETATM   16  C8  UNL     1       8.165  14.469  48.264  1.00  0.00     0.272 C 
HETATM   17  C9  UNL     1       6.935  13.727  47.747  1.00  0.00     0.030 C 
HETATM   18  C10 UNL     1       6.693  14.196  46.352  1.00  0.00     0.003 C 
HETATM   19  C11 UNL     1       6.502  15.670  46.332  1.00  0.00     0.030 C 
HETATM   20  C12 UNL     1       7.417  16.478  47.176  1.00  0.00     0.272 C 
ENDBRANCH  14  15
ENDBRANCH  13  14
ENDBRANCH  12  13
ENDBRANCH  10  12
ENDBRANCH   7  10
BRANCH   1  21
HETATM   21  N1  UNL     1       9.633  11.350  49.778  1.00  0.00    -0.234 N 
ATOM     22  H12 UNL     1      10.460  11.277  49.187  1.00  0.00     0.174 HD
ATOM     23  H11 UNL     1       8.779  10.840  49.549  1.00  0.00     0.174 HD
ENDBRANCH   1  21
TORSDOF 6
ENDMDL
