MODEL 1
REMARK VINA RESULT: -7.334533023      0.000      0.000
REMARK  5 active torsions:
REMARK  status: ('A' for Active; 'I' for Inactive)
REMARK    1  A    between atoms: C4_5  and  C6_7 
REMARK    2  A    between atoms: C6_7  and  C7_8 
REMARK    3  A    between atoms: C7_8  and  N2_9 
REMARK    4  A    between atoms: N2_9  and  C8_11 
REMARK    5  A    between atoms: C10_15  and  C11_16 
ROOT
HETATM    1  C8  UNL     1       7.527  16.813  48.648  1.00  0.00     0.679 A 
HETATM    2  N3  UNL     1       6.982  16.657  47.415  1.00  0.00    -0.201 N 
ATOM      3  H3  UNL     1       6.225  15.989  47.271  1.00  0.00     0.183 HD
HETATM    4  C9  UNL     1       7.442  17.385  46.386  1.00  0.00     0.120 A 
HETATM    5  C10 UNL     1       8.477  18.303  46.569  1.00  0.00     0.041 A 
HETATM    6  C14 UNL     1       9.000  18.429  47.835  1.00  0.00     0.125 A 
HETATM    7  N4  UNL     1       9.969  19.243  48.067  1.00  0.00    -0.384 N 
ATOM      8  H41 UNL     1      10.357  19.336  49.006  1.00  0.00     0.157 HD
ATOM      9  H42 UNL     1      10.333  19.805  47.298  1.00  0.00     0.157 HD
HETATM   10  N5  UNL     1       8.512  17.674  48.866  1.00  0.00    -0.177 N 
ATOM     11  H5  UNL     1       8.905  17.774  49.803  1.00  0.00     0.186 HD
ENDROOT
BRANCH   1  12
HETATM   12  N2  UNL     1       7.074  16.108  49.624  1.00  0.00    -0.226 N 
ATOM     13  H2  UNL     1       6.795  15.146  49.435  1.00  0.00     0.177 HD
BRANCH  12  14
HETATM   14  C7  UNL     1       6.942  16.600  50.956  1.00  0.00     0.139 C 
BRANCH  14  15
HETATM   15  C6  UNL     1       7.024  15.593  52.043  1.00  0.00     0.029 C 
BRANCH  15  16
HETATM   16  C4  UNL     1       8.311  15.619  52.814  1.00  0.00    -0.039 C 
HETATM   17  C3  UNL     1       9.450  15.766  51.851  1.00  0.00     0.039 C 
HETATM   18  C2  UNL     1      10.501  14.689  52.031  1.00  0.00     0.272 C 
HETATM   19  N1  UNL     1       9.771  13.432  51.796  1.00  0.00     0.084 N 
HETATM   20  C1  UNL     1      10.731  12.354  51.630  1.00  0.00     0.309 C 
HETATM   21  C16 UNL     1       9.022  13.186  52.988  1.00  0.00     0.272 C 
HETATM   22  C15 UNL     1       8.364  14.346  53.619  1.00  0.00     0.039 C 
HETATM   23  C5  UNL     1       8.303  16.763  53.794  1.00  0.00     0.015 C 
ENDBRANCH  15  16
ENDBRANCH  14  15
ENDBRANCH  12  14
ENDBRANCH   1  12
BRANCH   5  24
HETATM   24  C11 UNL     1       8.936  19.094  45.423  1.00  0.00     0.128 C 
HETATM   25  C12 UNL     1       8.107  18.733  44.178  1.00  0.00     0.057 C 
HETATM   26  C13 UNL     1       8.760  20.593  45.632  1.00  0.00     0.057 C 
HETATM   27  F1  UNL     1      10.250  18.879  45.075  1.00  0.00    -0.238 F 
ENDBRANCH   5  24
TORSDOF 5
ENDMDL
MODEL 2
REMARK VINA RESULT: -7.285234844      3.265      4.998
REMARK  5 active torsions:
REMARK  status: ('A' for Active; 'I' for Inactive)
REMARK    1  A    between atoms: C4_5  and  C6_7 
REMARK    2  A    between atoms: C6_7  and  C7_8 
REMARK    3  A    between atoms: C7_8  and  N2_9 
REMARK    4  A    between atoms: N2_9  and  C8_11 
REMARK    5  A    between atoms: C10_15  and  C11_16 
ROOT
HETATM    1  C8  UNL     1       9.546  13.108  49.707  1.00  0.00     0.679 A 
HETATM    2  N3  UNL     1       9.385  14.359  49.206  1.00  0.00    -0.201 N 
ATOM      3  H3  UNL     1       9.995  15.115  49.514  1.00  0.00     0.183 HD
HETATM    4  C9  UNL     1       8.419  14.597  48.304  1.00  0.00     0.120 A 
HETATM    5  C10 UNL     1       7.577  13.570  47.876  1.00  0.00     0.041 A 
HETATM    6  C14 UNL     1       7.775  12.319  48.409  1.00  0.00     0.125 A 
HETATM    7  N4  UNL     1       7.020  11.333  48.071  1.00  0.00    -0.384 N 
ATOM      8  H41 UNL     1       7.167  10.405  48.467  1.00  0.00     0.157 HD
ATOM      9  H42 UNL     1       6.280  11.493  47.387  1.00  0.00     0.157 HD
HETATM   10  N5  UNL     1       8.767  12.104  49.327  1.00  0.00    -0.177 N 
ATOM     11  H5  UNL     1       8.908  11.172  49.717  1.00  0.00     0.186 HD
ENDROOT
BRANCH   1  12
HETATM   12  N2  UNL     1      10.476  12.897  50.570  1.00  0.00    -0.226 N 
ATOM     13  H2  UNL     1      11.276  12.332  50.288  1.00  0.00     0.177 HD
BRANCH  12  14
HETATM   14  C7  UNL     1      10.448  13.410  51.900  1.00  0.00     0.139 C 
BRANCH  14  15
HETATM   15  C6  UNL     1       9.107  13.594  52.510  1.00  0.00     0.029 C 
BRANCH  15  16
HETATM   16  C4  UNL     1       8.935  14.891  53.244  1.00  0.00    -0.039 C 
HETATM   17  C3  UNL     1       7.477  15.101  53.522  1.00  0.00     0.039 C 
HETATM   18  C2  UNL     1       6.981  16.445  53.025  1.00  0.00     0.272 C 
HETATM   19  N1  UNL     1       7.242  16.410  51.576  1.00  0.00     0.084 N 
HETATM   20  C1  UNL     1       6.528  17.506  50.943  1.00  0.00     0.309 C 
HETATM   21  C16 UNL     1       8.644  16.642  51.425  1.00  0.00     0.272 C 
HETATM   22  C15 UNL     1       9.543  15.966  52.380  1.00  0.00     0.039 C 
HETATM   23  C5  UNL     1       9.714  14.863  54.532  1.00  0.00     0.015 C 
ENDBRANCH  15  16
ENDBRANCH  14  15
ENDBRANCH  12  14
ENDBRANCH   1  12
BRANCH   5  24
HETATM   24  C11 UNL     1       6.549  13.867  46.873  1.00  0.00     0.128 C 
HETATM   25  C12 UNL     1       6.619  15.354  46.484  1.00  0.00     0.057 C 
HETATM   26  C13 UNL     1       6.737  13.080  45.583  1.00  0.00     0.057 C 
HETATM   27  F1  UNL     1       5.260  13.651  47.302  1.00  0.00    -0.238 F 
ENDBRANCH   5  24
TORSDOF 5
ENDMDL
MODEL 3
REMARK VINA RESULT: -7.262619759      3.062      4.636
REMARK  5 active torsions:
REMARK  status: ('A' for Active; 'I' for Inactive)
REMARK    1  A    between atoms: C4_5  and  C6_7 
REMARK    2  A    between atoms: C6_7  and  C7_8 
REMARK    3  A    between atoms: C7_8  and  N2_9 
REMARK    4  A    between atoms: N2_9  and  C8_11 
REMARK    5  A    between atoms: C10_15  and  C11_16 
ROOT
HETATM    1  C8  UNL     1       9.538  15.176  49.450  1.00  0.00     0.679 A 
HETATM    2  N3  UNL     1       8.862  16.069  48.685  1.00  0.00    -0.201 N 
ATOM      3  H3  UNL     1       9.099  17.060  48.725  1.00  0.00     0.183 HD
HETATM    4  C9  UNL     1       7.881  15.643  47.873  1.00  0.00     0.120 A 
HETATM    5  C10 UNL     1       7.547  14.290  47.808  1.00  0.00     0.041 A 
HETATM    6  C14 UNL     1       8.257  13.420  48.601  1.00  0.00     0.125 A 
HETATM    7  N4  UNL     1       7.986  12.163  48.603  1.00  0.00    -0.384 N 
ATOM      8  H41 UNL     1       8.513  11.517  49.192  1.00  0.00     0.157 HD
ATOM      9  H42 UNL     1       7.243  11.819  47.994  1.00  0.00     0.157 HD
HETATM   10  N5  UNL     1       9.253  13.880  49.419  1.00  0.00    -0.177 N 
ATOM     11  H5  UNL     1       9.776  13.228  50.004  1.00  0.00     0.186 HD
ENDROOT
BRANCH   1  12
HETATM   12  N2  UNL     1      10.476  15.599  50.222  1.00  0.00    -0.226 N 
ATOM     13  H2  UNL     1      11.397  15.764  49.817  1.00  0.00     0.177 HD
BRANCH  12  14
HETATM   14  C7  UNL     1      10.297  15.851  51.614  1.00  0.00     0.139 C 
BRANCH  14  15
HETATM   15  C6  UNL     1      10.470  14.690  52.523  1.00  0.00     0.029 C 
BRANCH  15  16
HETATM   16  C4  UNL     1       9.248  14.343  53.322  1.00  0.00    -0.039 C 
HETATM   17  C3  UNL     1       8.032  14.791  52.567  1.00  0.00     0.039 C 
HETATM   18  C2  UNL     1       7.128  15.676  53.401  1.00  0.00     0.272 C 
HETATM   19  N1  UNL     1       7.979  16.824  53.757  1.00  0.00     0.084 N 
HETATM   20  C1  UNL     1       7.140  17.886  54.287  1.00  0.00     0.309 C 
HETATM   21  C16 UNL     1       8.836  16.365  54.805  1.00  0.00     0.272 C 
HETATM   22  C15 UNL     1       9.401  15.009  54.665  1.00  0.00     0.039 C 
HETATM   23  C5  UNL     1       9.195  12.859  53.566  1.00  0.00     0.015 C 
ENDBRANCH  15  16
ENDBRANCH  14  15
ENDBRANCH  12  14
ENDBRANCH   1  12
BRANCH   5  24
HETATM   24  C11 UNL     1       6.484  13.865  46.893  1.00  0.00     0.128 C 
HETATM   25  C12 UNL     1       6.015  15.063  46.050  1.00  0.00     0.057 C 
HETATM   26  C13 UNL     1       6.946  12.802  45.904  1.00  0.00     0.057 C 
HETATM   27  F1  UNL     1       5.357  13.382  47.518  1.00  0.00    -0.238 F 
ENDBRANCH   5  24
TORSDOF 5
ENDMDL
MODEL 4
REMARK VINA RESULT: -7.242040360      1.935      3.462
REMARK  5 active torsions:
REMARK  status: ('A' for Active; 'I' for Inactive)
REMARK    1  A    between atoms: C4_5  and  C6_7 
REMARK    2  A    between atoms: C6_7  and  C7_8 
REMARK    3  A    between atoms: C7_8  and  N2_9 
REMARK    4  A    between atoms: N2_9  and  C8_11 
REMARK    5  A    between atoms: C10_15  and  C11_16 
ROOT
HETATM    1  C8  UNL     1      10.787  17.056  49.703  1.00  0.00     0.679 A 
HETATM    2  N3  UNL     1      11.739  17.938  49.309  1.00  0.00    -0.201 N 
ATOM      3  H3  UNL     1      12.664  17.919  49.738  1.00  0.00     0.183 HD
HETATM    4  C9  UNL     1      11.460  18.837  48.350  1.00  0.00     0.120 A 
HETATM    5  C10 UNL     1      10.199  18.873  47.754  1.00  0.00     0.041 A 
HETATM    6  C14 UNL     1       9.264  17.962  48.185  1.00  0.00     0.125 A 
HETATM    7  N4  UNL     1       8.076  17.956  47.691  1.00  0.00    -0.384 N 
ATOM      8  H41 UNL     1       7.382  17.279  48.010  1.00  0.00     0.157 HD
ATOM      9  H42 UNL     1       7.844  18.630  46.962  1.00  0.00     0.157 HD
HETATM   10  N5  UNL     1       9.575  17.057  49.163  1.00  0.00    -0.177 N 
ATOM     11  H5  UNL     1       8.876  16.383  49.476  1.00  0.00     0.186 HD
ENDROOT
BRANCH   1  12
HETATM   12  N2  UNL     1      11.070  16.202  50.622  1.00  0.00    -0.226 N 
ATOM     13  H2  UNL     1      11.919  16.345  51.168  1.00  0.00     0.177 HD
BRANCH  12  14
HETATM   14  C7  UNL     1      10.260  15.067  50.919  1.00  0.00     0.139 C 
BRANCH  14  15
HETATM   15  C6  UNL     1      10.526  14.384  52.209  1.00  0.00     0.029 C 
BRANCH  15  16
HETATM   16  C4  UNL     1       9.293  14.041  52.993  1.00  0.00    -0.039 C 
HETATM   17  C3  UNL     1       8.094  14.581  52.272  1.00  0.00     0.039 C 
HETATM   18  C2  UNL     1       7.230  15.453  53.161  1.00  0.00     0.272 C 
HETATM   19  N1  UNL     1       8.129  16.542  53.579  1.00  0.00     0.084 N 
HETATM   20  C1  UNL     1       7.336  17.604  54.174  1.00  0.00     0.309 C 
HETATM   21  C16 UNL     1       8.969  15.988  54.593  1.00  0.00     0.272 C 
HETATM   22  C15 UNL     1       9.477  14.620  54.372  1.00  0.00     0.039 C 
HETATM   23  C5  UNL     1       9.180  12.548  53.151  1.00  0.00     0.015 C 
ENDBRANCH  15  16
ENDBRANCH  14  15
ENDBRANCH  12  14
ENDBRANCH   1  12
BRANCH   5  24
HETATM   24  C11 UNL     1       9.942  19.855  46.696  1.00  0.00     0.128 C 
HETATM   25  C12 UNL     1      11.150  20.799  46.561  1.00  0.00     0.057 C 
HETATM   26  C13 UNL     1       9.747  19.213  45.329  1.00  0.00     0.057 C 
HETATM   27  F1  UNL     1       8.855  20.667  46.928  1.00  0.00    -0.238 F 
ENDBRANCH   5  24
TORSDOF 5
ENDMDL
MODEL 5
REMARK VINA RESULT: -7.237860651      0.721      1.607
REMARK  5 active torsions:
REMARK  status: ('A' for Active; 'I' for Inactive)
REMARK    1  A    between atoms: C4_5  and  C6_7 
REMARK    2  A    between atoms: C6_7  and  C7_8 
REMARK    3  A    between atoms: C7_8  and  N2_9 
REMARK    4  A    between atoms: N2_9  and  C8_11 
REMARK    5  A    between atoms: C10_15  and  C11_16 
ROOT
HETATM    1  C8  UNL     1       7.542  16.873  48.687  1.00  0.00     0.679 A 
HETATM    2  N3  UNL     1       8.602  17.674  48.965  1.00  0.00    -0.201 N 
ATOM      3  H3  UNL     1       8.982  17.709  49.910  1.00  0.00     0.183 HD
HETATM    4  C9  UNL     1       9.147  18.419  47.990  1.00  0.00     0.120 A 
HETATM    5  C10 UNL     1       8.636  18.380  46.693  1.00  0.00     0.041 A 
HETATM    6  C14 UNL     1       7.562  17.555  46.456  1.00  0.00     0.125 A 
HETATM    7  N4  UNL     1       7.031  17.487  45.286  1.00  0.00    -0.384 N 
ATOM      8  H41 UNL     1       6.234  16.875  45.110  1.00  0.00     0.157 HD
ATOM      9  H42 UNL     1       7.431  18.046  44.532  1.00  0.00     0.157 HD
HETATM   10  N5  UNL     1       7.026  16.805  47.467  1.00  0.00    -0.177 N 
ATOM     11  H5  UNL     1       6.229  16.194  47.282  1.00  0.00     0.186 HD
ENDROOT
BRANCH   1  12
HETATM   12  N2  UNL     1       7.031  16.164  49.631  1.00  0.00    -0.226 N 
ATOM     13  H2  UNL     1       6.675  15.237  49.400  1.00  0.00     0.177 HD
BRANCH  12  14
HETATM   14  C7  UNL     1       6.937  16.605  50.984  1.00  0.00     0.139 C 
BRANCH  14  15
HETATM   15  C6  UNL     1       7.029  15.556  52.029  1.00  0.00     0.029 C 
BRANCH  15  16
HETATM   16  C4  UNL     1       8.306  15.578  52.817  1.00  0.00    -0.039 C 
HETATM   17  C3  UNL     1       9.458  15.731  51.869  1.00  0.00     0.039 C 
HETATM   18  C2  UNL     1      10.507  14.653  52.056  1.00  0.00     0.272 C 
HETATM   19  N1  UNL     1       9.780  13.397  51.805  1.00  0.00     0.084 N 
HETATM   20  C1  UNL     1      10.743  12.320  51.646  1.00  0.00     0.309 C 
HETATM   21  C16 UNL     1       9.016  13.145  52.986  1.00  0.00     0.272 C 
HETATM   22  C15 UNL     1       8.349  14.301  53.615  1.00  0.00     0.039 C 
HETATM   23  C5  UNL     1       8.285  16.716  53.802  1.00  0.00     0.015 C 
ENDBRANCH  15  16
ENDBRANCH  14  15
ENDBRANCH  12  14
ENDBRANCH   1  12
BRANCH   5  24
HETATM   24  C11 UNL     1       9.275  19.193  45.653  1.00  0.00     0.128 C 
HETATM   25  C12 UNL     1       8.801  20.652  45.772  1.00  0.00     0.057 C 
HETATM   26  C13 UNL     1      10.793  19.225  45.778  1.00  0.00     0.057 C 
HETATM   27  F1  UNL     1       8.977  18.805  44.367  1.00  0.00    -0.238 F 
ENDBRANCH   5  24
TORSDOF 5
ENDMDL
