MODEL 1
REMARK VINA RESULT: -7.479276299      0.000      0.000
REMARK  4 active torsions:
REMARK  status: ('A' for Active; 'I' for Inactive)
REMARK    1  A    between atoms: C4_9  and  N3_10 
REMARK    2  A    between atoms: N3_10  and  S1_12 
REMARK    3  A    between atoms: S1_12  and  N4_15 
REMARK    4  A    between atoms: N4_15  and  C5_17 
ROOT
HETATM    1  N3  UNL     1       7.022  17.083  49.340  1.00  0.00    -0.291 N 
ATOM      2  H3  UNL     1       6.282  17.642  48.915  1.00  0.00     0.174 HD
ENDROOT
BRANCH   1   3
HETATM    3  C4  UNL     1       8.142  16.618  48.593  1.00  0.00     0.161 C 
HETATM    4  C3  UNL     1       8.729  17.760  47.862  1.00  0.00     0.098 C 
HETATM    5  N1  UNL     1       8.284  18.095  46.572  1.00  0.00    -0.352 N 
HETATM    6  N2  UNL     1       9.656  18.456  48.413  1.00  0.00    -0.387 N 
HETATM    7  C2  UNL     1       7.353  17.460  45.942  1.00  0.00    -0.016 C 
ATOM      8  H1  UNL     1       8.725  18.887  46.104  1.00  0.00     0.166 HD
HETATM    9  C1  UNL     1       6.973  17.910  44.583  1.00  0.00     0.063 C 
HETATM   10  C12 UNL     1       6.685  16.294  46.592  1.00  0.00     0.054 C 
HETATM   11  C11 UNL     1       7.670  15.624  47.523  1.00  0.00     0.039 C 
ATOM     12  H22 UNL     1      10.060  19.245  47.909  1.00  0.00     0.157 HD
ATOM     13  H21 UNL     1       9.978  18.213  49.350  1.00  0.00     0.157 HD
ENDBRANCH   1   3
BRANCH   1  14
HETATM   14  S1  UNL     1       6.996  16.650  50.977  1.00  0.00     0.316 S 
HETATM   15  O1  UNL     1       6.659  17.906  51.774  1.00  0.00    -0.183 OA
HETATM   16  O2  UNL     1       5.834  15.718  51.199  1.00  0.00    -0.183 OA
BRANCH  14  17
HETATM   17  N4  UNL     1       8.454  16.041  51.601  1.00  0.00    -0.292 N 
ATOM     18  H4  UNL     1       9.288  16.596  51.795  1.00  0.00     0.174 HD
BRANCH  17  19
HETATM   19  C5  UNL     1       8.332  14.613  51.815  1.00  0.00     0.166 C 
HETATM   20  C6  UNL     1       8.713  13.844  50.564  1.00  0.00     0.032 C 
HETATM   21  C7  UNL     1      10.160  13.415  50.553  1.00  0.00     0.002 C 
HETATM   22  C8  UNL     1      10.490  12.532  51.741  1.00  0.00     0.006 C 
HETATM   23  C9  UNL     1       9.477  12.719  52.854  1.00  0.00     0.081 C 
HETATM   24  C10 UNL     1       9.122  14.167  53.033  1.00  0.00     0.264 C 
HETATM   25  F1  UNL     1      10.269  14.922  53.189  1.00  0.00    -0.204 F 
HETATM   26  F2  UNL     1       8.335  14.281  54.138  1.00  0.00    -0.204 F 
ENDBRANCH  17  19
ENDBRANCH  14  17
ENDBRANCH   1  14
TORSDOF 4
ENDMDL
MODEL 2
REMARK VINA RESULT: -7.438481171      2.721      6.375
REMARK  4 active torsions:
REMARK  status: ('A' for Active; 'I' for Inactive)
REMARK    1  A    between atoms: C4_9  and  N3_10 
REMARK    2  A    between atoms: N3_10  and  S1_12 
REMARK    3  A    between atoms: S1_12  and  N4_15 
REMARK    4  A    between atoms: N4_15  and  C5_17 
ROOT
HETATM    1  N3  UNL     1       8.451  16.482  50.347  1.00  0.00    -0.291 N 
ATOM      2  H3  UNL     1       9.331  16.872  50.685  1.00  0.00     0.174 HD
ENDROOT
BRANCH   1   3
HETATM    3  C4  UNL     1       8.018  15.173  50.703  1.00  0.00     0.161 C 
HETATM    4  C3  UNL     1       7.380  15.233  52.035  1.00  0.00     0.098 C 
HETATM    5  N1  UNL     1       8.139  15.064  53.206  1.00  0.00    -0.352 N 
HETATM    6  N2  UNL     1       6.117  15.443  52.124  1.00  0.00    -0.387 N 
HETATM    7  C2  UNL     1       9.413  14.858  53.217  1.00  0.00    -0.016 C 
ATOM      8  H1  UNL     1       7.653  15.107  54.102  1.00  0.00     0.166 HD
HETATM    9  C1  UNL     1      10.101  14.695  54.518  1.00  0.00     0.063 C 
HETATM   10  C12 UNL     1      10.161  14.787  51.926  1.00  0.00     0.054 C 
HETATM   11  C11 UNL     1       9.236  14.252  50.856  1.00  0.00     0.039 C 
ATOM     12  H22 UNL     1       5.677  15.486  53.042  1.00  0.00     0.157 HD
ATOM     13  H21 UNL     1       5.567  15.566  51.274  1.00  0.00     0.157 HD
ENDBRANCH   1   3
BRANCH   1  14
HETATM   14  S1  UNL     1       7.413  17.350  49.328  1.00  0.00     0.316 S 
HETATM   15  O1  UNL     1       6.962  16.400  48.223  1.00  0.00    -0.183 OA
HETATM   16  O2  UNL     1       6.162  17.679  50.099  1.00  0.00    -0.183 OA
BRANCH  14  17
HETATM   17  N4  UNL     1       8.093  18.709  48.568  1.00  0.00    -0.292 N 
ATOM     18  H4  UNL     1       7.815  19.676  48.733  1.00  0.00     0.174 HD
BRANCH  17  19
HETATM   19  C5  UNL     1       9.130  18.283  47.649  1.00  0.00     0.166 C 
HETATM   20  C6  UNL     1       8.790  18.684  46.226  1.00  0.00     0.032 C 
HETATM   21  C7  UNL     1       9.396  20.007  45.826  1.00  0.00     0.002 C 
HETATM   22  C8  UNL     1      10.908  19.985  45.936  1.00  0.00     0.006 C 
HETATM   23  C9  UNL     1      11.369  18.878  46.865  1.00  0.00     0.081 C 
HETATM   24  C10 UNL     1      10.495  18.788  48.083  1.00  0.00     0.264 C 
HETATM   25  F1  UNL     1      10.400  20.024  48.693  1.00  0.00    -0.204 F 
HETATM   26  F2  UNL     1      11.049  17.887  48.941  1.00  0.00    -0.204 F 
ENDBRANCH  17  19
ENDBRANCH  14  17
ENDBRANCH   1  14
TORSDOF 4
ENDMDL
MODEL 3
REMARK VINA RESULT: -7.395735162      3.984      5.585
REMARK  4 active torsions:
REMARK  status: ('A' for Active; 'I' for Inactive)
REMARK    1  A    between atoms: C4_9  and  N3_10 
REMARK    2  A    between atoms: N3_10  and  S1_12 
REMARK    3  A    between atoms: S1_12  and  N4_15 
REMARK    4  A    between atoms: N4_15  and  C5_17 
ROOT
HETATM    1  N3  UNL     1      10.275  14.835  50.565  1.00  0.00    -0.291 N 
ATOM      2  H3  UNL     1      10.699  14.761  49.640  1.00  0.00     0.174 HD
ENDROOT
BRANCH   1   3
HETATM    3  C4  UNL     1       9.118  14.088  50.929  1.00  0.00     0.161 C 
HETATM    4  C3  UNL     1       9.129  12.811  50.186  1.00  0.00     0.098 C 
HETATM    5  N1  UNL     1       8.528  12.709  48.920  1.00  0.00    -0.352 N 
HETATM    6  N2  UNL     1       9.694  11.782  50.704  1.00  0.00    -0.387 N 
HETATM    7  C2  UNL     1       7.944  13.690  48.317  1.00  0.00    -0.016 C 
ATOM      8  H1  UNL     1       8.554  11.804  48.449  1.00  0.00     0.166 HD
HETATM    9  C1  UNL     1       7.347  13.456  46.982  1.00  0.00     0.063 C 
HETATM   10  C12 UNL     1       7.884  15.030  48.974  1.00  0.00     0.054 C 
HETATM   11  C11 UNL     1       7.858  14.837  50.473  1.00  0.00     0.039 C 
ATOM     12  H22 UNL     1       9.701  10.900  50.191  1.00  0.00     0.157 HD
ATOM     13  H21 UNL     1      10.130  11.856  51.623  1.00  0.00     0.157 HD
ENDBRANCH   1   3
BRANCH   1  14
HETATM   14  S1  UNL     1      10.902  15.854  51.763  1.00  0.00     0.316 S 
HETATM   15  O1  UNL     1       9.818  16.870  52.109  1.00  0.00    -0.183 OA
HETATM   16  O2  UNL     1      11.097  15.042  53.017  1.00  0.00    -0.183 OA
BRANCH  14  17
HETATM   17  N4  UNL     1      12.289  16.735  51.330  1.00  0.00    -0.292 N 
ATOM     18  H4  UNL     1      13.247  16.392  51.393  1.00  0.00     0.174 HD
BRANCH  17  19
HETATM   19  C5  UNL     1      11.902  18.049  50.856  1.00  0.00     0.166 C 
HETATM   20  C6  UNL     1      12.816  19.119  51.422  1.00  0.00     0.032 C 
HETATM   21  C7  UNL     1      13.965  19.457  50.505  1.00  0.00     0.002 C 
HETATM   22  C8  UNL     1      13.478  19.950  49.156  1.00  0.00     0.006 C 
HETATM   23  C9  UNL     1      12.049  19.510  48.901  1.00  0.00     0.081 C 
HETATM   24  C10 UNL     1      11.829  18.091  49.340  1.00  0.00     0.264 C 
HETATM   25  F1  UNL     1      12.777  17.263  48.770  1.00  0.00    -0.204 F 
HETATM   26  F2  UNL     1      10.582  17.710  48.946  1.00  0.00    -0.204 F 
ENDBRANCH  17  19
ENDBRANCH  14  17
ENDBRANCH   1  14
TORSDOF 4
ENDMDL
MODEL 4
REMARK VINA RESULT: -7.317435822      2.075      2.632
REMARK  4 active torsions:
REMARK  status: ('A' for Active; 'I' for Inactive)
REMARK    1  A    between atoms: C4_9  and  N3_10 
REMARK    2  A    between atoms: N3_10  and  S1_12 
REMARK    3  A    between atoms: S1_12  and  N4_15 
REMARK    4  A    between atoms: N4_15  and  C5_17 
ROOT
HETATM    1  N3  UNL     1       9.354  15.917  49.441  1.00  0.00    -0.291 N 
ATOM      2  H3  UNL     1       9.846  15.755  48.563  1.00  0.00     0.174 HD
ENDROOT
BRANCH   1   3
HETATM    3  C4  UNL     1       7.942  16.090  49.497  1.00  0.00     0.161 C 
HETATM    4  C3  UNL     1       7.327  15.299  48.410  1.00  0.00     0.098 C 
HETATM    5  N1  UNL     1       7.126  15.858  47.137  1.00  0.00    -0.352 N 
HETATM    6  N2  UNL     1       6.972  14.086  48.633  1.00  0.00    -0.387 N 
HETATM    7  C2  UNL     1       7.458  17.064  46.817  1.00  0.00    -0.016 C 
ATOM      8  H1  UNL     1       6.692  15.275  46.421  1.00  0.00     0.166 HD
HETATM    9  C1  UNL     1       7.193  17.538  45.439  1.00  0.00     0.063 C 
HETATM   10  C12 UNL     1       8.096  17.949  47.837  1.00  0.00     0.054 C 
HETATM   11  C11 UNL     1       7.591  17.556  49.207  1.00  0.00     0.039 C 
ATOM     12  H22 UNL     1       6.548  13.540  47.883  1.00  0.00     0.157 HD
ATOM     13  H21 UNL     1       7.118  13.680  49.557  1.00  0.00     0.157 HD
ENDBRANCH   1   3
BRANCH   1  14
HETATM   14  S1  UNL     1      10.166  15.998  50.926  1.00  0.00     0.316 S 
HETATM   15  O1  UNL     1      11.243  17.070  50.797  1.00  0.00    -0.183 OA
HETATM   16  O2  UNL     1       9.205  16.526  51.959  1.00  0.00    -0.183 OA
BRANCH  14  17
HETATM   17  N4  UNL     1      10.941  14.570  51.420  1.00  0.00    -0.292 N 
ATOM     18  H4  UNL     1      11.924  14.494  51.680  1.00  0.00     0.174 HD
BRANCH  17  19
HETATM   19  C5  UNL     1       9.992  13.474  51.415  1.00  0.00     0.166 C 
HETATM   20  C6  UNL     1      10.537  12.289  50.641  1.00  0.00     0.032 C 
HETATM   21  C7  UNL     1      11.237  11.282  51.521  1.00  0.00     0.002 C 
HETATM   22  C8  UNL     1      10.311  10.733  52.589  1.00  0.00     0.006 C 
HETATM   23  C9  UNL     1       9.135  11.664  52.818  1.00  0.00     0.081 C 
HETATM   24  C10 UNL     1       9.570  13.101  52.825  1.00  0.00     0.264 C 
HETATM   25  F1  UNL     1      10.607  13.281  53.721  1.00  0.00    -0.204 F 
HETATM   26  F2  UNL     1       8.505  13.868  53.186  1.00  0.00    -0.204 F 
ENDBRANCH  17  19
ENDBRANCH  14  17
ENDBRANCH   1  14
TORSDOF 4
ENDMDL
MODEL 5
REMARK VINA RESULT: -7.285311069      1.905      2.587
REMARK  4 active torsions:
REMARK  status: ('A' for Active; 'I' for Inactive)
REMARK    1  A    between atoms: C4_9  and  N3_10 
REMARK    2  A    between atoms: N3_10  and  S1_12 
REMARK    3  A    between atoms: S1_12  and  N4_15 
REMARK    4  A    between atoms: N4_15  and  C5_17 
ROOT
HETATM    1  N3  UNL     1       6.920  15.769  49.348  1.00  0.00    -0.291 N 
ATOM      2  H3  UNL     1       6.188  15.061  49.404  1.00  0.00     0.174 HD
ENDROOT
BRANCH   1   3
HETATM    3  C4  UNL     1       7.947  15.718  48.362  1.00  0.00     0.161 C 
HETATM    4  C3  UNL     1       7.341  15.959  47.036  1.00  0.00     0.098 C 
HETATM    5  N1  UNL     1       6.849  14.893  46.264  1.00  0.00    -0.352 N 
HETATM    6  N2  UNL     1       7.261  17.157  46.584  1.00  0.00    -0.387 N 
HETATM    7  C2  UNL     1       6.878  13.658  46.639  1.00  0.00    -0.016 C 
ATOM      8  H1  UNL     1       6.446  15.107  45.352  1.00  0.00     0.166 HD
HETATM    9  C1  UNL     1       6.328  12.622  45.734  1.00  0.00     0.063 C 
HETATM   10  C12 UNL     1       7.461  13.301  47.967  1.00  0.00     0.054 C 
HETATM   11  C11 UNL     1       8.540  14.304  48.309  1.00  0.00     0.039 C 
ATOM     12  H22 UNL     1       6.842  17.324  45.670  1.00  0.00     0.157 HD
ATOM     13  H21 UNL     1       7.617  17.932  47.145  1.00  0.00     0.157 HD
ENDBRANCH   1   3
BRANCH   1  14
HETATM   14  S1  UNL     1       6.991  17.078  50.420  1.00  0.00     0.316 S 
HETATM   15  O1  UNL     1       7.303  18.323  49.596  1.00  0.00    -0.183 OA
HETATM   16  O2  UNL     1       5.609  17.308  50.974  1.00  0.00    -0.183 OA
BRANCH  14  17
HETATM   17  N4  UNL     1       8.175  16.973  51.633  1.00  0.00    -0.292 N 
ATOM     18  H4  UNL     1       8.693  17.762  52.020  1.00  0.00     0.174 HD
BRANCH  17  19
HETATM   19  C5  UNL     1       8.338  15.590  52.034  1.00  0.00     0.166 C 
HETATM   20  C6  UNL     1       9.718  15.079  51.666  1.00  0.00     0.032 C 
HETATM   21  C7  UNL     1      10.715  15.210  52.792  1.00  0.00     0.002 C 
HETATM   22  C8  UNL     1      10.269  14.448  54.025  1.00  0.00     0.006 C 
HETATM   23  C9  UNL     1       8.774  14.194  53.994  1.00  0.00     0.081 C 
HETATM   24  C10 UNL     1       8.024  15.401  53.508  1.00  0.00     0.264 C 
HETATM   25  F1  UNL     1       8.386  16.514  54.243  1.00  0.00    -0.204 F 
HETATM   26  F2  UNL     1       6.691  15.162  53.650  1.00  0.00    -0.204 F 
ENDBRANCH  17  19
ENDBRANCH  14  17
ENDBRANCH   1  14
TORSDOF 4
ENDMDL
