MODEL 1
REMARK VINA RESULT: -7.675104187      0.000      0.000
REMARK  3 active torsions:
REMARK  status: ('A' for Active; 'I' for Inactive)
REMARK    1  A    between atoms: C2_2  and  C8_19 
REMARK    2  A    between atoms: C3_3  and  C4_4 
REMARK    3  A    between atoms: C4_4  and  N1_5 
REMARK       I    between atoms: N1_5  and  C5_7 
REMARK       I    between atoms: N3_9  and  C6_11 
REMARK       I    between atoms: C6_11  and  N5_15 
ROOT
HETATM    1  N1  UNL     1      60.046  -1.100  40.067  1.00  0.00    -0.361 N 
ATOM      2  H1  UNL     1      60.528  -1.775  39.474  1.00  0.00     0.162 HD
HETATM    3  C5  UNL     1      60.740   0.011  40.614  1.00  0.00     0.203 C 
HETATM    4  N2  UNL     1      61.935  -0.156  41.349  1.00  0.00    -0.063 NA
HETATM    5  N3  UNL     1      60.254   1.205  40.427  1.00  0.00    -0.163 N 
ATOM      6  H3  UNL     1      59.393   1.333  39.897  1.00  0.00     0.187 HD
HETATM    7  C6  UNL     1      60.937   2.327  40.969  1.00  0.00     0.687 C 
HETATM    8  N4  UNL     1      62.223   2.383  40.932  1.00  0.00    -0.234 N 
ATOM      9  H41 UNL     1      62.714   3.189  41.321  1.00  0.00     0.174 HD
ATOM     10  H42 UNL     1      62.747   1.616  40.511  1.00  0.00     0.174 HD
HETATM   11  N5  UNL     1      60.198   3.411  41.564  1.00  0.00    -0.126 N 
ATOM     12  H5  UNL     1      59.616   4.019  40.988  1.00  0.00     0.197 HD
HETATM   13  C7  UNL     1      60.291   3.616  42.942  1.00  0.00     0.196 C 
HETATM   14  N6  UNL     1      60.352   3.774  44.088  1.00  0.00    -0.171 NA
ENDROOT
BRANCH   1  15
HETATM   15  C4  UNL     1      58.640  -1.251  40.370  1.00  0.00     0.149 C 
BRANCH  15  16
HETATM   16  C3  UNL     1      58.385  -2.631  40.830  1.00  0.00    -0.005 C 
HETATM   17  C2  UNL     1      57.964  -3.575  40.001  1.00  0.00    -0.082 C 
HETATM   18  C1  UNL     1      57.763  -3.176  38.586  1.00  0.00     0.043 C 
BRANCH  17  19
HETATM   19  C8  UNL     1      57.738  -4.914  40.545  1.00  0.00     0.014 C 
HETATM   20  C9  UNL     1      58.462  -5.904  39.641  1.00  0.00     0.009 C 
HETATM   21  C10 UNL     1      59.100  -6.923  40.522  1.00  0.00     0.001 C 
HETATM   22  C11 UNL     1      58.994  -6.449  41.940  1.00  0.00     0.001 C 
HETATM   23  C12 UNL     1      58.230  -5.155  41.920  1.00  0.00     0.009 C 
ENDBRANCH  17  19
ENDBRANCH  15  16
ENDBRANCH   1  15
TORSDOF 3
ENDMDL
MODEL 2
REMARK VINA RESULT: -7.632661320      4.831      7.113
REMARK  3 active torsions:
REMARK  status: ('A' for Active; 'I' for Inactive)
REMARK    1  A    between atoms: C2_2  and  C8_19 
REMARK    2  A    between atoms: C3_3  and  C4_4 
REMARK    3  A    between atoms: C4_4  and  N1_5 
REMARK       I    between atoms: N1_5  and  C5_7 
REMARK       I    between atoms: N3_9  and  C6_11 
REMARK       I    between atoms: C6_11  and  N5_15 
ROOT
HETATM    1  N1  UNL     1      57.916  -5.147  42.638  1.00  0.00    -0.361 N 
ATOM      2  H1  UNL     1      56.977  -4.879  42.934  1.00  0.00     0.162 HD
HETATM    3  C5  UNL     1      58.916  -5.462  43.594  1.00  0.00     0.203 C 
HETATM    4  N2  UNL     1      59.232  -4.578  44.650  1.00  0.00    -0.063 NA
HETATM    5  N3  UNL     1      59.549  -6.595  43.485  1.00  0.00    -0.163 N 
ATOM      6  H3  UNL     1      59.326  -7.238  42.726  1.00  0.00     0.187 HD
HETATM    7  C6  UNL     1      60.554  -6.925  44.434  1.00  0.00     0.687 C 
HETATM    8  N4  UNL     1      60.381  -6.656  45.681  1.00  0.00    -0.234 N 
ATOM      9  H41 UNL     1      61.103  -6.892  46.363  1.00  0.00     0.174 HD
ATOM     10  H42 UNL     1      59.518  -6.203  45.982  1.00  0.00     0.174 HD
HETATM   11  N5  UNL     1      61.774  -7.563  44.010  1.00  0.00    -0.126 N 
ATOM     12  H5  UNL     1      61.763  -8.521  43.659  1.00  0.00     0.197 HD
HETATM   13  C7  UNL     1      62.972  -6.849  44.086  1.00  0.00     0.196 C 
HETATM   14  N6  UNL     1      63.962  -6.251  44.129  1.00  0.00    -0.171 NA
ENDROOT
BRANCH   1  15
HETATM   15  C4  UNL     1      58.258  -5.214  41.235  1.00  0.00     0.149 C 
BRANCH  15  16
HETATM   16  C3  UNL     1      58.120  -3.872  40.633  1.00  0.00    -0.005 C 
HETATM   17  C2  UNL     1      58.370  -3.655  39.349  1.00  0.00    -0.082 C 
HETATM   18  C1  UNL     1      58.796  -4.827  38.548  1.00  0.00     0.043 C 
BRANCH  17  19
HETATM   19  C8  UNL     1      58.207  -2.293  38.840  1.00  0.00     0.014 C 
HETATM   20  C9  UNL     1      57.053  -2.312  37.845  1.00  0.00     0.009 C 
HETATM   21  C10 UNL     1      56.252  -1.076  38.071  1.00  0.00     0.001 C 
HETATM   22  C11 UNL     1      56.738  -0.427  39.333  1.00  0.00     0.001 C 
HETATM   23  C12 UNL     1      57.886  -1.252  39.843  1.00  0.00     0.009 C 
ENDBRANCH  17  19
ENDBRANCH  15  16
ENDBRANCH   1  15
TORSDOF 3
ENDMDL
MODEL 3
REMARK VINA RESULT: -7.586889263      5.316      8.187
REMARK  3 active torsions:
REMARK  status: ('A' for Active; 'I' for Inactive)
REMARK    1  A    between atoms: C2_2  and  C8_19 
REMARK    2  A    between atoms: C3_3  and  C4_4 
REMARK    3  A    between atoms: C4_4  and  N1_5 
REMARK       I    between atoms: N1_5  and  C5_7 
REMARK       I    between atoms: N3_9  and  C6_11 
REMARK       I    between atoms: C6_11  and  N5_15 
ROOT
HETATM    1  N1  UNL     1      57.747  -5.719  39.767  1.00  0.00    -0.361 N 
ATOM      2  H1  UNL     1      57.215  -5.637  38.900  1.00  0.00     0.162 HD
HETATM    3  C5  UNL     1      58.061  -6.993  40.307  1.00  0.00     0.203 C 
HETATM    4  N2  UNL     1      57.060  -7.963  40.537  1.00  0.00    -0.063 NA
HETATM    5  N3  UNL     1      59.303  -7.261  40.593  1.00  0.00    -0.163 N 
ATOM      6  H3  UNL     1      60.031  -6.567  40.428  1.00  0.00     0.187 HD
HETATM    7  C6  UNL     1      59.633  -8.533  41.136  1.00  0.00     0.687 C 
HETATM    8  N4  UNL     1      59.063  -9.597  40.688  1.00  0.00    -0.234 N 
ATOM      9  H41 UNL     1      59.299 -10.509  41.078  1.00  0.00     0.174 HD
ATOM     10  H42 UNL     1      58.372  -9.520  39.942  1.00  0.00     0.174 HD
HETATM   11  N5  UNL     1      60.608  -8.642  42.190  1.00  0.00    -0.126 N 
ATOM     12  H5  UNL     1      61.592  -8.442  42.009  1.00  0.00     0.197 HD
HETATM   13  C7  UNL     1      60.185  -9.026  43.465  1.00  0.00     0.196 C 
HETATM   14  N6  UNL     1      59.832  -9.325  44.526  1.00  0.00    -0.171 NA
ENDROOT
BRANCH   1  15
HETATM   15  C4  UNL     1      58.198  -4.540  40.472  1.00  0.00     0.149 C 
BRANCH  15  16
HETATM   16  C3  UNL     1      57.984  -3.351  39.624  1.00  0.00    -0.005 C 
HETATM   17  C2  UNL     1      58.224  -2.125  40.069  1.00  0.00    -0.082 C 
HETATM   18  C1  UNL     1      58.717  -2.009  41.463  1.00  0.00     0.043 C 
BRANCH  17  19
HETATM   19  C8  UNL     1      57.983  -1.006  39.159  1.00  0.00     0.014 C 
HETATM   20  C9  UNL     1      58.523  -1.404  37.791  1.00  0.00     0.009 C 
HETATM   21  C10 UNL     1      57.547  -0.925  36.772  1.00  0.00     0.001 C 
HETATM   22  C11 UNL     1      56.311  -0.466  37.487  1.00  0.00     0.001 C 
HETATM   23  C12 UNL     1      56.569  -0.615  38.960  1.00  0.00     0.009 C 
ENDBRANCH  17  19
ENDBRANCH  15  16
ENDBRANCH   1  15
TORSDOF 3
ENDMDL
MODEL 4
REMARK VINA RESULT: -7.536043683      1.812      2.763
REMARK  3 active torsions:
REMARK  status: ('A' for Active; 'I' for Inactive)
REMARK    1  A    between atoms: C2_2  and  C8_19 
REMARK    2  A    between atoms: C3_3  and  C4_4 
REMARK    3  A    between atoms: C4_4  and  N1_5 
REMARK       I    between atoms: N1_5  and  C5_7 
REMARK       I    between atoms: N3_9  and  C6_11 
REMARK       I    between atoms: C6_11  and  N5_15 
ROOT
HETATM    1  N1  UNL     1      60.398   0.570  41.137  1.00  0.00    -0.361 N 
ATOM      2  H1  UNL     1      60.502  -0.142  41.860  1.00  0.00     0.162 HD
HETATM    3  C5  UNL     1      60.858   1.896  41.353  1.00  0.00     0.203 C 
HETATM    4  N2  UNL     1      60.464   2.637  42.489  1.00  0.00    -0.063 NA
HETATM    5  N3  UNL     1      61.660   2.428  40.476  1.00  0.00    -0.163 N 
ATOM      6  H3  UNL     1      61.949   1.899  39.654  1.00  0.00     0.187 HD
HETATM    7  C6  UNL     1      62.128   3.755  40.677  1.00  0.00     0.687 C 
HETATM    8  N4  UNL     1      62.465   4.152  41.854  1.00  0.00    -0.234 N 
ATOM      9  H41 UNL     1      62.801   5.105  41.999  1.00  0.00     0.174 HD
ATOM     10  H42 UNL     1      62.393   3.507  42.641  1.00  0.00     0.174 HD
HETATM   11  N5  UNL     1      62.231   4.666  39.566  1.00  0.00    -0.126 N 
ATOM     12  H5  UNL     1      62.922   4.513  38.831  1.00  0.00     0.197 HD
HETATM   13  C7  UNL     1      61.368   5.764  39.511  1.00  0.00     0.196 C 
HETATM   14  N6  UNL     1      60.640   6.662  39.454  1.00  0.00    -0.171 NA
ENDROOT
BRANCH   1  15
HETATM   15  C4  UNL     1      59.779   0.253  39.869  1.00  0.00     0.149 C 
BRANCH  15  16
HETATM   16  C3  UNL     1      59.253  -1.127  39.914  1.00  0.00    -0.005 C 
HETATM   17  C2  UNL     1      57.985  -1.398  39.640  1.00  0.00    -0.082 C 
HETATM   18  C1  UNL     1      57.120  -0.245  39.287  1.00  0.00     0.043 C 
BRANCH  17  19
HETATM   19  C8  UNL     1      57.552  -2.793  39.710  1.00  0.00     0.014 C 
HETATM   20  C9  UNL     1      58.144  -3.516  38.506  1.00  0.00     0.009 C 
HETATM   21  C10 UNL     1      58.605  -4.853  38.975  1.00  0.00     0.001 C 
HETATM   22  C11 UNL     1      58.537  -4.873  40.473  1.00  0.00     0.001 C 
HETATM   23  C12 UNL     1      57.972  -3.551  40.910  1.00  0.00     0.009 C 
ENDBRANCH  17  19
ENDBRANCH  15  16
ENDBRANCH   1  15
TORSDOF 3
ENDMDL
MODEL 5
REMARK VINA RESULT: -7.354023319      5.102      7.406
REMARK  3 active torsions:
REMARK  status: ('A' for Active; 'I' for Inactive)
REMARK    1  A    between atoms: C2_2  and  C8_19 
REMARK    2  A    between atoms: C3_3  and  C4_4 
REMARK    3  A    between atoms: C4_4  and  N1_5 
REMARK       I    between atoms: N1_5  and  C5_7 
REMARK       I    between atoms: N3_9  and  C6_11 
REMARK       I    between atoms: C6_11  and  N5_15 
ROOT
HETATM    1  N1  UNL     1      57.809  -5.741  39.284  1.00  0.00    -0.361 N 
ATOM      2  H1  UNL     1      56.876  -5.852  38.887  1.00  0.00     0.162 HD
HETATM    3  C5  UNL     1      58.198  -6.473  40.437  1.00  0.00     0.203 C 
HETATM    4  N2  UNL     1      57.422  -6.458  41.617  1.00  0.00    -0.063 NA
HETATM    5  N3  UNL     1      59.297  -7.170  40.391  1.00  0.00    -0.163 N 
ATOM      6  H3  UNL     1      59.862  -7.186  39.542  1.00  0.00     0.187 HD
HETATM    7  C6  UNL     1      59.702  -7.907  41.536  1.00  0.00     0.687 C 
HETATM    8  N4  UNL     1      58.829  -8.540  42.242  1.00  0.00    -0.234 N 
ATOM      9  H41 UNL     1      59.120  -9.069  43.064  1.00  0.00     0.174 HD
ATOM     10  H42 UNL     1      57.846  -8.506  41.972  1.00  0.00     0.174 HD
HETATM   11  N5  UNL     1      61.090  -7.955  41.918  1.00  0.00    -0.126 N 
ATOM     12  H5  UNL     1      61.771  -8.446  41.338  1.00  0.00     0.197 HD
HETATM   13  C7  UNL     1      61.489  -7.318  43.096  1.00  0.00     0.196 C 
HETATM   14  N6  UNL     1      61.824  -6.774  44.061  1.00  0.00    -0.171 NA
ENDROOT
BRANCH   1  15
HETATM   15  C4  UNL     1      58.764  -4.835  38.688  1.00  0.00     0.149 C 
BRANCH  15  16
HETATM   16  C3  UNL     1      58.829  -3.596  39.489  1.00  0.00    -0.005 C 
HETATM   17  C2  UNL     1      58.103  -2.529  39.184  1.00  0.00    -0.082 C 
HETATM   18  C1  UNL     1      57.222  -2.643  37.996  1.00  0.00     0.043 C 
BRANCH  17  19
HETATM   19  C8  UNL     1      58.232  -1.346  40.034  1.00  0.00     0.014 C 
HETATM   20  C9  UNL     1      59.039  -1.750  41.262  1.00  0.00     0.009 C 
HETATM   21  C10 UNL     1      59.978  -0.634  41.562  1.00  0.00     0.001 C 
HETATM   22  C11 UNL     1      59.942   0.331  40.415  1.00  0.00     0.001 C 
HETATM   23  C12 UNL     1      58.923  -0.181  39.436  1.00  0.00     0.009 C 
ENDBRANCH  17  19
ENDBRANCH  15  16
ENDBRANCH   1  15
TORSDOF 3
ENDMDL
