MODEL 1
REMARK VINA RESULT: -6.314967208      0.000      0.000
REMARK  3 active torsions:
REMARK  status: ('A' for Active; 'I' for Inactive)
REMARK    1  A    between atoms: O1_2  and  C2_3 
REMARK    2  A    between atoms: C2_3  and  O2_4 
REMARK    3  A    between atoms: C9_12  and  N1_13 
ROOT
HETATM    1  C2  UNL     1      11.720   5.121  23.958  1.00  0.00     0.165 C 
HETATM    2  C4  UNL     1      11.401   3.723  23.718  1.00  0.00     0.074 C 
HETATM    3  C5  UNL     1      11.602   3.077  22.419  1.00  0.00     0.001 C 
HETATM    4  C6  UNL     1      11.394   3.694  21.121  1.00  0.00     0.049 C 
HETATM    5  C7  UNL     1      12.909   3.719  20.895  1.00  0.00     0.110 C 
HETATM    6  F1  UNL     1      13.345   3.259  19.698  1.00  0.00    -0.242 F 
HETATM    7  C8  UNL     1      13.496   5.037  21.336  1.00  0.00     0.082 C 
HETATM    8  C9  UNL     1      13.937   4.834  22.747  1.00  0.00     0.132 C 
HETATM    9  C10 UNL     1      14.049   3.361  22.993  1.00  0.00     0.047 C 
HETATM   10  C11 UNL     1      13.036   2.788  22.058  1.00  0.00     0.032 C 
HETATM   11  C12 UNL     1      13.155   5.533  23.785  1.00  0.00     0.107 C 
ENDROOT
BRANCH   1  12
HETATM   12  O1  UNL     1      11.392   5.471  25.258  1.00  0.00    -0.360 OA
HETATM   13  C1  UNL     1      10.554   4.698  25.966  1.00  0.00     0.205 C 
ENDBRANCH   1  12
BRANCH   1  14
HETATM   14  O2  UNL     1      10.891   5.999  23.206  1.00  0.00    -0.360 OA
HETATM   15  C3  UNL     1      11.223   7.321  23.346  1.00  0.00     0.205 C 
ENDBRANCH   1  14
BRANCH   8  16
HETATM   16  N1  UNL     1      15.305   5.374  22.834  1.00  0.00    -0.070 N 
ATOM     17  H13 UNL     1      16.027   4.654  22.804  1.00  0.00     0.275 HD
ATOM     18  H12 UNL     1      15.596   5.878  21.995  1.00  0.00     0.275 HD
ATOM     19  H11 UNL     1      15.335   5.943  23.679  1.00  0.00     0.275 HD
ENDBRANCH   8  16
TORSDOF 3
ENDMDL
MODEL 2
REMARK VINA RESULT: -6.227928917      1.790      3.064
REMARK  3 active torsions:
REMARK  status: ('A' for Active; 'I' for Inactive)
REMARK    1  A    between atoms: O1_2  and  C2_3 
REMARK    2  A    between atoms: C2_3  and  O2_4 
REMARK    3  A    between atoms: C9_12  and  N1_13 
ROOT
HETATM    1  C2  UNL     1      11.188   5.333  24.296  1.00  0.00     0.165 C 
HETATM    2  C4  UNL     1      11.691   6.462  23.530  1.00  0.00     0.074 C 
HETATM    3  C5  UNL     1      13.074   6.544  23.054  1.00  0.00     0.001 C 
HETATM    4  C6  UNL     1      14.249   6.077  23.770  1.00  0.00     0.049 C 
HETATM    5  C7  UNL     1      14.393   4.925  22.771  1.00  0.00     0.110 C 
HETATM    6  F1  UNL     1      15.632   4.728  22.258  1.00  0.00    -0.242 F 
HETATM    7  C8  UNL     1      13.695   3.686  23.275  1.00  0.00     0.082 C 
HETATM    8  C9  UNL     1      12.325   3.724  22.687  1.00  0.00     0.132 C 
HETATM    9  C10 UNL     1      12.343   4.668  21.524  1.00  0.00     0.047 C 
HETATM   10  C11 UNL     1      13.413   5.639  21.898  1.00  0.00     0.032 C 
HETATM   11  C12 UNL     1      11.216   3.988  23.625  1.00  0.00     0.107 C 
ENDROOT
BRANCH   1  12
HETATM   12  O1  UNL     1       9.864   5.542  24.644  1.00  0.00    -0.360 OA
HETATM   13  C1  UNL     1       9.371   6.790  24.678  1.00  0.00     0.205 C 
ENDBRANCH   1  12
BRANCH   1  14
HETATM   14  O2  UNL     1      11.809   5.228  25.571  1.00  0.00    -0.360 OA
HETATM   15  C3  UNL     1      11.086   4.495  26.474  1.00  0.00     0.205 C 
ENDBRANCH   1  14
BRANCH   8  16
HETATM   16  N1  UNL     1      12.077   2.383  22.129  1.00  0.00    -0.070 N 
ATOM     17  H13 UNL     1      12.872   2.006  21.613  1.00  0.00     0.275 HD
ATOM     18  H12 UNL     1      12.029   1.651  22.839  1.00  0.00     0.275 HD
ATOM     19  H11 UNL     1      11.229   2.460  21.567  1.00  0.00     0.275 HD
ENDBRANCH   8  16
TORSDOF 3
ENDMDL
MODEL 3
REMARK VINA RESULT: -5.844744871      2.323      3.403
REMARK  3 active torsions:
REMARK  status: ('A' for Active; 'I' for Inactive)
REMARK    1  A    between atoms: O1_2  and  C2_3 
REMARK    2  A    between atoms: C2_3  and  O2_4 
REMARK    3  A    between atoms: C9_12  and  N1_13 
ROOT
HETATM    1  C2  UNL     1      11.675   7.239  22.852  1.00  0.00     0.165 C 
HETATM    2  C4  UNL     1      12.217   6.482  21.734  1.00  0.00     0.074 C 
HETATM    3  C5  UNL     1      13.295   5.504  21.888  1.00  0.00     0.001 C 
HETATM    4  C6  UNL     1      14.427   5.621  22.791  1.00  0.00     0.049 C 
HETATM    5  C7  UNL     1      13.836   4.514  23.669  1.00  0.00     0.110 C 
HETATM    6  F1  UNL     1      14.684   3.525  24.040  1.00  0.00    -0.242 F 
HETATM    7  C8  UNL     1      12.996   5.098  24.778  1.00  0.00     0.082 C 
HETATM    8  C9  UNL     1      11.598   5.123  24.259  1.00  0.00     0.132 C 
HETATM    9  C10 UNL     1      11.514   4.178  23.099  1.00  0.00     0.047 C 
HETATM   10  C11 UNL     1      12.900   4.207  22.545  1.00  0.00     0.032 C 
HETATM   11  C12 UNL     1      11.032   6.452  23.960  1.00  0.00     0.107 C 
ENDROOT
BRANCH   1  12
HETATM   12  O1  UNL     1      10.697   8.115  22.409  1.00  0.00    -0.360 OA
HETATM   13  C1  UNL     1       9.478   8.093  22.968  1.00  0.00     0.205 C 
ENDBRANCH   1  12
BRANCH   1  14
HETATM   14  O2  UNL     1      12.631   8.132  23.410  1.00  0.00    -0.360 OA
HETATM   15  C3  UNL     1      12.255   9.448  23.346  1.00  0.00     0.205 C 
ENDBRANCH   1  14
BRANCH   8  16
HETATM   16  N1  UNL     1      10.753   4.550  25.322  1.00  0.00    -0.070 N 
ATOM     17  H13 UNL     1      10.610   3.544  25.228  1.00  0.00     0.275 HD
ATOM     18  H12 UNL     1      11.209   4.527  26.234  1.00  0.00     0.275 HD
ATOM     19  H11 UNL     1       9.884   5.084  25.316  1.00  0.00     0.275 HD
ENDBRANCH   8  16
TORSDOF 3
ENDMDL
MODEL 4
REMARK VINA RESULT: -5.555821236      5.774      7.943
REMARK  3 active torsions:
REMARK  status: ('A' for Active; 'I' for Inactive)
REMARK    1  A    between atoms: O1_2  and  C2_3 
REMARK    2  A    between atoms: C2_3  and  O2_4 
REMARK    3  A    between atoms: C9_12  and  N1_13 
ROOT
HETATM    1  C2  UNL     1       8.199   7.347  25.008  1.00  0.00     0.165 C 
HETATM    2  C4  UNL     1       8.761   8.601  25.485  1.00  0.00     0.074 C 
HETATM    3  C5  UNL     1       8.060   9.477  26.425  1.00  0.00     0.001 C 
HETATM    4  C6  UNL     1       6.628   9.721  26.454  1.00  0.00     0.049 C 
HETATM    5  C7  UNL     1       6.520   8.908  27.747  1.00  0.00     0.110 C 
HETATM    6  F1  UNL     1       5.812   9.474  28.755  1.00  0.00    -0.242 F 
HETATM    7  C8  UNL     1       6.185   7.467  27.450  1.00  0.00     0.082 C 
HETATM    8  C9  UNL     1       7.492   6.753  27.377  1.00  0.00     0.132 C 
HETATM    9  C10 UNL     1       8.525   7.600  28.055  1.00  0.00     0.047 C 
HETATM   10  C11 UNL     1       8.009   8.985  27.849  1.00  0.00     0.032 C 
HETATM   11  C12 UNL     1       7.914   6.292  26.040  1.00  0.00     0.107 C 
ENDROOT
BRANCH   1  12
HETATM   12  O1  UNL     1       9.060   6.750  24.101  1.00  0.00    -0.360 OA
HETATM   13  C1  UNL     1      10.282   6.361  24.497  1.00  0.00     0.205 C 
ENDBRANCH   1  12
BRANCH   1  14
HETATM   14  O2  UNL     1       7.036   7.547  24.214  1.00  0.00    -0.360 OA
HETATM   15  C3  UNL     1       7.284   8.196  23.033  1.00  0.00     0.205 C 
ENDBRANCH   1  14
BRANCH   8  16
HETATM   16  N1  UNL     1       7.346   5.539  28.199  1.00  0.00    -0.070 N 
ATOM     17  H13 UNL     1       6.752   5.673  29.018  1.00  0.00     0.275 HD
ATOM     18  H12 UNL     1       6.784   4.813  27.754  1.00  0.00     0.275 HD
ATOM     19  H11 UNL     1       8.292   5.235  28.430  1.00  0.00     0.275 HD
ENDBRANCH   8  16
TORSDOF 3
ENDMDL
MODEL 5
REMARK VINA RESULT: -5.531088139      6.439      7.921
REMARK  3 active torsions:
REMARK  status: ('A' for Active; 'I' for Inactive)
REMARK    1  A    between atoms: O1_2  and  C2_3 
REMARK    2  A    between atoms: C2_3  and  O2_4 
REMARK    3  A    between atoms: C9_12  and  N1_13 
ROOT
HETATM    1  C2  UNL     1       6.921   8.786  24.630  1.00  0.00     0.165 C 
HETATM    2  C4  UNL     1       6.912   7.338  24.771  1.00  0.00     0.074 C 
HETATM    3  C5  UNL     1       7.767   6.630  25.726  1.00  0.00     0.001 C 
HETATM    4  C6  UNL     1       9.129   6.990  26.077  1.00  0.00     0.049 C 
HETATM    5  C7  UNL     1       8.647   7.448  27.457  1.00  0.00     0.110 C 
HETATM    6  F1  UNL     1       9.358   6.999  28.520  1.00  0.00    -0.242 F 
HETATM    7  C8  UNL     1       8.344   8.926  27.457  1.00  0.00     0.082 C 
HETATM    8  C9  UNL     1       6.887   9.042  27.159  1.00  0.00     0.132 C 
HETATM    9  C10 UNL     1       6.248   7.714  27.433  1.00  0.00     0.047 C 
HETATM   10  C11 UNL     1       7.357   6.750  27.170  1.00  0.00     0.032 C 
HETATM   11  C12 UNL     1       6.529   9.591  25.837  1.00  0.00     0.107 C 
ENDROOT
BRANCH   1  12
HETATM   12  O1  UNL     1       6.046   9.175  23.629  1.00  0.00    -0.360 OA
HETATM   13  C1  UNL     1       4.907   9.810  23.948  1.00  0.00     0.205 C 
ENDBRANCH   1  12
BRANCH   1  14
HETATM   14  O2  UNL     1       8.162   9.270  24.132  1.00  0.00    -0.360 OA
HETATM   15  C3  UNL     1       8.408   8.913  22.833  1.00  0.00     0.205 C 
ENDBRANCH   1  14
BRANCH   8  16
HETATM   16  N1  UNL     1       6.335   9.979  28.154  1.00  0.00    -0.070 N 
ATOM     17  H13 UNL     1       7.019  10.653  28.498  1.00  0.00     0.275 HD
ATOM     18  H12 UNL     1       5.683  10.655  27.755  1.00  0.00     0.275 HD
ATOM     19  H11 UNL     1       5.925   9.406  28.890  1.00  0.00     0.275 HD
ENDBRANCH   8  16
TORSDOF 3
ENDMDL
