MODEL 1
REMARK VINA RESULT: -6.149036043      0.000      0.000
REMARK  3 active torsions:
REMARK  status: ('A' for Active; 'I' for Inactive)
REMARK    1  A    between atoms: C2_2  and  O1_5 
REMARK    2  A    between atoms: O1_5  and  C5_6 
REMARK       I    between atoms: C5_6  and  N1_8 
REMARK    3  A    between atoms: N1_8  and  N2_10 
ROOT
HETATM    1  C5  UNL     1      10.459   9.034  22.865  1.00  0.00     0.380 C 
HETATM    2  O2  UNL     1      10.327   9.190  24.101  1.00  0.00    -0.237 OA
HETATM    3  N1  UNL     1      11.297   8.027  22.376  1.00  0.00    -0.240 N 
ATOM      4  H1  UNL     1      11.368   7.948  21.361  1.00  0.00     0.193 HD
ENDROOT
BRANCH   3   5
HETATM    5  N2  UNL     1      12.030   7.138  23.109  1.00  0.00    -0.282 N 
HETATM    6  C6  UNL     1      13.416   7.199  23.029  1.00  0.00     0.091 C 
HETATM    7  C7  UNL     1      14.216   5.987  23.252  1.00  0.00     0.084 C 
HETATM    8  C8  UNL     1      13.462   4.722  23.519  1.00  0.00     0.179 C 
HETATM    9  F1  UNL     1      14.252   3.853  24.260  1.00  0.00    -0.249 F 
HETATM   10  C9  UNL     1      12.221   5.075  24.305  1.00  0.00     0.084 C 
HETATM   11  C10 UNL     1      11.378   5.929  23.380  1.00  0.00     0.091 C 
ENDBRANCH   3   5
BRANCH   1  12
HETATM   12  O1  UNL     1       9.742   9.904  22.068  1.00  0.00    -0.293 OA
BRANCH  12  13
HETATM   13  C2  UNL     1       8.539   9.533  21.509  1.00  0.00     0.061 C 
HETATM   14  C1  UNL     1       7.694   8.616  22.348  1.00  0.00     0.046 C 
HETATM   15  C3  UNL     1       7.727  10.772  21.202  1.00  0.00     0.046 C 
HETATM   16  C4  UNL     1       8.798   8.804  20.189  1.00  0.00     0.046 C 
ENDBRANCH  12  13
ENDBRANCH   1  12
TORSDOF 3
ENDMDL
MODEL 2
REMARK VINA RESULT: -6.019164930      4.131      5.762
REMARK  3 active torsions:
REMARK  status: ('A' for Active; 'I' for Inactive)
REMARK    1  A    between atoms: C2_2  and  O1_5 
REMARK    2  A    between atoms: O1_5  and  C5_6 
REMARK       I    between atoms: C5_6  and  N1_8 
REMARK    3  A    between atoms: N1_8  and  N2_10 
ROOT
HETATM    1  C5  UNL     1      10.443   5.399  25.581  1.00  0.00     0.380 C 
HETATM    2  O2  UNL     1       9.356   5.452  24.962  1.00  0.00    -0.237 OA
HETATM    3  N1  UNL     1      11.615   5.049  24.903  1.00  0.00    -0.240 N 
ATOM      4  H1  UNL     1      12.470   5.020  25.458  1.00  0.00     0.193 HD
ENDROOT
BRANCH   3   5
HETATM    5  N2  UNL     1      11.738   4.742  23.578  1.00  0.00    -0.282 N 
HETATM    6  C6  UNL     1      11.520   3.428  23.181  1.00  0.00     0.091 C 
HETATM    7  C7  UNL     1      12.196   2.903  21.986  1.00  0.00     0.084 C 
HETATM    8  C8  UNL     1      13.130   3.834  21.278  1.00  0.00     0.179 C 
HETATM    9  F1  UNL     1      13.225   3.475  19.940  1.00  0.00    -0.249 F 
HETATM   10  C9  UNL     1      12.572   5.232  21.390  1.00  0.00     0.084 C 
HETATM   11  C10 UNL     1      12.611   5.573  22.865  1.00  0.00     0.091 C 
ENDBRANCH   3   5
BRANCH   1  12
HETATM   12  O1  UNL     1      10.385   5.700  26.927  1.00  0.00    -0.293 OA
BRANCH  12  13
HETATM   13  C2  UNL     1      10.608   4.735  27.885  1.00  0.00     0.061 C 
HETATM   14  C1  UNL     1       9.774   3.491  27.752  1.00  0.00     0.046 C 
HETATM   15  C3  UNL     1      12.065   4.330  27.858  1.00  0.00     0.046 C 
HETATM   16  C4  UNL     1      10.308   5.316  29.268  1.00  0.00     0.046 C 
ENDBRANCH  12  13
ENDBRANCH   1  12
TORSDOF 3
ENDMDL
MODEL 3
REMARK VINA RESULT: -5.970175848      4.114      5.780
REMARK  3 active torsions:
REMARK  status: ('A' for Active; 'I' for Inactive)
REMARK    1  A    between atoms: C2_2  and  O1_5 
REMARK    2  A    between atoms: O1_5  and  C5_6 
REMARK       I    between atoms: C5_6  and  N1_8 
REMARK    3  A    between atoms: N1_8  and  N2_10 
ROOT
HETATM    1  C5  UNL     1      10.360   5.406  25.719  1.00  0.00     0.380 C 
HETATM    2  O2  UNL     1       9.281   5.513  25.090  1.00  0.00    -0.237 OA
HETATM    3  N1  UNL     1      11.526   5.033  25.043  1.00  0.00    -0.240 N 
ATOM      4  H1  UNL     1      12.373   4.959  25.605  1.00  0.00     0.193 HD
ENDROOT
BRANCH   3   5
HETATM    5  N2  UNL     1      11.652   4.756  23.711  1.00  0.00    -0.282 N 
HETATM    6  C6  UNL     1      11.413   3.456  23.280  1.00  0.00     0.091 C 
HETATM    7  C7  UNL     1      12.086   2.948  22.077  1.00  0.00     0.084 C 
HETATM    8  C8  UNL     1      13.044   3.878  21.399  1.00  0.00     0.179 C 
HETATM    9  F1  UNL     1      13.141   3.550  20.053  1.00  0.00    -0.249 F 
HETATM   10  C9  UNL     1      12.512   5.284  21.542  1.00  0.00     0.084 C 
HETATM   11  C10 UNL     1      12.546   5.587  23.026  1.00  0.00     0.091 C 
ENDBRANCH   3   5
BRANCH   1  12
HETATM   12  O1  UNL     1      10.297   5.673  27.071  1.00  0.00    -0.293 OA
BRANCH  12  13
HETATM   13  C2  UNL     1      10.686   4.737  28.003  1.00  0.00     0.061 C 
HETATM   14  C1  UNL     1      12.123   4.304  27.921  1.00  0.00     0.046 C 
HETATM   15  C3  UNL     1      10.437   5.279  29.393  1.00  0.00     0.046 C 
HETATM   16  C4  UNL     1       9.839   3.473  27.835  1.00  0.00     0.046 C 
ENDBRANCH  12  13
ENDBRANCH   1  12
TORSDOF 3
ENDMDL
MODEL 4
REMARK VINA RESULT: -5.868823038      2.799      3.449
REMARK  3 active torsions:
REMARK  status: ('A' for Active; 'I' for Inactive)
REMARK    1  A    between atoms: C2_2  and  O1_5 
REMARK    2  A    between atoms: O1_5  and  C5_6 
REMARK       I    between atoms: C5_6  and  N1_8 
REMARK    3  A    between atoms: N1_8  and  N2_10 
ROOT
HETATM    1  C5  UNL     1      10.367   5.717  24.901  1.00  0.00     0.380 C 
HETATM    2  O2  UNL     1      10.762   5.330  26.025  1.00  0.00    -0.237 OA
HETATM    3  N1  UNL     1      11.270   5.801  23.836  1.00  0.00    -0.240 N 
ATOM      4  H1  UNL     1      10.893   6.123  22.945  1.00  0.00     0.193 HD
ENDROOT
BRANCH   3   5
HETATM    5  N2  UNL     1      12.602   5.499  23.861  1.00  0.00    -0.282 N 
HETATM    6  C6  UNL     1      13.515   6.517  23.613  1.00  0.00     0.091 C 
HETATM    7  C7  UNL     1      14.826   6.198  23.030  1.00  0.00     0.084 C 
HETATM    8  C8  UNL     1      15.082   4.761  22.697  1.00  0.00     0.179 C 
HETATM    9  F1  UNL     1      16.447   4.509  22.729  1.00  0.00    -0.249 F 
HETATM   10  C9  UNL     1      14.384   3.909  23.729  1.00  0.00     0.084 C 
HETATM   11  C10 UNL     1      12.903   4.169  23.544  1.00  0.00     0.091 C 
ENDBRANCH   3   5
BRANCH   1  12
HETATM   12  O1  UNL     1       9.028   6.038  24.811  1.00  0.00    -0.293 OA
BRANCH  12  13
HETATM   13  C2  UNL     1       8.589   7.331  24.991  1.00  0.00     0.061 C 
HETATM   14  C1  UNL     1       9.481   8.399  24.422  1.00  0.00     0.046 C 
HETATM   15  C3  UNL     1       7.217   7.485  24.373  1.00  0.00     0.046 C 
HETATM   16  C4  UNL     1       8.463   7.619  26.488  1.00  0.00     0.046 C 
ENDBRANCH  12  13
ENDBRANCH   1  12
TORSDOF 3
ENDMDL
MODEL 5
REMARK VINA RESULT: -5.862397242      2.852      3.432
REMARK  3 active torsions:
REMARK  status: ('A' for Active; 'I' for Inactive)
REMARK    1  A    between atoms: C2_2  and  O1_5 
REMARK    2  A    between atoms: O1_5  and  C5_6 
REMARK       I    between atoms: C5_6  and  N1_8 
REMARK    3  A    between atoms: N1_8  and  N2_10 
ROOT
HETATM    1  C5  UNL     1      10.408   5.680  24.903  1.00  0.00     0.380 C 
HETATM    2  O2  UNL     1      10.804   5.291  26.026  1.00  0.00    -0.237 OA
HETATM    3  N1  UNL     1      11.311   5.775  23.840  1.00  0.00    -0.240 N 
ATOM      4  H1  UNL     1      10.934   6.099  22.950  1.00  0.00     0.193 HD
ENDROOT
BRANCH   3   5
HETATM    5  N2  UNL     1      12.645   5.481  23.865  1.00  0.00    -0.282 N 
HETATM    6  C6  UNL     1      13.552   6.505  23.617  1.00  0.00     0.091 C 
HETATM    7  C7  UNL     1      14.865   6.193  23.035  1.00  0.00     0.084 C 
HETATM    8  C8  UNL     1      15.131   4.758  22.702  1.00  0.00     0.179 C 
HETATM    9  F1  UNL     1      16.497   4.515  22.735  1.00  0.00    -0.249 F 
HETATM   10  C9  UNL     1      14.438   3.902  23.735  1.00  0.00     0.084 C 
HETATM   11  C10 UNL     1      12.955   4.153  23.549  1.00  0.00     0.091 C 
ENDBRANCH   3   5
BRANCH   1  12
HETATM   12  O1  UNL     1       9.066   5.993  24.813  1.00  0.00    -0.293 OA
BRANCH  12  13
HETATM   13  C2  UNL     1       8.600   7.243  25.153  1.00  0.00     0.061 C 
HETATM   14  C1  UNL     1       8.569   7.540  26.627  1.00  0.00     0.046 C 
HETATM   15  C3  UNL     1       9.451   8.296  24.479  1.00  0.00     0.046 C 
HETATM   16  C4  UNL     1       7.166   7.404  24.645  1.00  0.00     0.046 C 
ENDBRANCH  12  13
ENDBRANCH   1  12
TORSDOF 3
ENDMDL
