MODEL 1
REMARK VINA RESULT: -6.190554455      0.000      0.000
REMARK  1 active torsions:
REMARK  status: ('A' for Active; 'I' for Inactive)
REMARK    1  A    between atoms: N1_2  and  C2_5 
ROOT
HETATM    1  C2  UNL     1      11.436   7.370  23.152  1.00  0.00     0.193 C 
HETATM    2  C3  UNL     1      10.418   6.981  24.214  1.00  0.00     0.038 C 
HETATM    3  C4  UNL     1      11.071   5.799  24.898  1.00  0.00    -0.011 C 
HETATM    4  C5  UNL     1      10.075   4.837  25.472  1.00  0.00     0.010 C 
HETATM    5  C6  UNL     1      11.835   5.104  23.779  1.00  0.00     0.008 C 
HETATM    6  C7  UNL     1      13.180   4.765  24.337  1.00  0.00     0.087 C 
HETATM    7  S1  UNL     1      14.038   3.795  23.024  1.00  0.00    -0.089 SA
HETATM    8  C8  UNL     1      13.424   4.594  21.517  1.00  0.00     0.220 C 
HETATM    9  O1  UNL     1      13.345   3.985  20.499  1.00  0.00    -0.282 OA
HETATM   10  C9  UNL     1      13.053   6.020  21.749  1.00  0.00     0.257 C 
HETATM   11  F1  UNL     1      14.126   6.608  22.386  1.00  0.00    -0.240 F 
HETATM   12  C10 UNL     1      11.817   6.024  22.607  1.00  0.00     0.064 C 
ENDROOT
BRANCH   1  13
HETATM   13  N1  UNL     1      10.747   8.204  22.192  1.00  0.00    -0.074 N 
HETATM   14  C1  UNL     1       9.619   8.909  22.747  1.00  0.00     0.267 C 
ATOM     15  H12 UNL     1      10.466   7.660  21.376  1.00  0.00     0.277 HD
ATOM     16  H11 UNL     1      11.395   8.854  21.747  1.00  0.00     0.277 HD
ENDBRANCH   1  13
TORSDOF 1
ENDMDL
MODEL 2
REMARK VINA RESULT: -6.012159440      3.087      4.013
REMARK  1 active torsions:
REMARK  status: ('A' for Active; 'I' for Inactive)
REMARK    1  A    between atoms: N1_2  and  C2_5 
ROOT
HETATM    1  C2  UNL     1      12.435   5.323  22.746  1.00  0.00     0.193 C 
HETATM    2  C3  UNL     1      12.293   4.416  23.961  1.00  0.00     0.038 C 
HETATM    3  C4  UNL     1      11.067   4.967  24.658  1.00  0.00    -0.011 C 
HETATM    4  C5  UNL     1      11.093   4.744  26.139  1.00  0.00     0.010 C 
HETATM    5  C6  UNL     1      11.133   6.464  24.386  1.00  0.00     0.008 C 
HETATM    6  C7  UNL     1       9.749   6.882  24.005  1.00  0.00     0.087 C 
HETATM    7  S1  UNL     1       9.810   8.716  23.825  1.00  0.00    -0.089 SA
HETATM    8  C8  UNL     1      11.472   8.962  23.143  1.00  0.00     0.220 C 
HETATM    9  O1  UNL     1      12.062   9.976  23.340  1.00  0.00    -0.282 OA
HETATM   10  C9  UNL     1      11.943   7.777  22.370  1.00  0.00     0.257 C 
HETATM   11  F1  UNL     1      10.936   7.459  21.484  1.00  0.00    -0.240 F 
HETATM   12  C10 UNL     1      12.193   6.672  23.360  1.00  0.00     0.064 C 
ENDROOT
BRANCH   1  13
HETATM   13  N1  UNL     1      13.782   5.152  22.247  1.00  0.00    -0.074 N 
HETATM   14  C1  UNL     1      14.799   5.498  23.208  1.00  0.00     0.267 C 
ATOM     15  H12 UNL     1      13.914   5.672  21.379  1.00  0.00     0.277 HD
ATOM     16  H11 UNL     1      13.921   4.203  21.900  1.00  0.00     0.277 HD
ENDBRANCH   1  13
TORSDOF 1
ENDMDL
MODEL 3
REMARK VINA RESULT: -5.926936962      2.209      3.156
REMARK  1 active torsions:
REMARK  status: ('A' for Active; 'I' for Inactive)
REMARK    1  A    between atoms: N1_2  and  C2_5 
ROOT
HETATM    1  C2  UNL     1      10.354   5.777  24.488  1.00  0.00     0.193 C 
HETATM    2  C3  UNL     1      10.293   7.297  24.428  1.00  0.00     0.038 C 
HETATM    3  C4  UNL     1      11.097   7.625  23.189  1.00  0.00    -0.011 C 
HETATM    4  C5  UNL     1      11.756   8.969  23.262  1.00  0.00     0.010 C 
HETATM    5  C6  UNL     1      12.176   6.551  23.158  1.00  0.00     0.008 C 
HETATM    6  C7  UNL     1      12.254   6.074  21.743  1.00  0.00     0.087 C 
HETATM    7  S1  UNL     1      13.662   4.885  21.690  1.00  0.00    -0.089 SA
HETATM    8  C8  UNL     1      13.538   4.097  23.318  1.00  0.00     0.220 C 
HETATM    9  O1  UNL     1      14.505   3.653  23.851  1.00  0.00    -0.282 OA
HETATM   10  C9  UNL     1      12.141   4.106  23.841  1.00  0.00     0.257 C 
HETATM   11  F1  UNL     1      11.340   3.610  22.835  1.00  0.00    -0.240 F 
HETATM   12  C10 UNL     1      11.804   5.532  24.180  1.00  0.00     0.064 C 
ENDROOT
BRANCH   1  13
HETATM   13  N1  UNL     1       9.979   5.392  25.831  1.00  0.00    -0.074 N 
HETATM   14  C1  UNL     1       8.864   6.140  26.353  1.00  0.00     0.267 C 
ATOM     15  H12 UNL     1      10.780   5.450  26.460  1.00  0.00     0.277 HD
ATOM     16  H11 UNL     1       9.797   4.389  25.881  1.00  0.00     0.277 HD
ENDBRANCH   1  13
TORSDOF 1
ENDMDL
MODEL 4
REMARK VINA RESULT: -5.833978377      2.565      3.715
REMARK  1 active torsions:
REMARK  status: ('A' for Active; 'I' for Inactive)
REMARK    1  A    between atoms: N1_2  and  C2_5 
ROOT
HETATM    1  C2  UNL     1      14.536   5.463  23.159  1.00  0.00     0.193 C 
HETATM    2  C3  UNL     1      13.822   6.768  23.483  1.00  0.00     0.038 C 
HETATM    3  C4  UNL     1      12.380   6.340  23.644  1.00  0.00    -0.011 C 
HETATM    4  C5  UNL     1      11.409   7.427  23.296  1.00  0.00     0.010 C 
HETATM    5  C6  UNL     1      12.222   5.202  22.645  1.00  0.00     0.008 C 
HETATM    6  C7  UNL     1      11.471   4.121  23.355  1.00  0.00     0.087 C 
HETATM    7  S1  UNL     1      11.157   2.815  22.091  1.00  0.00    -0.089 SA
HETATM    8  C8  UNL     1      12.666   2.902  21.090  1.00  0.00     0.220 C 
HETATM    9  O1  UNL     1      12.649   2.593  19.942  1.00  0.00    -0.282 OA
HETATM   10  C9  UNL     1      13.833   3.397  21.877  1.00  0.00     0.257 C 
HETATM   11  F1  UNL     1      13.880   2.642  23.029  1.00  0.00    -0.240 F 
HETATM   12  C10 UNL     1      13.589   4.853  22.165  1.00  0.00     0.064 C 
ENDROOT
BRANCH   1  13
HETATM   13  N1  UNL     1      15.818   5.812  22.589  1.00  0.00    -0.074 N 
HETATM   14  C1  UNL     1      16.875   4.900  22.949  1.00  0.00     0.267 C 
ATOM     15  H12 UNL     1      16.071   6.771  22.831  1.00  0.00     0.277 HD
ATOM     16  H11 UNL     1      15.751   5.904  21.575  1.00  0.00     0.277 HD
ENDBRANCH   1  13
TORSDOF 1
ENDMDL
MODEL 5
REMARK VINA RESULT: -5.796127012      4.853      5.933
REMARK  1 active torsions:
REMARK  status: ('A' for Active; 'I' for Inactive)
REMARK    1  A    between atoms: N1_2  and  C2_5 
ROOT
HETATM    1  C2  UNL     1       9.536   7.968  24.063  1.00  0.00     0.193 C 
HETATM    2  C3  UNL     1      10.447   6.752  24.160  1.00  0.00     0.038 C 
HETATM    3  C4  UNL     1       9.719   5.855  25.138  1.00  0.00    -0.011 C 
HETATM    4  C5  UNL     1      10.646   4.968  25.913  1.00  0.00     0.010 C 
HETATM    5  C6  UNL     1       9.053   6.828  26.101  1.00  0.00     0.008 C 
HETATM    6  C7  UNL     1       7.658   6.328  26.303  1.00  0.00     0.087 C 
HETATM    7  S1  UNL     1       6.912   7.427  27.583  1.00  0.00    -0.089 SA
HETATM    8  C8  UNL     1       7.671   9.024  27.184  1.00  0.00     0.220 C 
HETATM    9  O1  UNL     1       7.836   9.844  28.030  1.00  0.00    -0.282 OA
HETATM   10  C9  UNL     1       8.037   9.127  25.741  1.00  0.00     0.257 C 
HETATM   11  F1  UNL     1       6.918   8.760  25.024  1.00  0.00    -0.240 F 
HETATM   12  C10 UNL     1       9.189   8.188  25.508  1.00  0.00     0.064 C 
ENDROOT
BRANCH   1  13
HETATM   13  N1  UNL     1      10.320   9.040  23.491  1.00  0.00    -0.074 N 
HETATM   14  C1  UNL     1      11.711   8.704  23.317  1.00  0.00     0.267 C 
ATOM     15  H12 UNL     1      10.220   9.893  24.041  1.00  0.00     0.277 HD
ATOM     16  H11 UNL     1       9.912   9.356  22.611  1.00  0.00     0.277 HD
ENDBRANCH   1  13
TORSDOF 1
ENDMDL
