MODEL 1
REMARK VINA RESULT: -6.919015464      0.000      0.000
REMARK  1 active torsions:
REMARK  status: ('A' for Active; 'I' for Inactive)
REMARK       I    between atoms: N1_2  and  C2_4 
REMARK    1  A    between atoms: C2_4  and  C3_6 
ROOT
HETATM    1  C3  UNL     1      13.333   6.558  22.851  1.00  0.00     0.206 C 
HETATM    2  C4  UNL     1      14.777   6.830  23.190  1.00  0.00     0.063 C 
HETATM    3  O2  UNL     1      13.187   6.021  21.576  1.00  0.00    -0.216 OA
HETATM    4  O3  UNL     1      12.071   5.326  21.659  1.00  0.00    -0.225 OA
HETATM    5  C5  UNL     1      12.349   4.451  22.702  1.00  0.00     0.130 C 
HETATM    6  C6  UNL     1      13.394   3.485  22.267  1.00  0.00     0.044 C 
HETATM    7  C7  UNL     1      12.612   2.264  21.825  1.00  0.00     0.003 C 
HETATM    8  C8  UNL     1      11.198   2.453  22.269  1.00  0.00     0.003 C 
HETATM    9  C9  UNL     1      11.147   3.674  23.148  1.00  0.00     0.044 C 
HETATM   10  C10 UNL     1      12.839   5.425  23.766  1.00  0.00     0.254 C 
HETATM   11  F1  UNL     1      13.870   4.829  24.429  1.00  0.00    -0.242 F 
ENDROOT
BRANCH   1  12
HETATM   12  C2  UNL     1      12.482   7.748  22.976  1.00  0.00     0.258 C 
HETATM   13  N1  UNL     1      11.187   7.650  23.523  1.00  0.00    -0.363 N 
HETATM   14  C1  UNL     1      10.300   8.792  23.673  1.00  0.00     0.149 C 
ATOM     15  H1  UNL     1      10.856   6.735  23.829  1.00  0.00     0.162 HD
HETATM   16  O1  UNL     1      12.930   8.851  22.588  1.00  0.00    -0.270 OA
ENDBRANCH   1  12
TORSDOF 1
ENDMDL
MODEL 2
REMARK VINA RESULT: -6.432035158      2.203      3.556
REMARK  1 active torsions:
REMARK  status: ('A' for Active; 'I' for Inactive)
REMARK       I    between atoms: N1_2  and  C2_4 
REMARK    1  A    between atoms: C2_4  and  C3_6 
ROOT
HETATM    1  C3  UNL     1      11.633   4.514  23.647  1.00  0.00     0.206 C 
HETATM    2  C4  UNL     1      10.921   3.318  23.067  1.00  0.00     0.063 C 
HETATM    3  O2  UNL     1      12.519   4.156  24.658  1.00  0.00    -0.216 OA
HETATM    4  O3  UNL     1      13.424   5.113  24.630  1.00  0.00    -0.225 OA
HETATM    5  C5  UNL     1      13.878   5.046  23.319  1.00  0.00     0.130 C 
HETATM    6  C6  UNL     1      14.628   3.776  23.123  1.00  0.00     0.044 C 
HETATM    7  C7  UNL     1      16.080   4.169  23.308  1.00  0.00     0.003 C 
HETATM    8  C8  UNL     1      16.142   5.661  23.327  1.00  0.00     0.003 C 
HETATM    9  C9  UNL     1      14.781   6.186  22.955  1.00  0.00     0.044 C 
HETATM   10  C10 UNL     1      12.558   5.086  22.559  1.00  0.00     0.254 C 
HETATM   11  F1  UNL     1      12.666   4.239  21.496  1.00  0.00    -0.242 F 
ENDROOT
BRANCH   1  12
HETATM   12  C2  UNL     1      10.711   5.540  24.151  1.00  0.00     0.258 C 
HETATM   13  N1  UNL     1      10.858   6.888  23.766  1.00  0.00    -0.363 N 
HETATM   14  C1  UNL     1       9.977   7.946  24.231  1.00  0.00     0.149 C 
ATOM     15  H1  UNL     1      11.618   7.133  23.132  1.00  0.00     0.162 HD
HETATM   16  O1  UNL     1       9.792   5.194  24.927  1.00  0.00    -0.270 OA
ENDBRANCH   1  12
TORSDOF 1
ENDMDL
MODEL 3
REMARK VINA RESULT: -6.033515639      1.420      1.579
REMARK  1 active torsions:
REMARK  status: ('A' for Active; 'I' for Inactive)
REMARK       I    between atoms: N1_2  and  C2_4 
REMARK    1  A    between atoms: C2_4  and  C3_6 
ROOT
HETATM    1  C3  UNL     1      12.087   7.191  22.762  1.00  0.00     0.206 C 
HETATM    2  C4  UNL     1      13.231   8.094  23.150  1.00  0.00     0.063 C 
HETATM    3  O2  UNL     1      12.250   6.659  21.487  1.00  0.00    -0.216 OA
HETATM    4  O3  UNL     1      11.577   5.528  21.535  1.00  0.00    -0.225 OA
HETATM    5  C5  UNL     1      12.190   4.870  22.594  1.00  0.00     0.130 C 
HETATM    6  C6  UNL     1      13.577   4.497  22.205  1.00  0.00     0.044 C 
HETATM    7  C7  UNL     1      13.461   3.058  21.745  1.00  0.00     0.003 C 
HETATM    8  C8  UNL     1      12.104   2.570  22.137  1.00  0.00     0.003 C 
HETATM    9  C9  UNL     1      11.466   3.622  23.004  1.00  0.00     0.044 C 
HETATM   10  C10 UNL     1      12.138   5.949  23.668  1.00  0.00     0.254 C 
HETATM   11  F1  UNL     1      13.305   5.889  24.372  1.00  0.00    -0.242 F 
ENDROOT
BRANCH   1  12
HETATM   12  C2  UNL     1      10.780   7.855  22.847  1.00  0.00     0.258 C 
HETATM   13  N1  UNL     1      10.232   8.507  21.725  1.00  0.00    -0.363 N 
HETATM   14  C1  UNL     1       8.944   9.180  21.748  1.00  0.00     0.149 C 
ATOM     15  H1  UNL     1      10.764   8.508  20.854  1.00  0.00     0.162 HD
HETATM   16  O1  UNL     1      10.163   7.829  23.936  1.00  0.00    -0.270 OA
ENDBRANCH   1  12
TORSDOF 1
ENDMDL
MODEL 4
REMARK VINA RESULT: -5.973170859      2.760      4.255
REMARK  1 active torsions:
REMARK  status: ('A' for Active; 'I' for Inactive)
REMARK       I    between atoms: N1_2  and  C2_4 
REMARK    1  A    between atoms: C2_4  and  C3_6 
ROOT
HETATM    1  C3  UNL     1      13.025   4.739  22.672  1.00  0.00     0.206 C 
HETATM    2  C4  UNL     1      12.603   4.603  21.230  1.00  0.00     0.063 C 
HETATM    3  O2  UNL     1      12.852   6.034  23.148  1.00  0.00    -0.216 OA
HETATM    4  O3  UNL     1      12.681   5.868  24.443  1.00  0.00    -0.225 OA
HETATM    5  C5  UNL     1      11.589   5.010  24.486  1.00  0.00     0.130 C 
HETATM    6  C6  UNL     1      10.379   5.733  24.010  1.00  0.00     0.044 C 
HETATM    7  C7  UNL     1       9.702   6.204  25.282  1.00  0.00     0.003 C 
HETATM    8  C8  UNL     1      10.373   5.518  26.427  1.00  0.00     0.003 C 
HETATM    9  C9  UNL     1      11.312   4.485  25.863  1.00  0.00     0.044 C 
HETATM   10  C10 UNL     1      12.049   3.917  23.530  1.00  0.00     0.254 C 
HETATM   11  F1  UNL     1      10.963   3.515  22.809  1.00  0.00    -0.242 F 
ENDROOT
BRANCH   1  12
HETATM   12  C2  UNL     1      14.414   4.320  22.903  1.00  0.00     0.258 C 
HETATM   13  N1  UNL     1      15.475   5.234  22.747  1.00  0.00    -0.363 N 
HETATM   14  C1  UNL     1      16.868   4.878  22.962  1.00  0.00     0.149 C 
ATOM     15  H1  UNL     1      15.255   6.191  22.471  1.00  0.00     0.162 HD
HETATM   16  O1  UNL     1      14.636   3.135  23.240  1.00  0.00    -0.270 OA
ENDBRANCH   1  12
TORSDOF 1
ENDMDL
MODEL 5
REMARK VINA RESULT: -5.918463271      1.873      4.509
REMARK  1 active torsions:
REMARK  status: ('A' for Active; 'I' for Inactive)
REMARK       I    between atoms: N1_2  and  C2_4 
REMARK    1  A    between atoms: C2_4  and  C3_6 
ROOT
HETATM    1  C3  UNL     1      12.555   5.067  22.614  1.00  0.00     0.206 C 
HETATM    2  C4  UNL     1      11.728   3.863  22.987  1.00  0.00     0.063 C 
HETATM    3  O2  UNL     1      12.004   5.770  21.547  1.00  0.00    -0.216 OA
HETATM    4  O3  UNL     1      12.439   7.000  21.730  1.00  0.00    -0.225 OA
HETATM    5  C5  UNL     1      11.971   7.288  23.006  1.00  0.00     0.130 C 
HETATM    6  C6  UNL     1      10.486   7.385  22.974  1.00  0.00     0.044 C 
HETATM    7  C7  UNL     1      10.213   8.870  22.845  1.00  0.00     0.003 C 
HETATM    8  C8  UNL     1      11.503   9.586  23.082  1.00  0.00     0.003 C 
HETATM    9  C9  UNL     1      12.514   8.574  23.552  1.00  0.00     0.044 C 
HETATM   10  C10 UNL     1      12.475   6.073  23.774  1.00  0.00     0.254 C 
HETATM   11  F1  UNL     1      11.513   5.724  24.676  1.00  0.00    -0.242 F 
ENDROOT
BRANCH   1  12
HETATM   12  C2  UNL     1      13.950   4.729  22.303  1.00  0.00     0.258 C 
HETATM   13  N1  UNL     1      15.005   5.245  23.082  1.00  0.00    -0.363 N 
HETATM   14  C1  UNL     1      16.403   4.945  22.823  1.00  0.00     0.149 C 
ATOM     15  H1  UNL     1      14.777   5.857  23.865  1.00  0.00     0.162 HD
HETATM   16  O1  UNL     1      14.183   3.973  21.333  1.00  0.00    -0.270 OA
ENDBRANCH   1  12
TORSDOF 1
ENDMDL
