MODEL 1
REMARK VINA RESULT: -7.179542110      0.000      0.000
REMARK  2 active torsions:
REMARK  status: ('A' for Active; 'I' for Inactive)
REMARK    1  A    between atoms: C2_3  and  S1_4 
REMARK    2  A    between atoms: C2_3  and  C3_6 
ROOT
HETATM    1  N1  UNL     1      11.926  10.185  23.313  1.00  0.00    -0.196 NA
HETATM    2  C1  UNL     1      11.682   9.080  23.129  1.00  0.00     0.081 C 
HETATM    3  C2  UNL     1      11.358   7.682  22.896  1.00  0.00     0.217 C 
ENDROOT
BRANCH   3   4
HETATM    4  S1  UNL     1      10.240   7.083  24.224  1.00  0.00    -0.034 SA
HETATM    5 CL1  UNL     1       9.066   8.655  24.948  1.00  0.00    -0.042 Cl
ENDBRANCH   3   4
BRANCH   3   6
HETATM    6  C3  UNL     1      12.561   6.829  22.947  1.00  0.00     0.039 C 
HETATM    7  N2  UNL     1      13.753   7.239  23.240  1.00  0.00    -0.349 N 
HETATM    8  C4  UNL     1      14.510   6.128  23.171  1.00  0.00     0.077 C 
ATOM      9  H2  UNL     1      14.051   8.188  23.470  1.00  0.00     0.167 HD
HETATM   10  C5  UNL     1      15.816   5.612  23.183  1.00  0.00     0.076 C 
HETATM   11  N3  UNL     1      13.946   5.546  22.001  1.00  0.00    -0.370 N 
HETATM   12  C6  UNL     1      15.506   4.092  23.272  1.00  0.00     0.007 C 
HETATM   13  C7  UNL     1      14.178   3.633  23.573  1.00  0.00     0.003 C 
HETATM   14  C8  UNL     1      12.876   4.332  23.561  1.00  0.00     0.031 C 
HETATM   15  C9  UNL     1      12.612   5.385  22.585  1.00  0.00     0.131 C 
ATOM     16  H3  UNL     1      14.333   5.320  21.084  1.00  0.00     0.161 HD
ENDBRANCH   3   6
TORSDOF 2
ENDMDL
MODEL 2
REMARK VINA RESULT: -6.218741674      2.709      4.853
REMARK  2 active torsions:
REMARK  status: ('A' for Active; 'I' for Inactive)
REMARK    1  A    between atoms: C2_3  and  S1_4 
REMARK    2  A    between atoms: C2_3  and  C3_6 
ROOT
HETATM    1  N1  UNL     1      16.025   5.286  22.930  1.00  0.00    -0.196 NA
HETATM    2  C1  UNL     1      14.958   4.946  23.174  1.00  0.00     0.081 C 
HETATM    3  C2  UNL     1      13.609   4.500  23.482  1.00  0.00     0.217 C 
ENDROOT
BRANCH   3   4
HETATM    4  S1  UNL     1      13.035   3.341  22.179  1.00  0.00    -0.034 SA
HETATM    5 CL1  UNL     1      11.061   2.756  22.544  1.00  0.00    -0.042 Cl
ENDBRANCH   3   4
BRANCH   3   6
HETATM    6  C3  UNL     1      12.653   5.624  23.491  1.00  0.00     0.039 C 
HETATM    7  N2  UNL     1      11.554   5.662  24.175  1.00  0.00    -0.349 N 
HETATM    8  C4  UNL     1      11.024   6.865  23.880  1.00  0.00     0.077 C 
ATOM      9  H2  UNL     1      11.177   4.946  24.795  1.00  0.00     0.167 HD
HETATM   10  C5  UNL     1       9.900   7.697  24.000  1.00  0.00     0.076 C 
HETATM   11  N3  UNL     1      11.297   6.893  22.484  1.00  0.00    -0.370 N 
HETATM   12  C6  UNL     1      10.490   9.029  23.458  1.00  0.00     0.007 C 
HETATM   13  C7  UNL     1      11.905   9.175  23.262  1.00  0.00     0.003 C 
HETATM   14  C8  UNL     1      12.993   8.177  23.209  1.00  0.00     0.031 C 
HETATM   15  C9  UNL     1      12.752   6.850  22.650  1.00  0.00     0.131 C 
ATOM     16  H3  UNL     1      10.694   6.930  21.662  1.00  0.00     0.161 HD
ENDBRANCH   3   6
TORSDOF 2
ENDMDL
MODEL 3
REMARK VINA RESULT: -6.213368470      1.365      1.681
REMARK  2 active torsions:
REMARK  status: ('A' for Active; 'I' for Inactive)
REMARK    1  A    between atoms: C2_3  and  S1_4 
REMARK    2  A    between atoms: C2_3  and  C3_6 
ROOT
HETATM    1  N1  UNL     1      12.054  10.185  23.326  1.00  0.00    -0.196 NA
HETATM    2  C1  UNL     1      11.509   9.189  23.165  1.00  0.00     0.081 C 
HETATM    3  C2  UNL     1      10.805   7.934  22.960  1.00  0.00     0.217 C 
ENDROOT
BRANCH   3   4
HETATM    4  S1  UNL     1       9.579   7.694  24.306  1.00  0.00    -0.034 SA
HETATM    5 CL1  UNL     1       7.636   7.937  23.572  1.00  0.00    -0.042 Cl
ENDBRANCH   3   4
BRANCH   3   6
HETATM    6  C3  UNL     1      11.721   6.779  23.020  1.00  0.00     0.039 C 
HETATM    7  N2  UNL     1      11.955   6.068  24.076  1.00  0.00    -0.349 N 
HETATM    8  C4  UNL     1      12.833   5.137  23.658  1.00  0.00     0.077 C 
ATOM      9  H2  UNL     1      11.564   6.186  25.011  1.00  0.00     0.167 HD
HETATM   10  C5  UNL     1      13.701   4.105  24.047  1.00  0.00     0.076 C 
HETATM   11  N3  UNL     1      13.659   5.959  22.841  1.00  0.00    -0.370 N 
HETATM   12  C6  UNL     1      14.066   3.517  22.655  1.00  0.00     0.007 C 
HETATM   13  C7  UNL     1      13.328   3.902  21.484  1.00  0.00     0.003 C 
HETATM   14  C8  UNL     1      12.391   5.018  21.241  1.00  0.00     0.031 C 
HETATM   15  C9  UNL     1      12.587   6.305  21.905  1.00  0.00     0.131 C 
ATOM     16  H3  UNL     1      14.645   6.216  22.890  1.00  0.00     0.161 HD
ENDBRANCH   3   6
TORSDOF 2
ENDMDL
MODEL 4
REMARK VINA RESULT: -6.188297781      3.357      5.280
REMARK  2 active torsions:
REMARK  status: ('A' for Active; 'I' for Inactive)
REMARK    1  A    between atoms: C2_3  and  S1_4 
REMARK    2  A    between atoms: C2_3  and  C3_6 
ROOT
HETATM    1  N1  UNL     1      12.572   2.243  21.828  1.00  0.00    -0.196 NA
HETATM    2  C1  UNL     1      13.109   3.246  21.968  1.00  0.00     0.081 C 
HETATM    3  C2  UNL     1      13.803   4.512  22.143  1.00  0.00     0.217 C 
ENDROOT
BRANCH   3   4
HETATM    4  S1  UNL     1      15.028   4.354  23.502  1.00  0.00    -0.034 SA
HETATM    5 CL1  UNL     1      16.932   4.900  22.830  1.00  0.00    -0.042 Cl
ENDBRANCH   3   4
BRANCH   3   6
HETATM    6  C3  UNL     1      12.877   5.591  22.539  1.00  0.00     0.039 C 
HETATM    7  N2  UNL     1      11.835   5.439  23.292  1.00  0.00    -0.349 N 
HETATM    8  C4  UNL     1      11.313   6.676  23.385  1.00  0.00     0.077 C 
ATOM      9  H2  UNL     1      11.489   4.578  23.717  1.00  0.00     0.167 HD
HETATM   10  C5  UNL     1      10.221   7.444  23.819  1.00  0.00     0.076 C 
HETATM   11  N3  UNL     1      11.480   7.091  22.034  1.00  0.00    -0.370 N 
HETATM   12  C6  UNL     1      10.799   8.873  23.623  1.00  0.00     0.007 C 
HETATM   13  C7  UNL     1      12.199   9.066  23.364  1.00  0.00     0.003 C 
HETATM   14  C8  UNL     1      13.256   8.120  22.951  1.00  0.00     0.031 C 
HETATM   15  C9  UNL     1      12.942   7.001  22.066  1.00  0.00     0.131 C 
ATOM     16  H3  UNL     1      10.818   7.357  21.305  1.00  0.00     0.161 HD
ENDBRANCH   3   6
TORSDOF 2
ENDMDL
MODEL 5
REMARK VINA RESULT: -6.122097641      1.023      1.777
REMARK  2 active torsions:
REMARK  status: ('A' for Active; 'I' for Inactive)
REMARK    1  A    between atoms: C2_3  and  S1_4 
REMARK    2  A    between atoms: C2_3  and  C3_6 
ROOT
HETATM    1  N1  UNL     1      12.210   9.788  23.257  1.00  0.00    -0.196 NA
HETATM    2  C1  UNL     1      11.743   8.751  23.113  1.00  0.00     0.081 C 
HETATM    3  C2  UNL     1      11.136   7.442  22.929  1.00  0.00     0.217 C 
ENDROOT
BRANCH   3   4
HETATM    4  S1  UNL     1       9.921   7.138  24.272  1.00  0.00    -0.034 SA
HETATM    5 CL1  UNL     1       8.574   8.732  24.407  1.00  0.00    -0.042 Cl
ENDBRANCH   3   4
BRANCH   3   6
HETATM    6  C3  UNL     1      12.137   6.361  23.019  1.00  0.00     0.039 C 
HETATM    7  N2  UNL     1      12.010   5.184  22.495  1.00  0.00    -0.349 N 
HETATM    8  C4  UNL     1      13.153   4.553  22.823  1.00  0.00     0.077 C 
ATOM      9  H2  UNL     1      11.223   4.818  21.958  1.00  0.00     0.167 HD
HETATM   10  C5  UNL     1      13.838   3.328  22.836  1.00  0.00     0.076 C 
HETATM   11  N3  UNL     1      13.283   5.007  24.165  1.00  0.00    -0.370 N 
HETATM   12  C6  UNL     1      15.257   3.815  23.246  1.00  0.00     0.007 C 
HETATM   13  C7  UNL     1      15.580   5.214  23.236  1.00  0.00     0.003 C 
HETATM   14  C8  UNL     1      14.723   6.415  23.166  1.00  0.00     0.031 C 
HETATM   15  C9  UNL     1      13.405   6.420  23.797  1.00  0.00     0.131 C 
ATOM     16  H3  UNL     1      13.289   4.523  25.063  1.00  0.00     0.161 HD
ENDBRANCH   3   6
TORSDOF 2
ENDMDL
