MODEL 1
REMARK VINA RESULT: -3.893341154      0.000      0.000
REMARK  4 active torsions:
REMARK  status: ('A' for Active; 'I' for Inactive)
REMARK    1  A    between atoms: N1_2  and  C2_4 
REMARK    2  A    between atoms: C4_6  and  C5_7 
REMARK    3  A    between atoms: C5_7  and  N2_8 
REMARK    4  A    between atoms: C7_13  and  N3_14 
ROOT
HETATM    1  C2  UNL     1     115.539  36.252  28.807  1.00  0.00     0.106 C 
HETATM    2  C3  UNL     1     115.373  36.888  30.190  1.00  0.00     0.033 C 
HETATM    3  C4  UNL     1     116.049  35.818  31.039  1.00  0.00     0.015 C 
HETATM    4  C6  UNL     1     117.078  35.151  30.145  1.00  0.00     0.041 C 
HETATM    5  C7  UNL     1     117.025  35.951  28.848  1.00  0.00     0.206 C 
ENDROOT
BRANCH   3   6
HETATM    6  C5  UNL     1     116.747  36.393  32.242  1.00  0.00     0.234 C 
BRANCH   6   7
HETATM    7  N2  UNL     1     115.914  37.526  32.676  1.00  0.00    -0.079 N 
ATOM      8  H23 UNL     1     116.135  38.402  32.203  1.00  0.00     0.274 HD
ATOM      9  H22 UNL     1     114.945  37.463  32.367  1.00  0.00     0.274 HD
ATOM     10  H21 UNL     1     116.020  37.570  33.689  1.00  0.00     0.274 HD
ENDBRANCH   6   7
ENDBRANCH   3   6
BRANCH   1  11
HETATM   11  N1  UNL     1     115.125  37.081  27.739  1.00  0.00    -0.419 N 
HETATM   12  C1  UNL     1     113.771  37.017  27.340  1.00  0.00     0.140 C 
ATOM     13  H1  UNL     1     115.782  37.705  27.272  1.00  0.00     0.153 HD
ENDBRANCH   1  11
BRANCH   5  14
HETATM   14  N3  UNL     1     117.480  35.182  27.721  1.00  0.00    -0.073 N 
ATOM     15  H33 UNL     1     116.951  34.314  27.636  1.00  0.00     0.274 HD
ATOM     16  H32 UNL     1     117.212  35.630  26.845  1.00  0.00     0.274 HD
ATOM     17  H31 UNL     1     118.483  34.994  27.740  1.00  0.00     0.274 HD
ENDBRANCH   5  14
TORSDOF 4
ENDMDL
MODEL 2
REMARK VINA RESULT: -3.867669116      2.448      3.295
REMARK  4 active torsions:
REMARK  status: ('A' for Active; 'I' for Inactive)
REMARK    1  A    between atoms: N1_2  and  C2_4 
REMARK    2  A    between atoms: C4_6  and  C5_7 
REMARK    3  A    between atoms: C5_7  and  N2_8 
REMARK    4  A    between atoms: C7_13  and  N3_14 
ROOT
HETATM    1  C2  UNL     1     115.884  33.686  29.000  1.00  0.00     0.106 C 
HETATM    2  C3  UNL     1     115.820  35.004  29.778  1.00  0.00     0.033 C 
HETATM    3  C4  UNL     1     117.049  35.695  29.198  1.00  0.00     0.015 C 
HETATM    4  C6  UNL     1     117.228  35.141  27.796  1.00  0.00     0.041 C 
HETATM    5  C7  UNL     1     116.019  34.235  27.592  1.00  0.00     0.206 C 
ENDROOT
BRANCH   3   6
HETATM    6  C5  UNL     1     116.883  37.189  29.115  1.00  0.00     0.234 C 
BRANCH   6   7
HETATM    7  N2  UNL     1     115.645  37.489  29.851  1.00  0.00    -0.079 N 
ATOM      8  H23 UNL     1     114.829  36.986  29.504  1.00  0.00     0.274 HD
ATOM      9  H22 UNL     1     115.629  37.108  30.797  1.00  0.00     0.274 HD
ATOM     10  H21 UNL     1     115.545  38.504  29.817  1.00  0.00     0.274 HD
ENDBRANCH   6   7
ENDBRANCH   3   6
BRANCH   1  11
HETATM   11  N1  UNL     1     114.771  32.840  29.209  1.00  0.00    -0.419 N 
HETATM   12  C1  UNL     1     115.018  31.521  29.652  1.00  0.00     0.140 C 
ATOM     13  H1  UNL     1     113.820  33.171  29.046  1.00  0.00     0.153 HD
ENDBRANCH   1  11
BRANCH   5  14
HETATM   14  N3  UNL     1     116.269  33.217  26.607  1.00  0.00    -0.073 N 
ATOM     15  H33 UNL     1     116.413  33.631  25.686  1.00  0.00     0.274 HD
ATOM     16  H32 UNL     1     117.186  32.794  26.747  1.00  0.00     0.274 HD
ATOM     17  H31 UNL     1     115.541  32.503  26.573  1.00  0.00     0.274 HD
ENDBRANCH   5  14
TORSDOF 4
ENDMDL
MODEL 3
REMARK VINA RESULT: -3.857845544      1.602      2.091
REMARK  4 active torsions:
REMARK  status: ('A' for Active; 'I' for Inactive)
REMARK    1  A    between atoms: N1_2  and  C2_4 
REMARK    2  A    between atoms: C4_6  and  C5_7 
REMARK    3  A    between atoms: C5_7  and  N2_8 
REMARK    4  A    between atoms: C7_13  and  N3_14 
ROOT
HETATM    1  C2  UNL     1     117.033  34.941  28.539  1.00  0.00     0.106 C 
HETATM    2  C3  UNL     1     116.182  34.539  29.747  1.00  0.00     0.033 C 
HETATM    3  C4  UNL     1     116.641  35.600  30.739  1.00  0.00     0.015 C 
HETATM    4  C6  UNL     1     117.052  36.806  29.915  1.00  0.00     0.041 C 
HETATM    5  C7  UNL     1     116.700  36.420  28.483  1.00  0.00     0.206 C 
ENDROOT
BRANCH   3   6
HETATM    6  C5  UNL     1     115.549  36.009  31.692  1.00  0.00     0.234 C 
BRANCH   6   7
HETATM    7  N2  UNL     1     116.082  37.163  32.431  1.00  0.00    -0.079 N 
ATOM      8  H23 UNL     1     117.023  37.017  32.796  1.00  0.00     0.274 HD
ATOM      9  H22 UNL     1     116.306  37.961  31.838  1.00  0.00     0.274 HD
ATOM     10  H21 UNL     1     115.391  37.369  33.152  1.00  0.00     0.274 HD
ENDBRANCH   6   7
ENDBRANCH   3   6
BRANCH   1  11
HETATM   11  N1  UNL     1     116.739  34.216  27.362  1.00  0.00    -0.419 N 
HETATM   12  C1  UNL     1     115.393  33.858  27.124  1.00  0.00     0.140 C 
ATOM     13  H1  UNL     1     117.475  33.959  26.704  1.00  0.00     0.153 HD
ENDBRANCH   1  11
BRANCH   5  14
HETATM   14  N3  UNL     1     117.487  37.143  27.520  1.00  0.00    -0.073 N 
ATOM     15  H33 UNL     1     118.478  37.104  27.758  1.00  0.00     0.274 HD
ATOM     16  H32 UNL     1     117.509  36.651  26.627  1.00  0.00     0.274 HD
ATOM     17  H31 UNL     1     117.183  38.109  27.394  1.00  0.00     0.274 HD
ENDBRANCH   5  14
TORSDOF 4
ENDMDL
MODEL 4
REMARK VINA RESULT: -3.819594877      2.691      4.117
REMARK  4 active torsions:
REMARK  status: ('A' for Active; 'I' for Inactive)
REMARK    1  A    between atoms: N1_2  and  C2_4 
REMARK    2  A    between atoms: C4_6  and  C5_7 
REMARK    3  A    between atoms: C5_7  and  N2_8 
REMARK    4  A    between atoms: C7_13  and  N3_14 
ROOT
HETATM    1  C2  UNL     1     115.547  33.587  27.139  1.00  0.00     0.106 C 
HETATM    2  C3  UNL     1     114.229  34.216  26.678  1.00  0.00     0.033 C 
HETATM    3  C4  UNL     1     113.880  35.010  27.932  1.00  0.00     0.015 C 
HETATM    4  C6  UNL     1     115.199  35.351  28.601  1.00  0.00     0.041 C 
HETATM    5  C7  UNL     1     116.257  34.832  27.634  1.00  0.00     0.206 C 
ENDROOT
BRANCH   3   6
HETATM    6  C5  UNL     1     113.147  36.286  27.619  1.00  0.00     0.234 C 
BRANCH   6   7
HETATM    7  N2  UNL     1     113.343  37.151  28.792  1.00  0.00    -0.079 N 
ATOM      8  H23 UNL     1     113.350  36.646  29.678  1.00  0.00     0.274 HD
ATOM      9  H22 UNL     1     114.285  37.535  28.864  1.00  0.00     0.274 HD
ATOM     10  H21 UNL     1     112.615  37.863  28.732  1.00  0.00     0.274 HD
ENDBRANCH   6   7
ENDBRANCH   3   6
BRANCH   1  11
HETATM   11  N1  UNL     1     116.227  32.871  26.128  1.00  0.00    -0.419 N 
HETATM   12  C1  UNL     1     115.792  31.557  25.841  1.00  0.00     0.140 C 
ATOM     13  H1  UNL     1     117.008  33.289  25.621  1.00  0.00     0.153 HD
ENDBRANCH   1  11
BRANCH   5  14
HETATM   14  N3  UNL     1     117.502  34.551  28.297  1.00  0.00    -0.073 N 
ATOM     15  H33 UNL     1     117.339  34.118  29.206  1.00  0.00     0.274 HD
ATOM     16  H32 UNL     1     117.996  33.788  27.834  1.00  0.00     0.274 HD
ATOM     17  H31 UNL     1     118.104  35.369  28.388  1.00  0.00     0.274 HD
ENDBRANCH   5  14
TORSDOF 4
ENDMDL
MODEL 5
REMARK VINA RESULT: -3.816792239      1.523      2.565
REMARK  4 active torsions:
REMARK  status: ('A' for Active; 'I' for Inactive)
REMARK    1  A    between atoms: N1_2  and  C2_4 
REMARK    2  A    between atoms: C4_6  and  C5_7 
REMARK    3  A    between atoms: C5_7  and  N2_8 
REMARK    4  A    between atoms: C7_13  and  N3_14 
ROOT
HETATM    1  C2  UNL     1     116.500  35.274  28.103  1.00  0.00     0.106 C 
HETATM    2  C3  UNL     1     117.089  35.008  29.492  1.00  0.00     0.033 C 
HETATM    3  C4  UNL     1     116.776  36.344  30.155  1.00  0.00     0.015 C 
HETATM    4  C6  UNL     1     115.537  36.883  29.465  1.00  0.00     0.041 C 
HETATM    5  C7  UNL     1     115.125  35.770  28.507  1.00  0.00     0.206 C 
ENDROOT
BRANCH   3   6
HETATM    6  C5  UNL     1     116.493  36.204  31.627  1.00  0.00     0.234 C 
BRANCH   6   7
HETATM    7  N2  UNL     1     117.544  36.977  32.305  1.00  0.00    -0.079 N 
ATOM      8  H23 UNL     1     117.395  37.080  33.309  1.00  0.00     0.274 HD
ATOM      9  H22 UNL     1     118.437  36.489  32.366  1.00  0.00     0.274 HD
ATOM     10  H21 UNL     1     117.596  37.866  31.807  1.00  0.00     0.274 HD
ENDBRANCH   6   7
ENDBRANCH   3   6
BRANCH   1  11
HETATM   11  N1  UNL     1     116.504  34.145  27.252  1.00  0.00    -0.419 N 
HETATM   12  C1  UNL     1     115.734  33.024  27.637  1.00  0.00     0.140 C 
ATOM     13  H1  UNL     1     117.044  34.140  26.387  1.00  0.00     0.153 HD
ENDBRANCH   1  11
BRANCH   5  14
HETATM   14  N3  UNL     1     114.353  36.269  27.400  1.00  0.00    -0.073 N 
ATOM     15  H33 UNL     1     113.377  36.394  27.666  1.00  0.00     0.274 HD
ATOM     16  H32 UNL     1     114.598  37.237  27.195  1.00  0.00     0.274 HD
ATOM     17  H31 UNL     1     114.429  35.691  26.564  1.00  0.00     0.274 HD
ENDBRANCH   5  14
TORSDOF 4
ENDMDL
