MODEL 1
REMARK VINA RESULT: -4.946011123      0.000      0.000
REMARK  5 active torsions:
REMARK  status: ('A' for Active; 'I' for Inactive)
REMARK    1  A    between atoms: N1_1  and  C1_5 
REMARK    2  A    between atoms: C3_7  and  N2_8 
REMARK    3  A    between atoms: C3_7  and  C4_12 
REMARK    4  A    between atoms: C4_12  and  O1_13 
REMARK    5  A    between atoms: O1_13  and  C5_14 
ROOT
HETATM    1  C1  UNL     1     115.071  29.969  30.755  1.00  0.00     0.223 A 
HETATM    2  C2  UNL     1     115.377  28.615  30.075  1.00  0.00     0.078 A 
HETATM    3  C3  UNL     1     115.478  29.878  29.330  1.00  0.00     0.174 A 
ENDROOT
BRANCH   3   4
HETATM    4  N2  UNL     1     116.770  30.418  28.923  1.00  0.00    -0.066 N 
ATOM      5  H23 UNL     1     117.038  31.153  29.578  1.00  0.00     0.275 HD
ATOM      6  H22 UNL     1     117.488  29.717  29.103  1.00  0.00     0.275 HD
ATOM      7  H21 UNL     1     116.885  30.770  27.973  1.00  0.00     0.275 HD
ENDBRANCH   3   4
BRANCH   3   8
HETATM    8  C4  UNL     1     114.397  30.116  28.287  1.00  0.00     0.211 C 
BRANCH   8   9
HETATM    9  O1  UNL     1     114.915  29.705  27.046  1.00  0.00    -0.365 OA
BRANCH   9  10
HETATM   10  C5  UNL     1     114.591  30.596  26.039  1.00  0.00     0.245 C 
HETATM   11  C6  UNL     1     115.559  31.730  25.840  1.00  0.00     0.180 C 
HETATM   12  N3  UNL     1     116.141  31.010  24.714  1.00  0.00    -0.142 NA
HETATM   13  N4  UNL     1     114.968  30.222  24.707  1.00  0.00    -0.115 NA
ENDBRANCH   9  10
ENDBRANCH   8   9
ENDBRANCH   3   8
BRANCH   1  14
HETATM   14  N1  UNL     1     115.990  30.344  31.790  1.00  0.00    -0.072 N 
ATOM     15  H13 UNL     1     115.581  30.165  32.707  1.00  0.00     0.274 HD
ATOM     16  H12 UNL     1     116.776  29.695  31.816  1.00  0.00     0.274 HD
ATOM     17  H11 UNL     1     116.327  31.305  31.735  1.00  0.00     0.274 HD
ENDBRANCH   1  14
TORSDOF 5
ENDMDL
MODEL 2
REMARK VINA RESULT: -4.826531781      2.798      3.519
REMARK  5 active torsions:
REMARK  status: ('A' for Active; 'I' for Inactive)
REMARK    1  A    between atoms: N1_1  and  C1_5 
REMARK    2  A    between atoms: C3_7  and  N2_8 
REMARK    3  A    between atoms: C3_7  and  C4_12 
REMARK    4  A    between atoms: C4_12  and  O1_13 
REMARK    5  A    between atoms: O1_13  and  C5_14 
ROOT
HETATM    1  C1  UNL     1     115.858  34.255  27.361  1.00  0.00     0.223 A 
HETATM    2  C2  UNL     1     114.713  34.556  28.354  1.00  0.00     0.078 A 
HETATM    3  C3  UNL     1     115.044  33.176  27.973  1.00  0.00     0.174 A 
ENDROOT
BRANCH   3   4
HETATM    4  N2  UNL     1     115.673  32.258  28.915  1.00  0.00    -0.066 N 
ATOM      5  H23 UNL     1     115.631  31.314  28.529  1.00  0.00     0.275 HD
ATOM      6  H22 UNL     1     116.678  32.429  28.918  1.00  0.00     0.275 HD
ATOM      7  H21 UNL     1     115.342  32.231  29.880  1.00  0.00     0.275 HD
ENDBRANCH   3   4
BRANCH   3   8
HETATM    8  C4  UNL     1     114.034  32.479  27.074  1.00  0.00     0.211 C 
BRANCH   8   9
HETATM    9  O1  UNL     1     114.411  31.127  26.990  1.00  0.00    -0.365 OA
BRANCH   9  10
HETATM   10  C5  UNL     1     114.811  30.788  25.710  1.00  0.00     0.245 C 
HETATM   11  C6  UNL     1     116.220  31.171  25.349  1.00  0.00     0.180 C 
HETATM   12  N3  UNL     1     116.639  29.799  25.606  1.00  0.00    -0.142 NA
HETATM   13  N4  UNL     1     115.274  29.445  25.519  1.00  0.00    -0.115 NA
ENDBRANCH   9  10
ENDBRANCH   8   9
ENDBRANCH   3   8
BRANCH   1  14
HETATM   14  N1  UNL     1     117.169  34.587  27.836  1.00  0.00    -0.072 N 
ATOM     15  H13 UNL     1     117.877  34.268  27.174  1.00  0.00     0.274 HD
ATOM     16  H12 UNL     1     117.320  35.595  27.784  1.00  0.00     0.274 HD
ATOM     17  H11 UNL     1     117.383  34.246  28.774  1.00  0.00     0.274 HD
ENDBRANCH   1  14
TORSDOF 5
ENDMDL
MODEL 3
REMARK VINA RESULT: -4.799210741      3.424      4.841
REMARK  5 active torsions:
REMARK  status: ('A' for Active; 'I' for Inactive)
REMARK    1  A    between atoms: N1_1  and  C1_5 
REMARK    2  A    between atoms: C3_7  and  N2_8 
REMARK    3  A    between atoms: C3_7  and  C4_12 
REMARK    4  A    between atoms: C4_12  and  O1_13 
REMARK    5  A    between atoms: O1_13  and  C5_14 
ROOT
HETATM    1  C1  UNL     1     113.473  34.947  26.277  1.00  0.00     0.223 A 
HETATM    2  C2  UNL     1     113.150  33.942  27.406  1.00  0.00     0.078 A 
HETATM    3  C3  UNL     1     114.459  34.608  27.334  1.00  0.00     0.174 A 
ENDROOT
BRANCH   3   4
HETATM    4  N2  UNL     1     114.846  35.628  28.301  1.00  0.00    -0.066 N 
ATOM      5  H23 UNL     1     115.546  35.234  28.930  1.00  0.00     0.275 HD
ATOM      6  H22 UNL     1     115.389  36.345  27.820  1.00  0.00     0.275 HD
ATOM      7  H21 UNL     1     114.124  36.084  28.859  1.00  0.00     0.275 HD
ENDBRANCH   3   4
BRANCH   3   8
HETATM    8  C4  UNL     1     115.627  33.723  26.929  1.00  0.00     0.211 C 
BRANCH   8   9
HETATM    9  O1  UNL     1     115.180  32.889  25.889  1.00  0.00    -0.365 OA
BRANCH   9  10
HETATM   10  C5  UNL     1     115.822  31.664  25.906  1.00  0.00     0.245 C 
HETATM   11  C6  UNL     1     114.970  30.492  26.311  1.00  0.00     0.180 C 
HETATM   12  N3  UNL     1     114.816  30.142  24.905  1.00  0.00    -0.142 NA
HETATM   13  N4  UNL     1     115.928  30.978  24.652  1.00  0.00    -0.115 NA
ENDBRANCH   9  10
ENDBRANCH   8   9
ENDBRANCH   3   8
BRANCH   1  14
HETATM   14  N1  UNL     1     112.703  36.156  26.311  1.00  0.00    -0.072 N 
ATOM     15  H13 UNL     1     113.273  36.929  26.654  1.00  0.00     0.274 HD
ATOM     16  H12 UNL     1     112.515  36.481  25.362  1.00  0.00     0.274 HD
ATOM     17  H11 UNL     1     111.834  36.094  26.841  1.00  0.00     0.274 HD
ENDBRANCH   1  14
TORSDOF 5
ENDMDL
MODEL 4
REMARK VINA RESULT: -4.787647712      2.810      3.900
REMARK  5 active torsions:
REMARK  status: ('A' for Active; 'I' for Inactive)
REMARK    1  A    between atoms: N1_1  and  C1_5 
REMARK    2  A    between atoms: C3_7  and  N2_8 
REMARK    3  A    between atoms: C3_7  and  C4_12 
REMARK    4  A    between atoms: C4_12  and  O1_13 
REMARK    5  A    between atoms: O1_13  and  C5_14 
ROOT
HETATM    1  C1  UNL     1     116.342  34.560  27.620  1.00  0.00     0.223 A 
HETATM    2  C2  UNL     1     115.036  35.168  28.178  1.00  0.00     0.078 A 
HETATM    3  C3  UNL     1     115.198  33.714  28.043  1.00  0.00     0.174 A 
ENDROOT
BRANCH   3   4
HETATM    4  N2  UNL     1     115.342  32.854  29.211  1.00  0.00    -0.066 N 
ATOM      5  H23 UNL     1     115.463  31.891  28.896  1.00  0.00     0.275 HD
ATOM      6  H22 UNL     1     116.247  33.039  29.644  1.00  0.00     0.275 HD
ATOM      7  H21 UNL     1     114.623  32.872  29.934  1.00  0.00     0.275 HD
ENDBRANCH   3   4
BRANCH   3   8
HETATM    8  C4  UNL     1     114.381  33.059  26.940  1.00  0.00     0.211 C 
BRANCH   8   9
HETATM    9  O1  UNL     1     115.241  32.856  25.846  1.00  0.00    -0.365 OA
BRANCH   9  10
HETATM   10  C5  UNL     1     115.829  31.604  25.886  1.00  0.00     0.245 C 
HETATM   11  C6  UNL     1     114.911  30.468  26.248  1.00  0.00     0.180 C 
HETATM   12  N3  UNL     1     114.803  30.129  24.836  1.00  0.00    -0.142 NA
HETATM   13  N4  UNL     1     115.959  30.917  24.634  1.00  0.00    -0.115 NA
ENDBRANCH   9  10
ENDBRANCH   8   9
ENDBRANCH   3   8
BRANCH   1  14
HETATM   14  N1  UNL     1     117.497  34.753  28.448  1.00  0.00    -0.072 N 
ATOM     15  H13 UNL     1     118.332  34.405  27.977  1.00  0.00     0.274 HD
ATOM     16  H12 UNL     1     117.727  35.745  28.508  1.00  0.00     0.274 HD
ATOM     17  H11 UNL     1     117.425  34.349  29.383  1.00  0.00     0.274 HD
ENDBRANCH   1  14
TORSDOF 5
ENDMDL
MODEL 5
REMARK VINA RESULT: -4.783914480      1.434      1.618
REMARK  5 active torsions:
REMARK  status: ('A' for Active; 'I' for Inactive)
REMARK    1  A    between atoms: N1_1  and  C1_5 
REMARK    2  A    between atoms: C3_7  and  N2_8 
REMARK    3  A    between atoms: C3_7  and  C4_12 
REMARK    4  A    between atoms: C4_12  and  O1_13 
REMARK    5  A    between atoms: O1_13  and  C5_14 
ROOT
HETATM    1  C1  UNL     1     114.287  28.687  29.447  1.00  0.00     0.223 A 
HETATM    2  C2  UNL     1     115.606  28.711  30.252  1.00  0.00     0.078 A 
HETATM    3  C3  UNL     1     115.094  29.924  29.599  1.00  0.00     0.174 A 
ENDROOT
BRANCH   3   4
HETATM    4  N2  UNL     1     114.555  31.034  30.375  1.00  0.00    -0.066 N 
ATOM      5  H23 UNL     1     114.440  31.839  29.759  1.00  0.00     0.275 HD
ATOM      6  H22 UNL     1     113.586  30.825  30.615  1.00  0.00     0.275 HD
ATOM      7  H21 UNL     1     115.043  31.335  31.218  1.00  0.00     0.275 HD
ENDBRANCH   3   4
BRANCH   3   8
HETATM    8  C4  UNL     1     115.870  30.394  28.379  1.00  0.00     0.211 C 
BRANCH   8   9
HETATM    9  O1  UNL     1     115.354  29.710  27.265  1.00  0.00    -0.365 OA
BRANCH   9  10
HETATM   10  C5  UNL     1     114.804  30.581  26.341  1.00  0.00     0.245 C 
HETATM   11  C6  UNL     1     115.704  31.699  25.890  1.00  0.00     0.180 C 
HETATM   12  N3  UNL     1     115.997  30.948  24.676  1.00  0.00    -0.142 NA
HETATM   13  N4  UNL     1     114.851  30.173  24.968  1.00  0.00    -0.115 NA
ENDBRANCH   9  10
ENDBRANCH   8   9
ENDBRANCH   3   8
BRANCH   1  14
HETATM   14  N1  UNL     1     113.110  28.441  30.229  1.00  0.00    -0.072 N 
ATOM     15  H13 UNL     1     112.629  29.318  30.430  1.00  0.00     0.274 HD
ATOM     16  H12 UNL     1     112.401  27.976  29.662  1.00  0.00     0.274 HD
ATOM     17  H11 UNL     1     113.271  27.920  31.091  1.00  0.00     0.274 HD
ENDBRANCH   1  14
TORSDOF 5
ENDMDL
