MODEL 1
REMARK VINA RESULT: -5.730957393      0.000      0.000
REMARK  2 active torsions:
REMARK  status: ('A' for Active; 'I' for Inactive)
REMARK    1  A    between atoms: C4_4  and  C5_5 
REMARK    2  A    between atoms: C5_5  and  C6_6 
ROOT
HETATM    1  C1  UNL     1      10.219  -1.984  33.135  1.00  0.00     0.020 C 
HETATM    2  C2  UNL     1      10.832  -0.756  33.800  1.00  0.00     0.007 C 
HETATM    3  C3  UNL     1      12.230  -1.055  34.195  1.00  0.00     0.020 C 
HETATM    4  C4  UNL     1      10.537   0.526  33.107  1.00  0.00     0.009 C 
HETATM    5  C7  UNL     1       9.159   0.448  33.774  1.00  0.00     0.068 C 
HETATM    6  C8  UNL     1       9.902  -0.295  34.908  1.00  0.00     0.143 C 
HETATM    7  N1  UNL     1      10.423   0.727  35.782  1.00  0.00    -0.339 N 
ATOM      8  H1  UNL     1      11.434   0.864  35.776  1.00  0.00     0.164 HD
HETATM    9  C9  UNL     1       9.675   1.559  36.645  1.00  0.00     0.136 C 
HETATM   10  N2  UNL     1      10.279   2.598  37.082  1.00  0.00    -0.380 N 
ATOM     11  H21 UNL     1       9.739   3.198  37.705  1.00  0.00     0.158 HD
ATOM     12  H22 UNL     1      11.236   2.694  36.743  1.00  0.00     0.158 HD
HETATM   13  S1  UNL     1       8.004   1.391  37.236  1.00  0.00    -0.092 SA
HETATM   14  C10 UNL     1       7.559  -0.383  37.056  1.00  0.00     0.108 C 
HETATM   15  C11 UNL     1       8.835  -1.196  36.793  1.00  0.00     0.181 C 
HETATM   16  O2  UNL     1       9.163  -1.277  35.479  1.00  0.00    -0.359 OA
ENDROOT
BRANCH   4  17
HETATM   17  C5  UNL     1      10.474   0.543  31.626  1.00  0.00     0.075 C 
BRANCH  17  18
HETATM   18  C6  UNL     1      11.466   1.513  31.117  1.00  0.00     0.231 C 
HETATM   19  O1  UNL     1      12.535   1.651  31.658  1.00  0.00    -0.307 OA
ENDBRANCH  17  18
ENDBRANCH   4  17
TORSDOF 2
ENDMDL
MODEL 2
REMARK VINA RESULT: -5.531390838      2.999      4.688
REMARK  2 active torsions:
REMARK  status: ('A' for Active; 'I' for Inactive)
REMARK    1  A    between atoms: C4_4  and  C5_5 
REMARK    2  A    between atoms: C5_5  and  C6_6 
ROOT
HETATM    1  C1  UNL     1       7.905  -1.096  36.181  1.00  0.00     0.020 C 
HETATM    2  C2  UNL     1       7.927  -0.762  34.693  1.00  0.00     0.007 C 
HETATM    3  C3  UNL     1       7.168  -1.793  33.944  1.00  0.00     0.020 C 
HETATM    4  C4  UNL     1       7.688   0.673  34.385  1.00  0.00     0.009 C 
HETATM    5  C7  UNL     1       9.150   0.895  34.791  1.00  0.00     0.068 C 
HETATM    6  C8  UNL     1       9.369  -0.544  34.270  1.00  0.00     0.143 C 
HETATM    7  N1  UNL     1       9.597  -0.426  32.851  1.00  0.00    -0.339 N 
ATOM      8  H1  UNL     1       8.855  -0.764  32.238  1.00  0.00     0.164 HD
HETATM    9  C9  UNL     1      10.744   0.111  32.224  1.00  0.00     0.136 C 
HETATM   10  N2  UNL     1      10.613   0.418  30.990  1.00  0.00    -0.380 N 
ATOM     11  H21 UNL     1      11.441   0.804  30.537  1.00  0.00     0.158 HD
ATOM     12  H22 UNL     1       9.683   0.235  30.613  1.00  0.00     0.158 HD
HETATM   13  S1  UNL     1      12.367   0.430  32.881  1.00  0.00    -0.092 SA
HETATM   14  C10 UNL     1      12.546  -0.627  34.375  1.00  0.00     0.108 C 
HETATM   15  C11 UNL     1      11.421  -1.673  34.386  1.00  0.00     0.181 C 
HETATM   16  O2  UNL     1      10.285  -1.240  34.986  1.00  0.00    -0.359 OA
ENDROOT
BRANCH   4  17
HETATM   17  C5  UNL     1       6.724   1.434  35.217  1.00  0.00     0.075 C 
BRANCH  17  18
HETATM   18  C6  UNL     1       5.449   1.557  34.480  1.00  0.00     0.231 C 
HETATM   19  O1  UNL     1       5.427   1.559  33.274  1.00  0.00    -0.307 OA
ENDBRANCH  17  18
ENDBRANCH   4  17
TORSDOF 2
ENDMDL
MODEL 3
REMARK VINA RESULT: -5.473708737      2.638      4.469
REMARK  2 active torsions:
REMARK  status: ('A' for Active; 'I' for Inactive)
REMARK    1  A    between atoms: C4_4  and  C5_5 
REMARK    2  A    between atoms: C5_5  and  C6_6 
ROOT
HETATM    1  C1  UNL     1       9.706  -0.040  32.436  1.00  0.00     0.020 C 
HETATM    2  C2  UNL     1       9.556  -0.043  33.953  1.00  0.00     0.007 C 
HETATM    3  C3  UNL     1       8.991   1.255  34.397  1.00  0.00     0.020 C 
HETATM    4  C4  UNL     1       8.992  -1.302  34.509  1.00  0.00     0.009 C 
HETATM    5  C7  UNL     1      10.395  -1.891  34.318  1.00  0.00     0.068 C 
HETATM    6  C8  UNL     1      10.885  -0.446  34.566  1.00  0.00     0.143 C 
HETATM    7  N1  UNL     1      10.988  -0.298  35.997  1.00  0.00    -0.339 N 
ATOM      8  H1  UNL     1      10.298   0.304  36.446  1.00  0.00     0.164 HD
HETATM    9  C9  UNL     1      11.948  -0.904  36.839  1.00  0.00     0.136 C 
HETATM   10  N2  UNL     1      11.673  -0.905  38.088  1.00  0.00    -0.380 N 
ATOM     11  H21 UNL     1      12.366  -1.342  38.696  1.00  0.00     0.158 HD
ATOM     12  H22 UNL     1      10.782  -0.465  38.317  1.00  0.00     0.158 HD
HETATM   13  S1  UNL     1      13.503  -1.673  36.440  1.00  0.00    -0.092 SA
HETATM   14  C10 UNL     1      14.005  -1.019  34.796  1.00  0.00     0.108 C 
HETATM   15  C11 UNL     1      13.137   0.202  34.457  1.00  0.00     0.181 C 
HETATM   16  O2  UNL     1      11.976  -0.117  33.832  1.00  0.00    -0.359 OA
ENDROOT
BRANCH   4  17
HETATM   17  C5  UNL     1       7.943  -2.018  33.743  1.00  0.00     0.075 C 
BRANCH  17  18
HETATM   18  C6  UNL     1       6.623  -1.693  34.322  1.00  0.00     0.231 C 
HETATM   19  O1  UNL     1       5.604  -2.062  33.791  1.00  0.00    -0.307 OA
ENDBRANCH  17  18
ENDBRANCH   4  17
TORSDOF 2
ENDMDL
MODEL 4
REMARK VINA RESULT: -5.472909150      2.224      2.567
REMARK  2 active torsions:
REMARK  status: ('A' for Active; 'I' for Inactive)
REMARK    1  A    between atoms: C4_4  and  C5_5 
REMARK    2  A    between atoms: C5_5  and  C6_6 
ROOT
HETATM    1  C1  UNL     1      11.466  -1.695  34.656  1.00  0.00     0.020 C 
HETATM    2  C2  UNL     1      10.481  -0.531  34.684  1.00  0.00     0.007 C 
HETATM    3  C3  UNL     1      11.014   0.546  35.553  1.00  0.00     0.020 C 
HETATM    4  C4  UNL     1       9.919  -0.173  33.354  1.00  0.00     0.009 C 
HETATM    5  C7  UNL     1       8.998  -1.385  33.535  1.00  0.00     0.068 C 
HETATM    6  C8  UNL     1       9.108  -1.071  35.044  1.00  0.00     0.143 C 
HETATM    7  N1  UNL     1       8.097  -0.082  35.323  1.00  0.00    -0.339 N 
ATOM      8  H1  UNL     1       8.423   0.862  35.529  1.00  0.00     0.164 HD
HETATM    9  C9  UNL     1       6.699  -0.289  35.340  1.00  0.00     0.136 C 
HETATM   10  N2  UNL     1       5.978   0.767  35.288  1.00  0.00    -0.380 N 
ATOM     11  H21 UNL     1       4.969   0.617  35.300  1.00  0.00     0.158 HD
ATOM     12  H22 UNL     1       6.514   1.633  35.238  1.00  0.00     0.158 HD
HETATM   13  S1  UNL     1       5.763  -1.800  35.426  1.00  0.00    -0.092 SA
HETATM   14  C10 UNL     1       6.888  -3.075  36.126  1.00  0.00     0.108 C 
HETATM   15  C11 UNL     1       8.122  -2.380  36.722  1.00  0.00     0.181 C 
HETATM   16  O2  UNL     1       9.118  -2.180  35.823  1.00  0.00    -0.359 OA
ENDROOT
BRANCH   4  17
HETATM   17  C5  UNL     1      10.791  -0.269  32.159  1.00  0.00     0.075 C 
BRANCH  17  18
HETATM   18  C6  UNL     1      10.245   0.604  31.098  1.00  0.00     0.231 C 
HETATM   19  O1  UNL     1      10.185   0.228  29.954  1.00  0.00    -0.307 OA
ENDBRANCH  17  18
ENDBRANCH   4  17
TORSDOF 2
ENDMDL
MODEL 5
REMARK VINA RESULT: -5.387354070      2.125      2.884
REMARK  2 active torsions:
REMARK  status: ('A' for Active; 'I' for Inactive)
REMARK    1  A    between atoms: C4_4  and  C5_5 
REMARK    2  A    between atoms: C5_5  and  C6_6 
ROOT
HETATM    1  C1  UNL     1       8.838   0.568  33.900  1.00  0.00     0.020 C 
HETATM    2  C2  UNL     1       9.396  -0.705  34.530  1.00  0.00     0.007 C 
HETATM    3  C3  UNL     1       8.468  -1.832  34.270  1.00  0.00     0.020 C 
HETATM    4  C4  UNL     1      10.853  -0.906  34.314  1.00  0.00     0.009 C 
HETATM    5  C7  UNL     1      11.054   0.126  35.429  1.00  0.00     0.068 C 
HETATM    6  C8  UNL     1       9.719  -0.418  35.986  1.00  0.00     0.143 C 
HETATM    7  N1  UNL     1      10.058  -1.564  36.792  1.00  0.00    -0.339 N 
ATOM      8  H1  UNL     1       9.795  -2.478  36.422  1.00  0.00     0.164 HD
HETATM    9  C9  UNL     1      10.719  -1.550  38.041  1.00  0.00     0.136 C 
HETATM   10  N2  UNL     1      11.206  -2.667  38.428  1.00  0.00    -0.380 N 
ATOM     11  H21 UNL     1      11.682  -2.657  39.330  1.00  0.00     0.158 HD
ATOM     12  H22 UNL     1      11.054  -3.434  37.773  1.00  0.00     0.158 HD
HETATM   13  S1  UNL     1      10.984  -0.211  39.183  1.00  0.00    -0.092 SA
HETATM   14  C10 UNL     1       9.717   1.066  38.799  1.00  0.00     0.108 C 
HETATM   15  C11 UNL     1       8.648   0.450  37.883  1.00  0.00     0.181 C 
HETATM   16  O2  UNL     1       8.950   0.537  36.564  1.00  0.00    -0.359 OA
ENDROOT
BRANCH   4  17
HETATM   17  C5  UNL     1      11.449  -0.497  33.019  1.00  0.00     0.075 C 
BRANCH  17  18
HETATM   18  C6  UNL     1      12.627   0.355  33.283  1.00  0.00     0.231 C 
HETATM   19  O1  UNL     1      13.027   1.136  32.454  1.00  0.00    -0.307 OA
ENDBRANCH  17  18
ENDBRANCH   4  17
TORSDOF 2
ENDMDL
