MODEL 1
REMARK VINA RESULT: -7.548527531      0.000      0.000
REMARK  4 active torsions:
REMARK  status: ('A' for Active; 'I' for Inactive)
REMARK    1  A    between atoms: C2_2  and  O1_4 
REMARK    2  A    between atoms: O1_4  and  C4_5 
REMARK    3  A    between atoms: N1_8  and  C7_9 
REMARK    4  A    between atoms: C9_11  and  N2_12 
ROOT
HETATM    1  C7  UNL     1      10.969   1.716  29.504  1.00  0.00     0.107 A 
HETATM    2  C8  UNL     1      11.840   2.652  28.999  1.00  0.00     0.096 A 
HETATM    3  C9  UNL     1      11.646   3.160  27.710  1.00  0.00     0.103 A 
HETATM    4  N3  UNL     1      10.617   2.746  26.950  1.00  0.00    -0.339 N 
ATOM      5  H3  UNL     1      10.475   3.114  26.009  1.00  0.00     0.168 HD
HETATM    6  C10 UNL     1       9.784   1.830  27.473  1.00  0.00     0.183 A 
HETATM    7  N4  UNL     1       9.954   1.333  28.709  1.00  0.00    -0.339 N 
ATOM      8  H4  UNL     1       9.292   0.639  29.056  1.00  0.00     0.168 HD
ENDROOT
BRANCH   1   9
HETATM    9  N1  UNL     1      11.124   1.161  30.827  1.00  0.00    -0.367 N 
HETATM   10  C6  UNL     1      10.300   0.069  31.288  1.00  0.00     0.127 C 
HETATM   11  C5  UNL     1      10.143   0.238  32.802  1.00  0.00     0.051 C 
HETATM   12  C4  UNL     1      11.456   0.049  33.529  1.00  0.00     0.125 C 
HETATM   13  C12 UNL     1      12.596   0.586  32.700  1.00  0.00     0.051 C 
HETATM   14  C11 UNL     1      12.116   1.677  31.742  1.00  0.00     0.127 C 
BRANCH  12  15
HETATM   15  O1  UNL     1      11.583  -1.301  33.821  1.00  0.00    -0.381 OA
BRANCH  15  16
HETATM   16  C2  UNL     1      12.015  -1.536  35.120  1.00  0.00     0.113 C 
HETATM   17  C1  UNL     1      13.496  -1.663  35.255  1.00  0.00     0.039 C 
HETATM   18  C3  UNL     1      11.492  -0.537  36.105  1.00  0.00     0.039 C 
ENDBRANCH  15  16
ENDBRANCH  12  15
ENDBRANCH   1   9
BRANCH   3  19
HETATM   19  N2  UNL     1      12.470   4.038  27.246  1.00  0.00    -0.385 N 
ATOM     20  H22 UNL     1      12.168   5.007  27.143  1.00  0.00     0.157 HD
ATOM     21  H21 UNL     1      13.414   3.750  26.987  1.00  0.00     0.157 HD
ENDBRANCH   3  19
TORSDOF 4
ENDMDL
MODEL 2
REMARK VINA RESULT: -7.232864969      1.622      2.386
REMARK  4 active torsions:
REMARK  status: ('A' for Active; 'I' for Inactive)
REMARK    1  A    between atoms: C2_2  and  O1_4 
REMARK    2  A    between atoms: O1_4  and  C4_5 
REMARK    3  A    between atoms: N1_8  and  C7_9 
REMARK    4  A    between atoms: C9_11  and  N2_12 
ROOT
HETATM    1  C7  UNL     1      11.836   2.174  30.204  1.00  0.00     0.107 A 
HETATM    2  C8  UNL     1      11.159   2.226  29.007  1.00  0.00     0.096 A 
HETATM    3  C9  UNL     1      11.616   3.066  27.986  1.00  0.00     0.103 A 
HETATM    4  N3  UNL     1      12.710   3.830  28.154  1.00  0.00    -0.339 N 
ATOM      5  H3  UNL     1      13.044   4.445  27.411  1.00  0.00     0.168 HD
HETATM    6  C10 UNL     1      13.347   3.756  29.336  1.00  0.00     0.183 A 
HETATM    7  N4  UNL     1      12.924   2.955  30.326  1.00  0.00    -0.339 N 
ATOM      8  H4  UNL     1      13.446   2.938  31.202  1.00  0.00     0.168 HD
ENDROOT
BRANCH   1   9
HETATM    9  N1  UNL     1      11.406   1.325  31.289  1.00  0.00    -0.367 N 
HETATM   10  C6  UNL     1      10.104   0.703  31.289  1.00  0.00     0.127 C 
HETATM   11  C5  UNL     1       9.673   0.572  32.754  1.00  0.00     0.051 C 
HETATM   12  C4  UNL     1      10.552  -0.397  33.514  1.00  0.00     0.125 C 
HETATM   13  C12 UNL     1      11.975  -0.311  33.023  1.00  0.00     0.051 C 
HETATM   14  C11 UNL     1      12.268   1.063  32.419  1.00  0.00     0.127 C 
BRANCH  12  15
HETATM   15  O1  UNL     1      10.001  -1.663  33.372  1.00  0.00    -0.381 OA
BRANCH  15  16
HETATM   16  C2  UNL     1       9.229  -2.042  34.461  1.00  0.00     0.113 C 
HETATM   17  C1  UNL     1       9.605  -1.368  35.739  1.00  0.00     0.039 C 
HETATM   18  C3  UNL     1       7.758  -1.903  34.219  1.00  0.00     0.039 C 
ENDBRANCH  15  16
ENDBRANCH  12  15
ENDBRANCH   1   9
BRANCH   3  19
HETATM   19  N2  UNL     1      10.975   3.107  26.868  1.00  0.00    -0.385 N 
ATOM     20  H22 UNL     1      10.264   2.403  26.668  1.00  0.00     0.157 HD
ATOM     21  H21 UNL     1      11.189   3.845  26.196  1.00  0.00     0.157 HD
ENDBRANCH   3  19
TORSDOF 4
ENDMDL
MODEL 3
REMARK VINA RESULT: -7.105242897      3.417      7.095
REMARK  4 active torsions:
REMARK  status: ('A' for Active; 'I' for Inactive)
REMARK    1  A    between atoms: C2_2  and  O1_4 
REMARK    2  A    between atoms: O1_4  and  C4_5 
REMARK    3  A    between atoms: N1_8  and  C7_9 
REMARK    4  A    between atoms: C9_11  and  N2_12 
ROOT
HETATM    1  C7  UNL     1      12.713  -0.836  34.908  1.00  0.00     0.107 A 
HETATM    2  C8  UNL     1      14.079  -0.958  34.812  1.00  0.00     0.096 A 
HETATM    3  C9  UNL     1      14.825  -1.336  35.933  1.00  0.00     0.103 A 
HETATM    4  N3  UNL     1      14.227  -1.583  37.112  1.00  0.00    -0.339 N 
ATOM      5  H3  UNL     1      14.769  -1.858  37.932  1.00  0.00     0.168 HD
HETATM    6  C10 UNL     1      12.890  -1.455  37.172  1.00  0.00     0.183 A 
HETATM    7  N4  UNL     1      12.159  -1.093  36.106  1.00  0.00    -0.339 N 
ATOM      8  H4  UNL     1      11.147  -1.011  36.208  1.00  0.00     0.168 HD
ENDROOT
BRANCH   1   9
HETATM    9  N1  UNL     1      11.898  -0.449  33.782  1.00  0.00    -0.367 N 
HETATM   10  C6  UNL     1      12.429   0.358  32.709  1.00  0.00     0.127 C 
HETATM   11  C5  UNL     1      11.267   1.195  32.164  1.00  0.00     0.051 C 
HETATM   12  C4  UNL     1      10.216   0.333  31.500  1.00  0.00     0.125 C 
HETATM   13  C12 UNL     1      10.086  -0.984  32.222  1.00  0.00     0.051 C 
HETATM   14  C11 UNL     1      10.516  -0.857  33.684  1.00  0.00     0.127 C 
BRANCH  12  15
HETATM   15  O1  UNL     1      10.572   0.191  30.166  1.00  0.00    -0.381 OA
BRANCH  15  16
HETATM   16  C2  UNL     1      10.311   1.327  29.412  1.00  0.00     0.113 C 
HETATM   17  C1  UNL     1      11.510   1.888  28.722  1.00  0.00     0.039 C 
HETATM   18  C3  UNL     1       9.192   1.143  28.435  1.00  0.00     0.039 C 
ENDBRANCH  15  16
ENDBRANCH  12  15
ENDBRANCH   1   9
BRANCH   3  19
HETATM   19  N2  UNL     1      16.106  -1.448  35.832  1.00  0.00    -0.385 N 
ATOM     20  H22 UNL     1      16.577  -1.110  34.993  1.00  0.00     0.157 HD
ATOM     21  H21 UNL     1      16.632  -1.876  36.595  1.00  0.00     0.157 HD
ENDBRANCH   3  19
TORSDOF 4
ENDMDL
MODEL 4
REMARK VINA RESULT: -7.061428285      1.849      2.755
REMARK  4 active torsions:
REMARK  status: ('A' for Active; 'I' for Inactive)
REMARK    1  A    between atoms: C2_2  and  O1_4 
REMARK    2  A    between atoms: O1_4  and  C4_5 
REMARK    3  A    between atoms: N1_8  and  C7_9 
REMARK    4  A    between atoms: C9_11  and  N2_12 
ROOT
HETATM    1  C7  UNL     1      11.710   1.961  30.418  1.00  0.00     0.107 A 
HETATM    2  C8  UNL     1      11.055   2.030  29.211  1.00  0.00     0.096 A 
HETATM    3  C9  UNL     1      11.578   2.818  28.180  1.00  0.00     0.103 A 
HETATM    4  N3  UNL     1      12.715   3.515  28.349  1.00  0.00    -0.339 N 
ATOM      5  H3  UNL     1      13.097   4.091  27.599  1.00  0.00     0.168 HD
HETATM    6  C10 UNL     1      13.330   3.426  29.541  1.00  0.00     0.183 A 
HETATM    7  N4  UNL     1      12.843   2.675  30.541  1.00  0.00    -0.339 N 
ATOM      8  H4  UNL     1      13.351   2.644  31.425  1.00  0.00     0.168 HD
ENDROOT
BRANCH   1   9
HETATM    9  N1  UNL     1      11.213   1.164  31.514  1.00  0.00    -0.367 N 
HETATM   10  C6  UNL     1       9.812   0.837  31.634  1.00  0.00     0.127 C 
HETATM   11  C5  UNL     1       9.509   0.720  33.131  1.00  0.00     0.051 C 
HETATM   12  C4  UNL     1      10.224  -0.457  33.759  1.00  0.00     0.125 C 
HETATM   13  C12 UNL     1      11.576  -0.651  33.120  1.00  0.00     0.051 C 
HETATM   14  C11 UNL     1      12.103   0.660  32.535  1.00  0.00     0.127 C 
BRANCH  12  15
HETATM   15  O1  UNL     1       9.398  -1.565  33.634  1.00  0.00    -0.381 OA
BRANCH  15  16
HETATM   16  C2  UNL     1       8.266  -1.488  34.434  1.00  0.00     0.113 C 
HETATM   17  C1  UNL     1       7.058  -2.138  33.844  1.00  0.00     0.039 C 
HETATM   18  C3  UNL     1       8.492  -1.990  35.827  1.00  0.00     0.039 C 
ENDBRANCH  15  16
ENDBRANCH  12  15
ENDBRANCH   1   9
BRANCH   3  19
HETATM   19  N2  UNL     1      10.956   2.874  27.051  1.00  0.00    -0.385 N 
ATOM     20  H22 UNL     1       9.992   2.546  26.989  1.00  0.00     0.157 HD
ATOM     21  H21 UNL     1      11.439   3.247  26.233  1.00  0.00     0.157 HD
ENDBRANCH   3  19
TORSDOF 4
ENDMDL
MODEL 5
REMARK VINA RESULT: -7.041086787      1.288      2.256
REMARK  4 active torsions:
REMARK  status: ('A' for Active; 'I' for Inactive)
REMARK    1  A    between atoms: C2_2  and  O1_4 
REMARK    2  A    between atoms: O1_4  and  C4_5 
REMARK    3  A    between atoms: N1_8  and  C7_9 
REMARK    4  A    between atoms: C9_11  and  N2_12 
ROOT
HETATM    1  C7  UNL     1      11.816   2.135  30.305  1.00  0.00     0.107 A 
HETATM    2  C8  UNL     1      11.098   2.162  29.132  1.00  0.00     0.096 A 
HETATM    3  C9  UNL     1      11.517   2.981  28.079  1.00  0.00     0.103 A 
HETATM    4  N3  UNL     1      12.614   3.749  28.192  1.00  0.00    -0.339 N 
ATOM      5  H3  UNL     1      12.921   4.349  27.425  1.00  0.00     0.168 HD
HETATM    6  C10 UNL     1      13.294   3.700  29.351  1.00  0.00     0.183 A 
HETATM    7  N4  UNL     1      12.907   2.919  30.372  1.00  0.00    -0.339 N 
ATOM      8  H4  UNL     1      13.459   2.920  31.229  1.00  0.00     0.168 HD
ENDROOT
BRANCH   1   9
HETATM    9  N1  UNL     1      11.427   1.308  31.421  1.00  0.00    -0.367 N 
HETATM   10  C6  UNL     1      12.339   1.026  32.504  1.00  0.00     0.127 C 
HETATM   11  C5  UNL     1      11.981  -0.365  33.037  1.00  0.00     0.051 C 
HETATM   12  C4  UNL     1      10.613  -0.385  33.684  1.00  0.00     0.125 C 
HETATM   13  C12 UNL     1       9.675   0.543  32.955  1.00  0.00     0.051 C 
HETATM   14  C11 UNL     1      10.105   0.730  31.499  1.00  0.00     0.127 C 
BRANCH  12  15
HETATM   15  O1  UNL     1      10.777  -0.055  35.021  1.00  0.00    -0.381 OA
BRANCH  15  16
HETATM   16  C2  UNL     1      10.775  -1.163  35.857  1.00  0.00     0.113 C 
HETATM   17  C1  UNL     1      12.002  -1.294  36.698  1.00  0.00     0.039 C 
HETATM   18  C3  UNL     1       9.551  -1.255  36.714  1.00  0.00     0.039 C 
ENDBRANCH  15  16
ENDBRANCH  12  15
ENDBRANCH   1   9
BRANCH   3  19
HETATM   19  N2  UNL     1      10.836   2.998  26.983  1.00  0.00    -0.385 N 
ATOM     20  H22 UNL     1      10.481   2.124  26.596  1.00  0.00     0.157 HD
ATOM     21  H21 UNL     1      10.662   3.889  26.517  1.00  0.00     0.157 HD
ENDBRANCH   3  19
TORSDOF 4
ENDMDL
