MODEL 1
REMARK VINA RESULT: -4.858221444      0.000      0.000
REMARK  4 active torsions:
REMARK  status: ('A' for Active; 'I' for Inactive)
REMARK    1  A    between atoms: C2_2  and  S1_3 
REMARK    2  A    between atoms: S1_3  and  C3_4 
REMARK    3  A    between atoms: C3_4  and  O1_6 
REMARK    4  A    between atoms: O1_6  and  C4_7 
ROOT
HETATM    1  O1  UNL     1      -4.477 -31.970 -20.459  1.00  0.00    -0.264 OA
ENDROOT
BRANCH   1   2
HETATM    2  C3  UNL     1      -5.184 -32.114 -19.246  1.00  0.00     0.183 C 
HETATM    3  S2  UNL     1      -4.513 -33.054 -18.090  1.00  0.00    -0.045 SA
BRANCH   2   4
HETATM    4  S1  UNL     1      -6.737 -31.314 -18.980  1.00  0.00    -0.093 SA
BRANCH   4   5
HETATM    5  C2  UNL     1      -7.080 -31.258 -17.197  1.00  0.00     0.077 C 
HETATM    6  C1  UNL     1      -8.394 -31.898 -16.845  1.00  0.00     0.016 C 
ENDBRANCH   4   5
ENDBRANCH   2   4
ENDBRANCH   1   2
BRANCH   1   7
HETATM    7  C4  UNL     1      -4.828 -32.907 -21.452  1.00  0.00     0.231 C 
HETATM    8  N1  UNL     1      -5.649 -32.536 -22.370  1.00  0.00    -0.367 N 
ATOM      9  H12 UNL     1      -6.013 -31.584 -22.347  1.00  0.00     0.159 HD
ATOM     10  H11 UNL     1      -5.903 -33.214 -23.089  1.00  0.00     0.159 HD
HETATM   11  N2  UNL     1      -4.324 -34.226 -21.483  1.00  0.00    -0.056 NA
ENDBRANCH   1   7
TORSDOF 4
ENDMDL
MODEL 2
REMARK VINA RESULT: -4.543935814      0.938      1.343
REMARK  4 active torsions:
REMARK  status: ('A' for Active; 'I' for Inactive)
REMARK    1  A    between atoms: C2_2  and  S1_3 
REMARK    2  A    between atoms: S1_3  and  C3_4 
REMARK    3  A    between atoms: C3_4  and  O1_6 
REMARK    4  A    between atoms: O1_6  and  C4_7 
ROOT
HETATM    1  O1  UNL     1      -4.837 -32.837 -20.430  1.00  0.00    -0.264 OA
ENDROOT
BRANCH   1   2
HETATM    2  C3  UNL     1      -5.284 -32.439 -19.152  1.00  0.00     0.183 C 
HETATM    3  S2  UNL     1      -4.446 -32.981 -17.858  1.00  0.00    -0.045 SA
BRANCH   2   4
HETATM    4  S1  UNL     1      -6.696 -31.394 -18.949  1.00  0.00    -0.093 SA
BRANCH   4   5
HETATM    5  C2  UNL     1      -7.079 -31.248 -17.180  1.00  0.00     0.077 C 
HETATM    6  C1  UNL     1      -8.382 -31.905 -16.819  1.00  0.00     0.016 C 
ENDBRANCH   4   5
ENDBRANCH   2   4
ENDBRANCH   1   2
BRANCH   1   7
HETATM    7  C4  UNL     1      -5.260 -31.999 -21.482  1.00  0.00     0.231 C 
HETATM    8  N1  UNL     1      -5.665 -32.552 -22.570  1.00  0.00    -0.367 N 
ATOM      9  H12 UNL     1      -5.667 -33.570 -22.632  1.00  0.00     0.159 HD
ATOM     10  H11 UNL     1      -5.971 -31.945 -23.331  1.00  0.00     0.159 HD
HETATM   11  N2  UNL     1      -5.257 -30.589 -21.395  1.00  0.00    -0.056 NA
ENDBRANCH   1   7
TORSDOF 4
ENDMDL
MODEL 3
REMARK VINA RESULT: -4.018238395      1.280      1.701
REMARK  4 active torsions:
REMARK  status: ('A' for Active; 'I' for Inactive)
REMARK    1  A    between atoms: C2_2  and  S1_3 
REMARK    2  A    between atoms: S1_3  and  C3_4 
REMARK    3  A    between atoms: C3_4  and  O1_6 
REMARK    4  A    between atoms: O1_6  and  C4_7 
ROOT
HETATM    1  O1  UNL     1      -6.267 -32.469 -20.632  1.00  0.00    -0.264 OA
ENDROOT
BRANCH   1   2
HETATM    2  C3  UNL     1      -5.811 -32.119 -19.343  1.00  0.00     0.183 C 
HETATM    3  S2  UNL     1      -4.529 -32.942 -18.750  1.00  0.00    -0.045 SA
BRANCH   2   4
HETATM    4  S1  UNL     1      -6.588 -30.843 -18.400  1.00  0.00    -0.093 SA
BRANCH   4   5
HETATM    5  C2  UNL     1      -7.274 -31.560 -16.879  1.00  0.00     0.077 C 
HETATM    6  C1  UNL     1      -6.206 -32.064 -15.949  1.00  0.00     0.016 C 
ENDBRANCH   4   5
ENDBRANCH   2   4
ENDBRANCH   1   2
BRANCH   1   7
HETATM    7  C4  UNL     1      -5.534 -31.888 -21.687  1.00  0.00     0.231 C 
HETATM    8  N1  UNL     1      -5.404 -32.560 -22.775  1.00  0.00    -0.367 N 
ATOM      9  H12 UNL     1      -5.835 -33.483 -22.837  1.00  0.00     0.159 HD
ATOM     10  H11 UNL     1      -4.874 -32.140 -23.538  1.00  0.00     0.159 HD
HETATM   11  N2  UNL     1      -4.937 -30.610 -21.601  1.00  0.00    -0.056 NA
ENDBRANCH   1   7
TORSDOF 4
ENDMDL
MODEL 4
REMARK VINA RESULT: -3.749947734      2.971      4.263
REMARK  4 active torsions:
REMARK  status: ('A' for Active; 'I' for Inactive)
REMARK    1  A    between atoms: C2_2  and  S1_3 
REMARK    2  A    between atoms: S1_3  and  C3_4 
REMARK    3  A    between atoms: C3_4  and  O1_6 
REMARK    4  A    between atoms: O1_6  and  C4_7 
ROOT
HETATM    1  O1  UNL     1      -6.600 -32.122 -19.049  1.00  0.00    -0.264 OA
ENDROOT
BRANCH   1   2
HETATM    2  C3  UNL     1      -5.329 -32.714 -19.202  1.00  0.00     0.183 C 
HETATM    3  S2  UNL     1      -4.437 -32.941 -17.851  1.00  0.00    -0.045 SA
BRANCH   2   4
HETATM    4  S1  UNL     1      -4.716 -33.194 -20.789  1.00  0.00    -0.093 SA
BRANCH   4   5
HETATM    5  C2  UNL     1      -5.373 -32.063 -22.048  1.00  0.00     0.077 C 
HETATM    6  C1  UNL     1      -5.126 -30.620 -21.708  1.00  0.00     0.016 C 
ENDBRANCH   4   5
ENDBRANCH   2   4
ENDBRANCH   1   2
BRANCH   1   7
HETATM    7  C4  UNL     1      -6.626 -31.016 -18.175  1.00  0.00     0.231 C 
HETATM    8  N1  UNL     1      -7.101 -31.188 -16.993  1.00  0.00    -0.367 N 
ATOM      9  H12 UNL     1      -7.440 -32.114 -16.731  1.00  0.00     0.159 HD
ATOM     10  H11 UNL     1      -7.119 -30.388 -16.362  1.00  0.00     0.159 HD
HETATM   11  N2  UNL     1      -6.156 -29.734 -18.539  1.00  0.00    -0.056 NA
ENDBRANCH   1   7
TORSDOF 4
ENDMDL
MODEL 5
REMARK VINA RESULT: -3.733054922      0.696      1.593
REMARK  4 active torsions:
REMARK  status: ('A' for Active; 'I' for Inactive)
REMARK    1  A    between atoms: C2_2  and  S1_3 
REMARK    2  A    between atoms: S1_3  and  C3_4 
REMARK    3  A    between atoms: C3_4  and  O1_6 
REMARK    4  A    between atoms: O1_6  and  C4_7 
ROOT
HETATM    1  O1  UNL     1      -4.472 -31.939 -20.575  1.00  0.00    -0.264 OA
ENDROOT
BRANCH   1   2
HETATM    2  C3  UNL     1      -5.314 -31.960 -19.444  1.00  0.00     0.183 C 
HETATM    3  S2  UNL     1      -6.698 -31.094 -19.520  1.00  0.00    -0.045 SA
BRANCH   2   4
HETATM    4  S1  UNL     1      -4.896 -32.882 -17.995  1.00  0.00    -0.093 SA
BRANCH   4   5
HETATM    5  C2  UNL     1      -5.585 -32.045 -16.537  1.00  0.00     0.077 C 
HETATM    6  C1  UNL     1      -7.029 -31.671 -16.719  1.00  0.00     0.016 C 
ENDBRANCH   4   5
ENDBRANCH   2   4
ENDBRANCH   1   2
BRANCH   1   7
HETATM    7  C4  UNL     1      -4.787 -32.905 -21.553  1.00  0.00     0.231 C 
HETATM    8  N1  UNL     1      -5.569 -32.560 -22.514  1.00  0.00    -0.367 N 
ATOM      9  H12 UNL     1      -5.929 -31.606 -22.535  1.00  0.00     0.159 HD
ATOM     10  H11 UNL     1      -5.797 -33.259 -23.221  1.00  0.00     0.159 HD
HETATM   11  N2  UNL     1      -4.288 -34.227 -21.523  1.00  0.00    -0.056 NA
ENDBRANCH   1   7
TORSDOF 4
ENDMDL
