MODEL 1
REMARK VINA RESULT: -7.256296854      0.000      0.000
REMARK  2 active torsions:
REMARK  status: ('A' for Active; 'I' for Inactive)
REMARK    1  A    between atoms: C4_4  and  N1_5 
REMARK    2  A    between atoms: N1_5  and  C5_8 
ROOT
HETATM    1  N1  UNL     1      -6.378 -31.765 -20.211  1.00  0.00    -0.033 N 
ATOM      2  H11 UNL     1      -6.696 -30.806 -20.349  1.00  0.00     0.281 HD
ATOM      3  H12 UNL     1      -7.178 -32.268 -20.597  1.00  0.00     0.281 HD
ENDROOT
BRANCH   1   4
HETATM    4  C4  UNL     1      -6.227 -32.050 -18.823  1.00  0.00     0.190 C 
HETATM    5  C3  UNL     1      -4.855 -32.453 -18.389  1.00  0.00     0.033 C 
HETATM    6  C2  UNL     1      -4.888 -32.985 -16.990  1.00  0.00     0.002 C 
HETATM    7  C1  UNL     1      -5.888 -32.429 -16.081  1.00  0.00     0.000 C 
HETATM    8  C7  UNL     1      -6.899 -31.483 -16.595  1.00  0.00     0.002 C 
HETATM    9  C6  UNL     1      -6.563 -30.849 -17.923  1.00  0.00     0.033 C 
ENDBRANCH   1   4
BRANCH   1  10
HETATM   10  C5  UNL     1      -5.184 -32.026 -20.992  1.00  0.00     0.416 A 
HETATM   11  N2  UNL     1      -5.249 -31.390 -22.236  1.00  0.00    -0.280 N 
HETATM   12  N3  UNL     1      -5.370 -32.437 -22.864  1.00  0.00    -0.244 N 
ATOM     13  H2  UNL     1      -5.211 -30.410 -22.519  1.00  0.00     0.185 HD
HETATM   14  N4  UNL     1      -5.325 -33.209 -21.757  1.00  0.00    -0.069 NA
ATOM     15  H3  UNL     1      -5.468 -32.648 -23.858  1.00  0.00     0.203 HD
ENDBRANCH   1  10
TORSDOF 2
ENDMDL
MODEL 2
REMARK VINA RESULT: -7.064499673      0.569      1.570
REMARK  2 active torsions:
REMARK  status: ('A' for Active; 'I' for Inactive)
REMARK    1  A    between atoms: C4_4  and  N1_5 
REMARK    2  A    between atoms: N1_5  and  C5_8 
ROOT
HETATM    1  N1  UNL     1      -6.151 -31.056 -20.216  1.00  0.00    -0.033 N 
ATOM      2  H11 UNL     1      -6.133 -30.047 -20.366  1.00  0.00     0.281 HD
ATOM      3  H12 UNL     1      -7.068 -31.270 -20.608  1.00  0.00     0.281 HD
ENDROOT
BRANCH   1   4
HETATM    4  C4  UNL     1      -6.115 -31.359 -18.824  1.00  0.00     0.190 C 
HETATM    5  C3  UNL     1      -7.444 -31.534 -18.164  1.00  0.00     0.033 C 
HETATM    6  C2  UNL     1      -7.285 -31.572 -16.676  1.00  0.00     0.002 C 
HETATM    7  C1  UNL     1      -6.043 -32.132 -16.146  1.00  0.00     0.000 C 
HETATM    8  C7  UNL     1      -4.955 -32.508 -17.072  1.00  0.00     0.002 C 
HETATM    9  C6  UNL     1      -5.372 -32.669 -18.514  1.00  0.00     0.033 C 
ENDBRANCH   1   4
BRANCH   1  10
HETATM   10  C5  UNL     1      -5.104 -31.706 -20.981  1.00  0.00     0.416 A 
HETATM   11  N2  UNL     1      -5.128 -31.293 -22.317  1.00  0.00    -0.280 N 
HETATM   12  N3  UNL     1      -5.517 -32.379 -22.738  1.00  0.00    -0.244 N 
ATOM     13  H2  UNL     1      -4.904 -30.410 -22.776  1.00  0.00     0.185 HD
HETATM   14  N4  UNL     1      -5.552 -32.940 -21.510  1.00  0.00    -0.069 NA
ATOM     15  H3  UNL     1      -5.733 -32.728 -23.671  1.00  0.00     0.203 HD
ENDBRANCH   1  10
TORSDOF 2
ENDMDL
MODEL 3
REMARK VINA RESULT: -6.548660002      0.802      1.162
REMARK  2 active torsions:
REMARK  status: ('A' for Active; 'I' for Inactive)
REMARK    1  A    between atoms: C4_4  and  N1_5 
REMARK    2  A    between atoms: N1_5  and  C5_8 
ROOT
HETATM    1  N1  UNL     1      -4.977 -32.675 -19.902  1.00  0.00    -0.033 N 
ATOM      2  H11 UNL     1      -4.583 -33.609 -20.009  1.00  0.00     0.281 HD
ATOM      3  H12 UNL     1      -4.125 -32.120 -19.987  1.00  0.00     0.281 HD
ENDROOT
BRANCH   1   4
HETATM    4  C4  UNL     1      -5.553 -32.516 -18.608  1.00  0.00     0.190 C 
HETATM    5  C3  UNL     1      -4.616 -32.684 -17.456  1.00  0.00     0.033 C 
HETATM    6  C2  UNL     1      -5.381 -32.768 -16.172  1.00  0.00     0.002 C 
HETATM    7  C1  UNL     1      -6.637 -32.025 -16.087  1.00  0.00     0.000 C 
HETATM    8  C7  UNL     1      -7.169 -31.344 -17.284  1.00  0.00     0.002 C 
HETATM    9  C6  UNL     1      -6.164 -31.123 -18.390  1.00  0.00     0.033 C 
ENDBRANCH   1   4
BRANCH   1  10
HETATM   10  C5  UNL     1      -5.892 -32.377 -20.987  1.00  0.00     0.416 A 
HETATM   11  N2  UNL     1      -5.606 -33.156 -22.113  1.00  0.00    -0.280 N 
HETATM   12  N3  UNL     1      -5.192 -32.209 -22.773  1.00  0.00    -0.244 N 
ATOM     13  H2  UNL     1      -5.705 -34.152 -22.313  1.00  0.00     0.185 HD
HETATM   14  N4  UNL     1      -5.406 -31.314 -21.786  1.00  0.00    -0.069 NA
ATOM     15  H3  UNL     1      -4.822 -32.127 -23.721  1.00  0.00     0.203 HD
ENDBRANCH   1  10
TORSDOF 2
ENDMDL
MODEL 4
REMARK VINA RESULT: -6.062754076      2.723      4.749
REMARK  2 active torsions:
REMARK  status: ('A' for Active; 'I' for Inactive)
REMARK    1  A    between atoms: C4_4  and  N1_5 
REMARK    2  A    between atoms: N1_5  and  C5_8 
ROOT
HETATM    1  N1  UNL     1      -5.828 -32.023 -17.989  1.00  0.00    -0.033 N 
ATOM      2  H11 UNL     1      -4.924 -31.729 -17.620  1.00  0.00     0.281 HD
ATOM      3  H12 UNL     1      -5.898 -32.943 -17.556  1.00  0.00     0.281 HD
ENDROOT
BRANCH   1   4
HETATM    4  C4  UNL     1      -5.779 -32.137 -19.409  1.00  0.00     0.190 C 
HETATM    5  C3  UNL     1      -5.754 -30.848 -20.163  1.00  0.00     0.033 C 
HETATM    6  C2  UNL     1      -5.980 -31.095 -21.622  1.00  0.00     0.002 C 
HETATM    7  C1  UNL     1      -5.497 -32.359 -22.174  1.00  0.00     0.000 C 
HETATM    8  C7  UNL     1      -4.939 -33.387 -21.272  1.00  0.00     0.002 C 
HETATM    9  C6  UNL     1      -4.531 -32.883 -19.908  1.00  0.00     0.033 C 
ENDBRANCH   1   4
BRANCH   1  10
HETATM   10  C5  UNL     1      -6.884 -31.150 -17.511  1.00  0.00     0.416 A 
HETATM   11  N2  UNL     1      -7.276 -31.500 -16.215  1.00  0.00    -0.280 N 
HETATM   12  N3  UNL     1      -8.372 -31.924 -16.566  1.00  0.00    -0.244 N 
ATOM     13  H2  UNL     1      -6.817 -31.428 -15.307  1.00  0.00     0.185 HD
HETATM   14  N4  UNL     1      -8.159 -31.650 -17.871  1.00  0.00    -0.069 NA
ATOM     15  H3  UNL     1      -9.158 -32.333 -16.059  1.00  0.00     0.203 HD
ENDBRANCH   1  10
TORSDOF 2
ENDMDL
MODEL 5
REMARK VINA RESULT: -5.840500910      0.701      1.137
REMARK  2 active torsions:
REMARK  status: ('A' for Active; 'I' for Inactive)
REMARK    1  A    between atoms: C4_4  and  N1_5 
REMARK    2  A    between atoms: N1_5  and  C5_8 
ROOT
HETATM    1  N1  UNL     1      -5.759 -31.757 -20.218  1.00  0.00    -0.033 N 
ATOM      2  H11 UNL     1      -4.886 -31.255 -20.382  1.00  0.00     0.281 HD
ATOM      3  H12 UNL     1      -6.424 -31.044 -20.518  1.00  0.00     0.281 HD
ENDROOT
BRANCH   1   4
HETATM    4  C4  UNL     1      -5.921 -32.045 -18.832  1.00  0.00     0.190 C 
HETATM    5  C3  UNL     1      -4.677 -32.431 -18.100  1.00  0.00     0.033 C 
HETATM    6  C2  UNL     1      -5.016 -32.969 -16.745  1.00  0.00     0.002 C 
HETATM    7  C1  UNL     1      -6.204 -32.429 -16.085  1.00  0.00     0.000 C 
HETATM    8  C7  UNL     1      -7.086 -31.495 -16.813  1.00  0.00     0.002 C 
HETATM    9  C6  UNL     1      -6.468 -30.852 -18.030  1.00  0.00     0.033 C 
ENDBRANCH   1   4
BRANCH   1  10
HETATM   10  C5  UNL     1      -5.845 -32.927 -21.070  1.00  0.00     0.416 A 
HETATM   11  N2  UNL     1      -4.782 -33.804 -20.829  1.00  0.00    -0.280 N 
HETATM   12  N3  UNL     1      -4.241 -33.586 -21.909  1.00  0.00    -0.244 N 
ATOM     13  H2  UNL     1      -4.544 -34.406 -20.041  1.00  0.00     0.185 HD
HETATM   14  N4  UNL     1      -5.186 -32.707 -22.304  1.00  0.00    -0.069 NA
ATOM     15  H3  UNL     1      -3.391 -33.940 -22.347  1.00  0.00     0.203 HD
ENDBRANCH   1  10
TORSDOF 2
ENDMDL
