MODEL 1
REMARK VINA RESULT: -5.865654406      0.000      0.000
REMARK  2 active torsions:
REMARK  status: ('A' for Active; 'I' for Inactive)
REMARK    1  A    between atoms: C2_2  and  N1_4 
REMARK    2  A    between atoms: C4_7  and  C5_8 
ROOT
HETATM    1  C5  UNL     1      -6.527 -31.602 -16.431  1.00  0.00     0.202 C 
HETATM    2  C6  UNL     1      -7.961 -31.874 -16.527  1.00  0.00     0.066 C 
HETATM    3  N3  UNL     1      -9.107 -32.082 -16.622  1.00  0.00    -0.197 NA
ENDROOT
BRANCH   1   4
HETATM    4  C4  UNL     1      -5.833 -32.003 -17.698  1.00  0.00     0.123 C 
HETATM    5  N2  UNL     1      -6.139 -31.679 -18.910  1.00  0.00    -0.272 N 
HETATM    6  N1  UNL     1      -5.192 -32.302 -19.764  1.00  0.00    -0.212 N 
ATOM      7  H2  UNL     1      -6.917 -31.086 -19.199  1.00  0.00     0.189 HD
HETATM    8  N5  UNL     1      -4.528 -33.270 -19.007  1.00  0.00    -0.003 NA
HETATM    9  N4  UNL     1      -4.687 -32.843 -17.702  1.00  0.00    -0.270 N 
ATOM     10  H4  UNL     1      -4.101 -33.083 -16.903  1.00  0.00     0.185 HD
BRANCH   6  11
HETATM   11  C2  UNL     1      -4.920 -32.032 -21.146  1.00  0.00     0.117 C 
HETATM   12  C1  UNL     1      -5.239 -30.611 -21.544  1.00  0.00     0.035 C 
HETATM   13  C3  UNL     1      -5.661 -33.038 -22.003  1.00  0.00     0.035 C 
ENDBRANCH   6  11
ENDBRANCH   1   4
TORSDOF 2
ENDMDL
MODEL 2
REMARK VINA RESULT: -5.665983229      1.713      4.756
REMARK  2 active torsions:
REMARK  status: ('A' for Active; 'I' for Inactive)
REMARK    1  A    between atoms: C2_2  and  N1_4 
REMARK    2  A    between atoms: C4_7  and  C5_8 
ROOT
HETATM    1  C5  UNL     1      -5.679 -31.901 -21.682  1.00  0.00     0.202 C 
HETATM    2  C6  UNL     1      -4.892 -33.132 -21.597  1.00  0.00     0.066 C 
HETATM    3  N3  UNL     1      -4.251 -34.106 -21.515  1.00  0.00    -0.197 NA
ENDROOT
BRANCH   1   4
HETATM    4  C4  UNL     1      -5.974 -31.374 -20.310  1.00  0.00     0.123 C 
HETATM    5  N2  UNL     1      -6.600 -31.966 -19.348  1.00  0.00    -0.272 N 
HETATM    6  N1  UNL     1      -6.630 -31.067 -18.249  1.00  0.00    -0.212 N 
ATOM      7  H2  UNL     1      -6.998 -32.905 -19.372  1.00  0.00     0.189 HD
HETATM    8  N5  UNL     1      -6.284 -29.806 -18.740  1.00  0.00    -0.003 NA
HETATM    9  N4  UNL     1      -5.572 -30.077 -19.893  1.00  0.00    -0.270 N 
ATOM     10  H4  UNL     1      -4.893 -29.469 -20.351  1.00  0.00     0.185 HD
BRANCH   6  11
HETATM   11  C2  UNL     1      -6.945 -31.341 -16.877  1.00  0.00     0.117 C 
HETATM   12  C1  UNL     1      -5.940 -32.250 -16.210  1.00  0.00     0.035 C 
HETATM   13  C3  UNL     1      -8.351 -31.896 -16.793  1.00  0.00     0.035 C 
ENDBRANCH   6  11
ENDBRANCH   1   4
TORSDOF 2
ENDMDL
MODEL 3
REMARK VINA RESULT: -5.609352430      0.626      1.232
REMARK  2 active torsions:
REMARK  status: ('A' for Active; 'I' for Inactive)
REMARK    1  A    between atoms: C2_2  and  N1_4 
REMARK    2  A    between atoms: C4_7  and  C5_8 
ROOT
HETATM    1  C5  UNL     1      -6.714 -31.455 -16.612  1.00  0.00     0.202 C 
HETATM    2  C6  UNL     1      -8.118 -31.862 -16.537  1.00  0.00     0.066 C 
HETATM    3  N3  UNL     1      -9.242 -32.177 -16.495  1.00  0.00    -0.197 NA
ENDROOT
BRANCH   1   4
HETATM    4  C4  UNL     1      -6.163 -31.728 -17.979  1.00  0.00     0.123 C 
HETATM    5  N2  UNL     1      -6.606 -31.303 -19.115  1.00  0.00    -0.272 N 
HETATM    6  N1  UNL     1      -5.755 -31.829 -20.122  1.00  0.00    -0.212 N 
ATOM      7  H2  UNL     1      -7.417 -30.701 -19.261  1.00  0.00     0.189 HD
HETATM    8  N5  UNL     1      -5.002 -32.847 -19.534  1.00  0.00    -0.003 NA
HETATM    9  N4  UNL     1      -5.017 -32.542 -18.187  1.00  0.00    -0.270 N 
ATOM     10  H4  UNL     1      -4.342 -32.841 -17.483  1.00  0.00     0.185 HD
BRANCH   6  11
HETATM   11  C2  UNL     1      -5.643 -31.431 -21.496  1.00  0.00     0.117 C 
HETATM   12  C1  UNL     1      -5.462 -32.599 -22.436  1.00  0.00     0.035 C 
HETATM   13  C3  UNL     1      -4.523 -30.420 -21.629  1.00  0.00     0.035 C 
ENDBRANCH   6  11
ENDBRANCH   1   4
TORSDOF 2
ENDMDL
MODEL 4
REMARK VINA RESULT: -5.528561765      1.366      4.714
REMARK  2 active torsions:
REMARK  status: ('A' for Active; 'I' for Inactive)
REMARK    1  A    between atoms: C2_2  and  N1_4 
REMARK    2  A    between atoms: C4_7  and  C5_8 
ROOT
HETATM    1  C5  UNL     1      -5.468 -32.527 -21.411  1.00  0.00     0.202 C 
HETATM    2  C6  UNL     1      -4.487 -33.553 -21.766  1.00  0.00     0.066 C 
HETATM    3  N3  UNL     1      -3.691 -34.364 -22.036  1.00  0.00    -0.197 NA
ENDROOT
BRANCH   1   4
HETATM    4  C4  UNL     1      -5.559 -32.383 -19.922  1.00  0.00     0.123 C 
HETATM    5  N2  UNL     1      -6.305 -31.576 -19.245  1.00  0.00    -0.272 N 
HETATM    6  N1  UNL     1      -6.039 -31.809 -17.870  1.00  0.00    -0.212 N 
ATOM      7  H2  UNL     1      -6.964 -30.897 -19.626  1.00  0.00     0.189 HD
HETATM    8  N5  UNL     1      -4.860 -32.555 -17.800  1.00  0.00    -0.003 NA
HETATM    9  N4  UNL     1      -4.778 -33.171 -19.034  1.00  0.00    -0.270 N 
ATOM     10  H4  UNL     1      -4.262 -34.021 -19.262  1.00  0.00     0.185 HD
BRANCH   6  11
HETATM   11  C2  UNL     1      -6.797 -31.388 -16.727  1.00  0.00     0.117 C 
HETATM   12  C1  UNL     1      -6.201 -31.852 -15.419  1.00  0.00     0.035 C 
HETATM   13  C3  UNL     1      -8.232 -31.845 -16.889  1.00  0.00     0.035 C 
ENDBRANCH   6  11
ENDBRANCH   1   4
TORSDOF 2
ENDMDL
MODEL 5
REMARK VINA RESULT: -5.128654428      1.309      4.652
REMARK  2 active torsions:
REMARK  status: ('A' for Active; 'I' for Inactive)
REMARK    1  A    between atoms: C2_2  and  N1_4 
REMARK    2  A    between atoms: C4_7  and  C5_8 
ROOT
HETATM    1  C5  UNL     1      -5.441 -32.262 -21.341  1.00  0.00     0.202 C 
HETATM    2  C6  UNL     1      -4.780 -31.035 -21.785  1.00  0.00     0.066 C 
HETATM    3  N3  UNL     1      -4.264 -30.044 -22.127  1.00  0.00    -0.197 NA
ENDROOT
BRANCH   1   4
HETATM    4  C4  UNL     1      -5.452 -32.337 -19.843  1.00  0.00     0.123 C 
HETATM    5  N2  UNL     1      -6.117 -31.602 -19.015  1.00  0.00    -0.272 N 
HETATM    6  N1  UNL     1      -5.800 -32.051 -17.706  1.00  0.00    -0.212 N 
ATOM      7  H2  UNL     1      -6.752 -30.841 -19.257  1.00  0.00     0.189 HD
HETATM    8  N5  UNL     1      -4.665 -32.859 -17.812  1.00  0.00    -0.003 NA
HETATM    9  N4  UNL     1      -4.678 -33.288 -19.125  1.00  0.00    -0.270 N 
ATOM     10  H4  UNL     1      -4.224 -34.119 -19.503  1.00  0.00     0.185 HD
BRANCH   6  11
HETATM   11  C2  UNL     1      -6.477 -31.767 -16.474  1.00  0.00     0.117 C 
HETATM   12  C1  UNL     1      -6.082 -32.699 -15.354  1.00  0.00     0.035 C 
HETATM   13  C3  UNL     1      -7.972 -31.776 -16.717  1.00  0.00     0.035 C 
ENDBRANCH   6  11
ENDBRANCH   1   4
TORSDOF 2
ENDMDL
