MODEL 1
REMARK VINA RESULT: -4.705843857      0.000      0.000
REMARK  2 active torsions:
REMARK  status: ('A' for Active; 'I' for Inactive)
REMARK    1  A    between atoms: C2_2  and  O1_5 
REMARK    2  A    between atoms: O1_5  and  C5_6 
ROOT
HETATM    1  C5  UNL     1      -6.399 -31.705 -19.115  1.00  0.00     0.331 C 
HETATM    2  O2  UNL     1      -6.793 -30.706 -20.017  1.00  0.00    -0.247 OA
HETATM    3  N1  UNL     1      -5.904 -30.659 -20.993  1.00  0.00    -0.092 NA
HETATM    4  C6  UNL     1      -5.344 -31.986 -21.182  1.00  0.00     0.200 C 
HETATM    5  C7  UNL     1      -5.334 -32.470 -19.788  1.00  0.00     0.054 C 
HETATM    6  N2  UNL     1      -4.571 -33.346 -19.301  1.00  0.00    -0.401 N 
ATOM      7  H21 UNL     1      -3.834 -33.876 -19.766  1.00  0.00     0.155 HD
ATOM      8  H22 UNL     1      -4.564 -33.681 -18.337  1.00  0.00     0.155 HD
ENDROOT
BRANCH   1   9
HETATM    9  O1  UNL     1      -5.983 -31.073 -17.964  1.00  0.00    -0.344 OA
BRANCH   9  10
HETATM   10  C2  UNL     1      -6.569 -31.533 -16.809  1.00  0.00     0.053 C 
HETATM   11  C1  UNL     1      -8.047 -31.830 -16.978  1.00  0.00     0.045 C 
HETATM   12  C3  UNL     1      -6.426 -30.433 -15.774  1.00  0.00     0.045 C 
HETATM   13  C4  UNL     1      -5.919 -32.763 -16.236  1.00  0.00     0.045 C 
ENDBRANCH   9  10
ENDBRANCH   1   9
TORSDOF 2
ENDMDL
MODEL 2
REMARK VINA RESULT: -4.651995758      1.553      2.339
REMARK  2 active torsions:
REMARK  status: ('A' for Active; 'I' for Inactive)
REMARK    1  A    between atoms: C2_2  and  O1_5 
REMARK    2  A    between atoms: O1_5  and  C5_6 
ROOT
HETATM    1  C5  UNL     1      -5.225 -32.175 -19.925  1.00  0.00     0.331 C 
HETATM    2  O2  UNL     1      -4.575 -33.416 -19.887  1.00  0.00    -0.247 OA
HETATM    3  N1  UNL     1      -4.560 -33.910 -21.113  1.00  0.00    -0.092 NA
HETATM    4  C6  UNL     1      -4.520 -32.810 -22.061  1.00  0.00     0.200 C 
HETATM    5  C7  UNL     1      -5.348 -31.817 -21.350  1.00  0.00     0.054 C 
HETATM    6  N2  UNL     1      -6.009 -30.879 -21.869  1.00  0.00    -0.401 N 
ATOM      7  H21 UNL     1      -6.095 -30.631 -22.854  1.00  0.00     0.155 HD
ATOM      8  H22 UNL     1      -6.582 -30.192 -21.377  1.00  0.00     0.155 HD
ENDROOT
BRANCH   1   9
HETATM    9  O1  UNL     1      -6.436 -32.329 -19.287  1.00  0.00    -0.344 OA
BRANCH   9  10
HETATM   10  C2  UNL     1      -6.550 -31.654 -18.095  1.00  0.00     0.053 C 
HETATM   11  C1  UNL     1      -7.957 -31.694 -17.530  1.00  0.00     0.045 C 
HETATM   12  C3  UNL     1      -6.195 -30.206 -18.374  1.00  0.00     0.045 C 
HETATM   13  C4  UNL     1      -5.613 -32.137 -17.022  1.00  0.00     0.045 C 
ENDBRANCH   9  10
ENDBRANCH   1   9
TORSDOF 2
ENDMDL
MODEL 3
REMARK VINA RESULT: -4.625013608      1.590      2.579
REMARK  2 active torsions:
REMARK  status: ('A' for Active; 'I' for Inactive)
REMARK    1  A    between atoms: C2_2  and  O1_5 
REMARK    2  A    between atoms: O1_5  and  C5_6 
ROOT
HETATM    1  C5  UNL     1      -5.157 -32.207 -19.932  1.00  0.00     0.331 C 
HETATM    2  O2  UNL     1      -4.479 -33.434 -19.947  1.00  0.00    -0.247 OA
HETATM    3  N1  UNL     1      -4.494 -33.897 -21.185  1.00  0.00    -0.092 NA
HETATM    4  C6  UNL     1      -4.511 -32.774 -22.106  1.00  0.00     0.200 C 
HETATM    5  C7  UNL     1      -5.337 -31.818 -21.343  1.00  0.00     0.054 C 
HETATM    6  N2  UNL     1      -6.036 -30.883 -21.816  1.00  0.00    -0.401 N 
ATOM      7  H21 UNL     1      -6.161 -30.614 -22.791  1.00  0.00     0.155 HD
ATOM      8  H22 UNL     1      -6.607 -30.223 -21.288  1.00  0.00     0.155 HD
ENDROOT
BRANCH   1   9
HETATM    9  O1  UNL     1      -6.342 -32.405 -19.258  1.00  0.00    -0.344 OA
BRANCH   9  10
HETATM   10  C2  UNL     1      -6.504 -31.628 -18.136  1.00  0.00     0.053 C 
HETATM   11  C1  UNL     1      -6.166 -30.169 -18.377  1.00  0.00     0.045 C 
HETATM   12  C3  UNL     1      -5.549 -32.166 -17.087  1.00  0.00     0.045 C 
HETATM   13  C4  UNL     1      -7.886 -31.685 -17.542  1.00  0.00     0.045 C 
ENDBRANCH   9  10
ENDBRANCH   1   9
TORSDOF 2
ENDMDL
MODEL 4
REMARK VINA RESULT: -4.603531782      1.589      2.648
REMARK  2 active torsions:
REMARK  status: ('A' for Active; 'I' for Inactive)
REMARK    1  A    between atoms: C2_2  and  O1_5 
REMARK    2  A    between atoms: O1_5  and  C5_6 
ROOT
HETATM    1  C5  UNL     1      -5.162 -32.190 -19.937  1.00  0.00     0.331 C 
HETATM    2  O2  UNL     1      -4.491 -33.422 -19.939  1.00  0.00    -0.247 OA
HETATM    3  N1  UNL     1      -4.515 -33.902 -21.170  1.00  0.00    -0.092 NA
HETATM    4  C6  UNL     1      -4.530 -32.791 -22.106  1.00  0.00     0.200 C 
HETATM    5  C7  UNL     1      -5.346 -31.820 -21.352  1.00  0.00     0.054 C 
HETATM    6  N2  UNL     1      -6.042 -30.887 -21.835  1.00  0.00    -0.401 N 
ATOM      7  H21 UNL     1      -6.169 -30.631 -22.813  1.00  0.00     0.155 HD
ATOM      8  H22 UNL     1      -6.606 -30.216 -21.314  1.00  0.00     0.155 HD
ENDROOT
BRANCH   1   9
HETATM    9  O1  UNL     1      -6.345 -32.372 -19.255  1.00  0.00    -0.344 OA
BRANCH   9  10
HETATM   10  C2  UNL     1      -6.474 -31.618 -18.113  1.00  0.00     0.053 C 
HETATM   11  C1  UNL     1      -5.613 -32.127 -16.972  1.00  0.00     0.045 C 
HETATM   12  C3  UNL     1      -7.926 -31.714 -17.685  1.00  0.00     0.045 C 
HETATM   13  C4  UNL     1      -6.167 -30.157 -18.302  1.00  0.00     0.045 C 
ENDBRANCH   9  10
ENDBRANCH   1   9
TORSDOF 2
ENDMDL
MODEL 5
REMARK VINA RESULT: -4.576137922      0.101      1.281
REMARK  2 active torsions:
REMARK  status: ('A' for Active; 'I' for Inactive)
REMARK    1  A    between atoms: C2_2  and  O1_5 
REMARK    2  A    between atoms: O1_5  and  C5_6 
ROOT
HETATM    1  C5  UNL     1      -6.381 -31.687 -19.173  1.00  0.00     0.331 C 
HETATM    2  O2  UNL     1      -6.775 -30.700 -20.087  1.00  0.00    -0.247 OA
HETATM    3  N1  UNL     1      -5.895 -30.676 -21.072  1.00  0.00    -0.092 NA
HETATM    4  C6  UNL     1      -5.348 -32.011 -21.245  1.00  0.00     0.200 C 
HETATM    5  C7  UNL     1      -5.329 -32.473 -19.843  1.00  0.00     0.054 C 
HETATM    6  N2  UNL     1      -4.569 -33.347 -19.349  1.00  0.00    -0.401 N 
ATOM      7  H21 UNL     1      -3.841 -33.891 -19.813  1.00  0.00     0.155 HD
ATOM      8  H22 UNL     1      -4.555 -33.666 -18.380  1.00  0.00     0.155 HD
ENDROOT
BRANCH   1   9
HETATM    9  O1  UNL     1      -5.949 -31.041 -18.037  1.00  0.00    -0.344 OA
BRANCH   9  10
HETATM   10  C2  UNL     1      -6.509 -31.495 -16.866  1.00  0.00     0.053 C 
HETATM   11  C1  UNL     1      -5.853 -32.763 -16.354  1.00  0.00     0.045 C 
HETATM   12  C3  UNL     1      -7.964 -31.806 -17.167  1.00  0.00     0.045 C 
HETATM   13  C4  UNL     1      -6.497 -30.490 -15.747  1.00  0.00     0.045 C 
ENDBRANCH   9  10
ENDBRANCH   1   9
TORSDOF 2
ENDMDL
