MODEL 1
REMARK VINA RESULT: -7.761402072      0.000      0.000
REMARK  2 active torsions:
REMARK  status: ('A' for Active; 'I' for Inactive)
REMARK       I    between atoms: C1_2  and  N1_3 
REMARK    1  A    between atoms: C1_2  and  C9_18 
REMARK    2  A    between atoms: N2_5  and  C2_7 
ROOT
HETATM    1  O1  UNL     1     -26.192  -0.363  -5.283  1.00  0.00    -0.266 OA
HETATM    2  C1  UNL     1     -27.285   0.201  -5.032  1.00  0.00     0.273 C 
HETATM    3  N1  UNL     1     -27.386   1.611  -4.895  1.00  0.00    -0.265 N 
ATOM      4  H1  UNL     1     -28.291   2.060  -5.031  1.00  0.00     0.190 HD
HETATM    5  N2  UNL     1     -26.392   2.316  -4.612  1.00  0.00    -0.296 N 
ATOM      6  H2  UNL     1     -25.473   1.895  -4.470  1.00  0.00     0.187 HD
ENDROOT
BRANCH   5   7
HETATM    7  C2  UNL     1     -26.581   3.726  -4.492  1.00  0.00     0.077 A 
HETATM    8  C3  UNL     1     -27.699   4.394  -3.987  1.00  0.00     0.120 A 
HETATM    9  N3  UNL     1     -27.487   5.721  -4.045  1.00  0.00    -0.363 N 
HETATM   10  C4  UNL     1     -26.259   5.975  -4.575  1.00  0.00     0.047 A 
ATOM     11  H3  UNL     1     -28.149   6.432  -3.737  1.00  0.00     0.165 HD
HETATM   12  C5  UNL     1     -25.560   7.132  -4.850  1.00  0.00     0.047 A 
HETATM   13  C8  UNL     1     -25.711   4.739  -4.845  1.00  0.00     0.035 A 
HETATM   14  C6  UNL     1     -24.298   7.080  -5.402  1.00  0.00     0.090 A 
HETATM   15  N4  UNL     1     -23.781   5.866  -5.659  1.00  0.00    -0.374 N 
HETATM   16  C7  UNL     1     -24.447   4.728  -5.397  1.00  0.00     0.103 A 
ATOM     17  H4  UNL     1     -22.848   5.806  -6.067  1.00  0.00     0.164 HD
ENDBRANCH   5   7
BRANCH   2  18
HETATM   18  C9  UNL     1     -28.469  -0.629  -4.879  1.00  0.00     0.072 A 
HETATM   19  C10 UNL     1     -28.465  -1.688  -3.979  1.00  0.00     0.020 A 
HETATM   20  C11 UNL     1     -29.590  -2.468  -3.842  1.00  0.00     0.001 A 
HETATM   21  C12 UNL     1     -30.726  -2.211  -4.589  1.00  0.00     0.003 A 
HETATM   22  C13 UNL     1     -30.696  -1.148  -5.476  1.00  0.00     0.043 A 
HETATM   23  C14 UNL     1     -29.592  -0.355  -5.635  1.00  0.00     0.132 A 
HETATM   24  F1  UNL     1     -29.530   0.685  -6.488  1.00  0.00    -0.205 F 
ENDBRANCH   2  18
TORSDOF 2
ENDMDL
MODEL 2
REMARK VINA RESULT: -7.718799659      1.023      1.478
REMARK  2 active torsions:
REMARK  status: ('A' for Active; 'I' for Inactive)
REMARK       I    between atoms: C1_2  and  N1_3 
REMARK    1  A    between atoms: C1_2  and  C9_18 
REMARK    2  A    between atoms: N2_5  and  C2_7 
ROOT
HETATM    1  O1  UNL     1     -26.337  -0.310  -5.728  1.00  0.00    -0.266 OA
HETATM    2  C1  UNL     1     -27.382   0.232  -5.290  1.00  0.00     0.273 C 
HETATM    3  N1  UNL     1     -27.455   1.630  -5.047  1.00  0.00    -0.265 N 
ATOM      4  H1  UNL     1     -28.368   2.084  -5.025  1.00  0.00     0.190 HD
HETATM    5  N2  UNL     1     -26.427   2.317  -4.858  1.00  0.00    -0.296 N 
ATOM      6  H2  UNL     1     -25.500   1.892  -4.874  1.00  0.00     0.187 HD
ENDROOT
BRANCH   5   7
HETATM    7  C2  UNL     1     -26.589   3.716  -4.619  1.00  0.00     0.077 A 
HETATM    8  C3  UNL     1     -27.691   4.358  -4.050  1.00  0.00     0.120 A 
HETATM    9  N3  UNL     1     -27.455   5.682  -3.999  1.00  0.00    -0.363 N 
HETATM   10  C4  UNL     1     -26.228   5.958  -4.517  1.00  0.00     0.047 A 
ATOM     11  H3  UNL     1     -28.102   6.376  -3.626  1.00  0.00     0.165 HD
HETATM   12  C5  UNL     1     -25.510   7.121  -4.702  1.00  0.00     0.047 A 
HETATM   13  C8  UNL     1     -25.705   4.740  -4.895  1.00  0.00     0.035 A 
HETATM   14  C6  UNL     1     -24.255   7.095  -5.269  1.00  0.00     0.090 A 
HETATM   15  N4  UNL     1     -23.762   5.897  -5.632  1.00  0.00    -0.374 N 
HETATM   16  C7  UNL     1     -24.446   4.753  -5.459  1.00  0.00     0.103 A 
ATOM     17  H4  UNL     1     -22.833   5.855  -6.053  1.00  0.00     0.164 HD
ENDBRANCH   5   7
BRANCH   2  18
HETATM   18  C9  UNL     1     -28.538  -0.611  -5.029  1.00  0.00     0.072 A 
HETATM   19  C10 UNL     1     -29.732  -0.380  -5.703  1.00  0.00     0.020 A 
HETATM   20  C11 UNL     1     -30.820  -1.183  -5.448  1.00  0.00     0.001 A 
HETATM   21  C12 UNL     1     -30.741  -2.215  -4.531  1.00  0.00     0.003 A 
HETATM   22  C13 UNL     1     -29.537  -2.416  -3.878  1.00  0.00     0.043 A 
HETATM   23  C14 UNL     1     -28.437  -1.636  -4.109  1.00  0.00     0.132 A 
HETATM   24  F1  UNL     1     -27.253  -1.804  -3.492  1.00  0.00    -0.205 F 
ENDBRANCH   2  18
TORSDOF 2
ENDMDL
MODEL 3
REMARK VINA RESULT: -7.545452583      2.395      7.373
REMARK  2 active torsions:
REMARK  status: ('A' for Active; 'I' for Inactive)
REMARK       I    between atoms: C1_2  and  N1_3 
REMARK    1  A    between atoms: C1_2  and  C9_18 
REMARK    2  A    between atoms: N2_5  and  C2_7 
ROOT
HETATM    1  O1  UNL     1     -24.148   2.643  -4.854  1.00  0.00    -0.266 OA
HETATM    2  C1  UNL     1     -25.235   3.251  -5.014  1.00  0.00     0.273 C 
HETATM    3  N1  UNL     1     -26.458   2.557  -5.213  1.00  0.00    -0.265 N 
ATOM      4  H1  UNL     1     -27.337   3.029  -5.003  1.00  0.00     0.190 HD
HETATM    5  N2  UNL     1     -26.484   1.381  -5.639  1.00  0.00    -0.296 N 
ATOM      6  H2  UNL     1     -25.621   0.883  -5.857  1.00  0.00     0.187 HD
ENDROOT
BRANCH   5   7
HETATM    7  C2  UNL     1     -27.757   0.757  -5.811  1.00  0.00     0.077 A 
HETATM    8  C3  UNL     1     -28.711   1.030  -6.794  1.00  0.00     0.120 A 
HETATM    9  N3  UNL     1     -29.775   0.227  -6.614  1.00  0.00    -0.363 N 
HETATM   10  C4  UNL     1     -29.573  -0.582  -5.539  1.00  0.00     0.047 A 
ATOM     11  H3  UNL     1     -30.611   0.226  -7.198  1.00  0.00     0.165 HD
HETATM   12  C5  UNL     1     -30.325  -1.566  -4.931  1.00  0.00     0.047 A 
HETATM   13  C8  UNL     1     -28.327  -0.247  -5.054  1.00  0.00     0.035 A 
HETATM   14  C6  UNL     1     -29.850  -2.237  -3.825  1.00  0.00     0.090 A 
HETATM   15  N4  UNL     1     -28.633  -1.896  -3.367  1.00  0.00    -0.374 N 
HETATM   16  C7  UNL     1     -27.886  -0.940  -3.946  1.00  0.00     0.103 A 
ATOM     17  H4  UNL     1     -28.262  -2.380  -2.549  1.00  0.00     0.164 HD
ENDBRANCH   5   7
BRANCH   2  18
HETATM   18  C9  UNL     1     -25.221   4.705  -4.994  1.00  0.00     0.072 A 
HETATM   19  C10 UNL     1     -26.331   5.404  -4.534  1.00  0.00     0.020 A 
HETATM   20  C11 UNL     1     -26.308   6.780  -4.519  1.00  0.00     0.001 A 
HETATM   21  C12 UNL     1     -25.195   7.476  -4.957  1.00  0.00     0.003 A 
HETATM   22  C13 UNL     1     -24.108   6.747  -5.408  1.00  0.00     0.043 A 
HETATM   23  C14 UNL     1     -24.099   5.380  -5.435  1.00  0.00     0.132 A 
HETATM   24  F1  UNL     1     -23.059   4.642  -5.868  1.00  0.00    -0.205 F 
ENDBRANCH   2  18
TORSDOF 2
ENDMDL
MODEL 4
REMARK VINA RESULT: -7.527031486      2.518      7.245
REMARK  2 active torsions:
REMARK  status: ('A' for Active; 'I' for Inactive)
REMARK       I    between atoms: C1_2  and  N1_3 
REMARK    1  A    between atoms: C1_2  and  C9_18 
REMARK    2  A    between atoms: N2_5  and  C2_7 
ROOT
HETATM    1  O1  UNL     1     -23.920   2.637  -6.166  1.00  0.00    -0.266 OA
HETATM    2  C1  UNL     1     -24.894   2.933  -5.432  1.00  0.00     0.273 C 
HETATM    3  N1  UNL     1     -25.768   1.942  -4.910  1.00  0.00    -0.265 N 
ATOM      4  H1  UNL     1     -26.316   2.152  -4.076  1.00  0.00     0.190 HD
HETATM    5  N2  UNL     1     -25.881   0.818  -5.448  1.00  0.00    -0.296 N 
ATOM      6  H2  UNL     1     -25.345   0.579  -6.282  1.00  0.00     0.187 HD
ENDROOT
BRANCH   5   7
HETATM    7  C2  UNL     1     -26.782  -0.120  -4.859  1.00  0.00     0.077 A 
HETATM    8  C3  UNL     1     -26.497  -1.069  -3.875  1.00  0.00     0.120 A 
HETATM    9  N3  UNL     1     -27.614  -1.761  -3.589  1.00  0.00    -0.363 N 
HETATM   10  C4  UNL     1     -28.649  -1.312  -4.349  1.00  0.00     0.047 A 
ATOM     11  H3  UNL     1     -27.676  -2.513  -2.902  1.00  0.00     0.165 HD
HETATM   12  C5  UNL     1     -29.979  -1.663  -4.453  1.00  0.00     0.047 A 
HETATM   13  C8  UNL     1     -28.125  -0.302  -5.126  1.00  0.00     0.035 A 
HETATM   14  C6  UNL     1     -30.814  -1.014  -5.336  1.00  0.00     0.090 A 
HETATM   15  N4  UNL     1     -30.284  -0.032  -6.086  1.00  0.00    -0.374 N 
HETATM   16  C7  UNL     1     -28.991   0.324  -5.998  1.00  0.00     0.103 A 
ATOM     17  H4  UNL     1     -30.885   0.462  -6.745  1.00  0.00     0.164 HD
ENDBRANCH   5   7
BRANCH   2  18
HETATM   18  C9  UNL     1     -25.120   4.336  -5.119  1.00  0.00     0.072 A 
HETATM   19  C10 UNL     1     -26.375   4.762  -4.701  1.00  0.00     0.020 A 
HETATM   20  C11 UNL     1     -26.578   6.091  -4.408  1.00  0.00     0.001 A 
HETATM   21  C12 UNL     1     -25.548   7.008  -4.524  1.00  0.00     0.003 A 
HETATM   22  C13 UNL     1     -24.311   6.549  -4.942  1.00  0.00     0.043 A 
HETATM   23  C14 UNL     1     -24.078   5.234  -5.241  1.00  0.00     0.132 A 
HETATM   24  F1  UNL     1     -22.888   4.756  -5.650  1.00  0.00    -0.205 F 
ENDBRANCH   2  18
TORSDOF 2
ENDMDL
MODEL 5
REMARK VINA RESULT: -7.498848825      1.407      2.594
REMARK  2 active torsions:
REMARK  status: ('A' for Active; 'I' for Inactive)
REMARK       I    between atoms: C1_2  and  N1_3 
REMARK    1  A    between atoms: C1_2  and  C9_18 
REMARK    2  A    between atoms: N2_5  and  C2_7 
ROOT
HETATM    1  O1  UNL     1     -25.791  -0.705  -4.304  1.00  0.00    -0.266 OA
HETATM    2  C1  UNL     1     -26.460   0.205  -4.854  1.00  0.00     0.273 C 
HETATM    3  N1  UNL     1     -25.896   1.475  -5.148  1.00  0.00    -0.265 N 
ATOM      4  H1  UNL     1     -26.323   2.052  -5.872  1.00  0.00     0.190 HD
HETATM    5  N2  UNL     1     -24.889   1.902  -4.541  1.00  0.00    -0.296 N 
ATOM      6  H2  UNL     1     -24.439   1.346  -3.814  1.00  0.00     0.187 HD
ENDROOT
BRANCH   5   7
HETATM    7  C2  UNL     1     -24.386   3.190  -4.899  1.00  0.00     0.077 A 
HETATM    8  C3  UNL     1     -23.108   3.502  -5.368  1.00  0.00     0.120 A 
HETATM    9  N3  UNL     1     -23.028   4.827  -5.590  1.00  0.00    -0.363 N 
HETATM   10  C4  UNL     1     -24.213   5.423  -5.285  1.00  0.00     0.047 A 
ATOM     11  H3  UNL     1     -22.201   5.312  -5.936  1.00  0.00     0.165 HD
HETATM   12  C5  UNL     1     -24.664   6.726  -5.328  1.00  0.00     0.047 A 
HETATM   13  C8  UNL     1     -25.040   4.405  -4.861  1.00  0.00     0.035 A 
HETATM   14  C6  UNL     1     -25.950   7.041  -4.948  1.00  0.00     0.090 A 
HETATM   15  N4  UNL     1     -26.742   6.035  -4.537  1.00  0.00    -0.374 N 
HETATM   16  C7  UNL     1     -26.320   4.760  -4.489  1.00  0.00     0.103 A 
ATOM     17  H4  UNL     1     -27.698   6.247  -4.252  1.00  0.00     0.164 HD
ENDBRANCH   5   7
BRANCH   2  18
HETATM   18  C9  UNL     1     -27.848  -0.068  -5.190  1.00  0.00     0.072 A 
HETATM   19  C10 UNL     1     -28.420   0.522  -6.311  1.00  0.00     0.020 A 
HETATM   20  C11 UNL     1     -29.735   0.259  -6.620  1.00  0.00     0.001 A 
HETATM   21  C12 UNL     1     -30.494  -0.585  -5.829  1.00  0.00     0.003 A 
HETATM   22  C13 UNL     1     -29.893  -1.155  -4.720  1.00  0.00     0.043 A 
HETATM   23  C14 UNL     1     -28.588  -0.913  -4.386  1.00  0.00     0.132 A 
HETATM   24  F1  UNL     1     -27.974  -1.451  -3.316  1.00  0.00    -0.205 F 
ENDBRANCH   2  18
TORSDOF 2
ENDMDL
