MODEL 1
REMARK VINA RESULT: -5.960310200      0.000      0.000
REMARK  7 active torsions:
REMARK  status: ('A' for Active; 'I' for Inactive)
REMARK    1  A    between atoms: C2_2  and  C4_4 
REMARK    2  A    between atoms: C5_6  and  C6_7 
REMARK    3  A    between atoms: C6_7  and  C7_8 
REMARK    4  A    between atoms: C7_8  and  C8_9 
REMARK    5  A    between atoms: C8_9  and  C9_10 
REMARK    6  A    between atoms: C10_12  and  C11_13 
REMARK    7  A    between atoms: C11_13  and  N1_14 
ROOT
HETATM    1  C4  UNL     1     -28.450   0.468  -5.107  1.00  0.00     0.036 A 
HETATM    2  S1  UNL     1     -28.652   2.170  -4.747  1.00  0.00    -0.078 SA
HETATM    3  C5  UNL     1     -27.045   2.679  -4.886  1.00  0.00     0.069 A 
HETATM    4  C10 UNL     1     -26.383   1.531  -5.207  1.00  0.00     0.018 A 
HETATM    5  C12 UNL     1     -27.102   0.404  -5.319  1.00  0.00     0.073 A 
HETATM    6  N2  UNL     1     -26.475  -0.874  -5.659  1.00  0.00    -0.100 NA
ENDROOT
BRANCH   3   7
HETATM    7  C6  UNL     1     -26.550   4.024  -4.699  1.00  0.00    -0.059 C 
BRANCH   7   8
HETATM    8  C7  UNL     1     -26.126   5.145  -4.561  1.00  0.00    -0.099 C 
BRANCH   8   9
HETATM    9  C8  UNL     1     -25.594   6.510  -4.411  1.00  0.00     0.109 C 
BRANCH   9  10
HETATM   10  C9  UNL     1     -24.458   6.630  -5.405  1.00  0.00     0.126 C 
HETATM   11 CL1  UNL     1     -23.488   5.144  -5.277  1.00  0.00    -0.130 Cl
ENDBRANCH   9  10
ENDBRANCH   8   9
ENDBRANCH   7   8
ENDBRANCH   3   7
BRANCH   4  12
HETATM   12  C11 UNL     1     -24.877   1.610  -5.411  1.00  0.00     0.272 C 
BRANCH  12  13
HETATM   13  N1  UNL     1     -24.150   1.215  -4.247  1.00  0.00    -0.075 N 
ATOM     14  H13 UNL     1     -23.897   2.023  -3.680  1.00  0.00     0.274 HD
ATOM     15  H12 UNL     1     -24.754   0.732  -3.582  1.00  0.00     0.274 HD
ATOM     16  H11 UNL     1     -23.329   0.653  -4.474  1.00  0.00     0.274 HD
ENDBRANCH  12  13
ENDBRANCH   4  12
BRANCH   1  17
HETATM   17  C2  UNL     1     -29.514  -0.524  -5.142  1.00  0.00    -0.052 C 
HETATM   18  C1  UNL     1     -30.473  -0.524  -5.978  1.00  0.00     0.020 C 
HETATM   19  C3  UNL     1     -29.439  -1.611  -4.099  1.00  0.00     0.049 C 
ENDBRANCH   1  17
TORSDOF 7
ENDMDL
MODEL 2
REMARK VINA RESULT: -5.776222607      3.026      6.364
REMARK  7 active torsions:
REMARK  status: ('A' for Active; 'I' for Inactive)
REMARK    1  A    between atoms: C2_2  and  C4_4 
REMARK    2  A    between atoms: C5_6  and  C6_7 
REMARK    3  A    between atoms: C6_7  and  C7_8 
REMARK    4  A    between atoms: C7_8  and  C8_9 
REMARK    5  A    between atoms: C8_9  and  C9_10 
REMARK    6  A    between atoms: C10_12  and  C11_13 
REMARK    7  A    between atoms: C11_13  and  N1_14 
ROOT
HETATM    1  C4  UNL     1     -25.599   5.468  -4.704  1.00  0.00     0.036 A 
HETATM    2  S1  UNL     1     -27.100   4.780  -4.121  1.00  0.00    -0.078 SA
HETATM    3  C5  UNL     1     -26.764   3.137  -4.351  1.00  0.00     0.069 A 
HETATM    4  C10 UNL     1     -25.504   3.149  -4.872  1.00  0.00     0.018 A 
HETATM    5  C12 UNL     1     -24.911   4.339  -5.052  1.00  0.00     0.073 A 
HETATM    6  N2  UNL     1     -23.561   4.448  -5.605  1.00  0.00    -0.100 NA
ENDROOT
BRANCH   3   7
HETATM    7  C6  UNL     1     -27.641   2.029  -4.049  1.00  0.00    -0.059 C 
BRANCH   7   8
HETATM    8  C7  UNL     1     -28.362   1.101  -3.781  1.00  0.00    -0.099 C 
BRANCH   8   9
HETATM    9  C8  UNL     1     -29.225  -0.050  -3.462  1.00  0.00     0.109 C 
BRANCH   9  10
HETATM   10  C9  UNL     1     -28.607  -1.245  -4.155  1.00  0.00     0.126 C 
HETATM   11 CL1  UNL     1     -29.836  -2.530  -4.184  1.00  0.00    -0.130 Cl
ENDBRANCH   9  10
ENDBRANCH   8   9
ENDBRANCH   7   8
ENDBRANCH   3   7
BRANCH   4  12
HETATM   12  C11 UNL     1     -24.862   1.813  -5.216  1.00  0.00     0.272 C 
BRANCH  12  13
HETATM   13  N1  UNL     1     -23.951   1.373  -4.208  1.00  0.00    -0.075 N 
ATOM     14  H13 UNL     1     -23.429   2.157  -3.817  1.00  0.00     0.274 HD
ATOM     15  H12 UNL     1     -24.447   1.072  -3.370  1.00  0.00     0.274 HD
ATOM     16  H11 UNL     1     -23.322   0.644  -4.545  1.00  0.00     0.274 HD
ENDBRANCH  12  13
ENDBRANCH   4  12
BRANCH   1  17
HETATM   17  C2  UNL     1     -25.280   6.887  -4.756  1.00  0.00    -0.052 C 
HETATM   18  C1  UNL     1     -25.430   7.696  -3.786  1.00  0.00     0.020 C 
HETATM   19  C3  UNL     1     -24.737   7.394  -6.069  1.00  0.00     0.049 C 
ENDBRANCH   1  17
TORSDOF 7
ENDMDL
MODEL 3
REMARK VINA RESULT: -5.210902107      1.140      1.413
REMARK  7 active torsions:
REMARK  status: ('A' for Active; 'I' for Inactive)
REMARK    1  A    between atoms: C2_2  and  C4_4 
REMARK    2  A    between atoms: C5_6  and  C6_7 
REMARK    3  A    between atoms: C6_7  and  C7_8 
REMARK    4  A    between atoms: C7_8  and  C8_9 
REMARK    5  A    between atoms: C8_9  and  C9_10 
REMARK    6  A    between atoms: C10_12  and  C11_13 
REMARK    7  A    between atoms: C11_13  and  N1_14 
ROOT
HETATM    1  C4  UNL     1     -28.484   0.585  -4.913  1.00  0.00     0.036 A 
HETATM    2  S1  UNL     1     -28.631   2.311  -5.172  1.00  0.00    -0.078 SA
HETATM    3  C5  UNL     1     -27.129   2.814  -4.575  1.00  0.00     0.069 A 
HETATM    4  C10 UNL     1     -26.543   1.645  -4.188  1.00  0.00     0.018 A 
HETATM    5  C12 UNL     1     -27.236   0.509  -4.361  1.00  0.00     0.073 A 
HETATM    6  N2  UNL     1     -26.686  -0.791  -3.975  1.00  0.00    -0.100 NA
ENDROOT
BRANCH   3   7
HETATM    7  C6  UNL     1     -26.639   4.172  -4.514  1.00  0.00    -0.059 C 
BRANCH   7   8
HETATM    8  C7  UNL     1     -26.249   5.312  -4.463  1.00  0.00    -0.099 C 
BRANCH   8   9
HETATM    9  C8  UNL     1     -25.764   6.702  -4.424  1.00  0.00     0.109 C 
BRANCH   9  10
HETATM   10  C9  UNL     1     -24.476   6.721  -5.218  1.00  0.00     0.126 C 
HETATM   11 CL1  UNL     1     -24.594   8.063  -6.380  1.00  0.00    -0.130 Cl
ENDBRANCH   9  10
ENDBRANCH   8   9
ENDBRANCH   7   8
ENDBRANCH   3   7
BRANCH   4  12
HETATM   12  C11 UNL     1     -25.148   1.713  -3.584  1.00  0.00     0.272 C 
BRANCH  12  13
HETATM   13  N1  UNL     1     -24.140   1.275  -4.496  1.00  0.00    -0.075 N 
ATOM     14  H13 UNL     1     -24.497   0.552  -5.119  1.00  0.00     0.274 HD
ATOM     15  H12 UNL     1     -23.930   1.996  -5.186  1.00  0.00     0.274 HD
ATOM     16  H11 UNL     1     -23.293   0.965  -4.019  1.00  0.00     0.274 HD
ENDBRANCH  12  13
ENDBRANCH   4  12
BRANCH   1  17
HETATM   17  C2  UNL     1     -29.493  -0.411  -5.241  1.00  0.00    -0.052 C 
HETATM   18  C1  UNL     1     -29.788  -1.407  -4.508  1.00  0.00     0.020 C 
HETATM   19  C3  UNL     1     -30.216  -0.211  -6.550  1.00  0.00     0.049 C 
ENDBRANCH   1  17
TORSDOF 7
ENDMDL
MODEL 4
REMARK VINA RESULT: -5.180260489      2.349      2.723
REMARK  7 active torsions:
REMARK  status: ('A' for Active; 'I' for Inactive)
REMARK    1  A    between atoms: C2_2  and  C4_4 
REMARK    2  A    between atoms: C5_6  and  C6_7 
REMARK    3  A    between atoms: C6_7  and  C7_8 
REMARK    4  A    between atoms: C7_8  and  C8_9 
REMARK    5  A    between atoms: C8_9  and  C9_10 
REMARK    6  A    between atoms: C10_12  and  C11_13 
REMARK    7  A    between atoms: C11_13  and  N1_14 
ROOT
HETATM    1  C4  UNL     1     -27.394   0.206  -4.427  1.00  0.00     0.036 A 
HETATM    2  S1  UNL     1     -25.777   0.853  -4.615  1.00  0.00    -0.078 SA
HETATM    3  C5  UNL     1     -26.150   2.493  -4.798  1.00  0.00     0.069 A 
HETATM    4  C10 UNL     1     -27.510   2.513  -4.712  1.00  0.00     0.018 A 
HETATM    5  C12 UNL     1     -28.143   1.345  -4.522  1.00  0.00     0.073 A 
HETATM    6  N2  UNL     1     -29.601   1.271  -4.417  1.00  0.00    -0.100 NA
ENDROOT
BRANCH   3   7
HETATM    7  C6  UNL     1     -25.209   3.572  -4.997  1.00  0.00    -0.059 C 
BRANCH   7   8
HETATM    8  C7  UNL     1     -24.435   4.484  -5.150  1.00  0.00    -0.099 C 
BRANCH   8   9
HETATM    9  C8  UNL     1     -23.507   5.614  -5.326  1.00  0.00     0.109 C 
BRANCH   9  10
HETATM   10  C9  UNL     1     -24.369   6.829  -5.597  1.00  0.00     0.126 C 
HETATM   11 CL1  UNL     1     -25.394   7.076  -4.164  1.00  0.00    -0.130 Cl
ENDBRANCH   9  10
ENDBRANCH   8   9
ENDBRANCH   7   8
ENDBRANCH   3   7
BRANCH   4  12
HETATM   12  C11 UNL     1     -28.213   3.856  -4.840  1.00  0.00     0.272 C 
BRANCH  12  13
HETATM   13  N1  UNL     1     -28.013   4.685  -3.695  1.00  0.00    -0.075 N 
ATOM     14  H13 UNL     1     -27.021   4.781  -3.479  1.00  0.00     0.274 HD
ATOM     15  H12 UNL     1     -28.229   5.660  -3.904  1.00  0.00     0.274 HD
ATOM     16  H11 UNL     1     -28.536   4.358  -2.882  1.00  0.00     0.274 HD
ENDBRANCH  12  13
ENDBRANCH   4  12
BRANCH   1  17
HETATM   17  C2  UNL     1     -27.729  -1.196  -4.226  1.00  0.00    -0.052 C 
HETATM   18  C1  UNL     1     -28.884  -1.623  -3.909  1.00  0.00     0.020 C 
HETATM   19  C3  UNL     1     -26.600  -2.178  -4.418  1.00  0.00     0.049 C 
ENDBRANCH   1  17
TORSDOF 7
ENDMDL
MODEL 5
REMARK VINA RESULT: -5.014329993      1.188      1.223
REMARK  7 active torsions:
REMARK  status: ('A' for Active; 'I' for Inactive)
REMARK    1  A    between atoms: C2_2  and  C4_4 
REMARK    2  A    between atoms: C5_6  and  C6_7 
REMARK    3  A    between atoms: C6_7  and  C7_8 
REMARK    4  A    between atoms: C7_8  and  C8_9 
REMARK    5  A    between atoms: C8_9  and  C9_10 
REMARK    6  A    between atoms: C10_12  and  C11_13 
REMARK    7  A    between atoms: C11_13  and  N1_14 
ROOT
HETATM    1  C4  UNL     1     -28.194   0.694  -5.278  1.00  0.00     0.036 A 
HETATM    2  S1  UNL     1     -28.234   2.421  -4.991  1.00  0.00    -0.078 SA
HETATM    3  C5  UNL     1     -26.574   2.751  -5.027  1.00  0.00     0.069 A 
HETATM    4  C10 UNL     1     -26.021   1.526  -5.258  1.00  0.00     0.018 A 
HETATM    5  C12 UNL     1     -26.849   0.479  -5.386  1.00  0.00     0.073 A 
HETATM    6  N2  UNL     1     -26.343  -0.872  -5.636  1.00  0.00    -0.100 NA
ENDROOT
BRANCH   3   7
HETATM    7  C6  UNL     1     -25.950   4.042  -4.847  1.00  0.00    -0.059 C 
BRANCH   7   8
HETATM    8  C7  UNL     1     -25.442   5.127  -4.712  1.00  0.00    -0.099 C 
BRANCH   8   9
HETATM    9  C8  UNL     1     -24.823   6.450  -4.522  1.00  0.00     0.109 C 
BRANCH   9  10
HETATM   10  C9  UNL     1     -25.823   7.461  -5.039  1.00  0.00     0.126 C 
HETATM   11 CL1  UNL     1     -27.420   6.678  -5.021  1.00  0.00    -0.130 Cl
ENDBRANCH   9  10
ENDBRANCH   8   9
ENDBRANCH   7   8
ENDBRANCH   3   7
BRANCH   4  12
HETATM   12  C11 UNL     1     -24.505   1.436  -5.351  1.00  0.00     0.272 C 
BRANCH  12  13
HETATM   13  N1  UNL     1     -23.900   1.138  -4.092  1.00  0.00    -0.075 N 
ATOM     14  H13 UNL     1     -24.603   0.896  -3.395  1.00  0.00     0.274 HD
ATOM     15  H12 UNL     1     -23.394   0.253  -4.128  1.00  0.00     0.274 HD
ATOM     16  H11 UNL     1     -23.299   1.893  -3.762  1.00  0.00     0.274 HD
ENDBRANCH  12  13
ENDBRANCH   4  12
BRANCH   1  17
HETATM   17  C2  UNL     1     -29.355  -0.179  -5.360  1.00  0.00    -0.052 C 
HETATM   18  C1  UNL     1     -30.232  -0.128  -6.280  1.00  0.00     0.020 C 
HETATM   19  C3  UNL     1     -29.490  -1.202  -4.260  1.00  0.00     0.049 C 
ENDBRANCH   1  17
TORSDOF 7
ENDMDL
