MODEL 1
REMARK VINA RESULT: -8.540267503      0.000      0.000
REMARK  3 active torsions:
REMARK  status: ('A' for Active; 'I' for Inactive)
REMARK    1  A    between atoms: N1_1  and  C1_4 
REMARK    2  A    between atoms: C7_10  and  O1_11 
REMARK    3  A    between atoms: O1_11  and  C8_12 
ROOT
HETATM    1  C1  UNL     1     -25.715   6.423  -4.803  1.00  0.00     0.114 A 
HETATM    2  C2  UNL     1     -24.656   5.660  -5.244  1.00  0.00     0.063 A 
HETATM    3  C3  UNL     1     -24.679   4.274  -5.091  1.00  0.00    -0.002 A 
HETATM    4  C4  UNL     1     -23.634   3.486  -5.522  1.00  0.00     0.014 A 
HETATM    5  C5  UNL     1     -23.690   2.138  -5.356  1.00  0.00     0.004 A 
HETATM    6  C6  UNL     1     -24.807   1.556  -4.750  1.00  0.00     0.040 A 
HETATM    7  C7  UNL     1     -25.863   2.310  -4.311  1.00  0.00     0.105 A 
HETATM    8  C14 UNL     1     -25.775   3.683  -4.494  1.00  0.00     0.092 A 
HETATM    9  N2  UNL     1     -26.777   4.453  -4.082  1.00  0.00    -0.296 N 
ATOM     10  H2  UNL     1     -27.588   4.018  -3.640  1.00  0.00     0.187 HD
HETATM   11  N3  UNL     1     -26.751   5.763  -4.228  1.00  0.00    -0.285 N 
ATOM     12  H3  UNL     1     -27.548   6.305  -3.893  1.00  0.00     0.188 HD
ENDROOT
BRANCH   7  13
HETATM   13  O1  UNL     1     -26.967   1.797  -3.719  1.00  0.00    -0.305 OA
BRANCH  13  14
HETATM   14  C8  UNL     1     -27.822   0.820  -4.090  1.00  0.00     0.114 A 
HETATM   15  C9  UNL     1     -27.808  -0.370  -3.354  1.00  0.00     0.040 A 
HETATM   16  C10 UNL     1     -28.631  -1.430  -3.637  1.00  0.00     0.003 A 
HETATM   17  C11 UNL     1     -29.519  -1.348  -4.683  1.00  0.00     0.003 A 
HETATM   18  C12 UNL     1     -29.544  -0.182  -5.417  1.00  0.00     0.045 A 
HETATM   19  C13 UNL     1     -28.701   0.896  -5.123  1.00  0.00     0.150 A 
HETATM   20  F1  UNL     1     -28.753   2.037  -5.847  1.00  0.00    -0.203 F 
ENDBRANCH  13  14
ENDBRANCH   7  13
BRANCH   1  21
HETATM   21  N1  UNL     1     -25.741   7.717  -4.923  1.00  0.00    -0.384 N 
ATOM     22  H12 UNL     1     -26.219   8.156  -5.710  1.00  0.00     0.157 HD
ATOM     23  H11 UNL     1     -25.293   8.338  -4.249  1.00  0.00     0.157 HD
ENDBRANCH   1  21
TORSDOF 3
ENDMDL
MODEL 2
REMARK VINA RESULT: -8.145835545      1.130      1.527
REMARK  3 active torsions:
REMARK  status: ('A' for Active; 'I' for Inactive)
REMARK    1  A    between atoms: N1_1  and  C1_4 
REMARK    2  A    between atoms: C7_10  and  O1_11 
REMARK    3  A    between atoms: O1_11  and  C8_12 
ROOT
HETATM    1  C1  UNL     1     -25.537   6.704  -4.610  1.00  0.00     0.114 A 
HETATM    2  C2  UNL     1     -24.472   5.906  -4.970  1.00  0.00     0.063 A 
HETATM    3  C3  UNL     1     -24.653   4.534  -5.143  1.00  0.00    -0.002 A 
HETATM    4  C4  UNL     1     -23.607   3.712  -5.503  1.00  0.00     0.014 A 
HETATM    5  C5  UNL     1     -23.818   2.378  -5.664  1.00  0.00     0.004 A 
HETATM    6  C6  UNL     1     -25.095   1.846  -5.464  1.00  0.00     0.040 A 
HETATM    7  C7  UNL     1     -26.157   2.635  -5.107  1.00  0.00     0.105 A 
HETATM    8  C14 UNL     1     -25.908   3.992  -4.951  1.00  0.00     0.092 A 
HETATM    9  N2  UNL     1     -26.909   4.794  -4.604  1.00  0.00    -0.296 N 
ATOM     10  H2  UNL     1     -27.838   4.396  -4.460  1.00  0.00     0.187 HD
HETATM   11  N3  UNL     1     -26.735   6.091  -4.440  1.00  0.00    -0.285 N 
ATOM     12  H3  UNL     1     -27.539   6.659  -4.174  1.00  0.00     0.188 HD
ENDROOT
BRANCH   7  13
HETATM   13  O1  UNL     1     -27.412   2.171  -4.903  1.00  0.00    -0.305 OA
BRANCH  13  14
HETATM   14  C8  UNL     1     -27.882   0.956  -4.550  1.00  0.00     0.114 A 
HETATM   15  C9  UNL     1     -28.895   0.397  -5.336  1.00  0.00     0.040 A 
HETATM   16  C10 UNL     1     -29.449  -0.830  -5.075  1.00  0.00     0.003 A 
HETATM   17  C11 UNL     1     -29.009  -1.566  -4.000  1.00  0.00     0.003 A 
HETATM   18  C12 UNL     1     -28.011  -1.029  -3.217  1.00  0.00     0.045 A 
HETATM   19  C13 UNL     1     -27.450   0.225  -3.489  1.00  0.00     0.150 A 
HETATM   20  F1  UNL     1     -26.461   0.727  -2.716  1.00  0.00    -0.203 F 
ENDBRANCH  13  14
ENDBRANCH   7  13
BRANCH   1  21
HETATM   21  N1  UNL     1     -25.419   7.987  -4.436  1.00  0.00    -0.384 N 
ATOM     22  H12 UNL     1     -24.529   8.392  -4.150  1.00  0.00     0.157 HD
ATOM     23  H11 UNL     1     -26.197   8.631  -4.576  1.00  0.00     0.157 HD
ENDBRANCH   1  21
TORSDOF 3
ENDMDL
MODEL 3
REMARK VINA RESULT: -8.120750549      1.119      1.585
REMARK  3 active torsions:
REMARK  status: ('A' for Active; 'I' for Inactive)
REMARK    1  A    between atoms: N1_1  and  C1_4 
REMARK    2  A    between atoms: C7_10  and  O1_11 
REMARK    3  A    between atoms: O1_11  and  C8_12 
ROOT
HETATM    1  C1  UNL     1     -25.613   6.627  -4.842  1.00  0.00     0.114 A 
HETATM    2  C2  UNL     1     -24.485   5.962  -5.274  1.00  0.00     0.063 A 
HETATM    3  C3  UNL     1     -24.414   4.572  -5.184  1.00  0.00    -0.002 A 
HETATM    4  C4  UNL     1     -23.300   3.882  -5.608  1.00  0.00     0.014 A 
HETATM    5  C5  UNL     1     -23.264   2.526  -5.506  1.00  0.00     0.004 A 
HETATM    6  C6  UNL     1     -24.358   1.839  -4.971  1.00  0.00     0.040 A 
HETATM    7  C7  UNL     1     -25.481   2.494  -4.541  1.00  0.00     0.105 A 
HETATM    8  C14 UNL     1     -25.486   3.878  -4.659  1.00  0.00     0.092 A 
HETATM    9  N2  UNL     1     -26.555   4.554  -4.252  1.00  0.00    -0.296 N 
ATOM     10  H2  UNL     1     -27.348   4.043  -3.863  1.00  0.00     0.187 HD
HETATM   11  N3  UNL     1     -26.619   5.869  -4.338  1.00  0.00    -0.285 N 
ATOM     12  H3  UNL     1     -27.464   6.336  -4.012  1.00  0.00     0.188 HD
ENDROOT
BRANCH   7  13
HETATM   13  O1  UNL     1     -26.565   1.877  -4.017  1.00  0.00    -0.305 OA
BRANCH  13  14
HETATM   14  C8  UNL     1     -27.564   1.167  -4.583  1.00  0.00     0.114 A 
HETATM   15  C9  UNL     1     -27.945   1.505  -5.886  1.00  0.00     0.040 A 
HETATM   16  C10 UNL     1     -28.946   0.855  -6.562  1.00  0.00     0.003 A 
HETATM   17  C11 UNL     1     -29.621  -0.180  -5.958  1.00  0.00     0.003 A 
HETATM   18  C12 UNL     1     -29.257  -0.524  -4.675  1.00  0.00     0.045 A 
HETATM   19  C13 UNL     1     -28.235   0.145  -3.991  1.00  0.00     0.150 A 
HETATM   20  F1  UNL     1     -27.883  -0.220  -2.736  1.00  0.00    -0.203 F 
ENDBRANCH  13  14
ENDBRANCH   7  13
BRANCH   1  21
HETATM   21  N1  UNL     1     -25.727   7.920  -4.905  1.00  0.00    -0.384 N 
ATOM     22  H12 UNL     1     -26.570   8.349  -5.288  1.00  0.00     0.157 HD
ATOM     23  H11 UNL     1     -24.995   8.551  -4.580  1.00  0.00     0.157 HD
ENDBRANCH   1  21
TORSDOF 3
ENDMDL
MODEL 4
REMARK VINA RESULT: -7.547443782      2.069      2.712
REMARK  3 active torsions:
REMARK  status: ('A' for Active; 'I' for Inactive)
REMARK    1  A    between atoms: N1_1  and  C1_4 
REMARK    2  A    between atoms: C7_10  and  O1_11 
REMARK    3  A    between atoms: O1_11  and  C8_12 
ROOT
HETATM    1  C1  UNL     1     -23.144   4.041  -5.361  1.00  0.00     0.114 A 
HETATM    2  C2  UNL     1     -24.161   4.860  -4.921  1.00  0.00     0.063 A 
HETATM    3  C3  UNL     1     -25.470   4.382  -4.862  1.00  0.00    -0.002 A 
HETATM    4  C4  UNL     1     -26.506   5.178  -4.427  1.00  0.00     0.014 A 
HETATM    5  C5  UNL     1     -27.770   4.679  -4.382  1.00  0.00     0.004 A 
HETATM    6  C6  UNL     1     -28.014   3.361  -4.777  1.00  0.00     0.040 A 
HETATM    7  C7  UNL     1     -27.006   2.542  -5.215  1.00  0.00     0.105 A 
HETATM    8  C14 UNL     1     -25.727   3.081  -5.249  1.00  0.00     0.092 A 
HETATM    9  N2  UNL     1     -24.720   2.323  -5.668  1.00  0.00    -0.296 N 
ATOM     10  H2  UNL     1     -24.908   1.361  -5.955  1.00  0.00     0.187 HD
HETATM   11  N3  UNL     1     -23.484   2.778  -5.723  1.00  0.00    -0.285 N 
ATOM     12  H3  UNL     1     -22.749   2.152  -6.052  1.00  0.00     0.188 HD
ENDROOT
BRANCH   7  13
HETATM   13  O1  UNL     1     -27.187   1.260  -5.608  1.00  0.00    -0.305 OA
BRANCH  13  14
HETATM   14  C8  UNL     1     -27.932   0.254  -5.102  1.00  0.00     0.114 A 
HETATM   15  C9  UNL     1     -27.420  -0.446  -4.004  1.00  0.00     0.040 A 
HETATM   16  C10 UNL     1     -28.086  -1.485  -3.406  1.00  0.00     0.003 A 
HETATM   17  C11 UNL     1     -29.315  -1.876  -3.884  1.00  0.00     0.003 A 
HETATM   18  C12 UNL     1     -29.833  -1.196  -4.964  1.00  0.00     0.045 A 
HETATM   19  C13 UNL     1     -29.146  -0.137  -5.570  1.00  0.00     0.150 A 
HETATM   20  F1  UNL     1     -29.680   0.527  -6.620  1.00  0.00    -0.203 F 
ENDBRANCH  13  14
ENDBRANCH   7  13
BRANCH   1  21
HETATM   21  N1  UNL     1     -21.909   4.440  -5.434  1.00  0.00    -0.384 N 
ATOM     22  H12 UNL     1     -21.376   4.637  -4.587  1.00  0.00     0.157 HD
ATOM     23  H11 UNL     1     -21.428   4.572  -6.324  1.00  0.00     0.157 HD
ENDBRANCH   1  21
TORSDOF 3
ENDMDL
MODEL 5
REMARK VINA RESULT: -7.535513893      2.189      3.002
REMARK  3 active torsions:
REMARK  status: ('A' for Active; 'I' for Inactive)
REMARK    1  A    between atoms: N1_1  and  C1_4 
REMARK    2  A    between atoms: C7_10  and  O1_11 
REMARK    3  A    between atoms: O1_11  and  C8_12 
ROOT
HETATM    1  C1  UNL     1     -23.133   4.039  -5.361  1.00  0.00     0.114 A 
HETATM    2  C2  UNL     1     -24.061   4.935  -4.877  1.00  0.00     0.063 A 
HETATM    3  C3  UNL     1     -25.409   4.581  -4.811  1.00  0.00    -0.002 A 
HETATM    4  C4  UNL     1     -26.359   5.457  -4.331  1.00  0.00     0.014 A 
HETATM    5  C5  UNL     1     -27.663   5.078  -4.280  1.00  0.00     0.004 A 
HETATM    6  C6  UNL     1     -28.037   3.803  -4.714  1.00  0.00     0.040 A 
HETATM    7  C7  UNL     1     -27.118   2.908  -5.195  1.00  0.00     0.105 A 
HETATM    8  C14 UNL     1     -25.794   3.324  -5.235  1.00  0.00     0.092 A 
HETATM    9  N2  UNL     1     -24.869   2.489  -5.695  1.00  0.00    -0.296 N 
ATOM     10  H2  UNL     1     -25.152   1.560  -6.010  1.00  0.00     0.187 HD
HETATM   11  N3  UNL     1     -23.596   2.827  -5.757  1.00  0.00    -0.285 N 
ATOM     12  H3  UNL     1     -22.929   2.146  -6.120  1.00  0.00     0.188 HD
ENDROOT
BRANCH   7  13
HETATM   13  O1  UNL     1     -27.426   1.662  -5.626  1.00  0.00    -0.305 OA
BRANCH  13  14
HETATM   14  C8  UNL     1     -27.919   0.580  -4.988  1.00  0.00     0.114 A 
HETATM   15  C9  UNL     1     -29.119   0.037  -5.462  1.00  0.00     0.040 A 
HETATM   16  C10 UNL     1     -29.714  -1.061  -4.895  1.00  0.00     0.003 A 
HETATM   17  C11 UNL     1     -29.130  -1.676  -3.814  1.00  0.00     0.003 A 
HETATM   18  C12 UNL     1     -27.948  -1.153  -3.336  1.00  0.00     0.045 A 
HETATM   19  C13 UNL     1     -27.346  -0.032  -3.919  1.00  0.00     0.150 A 
HETATM   20  F1  UNL     1     -26.178   0.457  -3.443  1.00  0.00    -0.203 F 
ENDBRANCH  13  14
ENDBRANCH   7  13
BRANCH   1  21
HETATM   21  N1  UNL     1     -21.867   4.322  -5.443  1.00  0.00    -0.384 N 
ATOM     22  H12 UNL     1     -21.314   4.477  -4.600  1.00  0.00     0.157 HD
ATOM     23  H11 UNL     1     -21.380   4.399  -6.336  1.00  0.00     0.157 HD
ENDBRANCH   1  21
TORSDOF 3
ENDMDL
