MODEL 1
REMARK VINA RESULT: -7.662590230      0.000      0.000
REMARK  3 active torsions:
REMARK  status: ('A' for Active; 'I' for Inactive)
REMARK    1  A    between atoms: N1_1  and  C1_4 
REMARK    2  A    between atoms: C2_7  and  C3_8 
REMARK    3  A    between atoms: C6_11  and  C7_12 
ROOT
HETATM    1  C3  UNL     1     -28.086   1.578  -4.706  1.00  0.00     0.103 A 
HETATM    2  C4  UNL     1     -29.053   2.516  -4.919  1.00  0.00     0.042 A 
HETATM    3  C5  UNL     1     -28.385   3.732  -4.996  1.00  0.00     0.041 A 
HETATM    4  C6  UNL     1     -27.043   3.476  -4.826  1.00  0.00     0.086 A 
HETATM    5  O1  UNL     1     -26.931   2.193  -4.660  1.00  0.00    -0.308 OA
ENDROOT
BRANCH   1   6
HETATM    6  C2  UNL     1     -28.293   0.114  -4.552  1.00  0.00     0.084 A 
HETATM    7  N2  UNL     1     -29.529  -0.401  -4.536  1.00  0.00    -0.189 N 
HETATM    8  C1  UNL     1     -29.734  -1.707  -4.398  1.00  0.00     0.676 A 
ATOM      9  H2  UNL     1     -30.330   0.222  -4.632  1.00  0.00     0.184 HD
HETATM   10  N3  UNL     1     -28.698  -2.541  -4.272  1.00  0.00    -0.202 N 
HETATM   11  C14 UNL     1     -27.430  -2.059  -4.284  1.00  0.00     0.108 A 
ATOM     12  H3  UNL     1     -28.861  -3.542  -4.167  1.00  0.00     0.183 HD
HETATM   13  C13 UNL     1     -27.216  -0.707  -4.426  1.00  0.00     0.050 A 
BRANCH   8  14
HETATM   14  N1  UNL     1     -30.951  -2.136  -4.391  1.00  0.00    -0.234 N 
ATOM     15  H12 UNL     1     -31.291  -2.763  -3.662  1.00  0.00     0.174 HD
ATOM     16  H11 UNL     1     -31.574  -1.833  -5.140  1.00  0.00     0.174 HD
ENDBRANCH   8  14
ENDBRANCH   1   6
BRANCH   4  17
HETATM   17  C7  UNL     1     -25.996   4.504  -4.841  1.00  0.00     0.001 A 
HETATM   18  C8  UNL     1     -26.262   5.824  -4.546  1.00  0.00     0.014 A 
HETATM   19  C9  UNL     1     -25.288   6.801  -4.557  1.00  0.00     0.004 A 
HETATM   20  C10 UNL     1     -23.976   6.474  -4.874  1.00  0.00     0.042 A 
HETATM   21  C11 UNL     1     -23.716   5.154  -5.169  1.00  0.00     0.117 A 
HETATM   22  F1  UNL     1     -22.421   4.833  -5.482  1.00  0.00    -0.206 F 
HETATM   23  C12 UNL     1     -24.699   4.182  -5.155  1.00  0.00     0.056 A 
ENDBRANCH   4  17
TORSDOF 3
ENDMDL
MODEL 2
REMARK VINA RESULT: -7.600715791      1.119      1.555
REMARK  3 active torsions:
REMARK  status: ('A' for Active; 'I' for Inactive)
REMARK    1  A    between atoms: N1_1  and  C1_4 
REMARK    2  A    between atoms: C2_7  and  C3_8 
REMARK    3  A    between atoms: C6_11  and  C7_12 
ROOT
HETATM    1  C3  UNL     1     -28.067   1.636  -4.721  1.00  0.00     0.103 A 
HETATM    2  C4  UNL     1     -29.052   2.550  -4.953  1.00  0.00     0.042 A 
HETATM    3  C5  UNL     1     -28.409   3.779  -5.036  1.00  0.00     0.041 A 
HETATM    4  C6  UNL     1     -27.064   3.555  -4.850  1.00  0.00     0.086 A 
HETATM    5  O1  UNL     1     -26.927   2.276  -4.670  1.00  0.00    -0.308 OA
ENDROOT
BRANCH   1   6
HETATM    6  C2  UNL     1     -28.244   0.169  -4.553  1.00  0.00     0.084 A 
HETATM    7  N2  UNL     1     -29.468  -0.373  -4.543  1.00  0.00    -0.189 N 
HETATM    8  C1  UNL     1     -29.646  -1.681  -4.393  1.00  0.00     0.676 A 
ATOM      9  H2  UNL     1     -30.282   0.232  -4.652  1.00  0.00     0.184 HD
HETATM   10  N3  UNL     1     -28.594  -2.491  -4.249  1.00  0.00    -0.202 N 
HETATM   11  C14 UNL     1     -27.337  -1.981  -4.254  1.00  0.00     0.108 A 
ATOM     12  H3  UNL     1     -28.736  -3.495  -4.135  1.00  0.00     0.183 HD
HETATM   13  C13 UNL     1     -27.150  -0.627  -4.408  1.00  0.00     0.050 A 
BRANCH   8  14
HETATM   14  N1  UNL     1     -30.853  -2.137  -4.392  1.00  0.00    -0.234 N 
ATOM     15  H12 UNL     1     -31.284  -2.508  -5.239  1.00  0.00     0.174 HD
ATOM     16  H11 UNL     1     -31.376  -2.117  -3.516  1.00  0.00     0.174 HD
ENDBRANCH   8  14
ENDBRANCH   1   6
BRANCH   4  17
HETATM   17  C7  UNL     1     -26.040   4.605  -4.865  1.00  0.00     0.001 A 
HETATM   18  C8  UNL     1     -24.725   4.340  -5.179  1.00  0.00     0.014 A 
HETATM   19  C9  UNL     1     -23.751   5.317  -5.197  1.00  0.00     0.004 A 
HETATM   20  C10 UNL     1     -24.077   6.632  -4.892  1.00  0.00     0.042 A 
HETATM   21  C11 UNL     1     -25.393   6.892  -4.579  1.00  0.00     0.117 A 
HETATM   22  F1  UNL     1     -25.714   8.190  -4.278  1.00  0.00    -0.206 F 
HETATM   23  C12 UNL     1     -26.362   5.906  -4.563  1.00  0.00     0.056 A 
ENDBRANCH   4  17
TORSDOF 3
ENDMDL
MODEL 3
REMARK VINA RESULT: -7.554810812      1.715      2.359
REMARK  3 active torsions:
REMARK  status: ('A' for Active; 'I' for Inactive)
REMARK    1  A    between atoms: N1_1  and  C1_4 
REMARK    2  A    between atoms: C2_7  and  C3_8 
REMARK    3  A    between atoms: C6_11  and  C7_12 
ROOT
HETATM    1  C3  UNL     1     -26.846   0.725  -4.515  1.00  0.00     0.103 A 
HETATM    2  C4  UNL     1     -25.566   0.371  -4.201  1.00  0.00     0.042 A 
HETATM    3  C5  UNL     1     -24.823   1.541  -4.291  1.00  0.00     0.041 A 
HETATM    4  C6  UNL     1     -25.684   2.551  -4.656  1.00  0.00     0.086 A 
HETATM    5  O1  UNL     1     -26.858   2.008  -4.772  1.00  0.00    -0.308 OA
ENDROOT
BRANCH   1   6
HETATM    6  C2  UNL     1     -28.026  -0.179  -4.561  1.00  0.00     0.084 A 
HETATM    7  N2  UNL     1     -29.062   0.093  -5.364  1.00  0.00    -0.189 N 
HETATM    8  C1  UNL     1     -30.125  -0.702  -5.418  1.00  0.00     0.676 A 
ATOM      9  H2  UNL     1     -29.034   0.929  -5.948  1.00  0.00     0.184 HD
HETATM   10  N3  UNL     1     -30.181  -1.802  -4.664  1.00  0.00    -0.202 N 
HETATM   11  C14 UNL     1     -29.152  -2.114  -3.837  1.00  0.00     0.108 A 
ATOM     12  H3  UNL     1     -30.999  -2.410  -4.709  1.00  0.00     0.183 HD
HETATM   13  C13 UNL     1     -28.050  -1.292  -3.779  1.00  0.00     0.050 A 
BRANCH   8  14
HETATM   14  N1  UNL     1     -31.088  -0.379  -6.214  1.00  0.00    -0.234 N 
ATOM     15  H12 UNL     1     -30.910   0.059  -7.118  1.00  0.00     0.174 HD
ATOM     16  H11 UNL     1     -32.045  -0.574  -5.918  1.00  0.00     0.174 HD
ENDBRANCH   8  14
ENDBRANCH   1   6
BRANCH   4  17
HETATM   17  C7  UNL     1     -25.285   3.948  -4.856  1.00  0.00     0.001 A 
HETATM   18  C8  UNL     1     -23.996   4.300  -5.196  1.00  0.00     0.014 A 
HETATM   19  C9  UNL     1     -23.606   5.609  -5.387  1.00  0.00     0.004 A 
HETATM   20  C10 UNL     1     -24.526   6.639  -5.237  1.00  0.00     0.042 A 
HETATM   21  C11 UNL     1     -25.812   6.283  -4.896  1.00  0.00     0.117 A 
HETATM   22  F1  UNL     1     -26.718   7.300  -4.749  1.00  0.00    -0.206 F 
HETATM   23  C12 UNL     1     -26.193   4.967  -4.707  1.00  0.00     0.056 A 
ENDBRANCH   4  17
TORSDOF 3
ENDMDL
MODEL 4
REMARK VINA RESULT: -7.468158466      1.651      2.367
REMARK  3 active torsions:
REMARK  status: ('A' for Active; 'I' for Inactive)
REMARK    1  A    between atoms: N1_1  and  C1_4 
REMARK    2  A    between atoms: C2_7  and  C3_8 
REMARK    3  A    between atoms: C6_11  and  C7_12 
ROOT
HETATM    1  C3  UNL     1     -27.529   1.046  -4.311  1.00  0.00     0.103 A 
HETATM    2  C4  UNL     1     -26.642   0.827  -3.299  1.00  0.00     0.042 A 
HETATM    3  C5  UNL     1     -25.790   1.924  -3.305  1.00  0.00     0.041 A 
HETATM    4  C6  UNL     1     -26.198   2.758  -4.321  1.00  0.00     0.086 A 
HETATM    5  O1  UNL     1     -27.225   2.187  -4.874  1.00  0.00    -0.308 OA
ENDROOT
BRANCH   1   6
HETATM    6  C2  UNL     1     -28.649   0.153  -4.714  1.00  0.00     0.084 A 
HETATM    7  N2  UNL     1     -28.840  -1.020  -4.099  1.00  0.00    -0.189 N 
HETATM    8  C1  UNL     1     -29.834  -1.830  -4.445  1.00  0.00     0.676 A 
ATOM      9  H2  UNL     1     -28.209  -1.298  -3.347  1.00  0.00     0.184 HD
HETATM   10  N3  UNL     1     -30.673  -1.485  -5.425  1.00  0.00    -0.202 N 
HETATM   11  C14 UNL     1     -30.514  -0.305  -6.074  1.00  0.00     0.108 A 
ATOM     12  H3  UNL     1     -31.435  -2.111  -5.687  1.00  0.00     0.183 HD
HETATM   13  C13 UNL     1     -29.485   0.536  -5.716  1.00  0.00     0.050 A 
BRANCH   8  14
HETATM   14  N1  UNL     1     -29.961  -2.947  -3.810  1.00  0.00    -0.234 N 
ATOM     15  H12 UNL     1     -29.992  -2.982  -2.791  1.00  0.00     0.174 HD
ATOM     16  H11 UNL     1     -30.028  -3.807  -4.356  1.00  0.00     0.174 HD
ENDBRANCH   8  14
ENDBRANCH   1   6
BRANCH   4  17
HETATM   17  C7  UNL     1     -25.552   4.032  -4.656  1.00  0.00     0.001 A 
HETATM   18  C8  UNL     1     -24.254   4.096  -5.114  1.00  0.00     0.014 A 
HETATM   19  C9  UNL     1     -23.633   5.286  -5.433  1.00  0.00     0.004 A 
HETATM   20  C10 UNL     1     -24.318   6.487  -5.297  1.00  0.00     0.042 A 
HETATM   21  C11 UNL     1     -25.614   6.418  -4.838  1.00  0.00     0.117 A 
HETATM   22  F1  UNL     1     -26.288   7.603  -4.704  1.00  0.00    -0.206 F 
HETATM   23  C12 UNL     1     -26.228   5.219  -4.521  1.00  0.00     0.056 A 
ENDBRANCH   4  17
TORSDOF 3
ENDMDL
MODEL 5
REMARK VINA RESULT: -7.271562813      4.042      7.309
REMARK  3 active torsions:
REMARK  status: ('A' for Active; 'I' for Inactive)
REMARK    1  A    between atoms: N1_1  and  C1_4 
REMARK    2  A    between atoms: C2_7  and  C3_8 
REMARK    3  A    between atoms: C6_11  and  C7_12 
ROOT
HETATM    1  C3  UNL     1     -25.593   2.159  -4.684  1.00  0.00     0.103 A 
HETATM    2  C4  UNL     1     -24.844   1.083  -4.307  1.00  0.00     0.042 A 
HETATM    3  C5  UNL     1     -25.729   0.015  -4.243  1.00  0.00     0.041 A 
HETATM    4  C6  UNL     1     -26.975   0.490  -4.583  1.00  0.00     0.086 A 
HETATM    5  O1  UNL     1     -26.830   1.757  -4.832  1.00  0.00    -0.308 OA
ENDROOT
BRANCH   1   6
HETATM    6  C2  UNL     1     -25.104   3.547  -4.893  1.00  0.00     0.084 A 
HETATM    7  N2  UNL     1     -25.930   4.590  -4.747  1.00  0.00    -0.189 N 
HETATM    8  C1  UNL     1     -25.511   5.838  -4.930  1.00  0.00     0.676 A 
ATOM      9  H2  UNL     1     -26.903   4.424  -4.489  1.00  0.00     0.184 HD
HETATM   10  N3  UNL     1     -24.241   6.078  -5.267  1.00  0.00    -0.202 N 
HETATM   11  C14 UNL     1     -23.372   5.049  -5.425  1.00  0.00     0.108 A 
ATOM     12  H3  UNL     1     -23.925   7.038  -5.406  1.00  0.00     0.183 HD
HETATM   13  C13 UNL     1     -23.804   3.757  -5.236  1.00  0.00     0.050 A 
BRANCH   8  14
HETATM   14  N1  UNL     1     -26.361   6.796  -4.773  1.00  0.00    -0.234 N 
ATOM     15  H12 UNL     1     -27.236   6.657  -4.268  1.00  0.00     0.174 HD
ATOM     16  H11 UNL     1     -26.137   7.709  -5.171  1.00  0.00     0.174 HD
ENDBRANCH   8  14
ENDBRANCH   1   6
BRANCH   4  17
HETATM   17  C7  UNL     1     -28.189  -0.332  -4.636  1.00  0.00     0.001 A 
HETATM   18  C8  UNL     1     -28.345  -1.458  -3.856  1.00  0.00     0.014 A 
HETATM   19  C9  UNL     1     -29.480  -2.241  -3.895  1.00  0.00     0.004 A 
HETATM   20  C10 UNL     1     -30.527  -1.908  -4.745  1.00  0.00     0.042 A 
HETATM   21  C11 UNL     1     -30.367  -0.782  -5.522  1.00  0.00     0.117 A 
HETATM   22  F1  UNL     1     -31.401  -0.455  -6.359  1.00  0.00    -0.206 F 
HETATM   23  C12 UNL     1     -29.225  -0.004  -5.475  1.00  0.00     0.056 A 
ENDBRANCH   4  17
TORSDOF 3
ENDMDL
