MODEL 1
REMARK VINA RESULT: -7.484783839      0.000      0.000
REMARK  5 active torsions:
REMARK  status: ('A' for Active; 'I' for Inactive)
REMARK    1  A    between atoms: C2_2  and  C3_6 
REMARK    2  A    between atoms: C4_7  and  C5_8 
REMARK    3  A    between atoms: C7_11  and  C8_12 
REMARK    4  A    between atoms: C8_12  and  N3_13 
REMARK    5  A    between atoms: N3_13  and  C9_16 
ROOT
HETATM    1  C5  UNL     1      69.195  36.042   1.641  1.00  0.00     0.480 C 
HETATM    2  N2  UNL     1      68.654  36.343   0.357  1.00  0.00     0.130 N 
HETATM    3  C6  UNL     1      68.246  37.708   0.186  1.00  0.00     0.314 C 
HETATM    4  C7  UNL     1      69.708  36.080  -0.620  1.00  0.00     0.284 C 
HETATM    5  C19 UNL     1      70.810  35.428   0.178  1.00  0.00     0.261 C 
HETATM    6  C20 UNL     1      70.616  33.967   0.426  1.00  0.00     0.040 C 
HETATM    7  C21 UNL     1      71.363  33.749   1.724  1.00  0.00     0.033 C 
HETATM    8  C22 UNL     1      71.219  35.056   2.448  1.00  0.00     0.276 C 
HETATM    9  N4  UNL     1      70.639  35.999   1.494  1.00  0.00     0.133 N 
ENDROOT
BRANCH   4  10
HETATM   10  C8  UNL     1      69.113  35.154  -1.663  1.00  0.00     0.271 C 
BRANCH  10  11
HETATM   11  N3  UNL     1      69.180  35.820  -2.932  1.00  0.00    -0.064 N 
ATOM     12  H32 UNL     1      69.925  36.517  -2.929  1.00  0.00     0.278 HD
ATOM     13  H31 UNL     1      69.537  35.186  -3.647  1.00  0.00     0.278 HD
BRANCH  11  14
HETATM   14  C9  UNL     1      67.937  36.417  -3.365  1.00  0.00     0.127 C 
HETATM   15  C10 UNL     1      67.703  36.073  -4.843  1.00  0.00     0.043 C 
HETATM   16  C11 UNL     1      66.466  36.773  -5.314  1.00  0.00    -0.012 C 
HETATM   17  C12 UNL     1      65.265  36.267  -4.538  1.00  0.00     0.009 C 
HETATM   18  C16 UNL     1      66.602  38.248  -5.150  1.00  0.00     0.009 C 
HETATM   19  C13 UNL     1      65.500  36.549  -3.079  1.00  0.00    -0.012 C 
HETATM   20  C14 UNL     1      65.627  38.040  -2.855  1.00  0.00     0.009 C 
HETATM   21  C18 UNL     1      66.743  35.850  -2.640  1.00  0.00     0.043 C 
HETATM   22  C15 UNL     1      66.771  38.559  -3.670  1.00  0.00    -0.012 C 
HETATM   23  C17 UNL     1      68.052  37.897  -3.238  1.00  0.00     0.043 C 
ENDBRANCH  11  14
ENDBRANCH  10  11
ENDBRANCH   4  10
BRANCH   1  24
HETATM   24  C4  UNL     1      68.737  36.878   2.747  1.00  0.00     0.042 C 
HETATM   25  C3  UNL     1      67.589  36.614   3.334  1.00  0.00     0.024 C 
BRANCH  25  26
HETATM   26  C2  UNL     1      67.133  37.453   4.444  1.00  0.00    -0.002 C 
HETATM   27  C1  UNL     1      65.791  38.075   4.364  1.00  0.00     0.067 C 
HETATM   28  N1  UNL     1      67.923  37.634   5.444  1.00  0.00    -0.403 N 
ATOM     29  H12 UNL     1      67.605  38.218   6.217  1.00  0.00     0.156 HD
ATOM     30  H11 UNL     1      68.847  37.205   5.500  1.00  0.00     0.156 HD
ENDBRANCH  25  26
ENDBRANCH   1  24
TORSDOF 5
ENDMDL
MODEL 2
REMARK VINA RESULT: -7.458713780      0.099      1.473
REMARK  5 active torsions:
REMARK  status: ('A' for Active; 'I' for Inactive)
REMARK    1  A    between atoms: C2_2  and  C3_6 
REMARK    2  A    between atoms: C4_7  and  C5_8 
REMARK    3  A    between atoms: C7_11  and  C8_12 
REMARK    4  A    between atoms: C8_12  and  N3_13 
REMARK    5  A    between atoms: N3_13  and  C9_16 
ROOT
HETATM    1  C5  UNL     1      69.156  36.071   1.604  1.00  0.00     0.480 C 
HETATM    2  N2  UNL     1      68.622  36.394   0.323  1.00  0.00     0.130 N 
HETATM    3  C6  UNL     1      68.237  37.768   0.167  1.00  0.00     0.314 C 
HETATM    4  C7  UNL     1      69.671  36.123  -0.656  1.00  0.00     0.284 C 
HETATM    5  C19 UNL     1      70.761  35.443   0.135  1.00  0.00     0.261 C 
HETATM    6  C20 UNL     1      70.541  33.984   0.368  1.00  0.00     0.040 C 
HETATM    7  C21 UNL     1      71.284  33.739   1.663  1.00  0.00     0.033 C 
HETATM    8  C22 UNL     1      71.162  35.041   2.401  1.00  0.00     0.276 C 
HETATM    9  N4  UNL     1      70.599  36.004   1.457  1.00  0.00     0.133 N 
ENDROOT
BRANCH   4  10
HETATM   10  C8  UNL     1      69.060  35.219  -1.709  1.00  0.00     0.271 C 
BRANCH  10  11
HETATM   11  N3  UNL     1      69.176  35.880  -2.977  1.00  0.00    -0.064 N 
ATOM     12  H32 UNL     1      69.918  36.580  -2.947  1.00  0.00     0.278 HD
ATOM     13  H31 UNL     1      69.563  35.244  -3.674  1.00  0.00     0.278 HD
BRANCH  11  14
HETATM   14  C9  UNL     1      67.949  36.470  -3.463  1.00  0.00     0.127 C 
HETATM   15  C10 UNL     1      67.998  37.988  -3.235  1.00  0.00     0.043 C 
HETATM   16  C11 UNL     1      66.688  38.583  -3.647  1.00  0.00    -0.012 C 
HETATM   17  C12 UNL     1      66.468  38.356  -5.131  1.00  0.00     0.009 C 
HETATM   18  C16 UNL     1      65.569  37.987  -2.864  1.00  0.00     0.009 C 
HETATM   19  C13 UNL     1      66.469  36.874  -5.382  1.00  0.00    -0.012 C 
HETATM   20  C14 UNL     1      65.336  36.220  -4.622  1.00  0.00     0.009 C 
HETATM   21  C18 UNL     1      67.780  36.305  -4.951  1.00  0.00     0.043 C 
HETATM   22  C15 UNL     1      65.510  36.495  -3.159  1.00  0.00    -0.012 C 
HETATM   23  C17 UNL     1      66.811  35.912  -2.678  1.00  0.00     0.043 C 
ENDBRANCH  11  14
ENDBRANCH  10  11
ENDBRANCH   4  10
BRANCH   1  24
HETATM   24  C4  UNL     1      68.713  36.903   2.720  1.00  0.00     0.042 C 
HETATM   25  C3  UNL     1      67.583  36.623   3.334  1.00  0.00     0.024 C 
BRANCH  25  26
HETATM   26  C2  UNL     1      67.142  37.459   4.453  1.00  0.00    -0.002 C 
HETATM   27  C1  UNL     1      65.811  38.106   4.378  1.00  0.00     0.067 C 
HETATM   28  N1  UNL     1      67.934  37.614   5.455  1.00  0.00    -0.403 N 
ATOM     29  H12 UNL     1      67.627  38.196   6.234  1.00  0.00     0.156 HD
ATOM     30  H11 UNL     1      68.850  37.168   5.507  1.00  0.00     0.156 HD
ENDBRANCH  25  26
ENDBRANCH   1  24
TORSDOF 5
ENDMDL
MODEL 3
REMARK VINA RESULT: -7.414081878      2.930      4.870
REMARK  5 active torsions:
REMARK  status: ('A' for Active; 'I' for Inactive)
REMARK    1  A    between atoms: C2_2  and  C3_6 
REMARK    2  A    between atoms: C4_7  and  C5_8 
REMARK    3  A    between atoms: C7_11  and  C8_12 
REMARK    4  A    between atoms: C8_12  and  N3_13 
REMARK    5  A    between atoms: N3_13  and  C9_16 
ROOT
HETATM    1  C5  UNL     1      67.589  36.619   0.957  1.00  0.00     0.480 C 
HETATM    2  N2  UNL     1      68.945  36.563   0.521  1.00  0.00     0.130 N 
HETATM    3  C6  UNL     1      69.790  35.711   1.309  1.00  0.00     0.314 C 
HETATM    4  C7  UNL     1      68.934  36.026  -0.837  1.00  0.00     0.284 C 
HETATM    5  C19 UNL     1      67.472  35.968  -1.209  1.00  0.00     0.261 C 
HETATM    6  C20 UNL     1      66.897  37.267  -1.670  1.00  0.00     0.040 C 
HETATM    7  C21 UNL     1      65.437  37.135  -1.294  1.00  0.00     0.033 C 
HETATM    8  C22 UNL     1      65.457  36.270  -0.068  1.00  0.00     0.276 C 
HETATM    9  N4  UNL     1      66.822  35.767   0.066  1.00  0.00     0.133 N 
ENDROOT
BRANCH   4  10
HETATM   10  C8  UNL     1      69.718  36.999  -1.696  1.00  0.00     0.271 C 
BRANCH  10  11
HETATM   11  N3  UNL     1      71.113  36.790  -1.436  1.00  0.00    -0.064 N 
ATOM     12  H32 UNL     1      71.533  37.634  -1.046  1.00  0.00     0.278 HD
ATOM     13  H31 UNL     1      71.236  36.153  -0.649  1.00  0.00     0.278 HD
BRANCH  11  14
HETATM   14  C9  UNL     1      71.875  36.331  -2.575  1.00  0.00     0.127 C 
HETATM   15  C10 UNL     1      73.001  35.407  -2.088  1.00  0.00     0.043 C 
HETATM   16  C11 UNL     1      73.846  35.014  -3.259  1.00  0.00    -0.012 C 
HETATM   17  C12 UNL     1      73.012  34.224  -4.250  1.00  0.00     0.009 C 
HETATM   18  C16 UNL     1      74.426  36.218  -3.918  1.00  0.00     0.009 C 
HETATM   19  C13 UNL     1      71.872  35.097  -4.700  1.00  0.00    -0.012 C 
HETATM   20  C14 UNL     1      72.408  36.329  -5.395  1.00  0.00     0.009 C 
HETATM   21  C18 UNL     1      71.055  35.484  -3.514  1.00  0.00     0.043 C 
HETATM   22  C15 UNL     1      73.288  37.081  -4.442  1.00  0.00    -0.012 C 
HETATM   23  C17 UNL     1      72.491  37.514  -3.241  1.00  0.00     0.043 C 
ENDBRANCH  11  14
ENDBRANCH  10  11
ENDBRANCH   4  10
BRANCH   1  24
HETATM   24  C4  UNL     1      67.353  36.359   2.374  1.00  0.00     0.042 C 
HETATM   25  C3  UNL     1      67.501  37.330   3.250  1.00  0.00     0.024 C 
BRANCH  25  26
HETATM   26  C2  UNL     1      67.262  37.065   4.671  1.00  0.00    -0.002 C 
HETATM   27  C1  UNL     1      66.238  36.064   5.048  1.00  0.00     0.067 C 
HETATM   28  N1  UNL     1      67.942  37.726   5.542  1.00  0.00    -0.403 N 
ATOM     29  H12 UNL     1      67.775  37.541   6.532  1.00  0.00     0.156 HD
ATOM     30  H11 UNL     1      68.648  38.415   5.283  1.00  0.00     0.156 HD
ENDBRANCH  25  26
ENDBRANCH   1  24
TORSDOF 5
ENDMDL
MODEL 4
REMARK VINA RESULT: -7.405359043      2.870      4.909
REMARK  5 active torsions:
REMARK  status: ('A' for Active; 'I' for Inactive)
REMARK    1  A    between atoms: C2_2  and  C3_6 
REMARK    2  A    between atoms: C4_7  and  C5_8 
REMARK    3  A    between atoms: C7_11  and  C8_12 
REMARK    4  A    between atoms: C8_12  and  N3_13 
REMARK    5  A    between atoms: N3_13  and  C9_16 
ROOT
HETATM    1  C5  UNL     1      67.492  36.637   0.910  1.00  0.00     0.480 C 
HETATM    2  N2  UNL     1      68.839  36.644   0.447  1.00  0.00     0.130 N 
HETATM    3  C6  UNL     1      69.739  35.833   1.217  1.00  0.00     0.314 C 
HETATM    4  C7  UNL     1      68.826  36.106  -0.910  1.00  0.00     0.284 C 
HETATM    5  C19 UNL     1      67.361  35.979  -1.252  1.00  0.00     0.261 C 
HETATM    6  C20 UNL     1      66.716  37.249  -1.703  1.00  0.00     0.040 C 
HETATM    7  C21 UNL     1      65.272  37.049  -1.297  1.00  0.00     0.033 C 
HETATM    8  C22 UNL     1      65.357  36.188  -0.071  1.00  0.00     0.276 C 
HETATM    9  N4  UNL     1      66.747  35.749   0.035  1.00  0.00     0.133 N 
ENDROOT
BRANCH   4  10
HETATM   10  C8  UNL     1      69.546  37.114  -1.785  1.00  0.00     0.271 C 
BRANCH  10  11
HETATM   11  N3  UNL     1      70.945  37.045  -1.474  1.00  0.00    -0.064 N 
ATOM     12  H32 UNL     1      71.285  37.955  -1.162  1.00  0.00     0.278 HD
ATOM     13  H31 UNL     1      71.094  36.501  -0.625  1.00  0.00     0.278 HD
BRANCH  11  14
HETATM   14  C9  UNL     1      71.775  36.541  -2.545  1.00  0.00     0.127 C 
HETATM   15  C10 UNL     1      70.894  35.785  -3.550  1.00  0.00     0.043 C 
HETATM   16  C11 UNL     1      71.769  35.181  -4.604  1.00  0.00    -0.012 C 
HETATM   17  C12 UNL     1      72.482  36.281  -5.368  1.00  0.00     0.009 C 
HETATM   18  C16 UNL     1      72.761  34.251  -3.996  1.00  0.00     0.009 C 
HETATM   19  C13 UNL     1      73.311  37.067  -4.390  1.00  0.00    -0.012 C 
HETATM   20  C14 UNL     1      74.350  36.169  -3.755  1.00  0.00     0.009 C 
HETATM   21  C18 UNL     1      72.417  37.646  -3.345  1.00  0.00     0.043 C 
HETATM   22  C15 UNL     1      73.656  35.042  -3.054  1.00  0.00    -0.012 C 
HETATM   23  C17 UNL     1      72.763  35.585  -1.970  1.00  0.00     0.043 C 
ENDBRANCH  11  14
ENDBRANCH  10  11
ENDBRANCH   4  10
BRANCH   1  24
HETATM   24  C4  UNL     1      67.297  36.367   2.332  1.00  0.00     0.042 C 
HETATM   25  C3  UNL     1      67.445  37.339   3.208  1.00  0.00     0.024 C 
BRANCH  25  26
HETATM   26  C2  UNL     1      67.248  37.066   4.633  1.00  0.00    -0.002 C 
HETATM   27  C1  UNL     1      66.235  36.061   5.032  1.00  0.00     0.067 C 
HETATM   28  N1  UNL     1      67.952  37.721   5.488  1.00  0.00    -0.403 N 
ATOM     29  H12 UNL     1      67.814  37.530   6.481  1.00  0.00     0.156 HD
ATOM     30  H11 UNL     1      68.649  38.412   5.213  1.00  0.00     0.156 HD
ENDBRANCH  25  26
ENDBRANCH   1  24
TORSDOF 5
ENDMDL
MODEL 5
REMARK VINA RESULT: -7.401406898      2.950      4.965
REMARK  5 active torsions:
REMARK  status: ('A' for Active; 'I' for Inactive)
REMARK    1  A    between atoms: C2_2  and  C3_6 
REMARK    2  A    between atoms: C4_7  and  C5_8 
REMARK    3  A    between atoms: C7_11  and  C8_12 
REMARK    4  A    between atoms: C8_12  and  N3_13 
REMARK    5  A    between atoms: N3_13  and  C9_16 
ROOT
HETATM    1  C5  UNL     1      67.659  36.632   0.952  1.00  0.00     0.480 C 
HETATM    2  N2  UNL     1      69.018  36.538   0.535  1.00  0.00     0.130 N 
HETATM    3  C6  UNL     1      69.827  35.658   1.329  1.00  0.00     0.314 C 
HETATM    4  C7  UNL     1      69.009  36.006  -0.826  1.00  0.00     0.284 C 
HETATM    5  C19 UNL     1      67.552  35.992  -1.217  1.00  0.00     0.261 C 
HETATM    6  C20 UNL     1      67.021  37.308  -1.681  1.00  0.00     0.040 C 
HETATM    7  C21 UNL     1      65.552  37.218  -1.324  1.00  0.00     0.033 C 
HETATM    8  C22 UNL     1      65.531  36.349  -0.101  1.00  0.00     0.276 C 
HETATM    9  N4  UNL     1      66.880  35.805   0.048  1.00  0.00     0.133 N 
ENDROOT
BRANCH   4  10
HETATM   10  C8  UNL     1      69.833  36.959  -1.670  1.00  0.00     0.271 C 
BRANCH  10  11
HETATM   11  N3  UNL     1      71.218  36.720  -1.380  1.00  0.00    -0.064 N 
ATOM     12  H32 UNL     1      71.640  37.548  -0.959  1.00  0.00     0.278 HD
ATOM     13  H31 UNL     1      71.309  36.063  -0.605  1.00  0.00     0.278 HD
BRANCH  11  14
HETATM   14  C9  UNL     1      72.002  36.277  -2.510  1.00  0.00     0.127 C 
HETATM   15  C10 UNL     1      72.571  37.503  -3.238  1.00  0.00     0.043 C 
HETATM   16  C11 UNL     1      73.300  37.045  -4.463  1.00  0.00    -0.012 C 
HETATM   17  C12 UNL     1      74.475  36.173  -4.063  1.00  0.00     0.009 C 
HETATM   18  C16 UNL     1      72.386  36.294  -5.369  1.00  0.00     0.009 C 
HETATM   19  C13 UNL     1      73.940  34.991  -3.302  1.00  0.00    -0.012 C 
HETATM   20  C14 UNL     1      73.017  34.181  -4.186  1.00  0.00     0.009 C 
HETATM   21  C18 UNL     1      73.209  35.476  -2.095  1.00  0.00     0.043 C 
HETATM   22  C15 UNL     1      71.888  35.055  -4.640  1.00  0.00    -0.012 C 
HETATM   23  C17 UNL     1      71.107  35.544  -3.450  1.00  0.00     0.043 C 
ENDBRANCH  11  14
ENDBRANCH  10  11
ENDBRANCH   4  10
BRANCH   1  24
HETATM   24  C4  UNL     1      67.397  36.373   2.366  1.00  0.00     0.042 C 
HETATM   25  C3  UNL     1      67.544  37.341   3.245  1.00  0.00     0.024 C 
BRANCH  25  26
HETATM   26  C2  UNL     1      67.279  37.079   4.662  1.00  0.00    -0.002 C 
HETATM   27  C1  UNL     1      66.233  36.094   5.021  1.00  0.00     0.067 C 
HETATM   28  N1  UNL     1      67.955  37.727   5.544  1.00  0.00    -0.403 N 
ATOM     29  H12 UNL     1      67.770  37.544   6.531  1.00  0.00     0.156 HD
ATOM     30  H11 UNL     1      68.676  38.406   5.297  1.00  0.00     0.156 HD
ENDBRANCH  25  26
ENDBRANCH   1  24
TORSDOF 5
ENDMDL
