MODEL 1
REMARK VINA RESULT: -8.348699146      0.000      0.000
REMARK  5 active torsions:
REMARK  status: ('A' for Active; 'I' for Inactive)
REMARK    1  A    between atoms: C2_2  and  C4_4 
REMARK    2  A    between atoms: C11_11  and  C13_13 
REMARK    3  A    between atoms: C13_13  and  C15_15 
REMARK    4  A    between atoms: C15_15  and  C17_17 
REMARK       I    between atoms: C17_17  and  N1_19 
REMARK    5  A    between atoms: N1_19  and  C18_21 
ROOT
HETATM    1  C13 UNL     1      67.304  35.692  -2.877  1.00  0.00     0.003 C 
HETATM    2  C14 UNL     1      66.085  35.568  -3.803  1.00  0.00     0.011 C 
ENDROOT
BRANCH   1   3
HETATM    3  C11 UNL     1      66.985  36.641  -1.795  1.00  0.00    -0.036 C 
HETATM    4  C7  UNL     1      67.213  36.307  -0.400  1.00  0.00    -0.002 C 
HETATM    5  C6  UNL     1      65.957  36.054   0.423  1.00  0.00     0.006 C 
HETATM    6  C8  UNL     1      67.744  37.622   0.205  1.00  0.00    -0.009 C 
HETATM    7  C5  UNL     1      66.306  35.903   1.887  1.00  0.00     0.009 C 
HETATM    8  C4  UNL     1      67.013  37.117   2.431  1.00  0.00     0.014 C 
HETATM    9  C19 UNL     1      68.242  37.362   1.581  1.00  0.00     0.014 C 
HETATM   10  C9  UNL     1      68.736  38.024  -0.811  1.00  0.00     0.006 C 
HETATM   11  C10 UNL     1      67.909  37.851  -2.069  1.00  0.00     0.010 C 
HETATM   12  C12 UNL     1      65.575  37.182  -2.058  1.00  0.00     0.016 C 
BRANCH   8  13
HETATM   13  C2  UNL     1      67.346  36.888   3.853  1.00  0.00    -0.089 C 
HETATM   14  C1  UNL     1      68.582  37.163   4.257  1.00  0.00     0.014 C 
HETATM   15  C3  UNL     1      66.384  36.371   4.848  1.00  0.00     0.043 C 
ENDBRANCH   8  13
ENDBRANCH   1   3
BRANCH   1  16
HETATM   16  C15 UNL     1      67.793  34.332  -2.595  1.00  0.00     0.079 C 
HETATM   17  C16 UNL     1      67.869  33.521  -3.940  1.00  0.00     0.020 C 
BRANCH  16  18
HETATM   18  C17 UNL     1      69.267  34.396  -2.258  1.00  0.00     0.240 C 
HETATM   19  O1  UNL     1      70.083  35.076  -2.901  1.00  0.00    -0.272 OA
HETATM   20  N1  UNL     1      69.708  33.636  -1.148  1.00  0.00    -0.157 N 
ATOM     21  H1  UNL     1      69.594  32.623  -1.163  1.00  0.00     0.187 HD
BRANCH  20  22
HETATM   22  C18 UNL     1      70.249  34.190  -0.118  1.00  0.00     0.710 A 
HETATM   23  N2  UNL     1      70.971  35.340  -0.082  1.00  0.00    -0.117 N 
HETATM   24  N3  UNL     1      71.326  35.524   1.187  1.00  0.00     0.006 NA
ATOM     25  H2  UNL     1      71.196  35.944  -0.872  1.00  0.00     0.202 HD
HETATM   26  N4  UNL     1      70.838  34.515   1.917  1.00  0.00     0.006 NA
HETATM   27  N5  UNL     1      70.173  33.688   1.127  1.00  0.00    -0.117 N 
ATOM     28  H5  UNL     1      69.695  32.833   1.409  1.00  0.00     0.202 HD
ENDBRANCH  20  22
ENDBRANCH  16  18
ENDBRANCH   1  16
TORSDOF 5
ENDMDL
MODEL 2
REMARK VINA RESULT: -8.220609216      1.880      2.787
REMARK  5 active torsions:
REMARK  status: ('A' for Active; 'I' for Inactive)
REMARK    1  A    between atoms: C2_2  and  C4_4 
REMARK    2  A    between atoms: C11_11  and  C13_13 
REMARK    3  A    between atoms: C13_13  and  C15_15 
REMARK    4  A    between atoms: C15_15  and  C17_17 
REMARK       I    between atoms: C17_17  and  N1_19 
REMARK    5  A    between atoms: N1_19  and  C18_21 
ROOT
HETATM    1  C13 UNL     1      67.525  37.195  -2.476  1.00  0.00     0.003 C 
HETATM    2  C14 UNL     1      66.375  37.112  -3.491  1.00  0.00     0.011 C 
ENDROOT
BRANCH   1   3
HETATM    3  C11 UNL     1      67.202  36.341  -1.319  1.00  0.00    -0.036 C 
HETATM    4  C7  UNL     1      67.040  36.896   0.013  1.00  0.00    -0.002 C 
HETATM    5  C6  UNL     1      68.159  36.573   0.995  1.00  0.00     0.006 C 
HETATM    6  C8  UNL     1      65.853  36.103   0.594  1.00  0.00    -0.009 C 
HETATM    7  C5  UNL     1      67.793  37.039   2.386  1.00  0.00     0.009 C 
HETATM    8  C4  UNL     1      66.513  36.415   2.877  1.00  0.00     0.014 C 
HETATM    9  C19 UNL     1      65.425  36.729   1.872  1.00  0.00     0.014 C 
HETATM   10  C9  UNL     1      64.902  36.145  -0.534  1.00  0.00     0.006 C 
HETATM   11  C10 UNL     1      65.820  35.738  -1.668  1.00  0.00     0.010 C 
HETATM   12  C12 UNL     1      68.153  35.139  -1.354  1.00  0.00     0.016 C 
BRANCH   8  13
HETATM   13  C2  UNL     1      66.205  36.936   4.226  1.00  0.00    -0.089 C 
HETATM   14  C1  UNL     1      66.453  36.152   5.270  1.00  0.00     0.014 C 
HETATM   15  C3  UNL     1      65.637  38.277   4.478  1.00  0.00     0.043 C 
ENDBRANCH   8  13
ENDBRANCH   1   3
BRANCH   1  16
HETATM   16  C15 UNL     1      68.789  37.048  -3.219  1.00  0.00     0.079 C 
HETATM   17  C16 UNL     1      68.811  38.075  -4.409  1.00  0.00     0.020 C 
BRANCH  16  18
HETATM   18  C17 UNL     1      69.920  37.608  -2.385  1.00  0.00     0.240 C 
HETATM   19  O1  UNL     1      69.766  38.511  -1.547  1.00  0.00    -0.272 OA
HETATM   20  N1  UNL     1      71.207  37.054  -2.588  1.00  0.00    -0.157 N 
ATOM     21  H1  UNL     1      71.639  37.128  -3.509  1.00  0.00     0.187 HD
BRANCH  20  22
HETATM   22  C18 UNL     1      71.847  36.458  -1.643  1.00  0.00     0.710 A 
HETATM   23  N2  UNL     1      73.012  35.765  -1.742  1.00  0.00    -0.117 N 
HETATM   24  N3  UNL     1      73.297  35.329  -0.518  1.00  0.00     0.006 NA
ATOM     25  H2  UNL     1      73.559  35.609  -2.588  1.00  0.00     0.202 HD
HETATM   26  N4  UNL     1      72.337  35.741   0.316  1.00  0.00     0.006 NA
HETATM   27  N5  UNL     1      71.440  36.436  -0.362  1.00  0.00    -0.117 N 
ATOM     28  H5  UNL     1      70.598  36.872   0.015  1.00  0.00     0.202 HD
ENDBRANCH  20  22
ENDBRANCH  16  18
ENDBRANCH   1  16
TORSDOF 5
ENDMDL
MODEL 3
REMARK VINA RESULT: -8.092996673      2.613      5.239
REMARK  5 active torsions:
REMARK  status: ('A' for Active; 'I' for Inactive)
REMARK    1  A    between atoms: C2_2  and  C4_4 
REMARK    2  A    between atoms: C11_11  and  C13_13 
REMARK    3  A    between atoms: C13_13  and  C15_15 
REMARK    4  A    between atoms: C15_15  and  C17_17 
REMARK       I    between atoms: C17_17  and  N1_19 
REMARK    5  A    between atoms: N1_19  and  C18_21 
ROOT
HETATM    1  C13 UNL     1      71.730  35.531  -0.254  1.00  0.00     0.003 C 
HETATM    2  C14 UNL     1      73.149  35.989  -0.621  1.00  0.00     0.011 C 
ENDROOT
BRANCH   1   3
HETATM    3  C11 UNL     1      70.917  35.469  -1.483  1.00  0.00    -0.036 C 
HETATM    4  C7  UNL     1      69.504  35.804  -1.476  1.00  0.00    -0.002 C 
HETATM    5  C6  UNL     1      68.554  34.626  -1.643  1.00  0.00     0.006 C 
HETATM    6  C8  UNL     1      69.308  36.575  -2.797  1.00  0.00    -0.009 C 
HETATM    7  C5  UNL     1      67.132  35.113  -1.810  1.00  0.00     0.009 C 
HETATM    8  C4  UNL     1      66.981  36.037  -2.990  1.00  0.00     0.014 C 
HETATM    9  C19 UNL     1      67.953  37.184  -2.812  1.00  0.00     0.014 C 
HETATM   10  C9  UNL     1      70.464  37.493  -2.766  1.00  0.00     0.006 C 
HETATM   11  C10 UNL     1      71.568  36.514  -2.420  1.00  0.00     0.010 C 
HETATM   12  C12 UNL     1      71.210  34.126  -2.161  1.00  0.00     0.016 C 
BRANCH   8  13
HETATM   13  C2  UNL     1      65.578  36.493  -3.074  1.00  0.00    -0.089 C 
HETATM   14  C1  UNL     1      65.022  36.589  -4.278  1.00  0.00     0.014 C 
HETATM   15  C3  UNL     1      64.758  36.848  -1.896  1.00  0.00     0.043 C 
ENDBRANCH   8  13
ENDBRANCH   1   3
BRANCH   1  16
HETATM   16  C15 UNL     1      71.852  34.378   0.653  1.00  0.00     0.079 C 
HETATM   17  C16 UNL     1      73.349  34.239   1.114  1.00  0.00     0.020 C 
BRANCH  16  18
HETATM   18  C17 UNL     1      71.213  34.722   1.980  1.00  0.00     0.240 C 
HETATM   19  O1  UNL     1      71.789  34.582   3.070  1.00  0.00    -0.272 OA
HETATM   20  N1  UNL     1      69.892  35.232   1.947  1.00  0.00    -0.157 N 
ATOM     21  H1  UNL     1      69.146  34.654   1.559  1.00  0.00     0.187 HD
BRANCH  20  22
HETATM   22  C18 UNL     1      69.606  36.406   2.393  1.00  0.00     0.710 A 
HETATM   23  N2  UNL     1      69.838  36.897   3.639  1.00  0.00    -0.117 N 
HETATM   24  N3  UNL     1      69.380  38.145   3.645  1.00  0.00     0.006 NA
ATOM     25  H2  UNL     1      70.278  36.404   4.416  1.00  0.00     0.202 HD
HETATM   26  N4  UNL     1      68.877  38.421   2.436  1.00  0.00     0.006 NA
HETATM   27  N5  UNL     1      69.010  37.361   1.658  1.00  0.00    -0.117 N 
ATOM     28  H5  UNL     1      68.716  37.282   0.684  1.00  0.00     0.202 HD
ENDBRANCH  20  22
ENDBRANCH  16  18
ENDBRANCH   1  16
TORSDOF 5
ENDMDL
MODEL 4
REMARK VINA RESULT: -8.081210555      3.057      4.067
REMARK  5 active torsions:
REMARK  status: ('A' for Active; 'I' for Inactive)
REMARK    1  A    between atoms: C2_2  and  C4_4 
REMARK    2  A    between atoms: C11_11  and  C13_13 
REMARK    3  A    between atoms: C13_13  and  C15_15 
REMARK    4  A    between atoms: C15_15  and  C17_17 
REMARK       I    between atoms: C17_17  and  N1_19 
REMARK    5  A    between atoms: N1_19  and  C18_21 
ROOT
HETATM    1  C13 UNL     1      67.017  37.166  -2.587  1.00  0.00     0.003 C 
HETATM    2  C14 UNL     1      65.699  36.936  -3.342  1.00  0.00     0.011 C 
ENDROOT
BRANCH   1   3
HETATM    3  C11 UNL     1      67.010  36.350  -1.359  1.00  0.00    -0.036 C 
HETATM    4  C7  UNL     1      66.822  36.950  -0.050  1.00  0.00    -0.002 C 
HETATM    5  C6  UNL     1      68.060  36.985   0.836  1.00  0.00     0.006 C 
HETATM    6  C8  UNL     1      65.919  35.940   0.686  1.00  0.00    -0.009 C 
HETATM    7  C5  UNL     1      67.702  37.454   2.228  1.00  0.00     0.009 C 
HETATM    8  C4  UNL     1      66.661  36.577   2.874  1.00  0.00     0.014 C 
HETATM    9  C19 UNL     1      65.452  36.539   1.963  1.00  0.00     0.014 C 
HETATM   10  C9  UNL     1      64.901  35.662  -0.346  1.00  0.00     0.006 C 
HETATM   11  C10 UNL     1      65.798  35.405  -1.540  1.00  0.00     0.010 C 
HETATM   12  C12 UNL     1      68.224  35.417  -1.419  1.00  0.00     0.016 C 
BRANCH   8  13
HETATM   13  C2  UNL     1      66.342  37.109   4.215  1.00  0.00    -0.089 C 
HETATM   14  C1  UNL     1      66.737  36.411   5.275  1.00  0.00     0.014 C 
HETATM   15  C3  UNL     1      65.609  38.372   4.444  1.00  0.00     0.043 C 
ENDBRANCH   8  13
ENDBRANCH   1   3
BRANCH   1  16
HETATM   16  C15 UNL     1      68.114  37.083  -3.565  1.00  0.00     0.079 C 
HETATM   17  C16 UNL     1      67.539  37.329  -5.008  1.00  0.00     0.020 C 
BRANCH  16  18
HETATM   18  C17 UNL     1      68.989  38.311  -3.433  1.00  0.00     0.240 C 
HETATM   19  O1  UNL     1      69.047  38.997  -2.400  1.00  0.00    -0.272 OA
HETATM   20  N1  UNL     1      69.773  38.668  -4.557  1.00  0.00    -0.157 N 
ATOM     21  H1  UNL     1      69.306  38.902  -5.433  1.00  0.00     0.187 HD
BRANCH  20  22
HETATM   22  C18 UNL     1      71.059  38.706  -4.503  1.00  0.00     0.710 A 
HETATM   23  N2  UNL     1      71.907  39.272  -5.402  1.00  0.00    -0.117 N 
HETATM   24  N3  UNL     1      73.138  39.070  -4.938  1.00  0.00     0.006 NA
ATOM     25  H2  UNL     1      71.651  39.755  -6.262  1.00  0.00     0.202 HD
HETATM   26  N4  UNL     1      73.055  38.400  -3.784  1.00  0.00     0.006 NA
HETATM   27  N5  UNL     1      71.782  38.170  -3.505  1.00  0.00    -0.117 N 
ATOM     28  H5  UNL     1      71.419  37.678  -2.689  1.00  0.00     0.202 HD
ENDBRANCH  20  22
ENDBRANCH  16  18
ENDBRANCH   1  16
TORSDOF 5
ENDMDL
MODEL 5
REMARK VINA RESULT: -8.061681143      2.923      3.707
REMARK  5 active torsions:
REMARK  status: ('A' for Active; 'I' for Inactive)
REMARK    1  A    between atoms: C2_2  and  C4_4 
REMARK    2  A    between atoms: C11_11  and  C13_13 
REMARK    3  A    between atoms: C13_13  and  C15_15 
REMARK    4  A    between atoms: C15_15  and  C17_17 
REMARK       I    between atoms: C17_17  and  N1_19 
REMARK    5  A    between atoms: N1_19  and  C18_21 
ROOT
HETATM    1  C13 UNL     1      67.514  37.354  -2.633  1.00  0.00     0.003 C 
HETATM    2  C14 UNL     1      66.175  38.104  -2.698  1.00  0.00     0.011 C 
ENDROOT
BRANCH   1   3
HETATM    3  C11 UNL     1      67.526  36.504  -1.428  1.00  0.00    -0.036 C 
HETATM    4  C7  UNL     1      67.147  37.025  -0.128  1.00  0.00    -0.002 C 
HETATM    5  C6  UNL     1      68.291  37.207   0.861  1.00  0.00     0.006 C 
HETATM    6  C8  UNL     1      66.344  35.872   0.505  1.00  0.00    -0.009 C 
HETATM    7  C5  UNL     1      67.756  37.571   2.228  1.00  0.00     0.009 C 
HETATM    8  C4  UNL     1      66.805  36.533   2.762  1.00  0.00     0.014 C 
HETATM    9  C19 UNL     1      65.692  36.353   1.751  1.00  0.00     0.014 C 
HETATM   10  C9  UNL     1      65.465  35.487  -0.616  1.00  0.00     0.006 C 
HETATM   11  C10 UNL     1      66.484  35.402  -1.733  1.00  0.00     0.010 C 
HETATM   12  C12 UNL     1      68.864  35.757  -1.406  1.00  0.00     0.016 C 
BRANCH   8  13
HETATM   13  C2  UNL     1      66.303  36.968   4.083  1.00  0.00    -0.089 C 
HETATM   14  C1  UNL     1      66.472  36.149   5.116  1.00  0.00     0.014 C 
HETATM   15  C3  UNL     1      65.625  38.260   4.319  1.00  0.00     0.043 C 
ENDBRANCH   8  13
ENDBRANCH   1   3
BRANCH   1  16
HETATM   16  C15 UNL     1      67.784  36.803  -3.972  1.00  0.00     0.079 C 
HETATM   17  C16 UNL     1      66.605  37.193  -4.938  1.00  0.00     0.020 C 
BRANCH  16  18
HETATM   18  C17 UNL     1      68.904  37.592  -4.615  1.00  0.00     0.240 C 
HETATM   19  O1  UNL     1      68.811  38.796  -4.902  1.00  0.00    -0.272 OA
HETATM   20  N1  UNL     1      70.108  36.898  -4.888  1.00  0.00    -0.157 N 
ATOM     21  H1  UNL     1      70.088  36.103  -5.527  1.00  0.00     0.187 HD
BRANCH  20  22
HETATM   22  C18 UNL     1      71.227  37.241  -4.351  1.00  0.00     0.710 A 
HETATM   23  N2  UNL     1      71.414  38.064  -3.285  1.00  0.00    -0.117 N 
HETATM   24  N3  UNL     1      72.727  38.129  -3.085  1.00  0.00     0.006 NA
ATOM     25  H2  UNL     1      70.690  38.538  -2.746  1.00  0.00     0.202 HD
HETATM   26  N4  UNL     1      73.337  37.368  -4.000  1.00  0.00     0.006 NA
HETATM   27  N5  UNL     1      72.426  36.817  -4.784  1.00  0.00    -0.117 N 
ATOM     28  H5  UNL     1      72.601  36.189  -5.569  1.00  0.00     0.202 HD
ENDBRANCH  20  22
ENDBRANCH  16  18
ENDBRANCH   1  16
TORSDOF 5
ENDMDL
