MODEL 1
REMARK VINA RESULT: -6.861524712      0.000      0.000
REMARK  11 active torsions:
REMARK  status: ('A' for Active; 'I' for Inactive)
REMARK    1  A    between atoms: N1_1  and  C1_4 
REMARK    2  A    between atoms: C3_9  and  C4_10 
REMARK    3  A    between atoms: N4_11  and  N5_13 
REMARK    4  A    between atoms: C6_15  and  C7_16 
REMARK    5  A    between atoms: C7_16  and  C8_17 
REMARK    6  A    between atoms: C8_17  and  N6_18 
REMARK    7  A    between atoms: N6_18  and  C9_21 
REMARK    8  A    between atoms: C9_21  and  C10_22 
REMARK    9  A    between atoms: C10_22  and  N7_23 
REMARK   10  A    between atoms: C10_22  and  N8_27 
REMARK   11  A    between atoms: C11_35  and  N11_36 
ROOT
HETATM    1  N5  UNL     1      43.665-403.429  15.944  1.00  0.00    -0.192 N 
HETATM    2  C5  UNL     1      44.926-403.728  16.338  1.00  0.00     0.164 A 
HETATM    3  C6  UNL     1      45.636-402.541  16.512  1.00  0.00     0.048 A 
HETATM    4  N9  UNL     1      44.779-401.567  16.216  1.00  0.00    -0.287 N 
ATOM      5  H9  UNL     1      44.982-400.567  16.241  1.00  0.00     0.188 HD
HETATM    6  N10 UNL     1      43.603-402.120  15.879  1.00  0.00    -0.222 N 
ATOM      7  H10 UNL     1      42.773-401.592  15.609  1.00  0.00     0.210 HD
ENDROOT
BRANCH   1   8
HETATM    8  N4  UNL     1      42.645-404.385  15.670  1.00  0.00    -0.289 N 
HETATM    9  C4  UNL     1      43.037-405.628  15.649  1.00  0.00     0.128 C 
ATOM     10  H4  UNL     1      41.676-404.115  15.502  1.00  0.00     0.188 HD
BRANCH   9  11
HETATM   11  C3  UNL     1      42.119-406.727  15.384  1.00  0.00     0.067 A 
HETATM   12  C2  UNL     1      41.292-406.753  14.281  1.00  0.00     0.147 A 
HETATM   13  N2  UNL     1      40.441-407.771  14.062  1.00  0.00    -0.178 N 
HETATM   14  N3  UNL     1      41.389-405.651  13.379  1.00  0.00    -0.081 NA
HETATM   15  C1  UNL     1      40.343-408.822  14.897  1.00  0.00     0.678 A 
ATOM     16  H2  UNL     1      39.849-407.746  13.232  1.00  0.00     0.185 HD
HETATM   17  N12 UNL     1      41.144-408.816  15.983  1.00  0.00    -0.176 N 
HETATM   18  C11 UNL     1      42.013-407.818  16.245  1.00  0.00     0.129 A 
ATOM     19  H12 UNL     1      41.090-409.599  16.634  1.00  0.00     0.186 HD
BRANCH  15  20
HETATM   20  N1  UNL     1      39.532-409.798  14.683  1.00  0.00    -0.234 N 
ATOM     21  H12 UNL     1      38.732-409.955  15.296  1.00  0.00     0.174 HD
ATOM     22  H11 UNL     1      39.654-410.450  13.907  1.00  0.00     0.174 HD
ENDBRANCH  15  20
BRANCH  18  23
HETATM   23  N11 UNL     1      42.778-407.805  17.272  1.00  0.00    -0.384 N 
ATOM     24 2H11 UNL     1      42.721-407.096  18.002  1.00  0.00     0.157 HD
ATOM     25 1H11 UNL     1      43.466-408.556  17.331  1.00  0.00     0.157 HD
ENDBRANCH  18  23
ENDBRANCH   9  11
ENDBRANCH   1   8
BRANCH   3  26
HETATM   26  C7  UNL     1      47.038-402.476  16.944  1.00  0.00     0.087 C 
BRANCH  26  27
HETATM   27  C8  UNL     1      48.047-402.737  15.900  1.00  0.00     0.238 C 
BRANCH  27  28
HETATM   28  N6  UNL     1      47.876-402.096  14.639  1.00  0.00    -0.071 N 
ATOM     29  H62 UNL     1      48.106-402.697  13.847  1.00  0.00     0.277 HD
ATOM     30  H61 UNL     1      46.898-401.935  14.398  1.00  0.00     0.277 HD
BRANCH  28  31
HETATM   31  C9  UNL     1      48.668-400.871  14.681  1.00  0.00     0.294 C 
BRANCH  31  32
HETATM   32  C10 UNL     1      48.734-400.148  13.378  1.00  0.00     0.403 C 
BRANCH  32  33
HETATM   33  N7  UNL     1      48.411-400.971  12.241  1.00  0.00    -0.049 N 
ATOM     34  H73 UNL     1      48.777-400.558  11.383  1.00  0.00     0.276 HD
ATOM     35  H72 UNL     1      48.950-401.837  12.258  1.00  0.00     0.276 HD
ATOM     36  H71 UNL     1      47.415-401.170  12.147  1.00  0.00     0.276 HD
ENDBRANCH  32  33
BRANCH  32  37
HETATM   37  N8  UNL     1      47.918-398.944  13.421  1.00  0.00    -0.049 N 
ATOM     38  H83 UNL     1      46.984-399.105  13.042  1.00  0.00     0.276 HD
ATOM     39  H82 UNL     1      47.655-398.698  14.375  1.00  0.00     0.276 HD
ATOM     40  H81 UNL     1      48.390-398.174  12.948  1.00  0.00     0.276 HD
ENDBRANCH  32  37
ENDBRANCH  31  32
ENDBRANCH  28  31
ENDBRANCH  27  28
ENDBRANCH  26  27
ENDBRANCH   3  26
TORSDOF 11
ENDMDL
MODEL 2
REMARK VINA RESULT: -6.766511857      1.069      1.437
REMARK  11 active torsions:
REMARK  status: ('A' for Active; 'I' for Inactive)
REMARK    1  A    between atoms: N1_1  and  C1_4 
REMARK    2  A    between atoms: C3_9  and  C4_10 
REMARK    3  A    between atoms: N4_11  and  N5_13 
REMARK    4  A    between atoms: C6_15  and  C7_16 
REMARK    5  A    between atoms: C7_16  and  C8_17 
REMARK    6  A    between atoms: C8_17  and  N6_18 
REMARK    7  A    between atoms: N6_18  and  C9_21 
REMARK    8  A    between atoms: C9_21  and  C10_22 
REMARK    9  A    between atoms: C10_22  and  N7_23 
REMARK   10  A    between atoms: C10_22  and  N8_27 
REMARK   11  A    between atoms: C11_35  and  N11_36 
ROOT
HETATM    1  N5  UNL     1      42.994-403.324  16.062  1.00  0.00    -0.192 N 
HETATM    2  C5  UNL     1      44.027-403.282  16.939  1.00  0.00     0.164 A 
HETATM    3  C6  UNL     1      44.679-402.057  16.807  1.00  0.00     0.048 A 
HETATM    4  N9  UNL     1      44.018-401.402  15.855  1.00  0.00    -0.287 N 
ATOM      5  H9  UNL     1      44.239-400.467  15.512  1.00  0.00     0.188 HD
HETATM    6  N10 UNL     1      43.012-402.178  15.423  1.00  0.00    -0.222 N 
ATOM      7  H10 UNL     1      42.349-401.912  14.694  1.00  0.00     0.210 HD
ENDROOT
BRANCH   1   8
HETATM    8  N4  UNL     1      42.097-404.418  15.908  1.00  0.00    -0.289 N 
HETATM    9  C4  UNL     1      42.648-405.550  15.573  1.00  0.00     0.128 C 
ATOM     10  H4  UNL     1      41.091-404.322  16.050  1.00  0.00     0.188 HD
BRANCH   9  11
HETATM   11  C3  UNL     1      41.871-406.766  15.376  1.00  0.00     0.067 A 
HETATM   12  C2  UNL     1      41.108-406.983  14.249  1.00  0.00     0.147 A 
HETATM   13  N2  UNL     1      40.386-408.107  14.093  1.00  0.00    -0.178 N 
HETATM   14  N3  UNL     1      41.128-405.962  13.251  1.00  0.00    -0.081 NA
HETATM   15  C1  UNL     1      40.361-409.083  15.018  1.00  0.00     0.678 A 
ATOM     16  H2  UNL     1      39.836-408.223  13.241  1.00  0.00     0.185 HD
HETATM   17  N12 UNL     1      41.101-408.890  16.130  1.00  0.00    -0.176 N 
HETATM   18  C11 UNL     1      41.842-407.780  16.331  1.00  0.00     0.129 A 
ATOM     19  H12 UNL     1      41.101-409.613  16.849  1.00  0.00     0.186 HD
BRANCH  15  20
HETATM   20  N1  UNL     1      39.674-410.161  14.864  1.00  0.00    -0.234 N 
ATOM     21  H12 UNL     1      39.338-410.685  15.673  1.00  0.00     0.174 HD
ATOM     22  H11 UNL     1      39.442-410.535  13.944  1.00  0.00     0.174 HD
ENDBRANCH  15  20
BRANCH  18  23
HETATM   23  N11 UNL     1      42.549-407.590  17.382  1.00  0.00    -0.384 N 
ATOM     24 2H11 UNL     1      43.221-408.271  17.734  1.00  0.00     0.157 HD
ATOM     25 1H11 UNL     1      42.409-406.703  17.865  1.00  0.00     0.157 HD
ENDBRANCH  18  23
ENDBRANCH   9  11
ENDBRANCH   1   8
BRANCH   3  26
HETATM   26  C7  UNL     1      45.845-401.655  17.604  1.00  0.00     0.087 C 
BRANCH  26  27
HETATM   27  C8  UNL     1      46.389-400.314  17.322  1.00  0.00     0.238 C 
BRANCH  27  28
HETATM   28  N6  UNL     1      47.188-400.155  16.154  1.00  0.00    -0.071 N 
ATOM     29  H62 UNL     1      46.640-400.089  15.296  1.00  0.00     0.277 HD
ATOM     30  H61 UNL     1      47.634-399.240  16.091  1.00  0.00     0.277 HD
BRANCH  28  31
HETATM   31  C9  UNL     1      48.140-401.261  16.145  1.00  0.00     0.294 C 
BRANCH  31  32
HETATM   32  C10 UNL     1      48.317-401.896  14.807  1.00  0.00     0.403 C 
BRANCH  32  33
HETATM   33  N7  UNL     1      47.331-402.903  14.507  1.00  0.00    -0.049 N 
ATOM     34  H73 UNL     1      46.531-402.821  15.135  1.00  0.00     0.276 HD
ATOM     35  H72 UNL     1      46.871-402.703  13.618  1.00  0.00     0.276 HD
ATOM     36  H71 UNL     1      47.698-403.854  14.516  1.00  0.00     0.276 HD
ENDBRANCH  32  33
BRANCH  32  37
HETATM   37  N8  UNL     1      48.385-400.883  13.765  1.00  0.00    -0.049 N 
ATOM     38  H83 UNL     1      48.302-401.291  12.833  1.00  0.00     0.276 HD
ATOM     39  H82 UNL     1      47.549-400.298  13.750  1.00  0.00     0.276 HD
ATOM     40  H81 UNL     1      49.234-400.327  13.861  1.00  0.00     0.276 HD
ENDBRANCH  32  37
ENDBRANCH  31  32
ENDBRANCH  28  31
ENDBRANCH  27  28
ENDBRANCH  26  27
ENDBRANCH   3  26
TORSDOF 11
ENDMDL
MODEL 3
REMARK VINA RESULT: -6.700661765      2.344      2.967
REMARK  11 active torsions:
REMARK  status: ('A' for Active; 'I' for Inactive)
REMARK    1  A    between atoms: N1_1  and  C1_4 
REMARK    2  A    between atoms: C3_9  and  C4_10 
REMARK    3  A    between atoms: N4_11  and  N5_13 
REMARK    4  A    between atoms: C6_15  and  C7_16 
REMARK    5  A    between atoms: C7_16  and  C8_17 
REMARK    6  A    between atoms: C8_17  and  N6_18 
REMARK    7  A    between atoms: N6_18  and  C9_21 
REMARK    8  A    between atoms: C9_21  and  C10_22 
REMARK    9  A    between atoms: C10_22  and  N7_23 
REMARK   10  A    between atoms: C10_22  and  N8_27 
REMARK   11  A    between atoms: C11_35  and  N11_36 
ROOT
HETATM    1  N5  UNL     1      43.591-403.436  15.915  1.00  0.00    -0.192 N 
HETATM    2  C5  UNL     1      43.394-402.269  16.576  1.00  0.00     0.164 A 
HETATM    3  C6  UNL     1      44.608-401.585  16.651  1.00  0.00     0.048 A 
HETATM    4  N9  UNL     1      45.493-402.363  16.033  1.00  0.00    -0.287 N 
ATOM      5  H9  UNL     1      46.484-402.155  15.910  1.00  0.00     0.188 HD
HETATM    6  N10 UNL     1      44.864-403.466  15.598  1.00  0.00    -0.222 N 
ATOM      7  H10 UNL     1      45.316-404.226  15.090  1.00  0.00     0.210 HD
ENDROOT
BRANCH   1   8
HETATM    8  N4  UNL     1      42.580-404.401  15.642  1.00  0.00    -0.289 N 
HETATM    9  C4  UNL     1      42.982-405.640  15.625  1.00  0.00     0.128 C 
ATOM     10  H4  UNL     1      41.609-404.140  15.471  1.00  0.00     0.188 HD
BRANCH   9  11
HETATM   11  C3  UNL     1      42.074-406.748  15.362  1.00  0.00     0.067 A 
HETATM   12  C2  UNL     1      41.252-406.785  14.256  1.00  0.00     0.147 A 
HETATM   13  N2  UNL     1      40.410-407.812  14.038  1.00  0.00    -0.178 N 
HETATM   14  N3  UNL     1      41.343-405.687  13.349  1.00  0.00    -0.081 NA
HETATM   15  C1  UNL     1      40.316-408.859  14.877  1.00  0.00     0.678 A 
ATOM     16  H2  UNL     1      39.820-407.795  13.206  1.00  0.00     0.185 HD
HETATM   17  N12 UNL     1      41.113-408.842  15.967  1.00  0.00    -0.176 N 
HETATM   18  C11 UNL     1      41.973-407.836  16.228  1.00  0.00     0.129 A 
ATOM     19  H12 UNL     1      41.063-409.623  16.621  1.00  0.00     0.186 HD
BRANCH  15  20
HETATM   20  N1  UNL     1      39.514-409.843  14.665  1.00  0.00    -0.234 N 
ATOM     21  H12 UNL     1      38.958-409.887  13.810  1.00  0.00     0.174 HD
ATOM     22  H11 UNL     1      39.398-410.607  15.330  1.00  0.00     0.174 HD
ENDBRANCH  15  20
BRANCH  18  23
HETATM   23  N11 UNL     1      42.734-407.812  17.257  1.00  0.00    -0.384 N 
ATOM     24 2H11 UNL     1      43.735-407.625  17.207  1.00  0.00     0.157 HD
ATOM     25 1H11 UNL     1      42.285-407.993  18.154  1.00  0.00     0.157 HD
ENDBRANCH  18  23
ENDBRANCH   9  11
ENDBRANCH   1   8
BRANCH   3  26
HETATM   26  C7  UNL     1      44.776-400.276  17.294  1.00  0.00     0.087 C 
BRANCH  26  27
HETATM   27  C8  UNL     1      45.036-400.298  18.745  1.00  0.00     0.238 C 
BRANCH  27  28
HETATM   28  N6  UNL     1      46.092-399.480  19.242  1.00  0.00    -0.071 N 
ATOM     29  H62 UNL     1      45.762-398.619  19.679  1.00  0.00     0.277 HD
ATOM     30  H61 UNL     1      46.554-399.871  20.062  1.00  0.00     0.277 HD
BRANCH  28  31
HETATM   31  C9  UNL     1      47.001-399.246  18.124  1.00  0.00     0.294 C 
BRANCH  31  32
HETATM   32  C10 UNL     1      48.374-399.786  18.338  1.00  0.00     0.403 C 
BRANCH  32  33
HETATM   33  N7  UNL     1      48.957-399.406  19.600  1.00  0.00    -0.049 N 
ATOM     34  H73 UNL     1      49.005-398.391  19.683  1.00  0.00     0.276 HD
ATOM     35  H72 UNL     1      48.317-399.610  20.368  1.00  0.00     0.276 HD
ATOM     36  H71 UNL     1      49.870-399.825  19.773  1.00  0.00     0.276 HD
ENDBRANCH  32  33
BRANCH  32  37
HETATM   37  N8  UNL     1      48.391-401.229  18.150  1.00  0.00    -0.049 N 
ATOM     38  H83 UNL     1      47.937-401.503  17.279  1.00  0.00     0.276 HD
ATOM     39  H82 UNL     1      49.330-401.573  17.948  1.00  0.00     0.276 HD
ATOM     40  H81 UNL     1      47.980-401.700  18.956  1.00  0.00     0.276 HD
ENDBRANCH  32  37
ENDBRANCH  31  32
ENDBRANCH  28  31
ENDBRANCH  27  28
ENDBRANCH  26  27
ENDBRANCH   3  26
TORSDOF 11
ENDMDL
MODEL 4
REMARK VINA RESULT: -6.671552603      1.593      2.417
REMARK  11 active torsions:
REMARK  status: ('A' for Active; 'I' for Inactive)
REMARK    1  A    between atoms: N1_1  and  C1_4 
REMARK    2  A    between atoms: C3_9  and  C4_10 
REMARK    3  A    between atoms: N4_11  and  N5_13 
REMARK    4  A    between atoms: C6_15  and  C7_16 
REMARK    5  A    between atoms: C7_16  and  C8_17 
REMARK    6  A    between atoms: C8_17  and  N6_18 
REMARK    7  A    between atoms: N6_18  and  C9_21 
REMARK    8  A    between atoms: C9_21  and  C10_22 
REMARK    9  A    between atoms: C10_22  and  N7_23 
REMARK   10  A    between atoms: C10_22  and  N8_27 
REMARK   11  A    between atoms: C11_35  and  N11_36 
ROOT
HETATM    1  N5  UNL     1      42.962-403.357  16.059  1.00  0.00    -0.192 N 
HETATM    2  C5  UNL     1      44.098-403.354  16.797  1.00  0.00     0.164 A 
HETATM    3  C6  UNL     1      44.709-402.107  16.677  1.00  0.00     0.048 A 
HETATM    4  N9  UNL     1      43.921-401.400  15.871  1.00  0.00    -0.287 N 
ATOM      5  H9  UNL     1      44.082-400.437  15.575  1.00  0.00     0.188 HD
HETATM    6  N10 UNL     1      42.879-402.167  15.512  1.00  0.00    -0.222 N 
ATOM      7  H10 UNL     1      42.125-401.864  14.896  1.00  0.00     0.210 HD
ENDROOT
BRANCH   1   8
HETATM    8  N4  UNL     1      42.068-404.459  15.937  1.00  0.00    -0.289 N 
HETATM    9  C4  UNL     1      42.609-405.574  15.533  1.00  0.00     0.128 C 
ATOM     10  H4  UNL     1      41.074-404.381  16.151  1.00  0.00     0.188 HD
BRANCH   9  11
HETATM   11  C3  UNL     1      41.834-406.795  15.358  1.00  0.00     0.067 A 
HETATM   12  C2  UNL     1      41.067-407.030  14.236  1.00  0.00     0.147 A 
HETATM   13  N2  UNL     1      40.348-408.158  14.099  1.00  0.00    -0.178 N 
HETATM   14  N3  UNL     1      41.081-406.024  13.224  1.00  0.00    -0.081 NA
HETATM   15  C1  UNL     1      40.329-409.121  15.039  1.00  0.00     0.678 A 
ATOM     16  H2  UNL     1      39.795-408.288  13.252  1.00  0.00     0.185 HD
HETATM   17  N12 UNL     1      41.073-408.909  16.145  1.00  0.00    -0.176 N 
HETATM   18  C11 UNL     1      41.811-407.795  16.327  1.00  0.00     0.129 A 
ATOM     19  H12 UNL     1      41.078-409.622  16.874  1.00  0.00     0.186 HD
BRANCH  15  20
HETATM   20  N1  UNL     1      39.644-410.202  14.904  1.00  0.00    -0.234 N 
ATOM     21  H12 UNL     1      39.219-410.655  15.714  1.00  0.00     0.174 HD
ATOM     22  H11 UNL     1      39.502-410.650  13.998  1.00  0.00     0.174 HD
ENDBRANCH  15  20
BRANCH  18  23
HETATM   23  N11 UNL     1      42.522-407.587  17.372  1.00  0.00    -0.384 N 
ATOM     24 2H11 UNL     1      42.210-407.012  18.154  1.00  0.00     0.157 HD
ATOM     25 1H11 UNL     1      43.438-408.034  17.390  1.00  0.00     0.157 HD
ENDBRANCH  18  23
ENDBRANCH   9  11
ENDBRANCH   1   8
BRANCH   3  26
HETATM   26  C7  UNL     1      45.962-401.736  17.348  1.00  0.00     0.087 C 
BRANCH  26  27
HETATM   27  C8  UNL     1      47.113-401.470  16.464  1.00  0.00     0.238 C 
BRANCH  27  28
HETATM   28  N6  UNL     1      47.393-402.419  15.439  1.00  0.00    -0.071 N 
ATOM     29  H62 UNL     1      46.554-402.795  14.997  1.00  0.00     0.277 HD
ATOM     30  H61 UNL     1      47.801-402.000  14.603  1.00  0.00     0.277 HD
BRANCH  28  31
HETATM   31  C9  UNL     1      48.237-403.447  16.038  1.00  0.00     0.294 C 
BRANCH  31  32
HETATM   32  C10 UNL     1      47.850-404.839  15.670  1.00  0.00     0.403 C 
BRANCH  32  33
HETATM   33  N7  UNL     1      48.972-405.714  15.446  1.00  0.00    -0.049 N 
ATOM     34  H73 UNL     1      49.814-405.337  15.880  1.00  0.00     0.276 HD
ATOM     35  H72 UNL     1      48.871-406.574  15.987  1.00  0.00     0.276 HD
ATOM     36  H71 UNL     1      49.138-405.926  14.463  1.00  0.00     0.276 HD
ENDBRANCH  32  33
BRANCH  32  37
HETATM   37  N8  UNL     1      46.926-405.389  16.651  1.00  0.00    -0.049 N 
ATOM     38  H83 UNL     1      46.185-404.728  16.885  1.00  0.00     0.276 HD
ATOM     39  H82 UNL     1      46.349-406.131  16.254  1.00  0.00     0.276 HD
ATOM     40  H81 UNL     1      47.429-405.704  17.480  1.00  0.00     0.276 HD
ENDBRANCH  32  37
ENDBRANCH  31  32
ENDBRANCH  28  31
ENDBRANCH  27  28
ENDBRANCH  26  27
ENDBRANCH   3  26
TORSDOF 11
ENDMDL
MODEL 5
REMARK VINA RESULT: -6.651454598      1.765      2.735
REMARK  11 active torsions:
REMARK  status: ('A' for Active; 'I' for Inactive)
REMARK    1  A    between atoms: N1_1  and  C1_4 
REMARK    2  A    between atoms: C3_9  and  C4_10 
REMARK    3  A    between atoms: N4_11  and  N5_13 
REMARK    4  A    between atoms: C6_15  and  C7_16 
REMARK    5  A    between atoms: C7_16  and  C8_17 
REMARK    6  A    between atoms: C8_17  and  N6_18 
REMARK    7  A    between atoms: N6_18  and  C9_21 
REMARK    8  A    between atoms: C9_21  and  C10_22 
REMARK    9  A    between atoms: C10_22  and  N7_23 
REMARK   10  A    between atoms: C10_22  and  N8_27 
REMARK   11  A    between atoms: C11_35  and  N11_36 
ROOT
HETATM    1  N5  UNL     1      45.551-402.602  16.445  1.00  0.00    -0.192 N 
HETATM    2  C5  UNL     1      46.745-402.765  15.824  1.00  0.00     0.164 A 
HETATM    3  C6  UNL     1      47.352-401.518  15.683  1.00  0.00     0.048 A 
HETATM    4  N9  UNL     1      46.504-400.646  16.224  1.00  0.00    -0.287 N 
ATOM      5  H9  UNL     1      46.646-399.637  16.285  1.00  0.00     0.188 HD
HETATM    6  N10 UNL     1      45.432-401.316  16.675  1.00  0.00    -0.222 N 
ATOM      7  H10 UNL     1      44.632-400.882  17.135  1.00  0.00     0.210 HD
ENDROOT
BRANCH   1   8
HETATM    8  N4  UNL     1      44.645-403.653  16.764  1.00  0.00    -0.289 N 
HETATM    9  C4  UNL     1      44.584-404.621  15.893  1.00  0.00     0.128 C 
ATOM     10  H4  UNL     1      44.083-403.649  17.615  1.00  0.00     0.188 HD
BRANCH   9  11
HETATM   11  C3  UNL     1      43.709-405.772  16.069  1.00  0.00     0.067 A 
HETATM   12  C2  UNL     1      42.335-405.660  16.089  1.00  0.00     0.147 A 
HETATM   13  N2  UNL     1      41.544-406.734  16.267  1.00  0.00    -0.178 N 
HETATM   14  N3  UNL     1      41.792-404.354  15.902  1.00  0.00    -0.081 NA
HETATM   15  C1  UNL     1      42.037-407.974  16.436  1.00  0.00     0.678 A 
ATOM     16  H2  UNL     1      40.532-406.602  16.274  1.00  0.00     0.185 HD
HETATM   17  N12 UNL     1      43.380-408.104  16.421  1.00  0.00    -0.176 N 
HETATM   18  C11 UNL     1      44.214-407.058  16.245  1.00  0.00     0.129 A 
ATOM     19  H12 UNL     1      43.782-409.033  16.547  1.00  0.00     0.186 HD
BRANCH  15  20
HETATM   20  N1  UNL     1      41.278-409.001  16.600  1.00  0.00    -0.234 N 
ATOM     21  H12 UNL     1      41.182-409.436  17.518  1.00  0.00     0.174 HD
ATOM     22  H11 UNL     1      40.752-409.420  15.833  1.00  0.00     0.174 HD
ENDBRANCH  15  20
BRANCH  18  23
HETATM   23  N11 UNL     1      45.490-407.173  16.226  1.00  0.00    -0.384 N 
ATOM     24 2H11 UNL     1      46.007-407.524  15.421  1.00  0.00     0.157 HD
ATOM     25 1H11 UNL     1      45.980-406.890  17.074  1.00  0.00     0.157 HD
ENDBRANCH  18  23
ENDBRANCH   9  11
ENDBRANCH   1   8
BRANCH   3  26
HETATM   26  C7  UNL     1      48.665-401.308  15.060  1.00  0.00     0.087 C 
BRANCH  26  27
HETATM   27  C8  UNL     1      48.648-400.785  13.681  1.00  0.00     0.238 C 
BRANCH  27  28
HETATM   28  N6  UNL     1      48.173-401.649  12.652  1.00  0.00    -0.071 N 
ATOM     29  H62 UNL     1      48.449-402.622  12.783  1.00  0.00     0.277 HD
ATOM     30  H61 UNL     1      47.164-401.797  12.683  1.00  0.00     0.277 HD
BRANCH  28  31
HETATM   31  C9  UNL     1      48.633-401.085  11.387  1.00  0.00     0.294 C 
BRANCH  31  32
HETATM   32  C10 UNL     1      47.989-401.689  10.185  1.00  0.00     0.403 C 
BRANCH  32  33
HETATM   33  N7  UNL     1      48.693-401.429   8.956  1.00  0.00    -0.049 N 
ATOM     34  H73 UNL     1      48.881-402.298   8.457  1.00  0.00     0.276 HD
ATOM     35  H72 UNL     1      48.080-400.973   8.279  1.00  0.00     0.276 HD
ATOM     36  H71 UNL     1      49.552-400.893   9.080  1.00  0.00     0.276 HD
ENDBRANCH  32  33
BRANCH  32  37
HETATM   37  N8  UNL     1      47.767-403.114  10.386  1.00  0.00    -0.049 N 
ATOM     38  H83 UNL     1      48.233-403.674   9.672  1.00  0.00     0.276 HD
ATOM     39  H82 UNL     1      48.266-403.463  11.204  1.00  0.00     0.276 HD
ATOM     40  H81 UNL     1      46.769-403.317  10.436  1.00  0.00     0.276 HD
ENDBRANCH  32  37
ENDBRANCH  31  32
ENDBRANCH  28  31
ENDBRANCH  27  28
ENDBRANCH  26  27
ENDBRANCH   3  26
TORSDOF 11
ENDMDL
