MODEL 1
REMARK VINA RESULT: -6.698821432      0.000      0.000
REMARK  12 active torsions:
REMARK  status: ('A' for Active; 'I' for Inactive)
REMARK    1  A    between atoms: N1_1  and  C1_4 
REMARK    2  A    between atoms: C2_7  and  N3_8 
REMARK    3  A    between atoms: C4_10  and  C5_11 
REMARK    4  A    between atoms: C5_11  and  O1_12 
REMARK    5  A    between atoms: C5_11  and  C6_14 
REMARK    6  A    between atoms: C5_11  and  N4_18 
REMARK    7  A    between atoms: C6_14  and  C7_15 
REMARK    8  A    between atoms: C7_15  and  O2_16 
REMARK    9  A    between atoms: N4_18  and  C8_20 
REMARK   10  A    between atoms: C8_20  and  C9_21 
REMARK   11  A    between atoms: C9_21  and  N5_22 
REMARK   12  A    between atoms: C10_32  and  N9_33 
ROOT
HETATM    1  N3  UNL     1      43.493-404.071  15.888  1.00  0.00    -0.106 N 
HETATM    2  C3  UNL     1      44.771-403.840  16.611  1.00  0.00     0.201 C 
HETATM    3  C4  UNL     1      44.358-402.525  17.211  1.00  0.00     0.176 C 
HETATM    4  N6  UNL     1      43.763-401.903  16.024  1.00  0.00    -0.310 N 
ATOM      5  H6  UNL     1      43.741-400.904  15.813  1.00  0.00     0.182 HD
HETATM    6  N7  UNL     1      43.284-402.824  15.312  1.00  0.00    -0.230 N 
ATOM      7  H7  UNL     1      42.803-402.675  14.424  1.00  0.00     0.208 HD
ENDROOT
BRANCH   1   8
HETATM    8  C2  UNL     1      42.771-405.255  15.826  1.00  0.00     0.729 A 
HETATM    9  N2  UNL     1      42.735-406.113  16.896  1.00  0.00    -0.020 N 
HETATM   10  C1  UNL     1      42.057-407.278  16.858  1.00  0.00     0.705 A 
ATOM     11  H2  UNL     1      43.238-405.863  17.747  1.00  0.00     0.203 HD
HETATM   12  N10 UNL     1      41.383-407.631  15.745  1.00  0.00    -0.022 N 
HETATM   13  C10 UNL     1      41.401-406.816  14.698  1.00  0.00     0.705 A 
ATOM     14  H10 UNL     1      40.867-408.511  15.709  1.00  0.00     0.203 HD
HETATM   15  N8  UNL     1      42.078-405.664  14.747  1.00  0.00    -0.020 N 
ATOM     16  H8  UNL     1      42.069-405.063  13.923  1.00  0.00     0.203 HD
BRANCH  10  17
HETATM   17  N1  UNL     1      42.046-408.081  17.876  1.00  0.00    -0.234 N 
ATOM     18  H12 UNL     1      42.590-407.834  18.703  1.00  0.00     0.174 HD
ATOM     19  H11 UNL     1      41.499-408.942  17.863  1.00  0.00     0.174 HD
ENDBRANCH  10  17
BRANCH  13  20
HETATM   20  N9  UNL     1      40.749-407.179  13.623  1.00  0.00    -0.234 N 
ATOM     21  H92 UNL     1      41.194-407.030  12.717  1.00  0.00     0.174 HD
ATOM     22  H91 UNL     1      39.819-407.592  13.679  1.00  0.00     0.174 HD
ENDBRANCH  13  20
ENDBRANCH   1   8
BRANCH   3  23
HETATM   23  C5  UNL     1      45.360-401.685  17.872  1.00  0.00     0.153 C 
BRANCH  23  24
HETATM   24  O1  UNL     1      45.093-401.978  19.301  1.00  0.00    -0.369 OA
ATOM     25  H1  UNL     1      45.824-401.542  19.723  1.00  0.00     0.212 HD
ENDBRANCH  23  24
BRANCH  23  26
HETATM   26  C6  UNL     1      45.008-400.235  17.797  1.00  0.00     0.088 C 
BRANCH  26  27
HETATM   27  C7  UNL     1      45.783-399.290  18.630  1.00  0.00     0.169 C 
BRANCH  27  28
HETATM   28  O2  UNL     1      45.022-399.117  19.827  1.00  0.00    -0.401 OA
ATOM     29  H2  UNL     1      44.876-398.182  19.905  1.00  0.00     0.209 HD
ENDBRANCH  27  28
ENDBRANCH  26  27
ENDBRANCH  23  26
BRANCH  23  30
HETATM   30  N4  UNL     1      46.718-401.986  17.776  1.00  0.00    -0.388 N 
ATOM     31  H4  UNL     1      47.128-402.598  18.482  1.00  0.00     0.156 HD
BRANCH  30  32
HETATM   32  C8  UNL     1      47.546-401.493  16.765  1.00  0.00     0.144 C 
BRANCH  32  33
HETATM   33  C9  UNL     1      48.125-402.641  15.933  1.00  0.00     0.248 C 
BRANCH  33  34
HETATM   34  N5  UNL     1      47.464-402.576  14.648  1.00  0.00    -0.078 N 
ATOM     35  H53 UNL     1      46.564-402.097  14.678  1.00  0.00     0.274 HD
ATOM     36  H52 UNL     1      47.918-401.944  13.989  1.00  0.00     0.274 HD
ATOM     37  H51 UNL     1      47.403-403.538  14.314  1.00  0.00     0.274 HD
ENDBRANCH  33  34
ENDBRANCH  32  33
ENDBRANCH  30  32
ENDBRANCH  23  30
ENDBRANCH   3  23
TORSDOF 12
ENDMDL
MODEL 2
REMARK VINA RESULT: -6.671545520      0.080      1.684
REMARK  12 active torsions:
REMARK  status: ('A' for Active; 'I' for Inactive)
REMARK    1  A    between atoms: N1_1  and  C1_4 
REMARK    2  A    between atoms: C2_7  and  N3_8 
REMARK    3  A    between atoms: C4_10  and  C5_11 
REMARK    4  A    between atoms: C5_11  and  O1_12 
REMARK    5  A    between atoms: C5_11  and  C6_14 
REMARK    6  A    between atoms: C5_11  and  N4_18 
REMARK    7  A    between atoms: C6_14  and  C7_15 
REMARK    8  A    between atoms: C7_15  and  O2_16 
REMARK    9  A    between atoms: N4_18  and  C8_20 
REMARK   10  A    between atoms: C8_20  and  C9_21 
REMARK   11  A    between atoms: C9_21  and  N5_22 
REMARK   12  A    between atoms: C10_32  and  N9_33 
ROOT
HETATM    1  N3  UNL     1      43.581-404.118  15.942  1.00  0.00    -0.106 N 
HETATM    2  C3  UNL     1      44.841-403.875  16.694  1.00  0.00     0.201 C 
HETATM    3  C4  UNL     1      44.421-402.541  17.244  1.00  0.00     0.176 C 
HETATM    4  N6  UNL     1      43.865-401.949  16.022  1.00  0.00    -0.310 N 
ATOM      5  H6  UNL     1      43.856-400.957  15.782  1.00  0.00     0.182 HD
HETATM    6  N7  UNL     1      43.399-402.888  15.324  1.00  0.00    -0.230 N 
ATOM      7  H7  UNL     1      42.945-402.761  14.419  1.00  0.00     0.208 HD
ENDROOT
BRANCH   1   8
HETATM    8  C2  UNL     1      42.852-405.298  15.894  1.00  0.00     0.729 A 
HETATM    9  N2  UNL     1      42.145-405.642  14.769  1.00  0.00    -0.020 N 
HETATM   10  C1  UNL     1      41.413-406.773  14.699  1.00  0.00     0.705 A 
ATOM     11  H2  UNL     1      42.173-405.022  13.960  1.00  0.00     0.203 HD
HETATM   12  N10 UNL     1      41.362-407.609  15.755  1.00  0.00    -0.022 N 
HETATM   13  C10 UNL     1      42.039-407.300  16.854  1.00  0.00     0.705 A 
ATOM     14  H10 UNL     1      40.811-408.467  15.710  1.00  0.00     0.203 HD
HETATM   15  N8  UNL     1      42.760-406.174  16.910  1.00  0.00    -0.020 N 
ATOM     16  H8  UNL     1      43.268-405.969  17.771  1.00  0.00     0.203 HD
BRANCH  10  17
HETATM   17  N1  UNL     1      40.743-407.072  13.631  1.00  0.00    -0.234 N 
ATOM     18  H12 UNL     1      39.730-407.167  13.696  1.00  0.00     0.174 HD
ATOM     19  H11 UNL     1      41.211-407.204  12.734  1.00  0.00     0.174 HD
ENDBRANCH  10  17
BRANCH  13  20
HETATM   20  N9  UNL     1      41.971-408.118  17.872  1.00  0.00    -0.234 N 
ATOM     21  H92 UNL     1      42.175-407.749  18.800  1.00  0.00     0.174 HD
ATOM     22  H91 UNL     1      41.728-409.101  17.749  1.00  0.00     0.174 HD
ENDBRANCH  13  20
ENDBRANCH   1   8
BRANCH   3  23
HETATM   23  C5  UNL     1      45.410-401.689  17.908  1.00  0.00     0.153 C 
BRANCH  23  24
HETATM   24  O1  UNL     1      45.122-401.962  19.337  1.00  0.00    -0.369 OA
ATOM     25  H1  UNL     1      44.479-401.289  19.531  1.00  0.00     0.212 HD
ENDBRANCH  23  24
BRANCH  23  26
HETATM   26  C6  UNL     1      45.057-400.240  17.807  1.00  0.00     0.088 C 
BRANCH  26  27
HETATM   27  C7  UNL     1      45.805-399.284  18.650  1.00  0.00     0.169 C 
BRANCH  27  28
HETATM   28  O2  UNL     1      45.011-399.101  19.824  1.00  0.00    -0.401 OA
ATOM     29  H2  UNL     1      45.004-399.944  20.263  1.00  0.00     0.209 HD
ENDBRANCH  27  28
ENDBRANCH  26  27
ENDBRANCH  23  26
BRANCH  23  30
HETATM   30  N4  UNL     1      46.771-401.987  17.838  1.00  0.00    -0.388 N 
ATOM     31  H4  UNL     1      47.169-402.595  18.553  1.00  0.00     0.156 HD
BRANCH  30  32
HETATM   32  C8  UNL     1      47.615-401.497  16.840  1.00  0.00     0.144 C 
BRANCH  32  33
HETATM   33  C9  UNL     1      48.146-402.642  15.971  1.00  0.00     0.248 C 
BRANCH  33  34
HETATM   34  N5  UNL     1      47.451-402.538  14.706  1.00  0.00    -0.078 N 
ATOM     35  H53 UNL     1      46.448-402.711  14.777  1.00  0.00     0.274 HD
ATOM     36  H52 UNL     1      47.386-401.582  14.356  1.00  0.00     0.274 HD
ATOM     37  H51 UNL     1      47.930-403.175  14.069  1.00  0.00     0.274 HD
ENDBRANCH  33  34
ENDBRANCH  32  33
ENDBRANCH  30  32
ENDBRANCH  23  30
ENDBRANCH   3  23
TORSDOF 12
ENDMDL
MODEL 3
REMARK VINA RESULT: -6.532867755      2.919      6.990
REMARK  12 active torsions:
REMARK  status: ('A' for Active; 'I' for Inactive)
REMARK    1  A    between atoms: N1_1  and  C1_4 
REMARK    2  A    between atoms: C2_7  and  N3_8 
REMARK    3  A    between atoms: C4_10  and  C5_11 
REMARK    4  A    between atoms: C5_11  and  O1_12 
REMARK    5  A    between atoms: C5_11  and  C6_14 
REMARK    6  A    between atoms: C5_11  and  N4_18 
REMARK    7  A    between atoms: C6_14  and  C7_15 
REMARK    8  A    between atoms: C7_15  and  O2_16 
REMARK    9  A    between atoms: N4_18  and  C8_20 
REMARK   10  A    between atoms: C8_20  and  C9_21 
REMARK   11  A    between atoms: C9_21  and  N5_22 
REMARK   12  A    between atoms: C10_32  and  N9_33 
ROOT
HETATM    1  N3  UNL     1      43.814-403.011  16.203  1.00  0.00    -0.106 N 
HETATM    2  C3  UNL     1      43.196-404.133  16.957  1.00  0.00     0.201 C 
HETATM    3  C4  UNL     1      43.099-405.059  15.778  1.00  0.00     0.176 C 
HETATM    4  N6  UNL     1      42.568-404.119  14.785  1.00  0.00    -0.310 N 
ATOM      5  H6  UNL     1      41.953-404.350  14.004  1.00  0.00     0.182 HD
HETATM    6  N7  UNL     1      43.009-402.975  15.072  1.00  0.00    -0.230 N 
ATOM      7  H7  UNL     1      42.801-402.128  14.541  1.00  0.00     0.208 HD
ENDROOT
BRANCH   1   8
HETATM    8  C2  UNL     1      44.892-402.231  16.600  1.00  0.00     0.729 A 
HETATM    9  N2  UNL     1      46.085-402.283  15.923  1.00  0.00    -0.020 N 
HETATM   10  C1  UNL     1      47.153-401.551  16.297  1.00  0.00     0.705 A 
ATOM     11  H2  UNL     1      46.166-402.896  15.113  1.00  0.00     0.203 HD
HETATM   12  N10 UNL     1      47.071-400.732  17.364  1.00  0.00    -0.022 N 
HETATM   13  C10 UNL     1      45.927-400.662  18.034  1.00  0.00     0.705 A 
ATOM     14  H10 UNL     1      47.875-400.174  17.653  1.00  0.00     0.203 HD
HETATM   15  N8  UNL     1      44.874-401.395  17.654  1.00  0.00    -0.020 N 
ATOM     16  H8  UNL     1      44.011-401.315  18.192  1.00  0.00     0.203 HD
BRANCH  10  17
HETATM   17  N1  UNL     1      48.275-401.624  15.651  1.00  0.00    -0.234 N 
ATOM     18  H12 UNL     1      48.626-400.792  15.177  1.00  0.00     0.174 HD
ATOM     19  H11 UNL     1      48.809-402.493  15.618  1.00  0.00     0.174 HD
ENDBRANCH  10  17
BRANCH  13  20
HETATM   20  N9  UNL     1      45.867-399.870  19.072  1.00  0.00    -0.234 N 
ATOM     21  H92 UNL     1      46.651-399.240  19.243  1.00  0.00     0.174 HD
ATOM     22  H91 UNL     1      45.066-399.879  19.704  1.00  0.00     0.174 HD
ENDBRANCH  13  20
ENDBRANCH   1   8
BRANCH   3  23
HETATM   23  C5  UNL     1      42.318-406.293  15.890  1.00  0.00     0.153 C 
BRANCH  23  24
HETATM   24  O1  UNL     1      42.988-407.157  14.887  1.00  0.00    -0.369 OA
ATOM     25  H1  UNL     1      43.904-407.004  15.088  1.00  0.00     0.212 HD
ENDBRANCH  23  24
BRANCH  23  26
HETATM   26  C6  UNL     1      40.956-406.149  15.293  1.00  0.00     0.088 C 
BRANCH  26  27
HETATM   27  C7  UNL     1      40.662-406.893  14.049  1.00  0.00     0.169 C 
BRANCH  27  28
HETATM   28  O2  UNL     1      41.137-406.068  12.984  1.00  0.00    -0.401 OA
ATOM     29  H2  UNL     1      41.827-406.567  12.562  1.00  0.00     0.209 HD
ENDBRANCH  27  28
ENDBRANCH  26  27
ENDBRANCH  23  26
BRANCH  23  30
HETATM   30  N4  UNL     1      42.397-407.086  17.035  1.00  0.00    -0.388 N 
ATOM     31  H4  UNL     1      42.130-406.672  17.928  1.00  0.00     0.156 HD
BRANCH  30  32
HETATM   32  C8  UNL     1      42.823-408.416  17.022  1.00  0.00     0.144 C 
BRANCH  32  33
HETATM   33  C9  UNL     1      44.316-408.508  17.351  1.00  0.00     0.248 C 
BRANCH  33  34
HETATM   34  N5  UNL     1      44.984-408.793  16.100  1.00  0.00    -0.078 N 
ATOM     35  H53 UNL     1      44.348-408.860  15.306  1.00  0.00     0.274 HD
ATOM     36  H52 UNL     1      45.538-408.012  15.749  1.00  0.00     0.274 HD
ATOM     37  H51 UNL     1      45.529-409.641  16.259  1.00  0.00     0.274 HD
ENDBRANCH  33  34
ENDBRANCH  32  33
ENDBRANCH  30  32
ENDBRANCH  23  30
ENDBRANCH   3  23
TORSDOF 12
ENDMDL
MODEL 4
REMARK VINA RESULT: -6.514627171      0.868      1.193
REMARK  12 active torsions:
REMARK  status: ('A' for Active; 'I' for Inactive)
REMARK    1  A    between atoms: N1_1  and  C1_4 
REMARK    2  A    between atoms: C2_7  and  N3_8 
REMARK    3  A    between atoms: C4_10  and  C5_11 
REMARK    4  A    between atoms: C5_11  and  O1_12 
REMARK    5  A    between atoms: C5_11  and  C6_14 
REMARK    6  A    between atoms: C5_11  and  N4_18 
REMARK    7  A    between atoms: C6_14  and  C7_15 
REMARK    8  A    between atoms: C7_15  and  O2_16 
REMARK    9  A    between atoms: N4_18  and  C8_20 
REMARK   10  A    between atoms: C8_20  and  C9_21 
REMARK   11  A    between atoms: C9_21  and  N5_22 
REMARK   12  A    between atoms: C10_32  and  N9_33 
ROOT
HETATM    1  N3  UNL     1      43.256-404.182  15.548  1.00  0.00    -0.106 N 
HETATM    2  C3  UNL     1      44.666-403.850  15.882  1.00  0.00     0.201 C 
HETATM    3  C4  UNL     1      44.341-402.588  16.630  1.00  0.00     0.176 C 
HETATM    4  N6  UNL     1      43.379-402.001  15.691  1.00  0.00    -0.310 N 
ATOM      5  H6  UNL     1      43.217-401.005  15.537  1.00  0.00     0.182 HD
HETATM    6  N7  UNL     1      42.789-402.949  15.108  1.00  0.00    -0.230 N 
ATOM      7  H7  UNL     1      42.062-402.828  14.403  1.00  0.00     0.208 HD
ENDROOT
BRANCH   1   8
HETATM    8  C2  UNL     1      42.644-405.424  15.647  1.00  0.00     0.729 A 
HETATM    9  N2  UNL     1      42.690-406.139  16.817  1.00  0.00    -0.020 N 
HETATM   10  C1  UNL     1      42.120-407.355  16.937  1.00  0.00     0.705 A 
ATOM     11  H2  UNL     1      43.171-405.738  17.622  1.00  0.00     0.203 HD
HETATM   12  N10 UNL     1      41.477-407.906  15.888  1.00  0.00    -0.022 N 
HETATM   13  C10 UNL     1      41.418-407.233  14.746  1.00  0.00     0.705 A 
ATOM     14  H10 UNL     1      41.043-408.826  15.971  1.00  0.00     0.203 HD
HETATM   15  N8  UNL     1      41.988-406.027  14.639  1.00  0.00    -0.020 N 
ATOM     16  H8  UNL     1      41.922-405.539  13.746  1.00  0.00     0.203 HD
BRANCH  10  17
HETATM   17  N1  UNL     1      42.185-408.019  18.049  1.00  0.00    -0.234 N 
ATOM     18  H12 UNL     1      42.037-407.523  18.928  1.00  0.00     0.174 HD
ATOM     19  H11 UNL     1      42.373-409.022  18.054  1.00  0.00     0.174 HD
ENDBRANCH  10  17
BRANCH  13  20
HETATM   20  N9  UNL     1      40.799-407.786  13.735  1.00  0.00    -0.234 N 
ATOM     21  H92 UNL     1      39.939-407.351  13.401  1.00  0.00     0.174 HD
ATOM     22  H91 UNL     1      41.154-408.633  13.292  1.00  0.00     0.174 HD
ENDBRANCH  13  20
ENDBRANCH   1   8
BRANCH   3  23
HETATM   23  C5  UNL     1      45.420-401.673  17.008  1.00  0.00     0.153 C 
BRANCH  23  24
HETATM   24  O1  UNL     1      45.870-402.265  18.293  1.00  0.00    -0.369 OA
ATOM     25  H1  UNL     1      45.137-402.061  18.861  1.00  0.00     0.212 HD
ENDBRANCH  23  24
BRANCH  23  26
HETATM   26  C6  UNL     1      44.897-400.349  17.461  1.00  0.00     0.088 C 
BRANCH  26  27
HETATM   27  C7  UNL     1      45.747-399.536  18.357  1.00  0.00     0.169 C 
BRANCH  27  28
HETATM   28  O2  UNL     1      45.234-399.747  19.673  1.00  0.00    -0.401 OA
ATOM     29  H2  UNL     1      45.759-400.447  20.044  1.00  0.00     0.209 HD
ENDBRANCH  27  28
ENDBRANCH  26  27
ENDBRANCH  23  26
BRANCH  23  30
HETATM   30  N4  UNL     1      46.613-401.639  16.286  1.00  0.00    -0.388 N 
ATOM     31  H4  UNL     1      46.635-401.108  15.416  1.00  0.00     0.156 HD
BRANCH  30  32
HETATM   32  C8  UNL     1      47.778-402.293  16.693  1.00  0.00     0.144 C 
BRANCH  32  33
HETATM   33  C9  UNL     1      48.863-401.280  17.071  1.00  0.00     0.248 C 
BRANCH  33  34
HETATM   34  N5  UNL     1      48.897-401.251  18.516  1.00  0.00    -0.078 N 
ATOM     35  H53 UNL     1      48.587-400.364  18.913  1.00  0.00     0.274 HD
ATOM     36  H52 UNL     1      48.183-401.836  18.951  1.00  0.00     0.274 HD
ATOM     37  H51 UNL     1      49.849-401.506  18.780  1.00  0.00     0.274 HD
ENDBRANCH  33  34
ENDBRANCH  32  33
ENDBRANCH  30  32
ENDBRANCH  23  30
ENDBRANCH   3  23
TORSDOF 12
ENDMDL
MODEL 5
REMARK VINA RESULT: -6.505885099      2.935      6.888
REMARK  12 active torsions:
REMARK  status: ('A' for Active; 'I' for Inactive)
REMARK    1  A    between atoms: N1_1  and  C1_4 
REMARK    2  A    between atoms: C2_7  and  N3_8 
REMARK    3  A    between atoms: C4_10  and  C5_11 
REMARK    4  A    between atoms: C5_11  and  O1_12 
REMARK    5  A    between atoms: C5_11  and  C6_14 
REMARK    6  A    between atoms: C5_11  and  N4_18 
REMARK    7  A    between atoms: C6_14  and  C7_15 
REMARK    8  A    between atoms: C7_15  and  O2_16 
REMARK    9  A    between atoms: N4_18  and  C8_20 
REMARK   10  A    between atoms: C8_20  and  C9_21 
REMARK   11  A    between atoms: C9_21  and  N5_22 
REMARK   12  A    between atoms: C10_32  and  N9_33 
ROOT
HETATM    1  N3  UNL     1      43.866-403.131  16.199  1.00  0.00    -0.106 N 
HETATM    2  C3  UNL     1      43.250-404.256  16.951  1.00  0.00     0.201 C 
HETATM    3  C4  UNL     1      43.122-405.166  15.762  1.00  0.00     0.176 C 
HETATM    4  N6  UNL     1      42.582-404.208  14.791  1.00  0.00    -0.310 N 
ATOM      5  H6  UNL     1      41.951-404.422  14.018  1.00  0.00     0.182 HD
HETATM    6  N7  UNL     1      43.040-403.072  15.084  1.00  0.00    -0.230 N 
ATOM      7  H7  UNL     1      42.831-402.216  14.568  1.00  0.00     0.208 HD
ENDROOT
BRANCH   1   8
HETATM    8  C2  UNL     1      44.959-402.367  16.586  1.00  0.00     0.729 A 
HETATM    9  N2  UNL     1      44.883-401.531  17.673  1.00  0.00    -0.020 N 
HETATM   10  C1  UNL     1      45.922-400.765  18.061  1.00  0.00     0.705 A 
ATOM     11  H2  UNL     1      44.013-401.489  18.203  1.00  0.00     0.203 HD
HETATM   12  N10 UNL     1      47.083-400.805  17.378  1.00  0.00    -0.022 N 
HETATM   13  C10 UNL     1      47.181-401.607  16.325  1.00  0.00     0.705 A 
ATOM     14  H10 UNL     1      47.874-400.228  17.666  1.00  0.00     0.203 HD
HETATM   15  N8  UNL     1      46.143-402.362  15.949  1.00  0.00    -0.020 N 
ATOM     16  H8  UNL     1      46.256-402.966  15.135  1.00  0.00     0.203 HD
BRANCH  10  17
HETATM   17  N1  UNL     1      45.825-399.973  19.084  1.00  0.00    -0.234 N 
ATOM     18  H12 UNL     1      45.309-400.290  19.904  1.00  0.00     0.174 HD
ATOM     19  H11 UNL     1      46.262-399.052  19.080  1.00  0.00     0.174 HD
ENDBRANCH  10  17
BRANCH  13  20
HETATM   20  N9  UNL     1      48.312-401.626  15.668  1.00  0.00    -0.234 N 
ATOM     21  H92 UNL     1      48.823-402.508  15.615  1.00  0.00     0.174 HD
ATOM     22  H91 UNL     1      48.684-400.787  15.225  1.00  0.00     0.174 HD
ENDBRANCH  13  20
ENDBRANCH   1   8
BRANCH   3  23
HETATM   23  C5  UNL     1      42.331-406.394  15.872  1.00  0.00     0.153 C 
BRANCH  23  24
HETATM   24  O1  UNL     1      42.970-407.249  14.842  1.00  0.00    -0.369 OA
ATOM     25  H1  UNL     1      42.617-406.877  14.042  1.00  0.00     0.212 HD
ENDBRANCH  23  24
BRANCH  23  26
HETATM   26  C6  UNL     1      40.958-406.226  15.306  1.00  0.00     0.088 C 
BRANCH  26  27
HETATM   27  C7  UNL     1      40.635-406.936  14.050  1.00  0.00     0.169 C 
BRANCH  27  28
HETATM   28  O2  UNL     1      41.125-406.103  12.998  1.00  0.00    -0.401 OA
ATOM     29  H2  UNL     1      41.398-406.696  12.308  1.00  0.00     0.209 HD
ENDBRANCH  27  28
ENDBRANCH  26  27
ENDBRANCH  23  26
BRANCH  23  30
HETATM   30  N4  UNL     1      42.426-407.204  17.003  1.00  0.00    -0.388 N 
ATOM     31  H4  UNL     1      42.108-406.826  17.896  1.00  0.00     0.156 HD
BRANCH  30  32
HETATM   32  C8  UNL     1      42.932-408.505  16.977  1.00  0.00     0.144 C 
BRANCH  32  33
HETATM   33  C9  UNL     1      44.437-408.505  17.266  1.00  0.00     0.248 C 
BRANCH  33  34
HETATM   34  N5  UNL     1      45.086-408.762  16.000  1.00  0.00    -0.078 N 
ATOM     35  H53 UNL     1      46.097-408.629  16.027  1.00  0.00     0.274 HD
ATOM     36  H52 UNL     1      45.099-409.748  15.742  1.00  0.00     0.274 HD
ATOM     37  H51 UNL     1      44.615-408.168  15.317  1.00  0.00     0.274 HD
ENDBRANCH  33  34
ENDBRANCH  32  33
ENDBRANCH  30  32
ENDBRANCH  23  30
ENDBRANCH   3  23
TORSDOF 12
ENDMDL
