MODEL 1
REMARK VINA RESULT: -6.625811540      0.000      0.000
REMARK  12 active torsions:
REMARK  status: ('A' for Active; 'I' for Inactive)
REMARK    1  A    between atoms: C2_7  and  N3_8 
REMARK    2  A    between atoms: N3_8  and  N4_10 
REMARK    3  A    between atoms: N4_10  and  N5_12 
REMARK    4  A    between atoms: N8_22  and  C6_23 
REMARK    5  A    between atoms: C6_23  and  N9_24 
REMARK    6  A    between atoms: N9_24  and  C7_26 
REMARK    7  A    between atoms: C7_26  and  C8_27 
REMARK    8  A    between atoms: C8_27  and  C9_28 
REMARK    9  A    between atoms: C9_28  and  N10_29 
REMARK   10  A    between atoms: C9_28  and  N11_33 
REMARK   11  A    between atoms: N11_33  and  C10_35 
REMARK   12  A    between atoms: C10_35  and  N12_36 
ROOT
HETATM    1  N1  UNL     1      49.643-399.155  10.841  1.00  0.00    -0.383 N 
ATOM      2  H11 UNL     1      49.973-398.433  11.481  1.00  0.00     0.157 HD
ATOM      3  H12 UNL     1      49.758-399.023   9.836  1.00  0.00     0.157 HD
HETATM    4  C1  UNL     1      49.071-400.239  11.261  1.00  0.00     0.145 A 
HETATM    5  N2  UNL     1      48.639-401.184  10.424  1.00  0.00    -0.173 N 
ATOM      6  H2  UNL     1      48.743-401.065   9.416  1.00  0.00     0.186 HD
HETATM    7  C2  UNL     1      48.064-402.295  10.921  1.00  0.00     0.701 A 
HETATM    8  N6  UNL     1      47.909-402.477  12.229  1.00  0.00    -0.172 N 
ATOM      9  H6  UNL     1      47.465-403.333  12.560  1.00  0.00     0.186 HD
HETATM   10  C3  UNL     1      48.324-401.556  13.135  1.00  0.00     0.160 A 
HETATM   11  C4  UNL     1      48.914-400.418  12.631  1.00  0.00     0.123 A 
HETATM   12  N7  UNL     1      49.244-399.658  13.668  1.00  0.00    -0.346 N 
ATOM     13  H7  UNL     1      49.699-398.747  13.606  1.00  0.00     0.167 HD
HETATM   14  C5  UNL     1      48.898-400.253  14.786  1.00  0.00     0.191 A 
HETATM   15  N8  UNL     1      48.311-401.458  14.462  1.00  0.00    -0.288 N 
ENDROOT
BRANCH  15  16
HETATM   16  C6  UNL     1      47.859-402.400  15.421  1.00  0.00     0.186 C 
BRANCH  16  17
HETATM   17  N9  UNL     1      46.467-402.678  15.521  1.00  0.00    -0.386 N 
ATOM     18  H9  UNL     1      45.960-403.261  14.854  1.00  0.00     0.160 HD
BRANCH  17  19
HETATM   19  C7  UNL     1      45.843-402.050  16.662  1.00  0.00     0.124 C 
BRANCH  19  20
HETATM   20  C8  UNL     1      44.535-402.599  17.103  1.00  0.00     0.073 C 
BRANCH  20  21
HETATM   21  C9  UNL     1      43.411-402.659  16.141  1.00  0.00     0.280 C 
BRANCH  21  22
HETATM   22  N10 UNL     1      42.242-403.248  16.819  1.00  0.00    -0.059 N 
ATOM     23 3H10 UNL     1      41.665-403.805  16.189  1.00  0.00     0.276 HD
ATOM     24 2H10 UNL     1      42.501-403.991  17.468  1.00  0.00     0.276 HD
ATOM     25 1H10 UNL     1      41.717-402.499  17.271  1.00  0.00     0.276 HD
ENDBRANCH  21  22
BRANCH  21  26
HETATM   26  N11 UNL     1      43.051-401.523  15.433  1.00  0.00    -0.374 N 
ATOM     27  H11 UNL     1      43.142-401.531  14.417  1.00  0.00     0.156 HD
BRANCH  26  28
HETATM   28  C10 UNL     1      42.568-400.362  16.054  1.00  0.00     0.348 C 
BRANCH  28  29
HETATM   29  N12 UNL     1      43.437-399.254  15.602  1.00  0.00    -0.064 N 
ATOM     30 3H12 UNL     1      44.419-399.386  15.844  1.00  0.00     0.276 HD
ATOM     31 2H12 UNL     1      43.559-399.223  14.590  1.00  0.00     0.276 HD
ATOM     32 1H12 UNL     1      43.036-398.399  15.988  1.00  0.00     0.276 HD
ENDBRANCH  28  29
ENDBRANCH  26  28
ENDBRANCH  21  26
ENDBRANCH  20  21
ENDBRANCH  19  20
ENDBRANCH  17  19
ENDBRANCH  16  17
ENDBRANCH  15  16
BRANCH   7  33
HETATM   33  N3  UNL     1      47.646-403.260   9.913  1.00  0.00    -0.118 N 
ATOM     34  H3  UNL     1      47.040-404.050  10.139  1.00  0.00     0.207 HD
BRANCH  33  35
HETATM   35  N4  UNL     1      48.089-403.055   8.715  1.00  0.00    -0.235 N 
ATOM     36  H4  UNL     1      47.738-402.247   8.201  1.00  0.00     0.208 HD
BRANCH  35  37
HETATM   37  N5  UNL     1      49.010-403.870   8.099  1.00  0.00    -0.330 N 
ATOM     38  H52 UNL     1      49.982-403.563   8.102  1.00  0.00     0.178 HD
ATOM     39  H51 UNL     1      48.765-404.753   7.650  1.00  0.00     0.178 HD
ENDBRANCH  35  37
ENDBRANCH  33  35
ENDBRANCH   7  33
TORSDOF 12
ENDMDL
MODEL 2
REMARK VINA RESULT: -6.322313669      1.044      2.056
REMARK  12 active torsions:
REMARK  status: ('A' for Active; 'I' for Inactive)
REMARK    1  A    between atoms: C2_7  and  N3_8 
REMARK    2  A    between atoms: N3_8  and  N4_10 
REMARK    3  A    between atoms: N4_10  and  N5_12 
REMARK    4  A    between atoms: N8_22  and  C6_23 
REMARK    5  A    between atoms: C6_23  and  N9_24 
REMARK    6  A    between atoms: N9_24  and  C7_26 
REMARK    7  A    between atoms: C7_26  and  C8_27 
REMARK    8  A    between atoms: C8_27  and  C9_28 
REMARK    9  A    between atoms: C9_28  and  N10_29 
REMARK   10  A    between atoms: C9_28  and  N11_33 
REMARK   11  A    between atoms: N11_33  and  C10_35 
REMARK   12  A    between atoms: C10_35  and  N12_36 
ROOT
HETATM    1  N1  UNL     1      49.689-399.155  10.743  1.00  0.00    -0.383 N 
ATOM      2  H11 UNL     1      50.058-398.430  11.358  1.00  0.00     0.157 HD
ATOM      3  H12 UNL     1      49.781-399.049   9.733  1.00  0.00     0.157 HD
HETATM    4  C1  UNL     1      49.098-400.213  11.204  1.00  0.00     0.145 A 
HETATM    5  N2  UNL     1      48.617-401.163  10.400  1.00  0.00    -0.173 N 
ATOM      6  H2  UNL     1      48.697-401.069   9.387  1.00  0.00     0.186 HD
HETATM    7  C2  UNL     1      48.023-402.245  10.938  1.00  0.00     0.701 A 
HETATM    8  N6  UNL     1      47.899-402.393  12.253  1.00  0.00    -0.172 N 
ATOM      9  H6  UNL     1      47.440-403.229  12.615  1.00  0.00     0.186 HD
HETATM   10  C3  UNL     1      48.365-401.466  13.126  1.00  0.00     0.160 A 
HETATM   11  C4  UNL     1      48.974-400.357  12.580  1.00  0.00     0.123 A 
HETATM   12  N7  UNL     1      49.354-399.584  13.591  1.00  0.00    -0.346 N 
ATOM     13  H7  UNL     1      49.832-398.688  13.495  1.00  0.00     0.167 HD
HETATM   14  C5  UNL     1      49.021-400.143  14.731  1.00  0.00     0.191 A 
HETATM   15  N8  UNL     1      48.391-401.338  14.451  1.00  0.00    -0.288 N 
ENDROOT
BRANCH  15  16
HETATM   16  C6  UNL     1      47.939-402.245  15.442  1.00  0.00     0.186 C 
BRANCH  16  17
HETATM   17  N9  UNL     1      46.697-402.916  15.257  1.00  0.00    -0.386 N 
ATOM     18  H9  UNL     1      46.409-403.329  14.369  1.00  0.00     0.160 HD
BRANCH  17  19
HETATM   19  C7  UNL     1      45.887-402.954  16.451  1.00  0.00     0.124 C 
BRANCH  19  20
HETATM   20  C8  UNL     1      44.702-403.849  16.435  1.00  0.00     0.073 C 
BRANCH  20  21
HETATM   21  C9  UNL     1      43.345-403.261  16.511  1.00  0.00     0.280 C 
BRANCH  21  22
HETATM   22  N10 UNL     1      43.236-402.198  15.496  1.00  0.00    -0.059 N 
ATOM     23 3H10 UNL     1      42.371-401.663  15.582  1.00  0.00     0.276 HD
ATOM     24 2H10 UNL     1      43.891-401.434  15.659  1.00  0.00     0.276 HD
ATOM     25 1H10 UNL     1      43.345-402.617  14.572  1.00  0.00     0.276 HD
ENDBRANCH  21  22
BRANCH  21  26
HETATM   26  N11 UNL     1      42.235-404.090  16.480  1.00  0.00    -0.374 N 
ATOM     27  H11 UNL     1      41.310-403.672  16.582  1.00  0.00     0.156 HD
BRANCH  26  28
HETATM   28  C10 UNL     1      42.329-405.480  16.315  1.00  0.00     0.348 C 
BRANCH  28  29
HETATM   29  N12 UNL     1      40.994-405.938  15.873  1.00  0.00    -0.064 N 
ATOM     30 3H12 UNL     1      40.618-405.396  15.096  1.00  0.00     0.276 HD
ATOM     31 2H12 UNL     1      41.013-406.842  15.400  1.00  0.00     0.276 HD
ATOM     32 1H12 UNL     1      40.399-405.927  16.702  1.00  0.00     0.276 HD
ENDBRANCH  28  29
ENDBRANCH  26  28
ENDBRANCH  21  26
ENDBRANCH  20  21
ENDBRANCH  19  20
ENDBRANCH  17  19
ENDBRANCH  16  17
ENDBRANCH  15  16
BRANCH   7  33
HETATM   33  N3  UNL     1      47.551-403.220   9.964  1.00  0.00    -0.118 N 
ATOM     34  H3  UNL     1      46.951-404.002  10.228  1.00  0.00     0.207 HD
BRANCH  33  35
HETATM   35  N4  UNL     1      47.937-403.033   8.743  1.00  0.00    -0.235 N 
ATOM     36  H4  UNL     1      47.512-402.273   8.211  1.00  0.00     0.208 HD
BRANCH  35  37
HETATM   37  N5  UNL     1      48.893-403.806   8.126  1.00  0.00    -0.330 N 
ATOM     38  H52 UNL     1      48.907-404.801   8.353  1.00  0.00     0.178 HD
ATOM     39  H51 UNL     1      49.574-403.434   7.464  1.00  0.00     0.178 HD
ENDBRANCH  35  37
ENDBRANCH  33  35
ENDBRANCH   7  33
TORSDOF 12
ENDMDL
MODEL 3
REMARK VINA RESULT: -6.313931715      5.380      7.621
REMARK  12 active torsions:
REMARK  status: ('A' for Active; 'I' for Inactive)
REMARK    1  A    between atoms: C2_7  and  N3_8 
REMARK    2  A    between atoms: N3_8  and  N4_10 
REMARK    3  A    between atoms: N4_10  and  N5_12 
REMARK    4  A    between atoms: N8_22  and  C6_23 
REMARK    5  A    between atoms: C6_23  and  N9_24 
REMARK    6  A    between atoms: N9_24  and  C7_26 
REMARK    7  A    between atoms: C7_26  and  C8_27 
REMARK    8  A    between atoms: C8_27  and  C9_28 
REMARK    9  A    between atoms: C9_28  and  N10_29 
REMARK   10  A    between atoms: C9_28  and  N11_33 
REMARK   11  A    between atoms: N11_33  and  C10_35 
REMARK   12  A    between atoms: C10_35  and  N12_36 
ROOT
HETATM    1  N1  UNL     1      44.884-408.258  16.051  1.00  0.00    -0.383 N 
ATOM      2  H11 UNL     1      45.784-407.920  16.394  1.00  0.00     0.157 HD
ATOM      3  H12 UNL     1      44.758-409.255  15.875  1.00  0.00     0.157 HD
HETATM    4  C1  UNL     1      43.890-407.458  15.823  1.00  0.00     0.145 A 
HETATM    5  N2  UNL     1      42.714-407.899  15.374  1.00  0.00    -0.173 N 
ATOM      6  H2  UNL     1      42.573-408.892  15.190  1.00  0.00     0.186 HD
HETATM    7  C2  UNL     1      41.714-407.021  15.167  1.00  0.00     0.701 A 
HETATM    8  N6  UNL     1      41.869-405.720  15.393  1.00  0.00    -0.172 N 
ATOM      9  H6  UNL     1      41.085-405.092  15.220  1.00  0.00     0.186 HD
HETATM   10  C3  UNL     1      43.038-405.205  15.847  1.00  0.00     0.160 A 
HETATM   11  C4  UNL     1      44.063-406.100  16.062  1.00  0.00     0.123 A 
HETATM   12  N7  UNL     1      45.105-405.402  16.500  1.00  0.00    -0.346 N 
ATOM     13  H7  UNL     1      46.013-405.796  16.743  1.00  0.00     0.167 HD
HETATM   14  C5  UNL     1      44.791-404.129  16.573  1.00  0.00     0.191 A 
HETATM   15  N8  UNL     1      43.482-403.990  16.160  1.00  0.00    -0.288 N 
ENDROOT
BRANCH  15  16
HETATM   16  C6  UNL     1      42.781-402.757  16.158  1.00  0.00     0.186 C 
BRANCH  16  17
HETATM   17  N9  UNL     1      43.421-401.594  15.645  1.00  0.00    -0.386 N 
ATOM     18  H9  UNL     1      43.825-401.540  14.709  1.00  0.00     0.160 HD
BRANCH  17  19
HETATM   19  C7  UNL     1      43.442-400.496  16.583  1.00  0.00     0.124 C 
BRANCH  19  20
HETATM   20  C8  UNL     1      44.758-400.136  17.171  1.00  0.00     0.073 C 
BRANCH  20  21
HETATM   21  C9  UNL     1      44.949-400.230  18.637  1.00  0.00     0.280 C 
BRANCH  21  22
HETATM   22  N10 UNL     1      44.896-401.650  19.028  1.00  0.00    -0.059 N 
ATOM     23 3H10 UNL     1      44.706-402.266  18.237  1.00  0.00     0.276 HD
ATOM     24 2H10 UNL     1      45.813-402.020  19.277  1.00  0.00     0.276 HD
ATOM     25 1H10 UNL     1      44.214-401.756  19.779  1.00  0.00     0.276 HD
ENDBRANCH  21  22
BRANCH  21  26
HETATM   26  N11 UNL     1      46.028-399.594  19.230  1.00  0.00    -0.374 N 
ATOM     27  H11 UNL     1      46.018-399.455  20.241  1.00  0.00     0.156 HD
BRANCH  26  28
HETATM   28  C10 UNL     1      47.133-399.132  18.500  1.00  0.00     0.348 C 
BRANCH  28  29
HETATM   29  N12 UNL     1      48.167-400.185  18.599  1.00  0.00    -0.064 N 
ATOM     30 3H12 UNL     1      49.092-399.872  18.308  1.00  0.00     0.276 HD
ATOM     31 2H12 UNL     1      48.411-400.424  19.561  1.00  0.00     0.276 HD
ATOM     32 1H12 UNL     1      47.820-400.979  18.061  1.00  0.00     0.276 HD
ENDBRANCH  28  29
ENDBRANCH  26  28
ENDBRANCH  21  26
ENDBRANCH  20  21
ENDBRANCH  19  20
ENDBRANCH  17  19
ENDBRANCH  16  17
ENDBRANCH  15  16
BRANCH   7  33
HETATM   33  N3  UNL     1      40.474-407.620  14.693  1.00  0.00    -0.118 N 
ATOM     34  H3  UNL     1      39.729-407.062  14.276  1.00  0.00     0.207 HD
BRANCH  33  35
HETATM   35  N4  UNL     1      40.376-408.903  14.832  1.00  0.00    -0.235 N 
ATOM     36  H4  UNL     1      41.169-409.409  15.227  1.00  0.00     0.208 HD
BRANCH  35  37
HETATM   37  N5  UNL     1      39.257-409.619  14.475  1.00  0.00    -0.330 N 
ATOM     38  H52 UNL     1      38.755-409.316  13.641  1.00  0.00     0.178 HD
ATOM     39  H51 UNL     1      38.915-410.424  15.000  1.00  0.00     0.178 HD
ENDBRANCH  35  37
ENDBRANCH  33  35
ENDBRANCH   7  33
TORSDOF 12
ENDMDL
MODEL 4
REMARK VINA RESULT: -6.309673200      1.233      1.649
REMARK  12 active torsions:
REMARK  status: ('A' for Active; 'I' for Inactive)
REMARK    1  A    between atoms: C2_7  and  N3_8 
REMARK    2  A    between atoms: N3_8  and  N4_10 
REMARK    3  A    between atoms: N4_10  and  N5_12 
REMARK    4  A    between atoms: N8_22  and  C6_23 
REMARK    5  A    between atoms: C6_23  and  N9_24 
REMARK    6  A    between atoms: N9_24  and  C7_26 
REMARK    7  A    between atoms: C7_26  and  C8_27 
REMARK    8  A    between atoms: C8_27  and  C9_28 
REMARK    9  A    between atoms: C9_28  and  N10_29 
REMARK   10  A    between atoms: C9_28  and  N11_33 
REMARK   11  A    between atoms: N11_33  and  C10_35 
REMARK   12  A    between atoms: C10_35  and  N12_36 
ROOT
HETATM    1  N1  UNL     1      49.671-398.855   9.890  1.00  0.00    -0.383 N 
ATOM      2  H11 UNL     1      50.080-398.029  10.327  1.00  0.00     0.157 HD
ATOM      3  H12 UNL     1      49.639-398.918   8.872  1.00  0.00     0.157 HD
HETATM    4  C1  UNL     1      49.180-399.832  10.587  1.00  0.00     0.145 A 
HETATM    5  N2  UNL     1      48.645-400.912  10.015  1.00  0.00    -0.173 N 
ATOM      6  H2  UNL     1      48.603-400.989   8.999  1.00  0.00     0.186 HD
HETATM    7  C2  UNL     1      48.163-401.900  10.792  1.00  0.00     0.701 A 
HETATM    8  N6  UNL     1      48.199-401.827  12.118  1.00  0.00    -0.172 N 
ATOM      9  H6  UNL     1      47.820-402.599  12.667  1.00  0.00     0.186 HD
HETATM   10  C3  UNL     1      48.727-400.757  12.764  1.00  0.00     0.160 A 
HETATM   11  C4  UNL     1      49.224-399.744  11.973  1.00  0.00     0.123 A 
HETATM   12  N7  UNL     1      49.688-398.805  12.788  1.00  0.00    -0.346 N 
ATOM     13  H7  UNL     1      50.117-397.929  12.489  1.00  0.00     0.167 HD
HETATM   14  C5  UNL     1      49.513-399.171  14.037  1.00  0.00     0.191 A 
HETATM   15  N8  UNL     1      48.903-400.408  14.036  1.00  0.00    -0.288 N 
ENDROOT
BRANCH  15  16
HETATM   16  C6  UNL     1      48.606-401.144  15.211  1.00  0.00     0.186 C 
BRANCH  16  17
HETATM   17  N9  UNL     1      47.246-401.355  15.575  1.00  0.00    -0.386 N 
ATOM     18  H9  UNL     1      46.640-402.035  15.114  1.00  0.00     0.160 HD
BRANCH  17  19
HETATM   19  C7  UNL     1      46.811-400.511  16.662  1.00  0.00     0.124 C 
BRANCH  19  20
HETATM   20  C8  UNL     1      45.423-400.706  17.154  1.00  0.00     0.073 C 
BRANCH  20  21
HETATM   21  C9  UNL     1      44.699-401.952  16.811  1.00  0.00     0.280 C 
BRANCH  21  22
HETATM   22  N10 UNL     1      44.235-402.585  18.058  1.00  0.00    -0.059 N 
ATOM     23 3H10 UNL     1      44.119-403.594  17.963  1.00  0.00     0.276 HD
ATOM     24 2H10 UNL     1      44.954-402.594  18.782  1.00  0.00     0.276 HD
ATOM     25 1H10 UNL     1      43.380-402.120  18.361  1.00  0.00     0.276 HD
ENDBRANCH  21  22
BRANCH  21  26
HETATM   26  N11 UNL     1      43.685-401.918  15.867  1.00  0.00    -0.374 N 
ATOM     27  H11 UNL     1      43.708-401.192  15.150  1.00  0.00     0.156 HD
BRANCH  26  28
HETATM   28  C10 UNL     1      42.628-402.840  15.854  1.00  0.00     0.348 C 
BRANCH  28  29
HETATM   29  N12 UNL     1      42.974-403.858  14.838  1.00  0.00    -0.064 N 
ATOM     30 3H12 UNL     1      42.955-404.811  15.198  1.00  0.00     0.276 HD
ATOM     31 2H12 UNL     1      42.256-403.978  14.124  1.00  0.00     0.276 HD
ATOM     32 1H12 UNL     1      43.881-403.586  14.458  1.00  0.00     0.276 HD
ENDBRANCH  28  29
ENDBRANCH  26  28
ENDBRANCH  21  26
ENDBRANCH  20  21
ENDBRANCH  19  20
ENDBRANCH  17  19
ENDBRANCH  16  17
ENDBRANCH  15  16
BRANCH   7  33
HETATM   33  N3  UNL     1      47.618-403.034  10.056  1.00  0.00    -0.118 N 
ATOM     34  H3  UNL     1      47.095-403.777  10.519  1.00  0.00     0.207 HD
BRANCH  33  35
HETATM   35  N4  UNL     1      47.839-403.040   8.781  1.00  0.00    -0.235 N 
ATOM     36  H4  UNL     1      47.254-402.453   8.186  1.00  0.00     0.208 HD
BRANCH  35  37
HETATM   37  N5  UNL     1      48.822-403.797   8.188  1.00  0.00    -0.330 N 
ATOM     38  H52 UNL     1      48.856-404.788   8.425  1.00  0.00     0.178 HD
ATOM     39  H51 UNL     1      49.505-403.416   7.533  1.00  0.00     0.178 HD
ENDBRANCH  35  37
ENDBRANCH  33  35
ENDBRANCH   7  33
TORSDOF 12
ENDMDL
MODEL 5
REMARK VINA RESULT: -6.186161535      1.421      7.231
REMARK  12 active torsions:
REMARK  status: ('A' for Active; 'I' for Inactive)
REMARK    1  A    between atoms: C2_7  and  N3_8 
REMARK    2  A    between atoms: N3_8  and  N4_10 
REMARK    3  A    between atoms: N4_10  and  N5_12 
REMARK    4  A    between atoms: N8_22  and  C6_23 
REMARK    5  A    between atoms: C6_23  and  N9_24 
REMARK    6  A    between atoms: N9_24  and  C7_26 
REMARK    7  A    between atoms: C7_26  and  C8_27 
REMARK    8  A    between atoms: C8_27  and  C9_28 
REMARK    9  A    between atoms: C9_28  and  N10_29 
REMARK   10  A    between atoms: C9_28  and  N11_33 
REMARK   11  A    between atoms: N11_33  and  C10_35 
REMARK   12  A    between atoms: C10_35  and  N12_36 
ROOT
HETATM    1  N1  UNL     1      42.834-405.601  16.939  1.00  0.00    -0.383 N 
ATOM      2  H11 UNL     1      43.370-406.464  17.041  1.00  0.00     0.157 HD
ATOM      3  H12 UNL     1      41.825-405.619  17.085  1.00  0.00     0.157 HD
HETATM    4  C1  UNL     1      43.394-404.476  16.622  1.00  0.00     0.145 A 
HETATM    5  N2  UNL     1      42.694-403.349  16.490  1.00  0.00    -0.173 N 
ATOM      6  H2  UNL     1      41.683-403.351  16.629  1.00  0.00     0.186 HD
HETATM    7  C2  UNL     1      43.333-402.207  16.171  1.00  0.00     0.701 A 
HETATM    8  N6  UNL     1      44.648-402.173  15.979  1.00  0.00    -0.172 N 
ATOM      9  H6  UNL     1      45.090-401.287  15.736  1.00  0.00     0.186 HD
HETATM   10  C3  UNL     1      45.419-403.283  16.095  1.00  0.00     0.160 A 
HETATM   11  C4  UNL     1      44.769-404.453  16.423  1.00  0.00     0.123 A 
HETATM   12  N7  UNL     1      45.691-405.406  16.488  1.00  0.00    -0.346 N 
ATOM     13  H7  UNL     1      45.508-406.384  16.710  1.00  0.00     0.167 HD
HETATM   14  C5  UNL     1      46.875-404.902  16.223  1.00  0.00     0.191 A 
HETATM   15  N8  UNL     1      46.716-403.556  15.971  1.00  0.00    -0.288 N 
ENDROOT
BRANCH  15  16
HETATM   16  C6  UNL     1      47.790-402.671  15.700  1.00  0.00     0.186 C 
BRANCH  16  17
HETATM   17  N9  UNL     1      47.932-402.129  14.391  1.00  0.00    -0.386 N 
ATOM     18  H9  UNL     1      47.617-402.608  13.547  1.00  0.00     0.160 HD
BRANCH  17  19
HETATM   19  C7  UNL     1      48.568-400.832  14.378  1.00  0.00     0.124 C 
BRANCH  19  20
HETATM   20  C8  UNL     1      49.252-400.428  13.123  1.00  0.00     0.073 C 
BRANCH  20  21
HETATM   21  C9  UNL     1      48.468-400.319  11.872  1.00  0.00     0.280 C 
BRANCH  21  22
HETATM   22  N10 UNL     1      48.527-398.924  11.400  1.00  0.00    -0.059 N 
ATOM     23 3H10 UNL     1      47.789-398.707  10.730  1.00  0.00     0.276 HD
ATOM     24 2H10 UNL     1      48.263-398.256  12.123  1.00  0.00     0.276 HD
ATOM     25 1H10 UNL     1      49.459-398.747  11.024  1.00  0.00     0.276 HD
ENDBRANCH  21  22
BRANCH  21  26
HETATM   26  N11 UNL     1      48.708-401.204  10.832  1.00  0.00    -0.374 N 
ATOM     27  H11 UNL     1      49.314-400.906  10.067  1.00  0.00     0.156 HD
BRANCH  26  28
HETATM   28  C10 UNL     1      48.153-402.492  10.787  1.00  0.00     0.348 C 
BRANCH  28  29
HETATM   29  N12 UNL     1      47.472-402.607   9.479  1.00  0.00    -0.064 N 
ATOM     30 3H12 UNL     1      46.465-402.462   9.534  1.00  0.00     0.276 HD
ATOM     31 2H12 UNL     1      47.677-401.833   8.847  1.00  0.00     0.276 HD
ATOM     32 1H12 UNL     1      47.731-403.518   9.101  1.00  0.00     0.276 HD
ENDBRANCH  28  29
ENDBRANCH  26  28
ENDBRANCH  21  26
ENDBRANCH  20  21
ENDBRANCH  19  20
ENDBRANCH  17  19
ENDBRANCH  16  17
ENDBRANCH  15  16
BRANCH   7  33
HETATM   33  N3  UNL     1      42.468-401.040  16.069  1.00  0.00    -0.118 N 
ATOM     34  H3  UNL     1      41.632-400.935  16.643  1.00  0.00     0.207 HD
BRANCH  33  35
HETATM   35  N4  UNL     1      42.827-400.144  15.206  1.00  0.00    -0.235 N 
ATOM     36  H4  UNL     1      42.564-400.280  14.230  1.00  0.00     0.208 HD
BRANCH  35  37
HETATM   37  N5  UNL     1      43.543-399.018  15.539  1.00  0.00    -0.330 N 
ATOM     38  H52 UNL     1      44.220-398.676  14.857  1.00  0.00     0.178 HD
ATOM     39  H51 UNL     1      43.427-398.520  16.422  1.00  0.00     0.178 HD
ENDBRANCH  35  37
ENDBRANCH  33  35
ENDBRANCH   7  33
TORSDOF 12
ENDMDL
