MODEL 1
REMARK VINA RESULT: -9.233866453      0.000      0.000
REMARK  4 active torsions:
REMARK  status: ('A' for Active; 'I' for Inactive)
REMARK    1  A    between atoms: C1_2  and  C2_4 
REMARK       I    between atoms: N1_8  and  C6_9 
REMARK    2  A    between atoms: C6_9  and  C7_11 
REMARK    3  A    between atoms: C7_11  and  C8_12 
REMARK    4  A    between atoms: C8_12  and  C9_13 
ROOT
HETATM    1  C9  UNL     1     -12.319   7.415  -3.367  1.00  0.00     0.031 A 
HETATM    2  N2  UNL     1     -11.056   7.122  -3.033  1.00  0.00    -0.361 N 
ATOM      3  H2  UNL     1     -10.828   7.070  -2.040  1.00  0.00     0.165 HD
HETATM    4  C10 UNL     1     -10.072   6.894  -3.911  1.00  0.00     0.015 A 
HETATM    5  C11 UNL     1     -10.392   6.967  -5.268  1.00  0.00    -0.034 A 
HETATM    6  C12 UNL     1     -11.688   7.269  -5.641  1.00  0.00     0.035 A 
HETATM    7  C13 UNL     1     -12.664   7.495  -4.692  1.00  0.00     0.057 A 
HETATM    8 CL1  UNL     1     -14.303   7.876  -5.215  1.00  0.00    -0.082 Cl
HETATM    9  C14 UNL     1      -9.492   6.758  -6.445  1.00  0.00     0.040 C 
HETATM   10  C15 UNL     1      -8.734   5.454  -6.322  1.00  0.00     0.005 C 
HETATM   11  C16 UNL     1      -7.604   5.689  -5.349  1.00  0.00     0.001 C 
HETATM   12  C17 UNL     1      -8.079   5.399  -3.938  1.00  0.00     0.006 C 
HETATM   13  C18 UNL     1      -8.761   6.589  -3.328  1.00  0.00     0.057 C 
ENDROOT
BRANCH   1  14
HETATM   14  C8  UNL     1     -13.298   7.651  -2.308  1.00  0.00     0.068 C 
BRANCH  14  15
HETATM   15  C7  UNL     1     -12.917   7.264  -0.936  1.00  0.00     0.109 C 
BRANCH  15  16
HETATM   16  C6  UNL     1     -13.808   6.372  -0.210  1.00  0.00     0.220 C 
HETATM   17  N1  UNL     1     -13.276   5.598   0.856  1.00  0.00    -0.351 N 
HETATM   18  C5  UNL     1     -11.868   5.674   1.240  1.00  0.00     0.126 C 
HETATM   19  C19 UNL     1     -14.101   4.688   1.628  1.00  0.00     0.141 C 
HETATM   20  C4  UNL     1     -11.261   4.287   1.238  1.00  0.00     0.021 C 
HETATM   21  C3  UNL     1     -12.043   3.326   2.101  1.00  0.00     0.019 C 
HETATM   22  C2  UNL     1     -13.514   3.306   1.725  1.00  0.00     0.105 C 
HETATM   23  O3  UNL     1     -15.019   6.257  -0.481  1.00  0.00    -0.273 OA
BRANCH  22  24
HETATM   24  C1  UNL     1     -14.227   2.596   2.827  1.00  0.00     0.178 C 
HETATM   25  O1  UNL     1     -15.462   2.655   2.976  1.00  0.00    -0.648 OA
HETATM   26  O2  UNL     1     -13.504   1.832   3.734  1.00  0.00    -0.648 OA
ENDBRANCH  22  24
ENDBRANCH  15  16
ENDBRANCH  14  15
ENDBRANCH   1  14
TORSDOF 4
ENDMDL
MODEL 2
REMARK VINA RESULT: -8.611884744      5.429      8.505
REMARK  4 active torsions:
REMARK  status: ('A' for Active; 'I' for Inactive)
REMARK    1  A    between atoms: C1_2  and  C2_4 
REMARK       I    between atoms: N1_8  and  C6_9 
REMARK    2  A    between atoms: C6_9  and  C7_11 
REMARK    3  A    between atoms: C7_11  and  C8_12 
REMARK    4  A    between atoms: C8_12  and  C9_13 
ROOT
HETATM    1  C9  UNL     1     -11.571   5.518   0.923  1.00  0.00     0.031 A 
HETATM    2  N2  UNL     1     -11.255   4.685   1.922  1.00  0.00    -0.361 N 
ATOM      3  H2  UNL     1     -10.341   4.797   2.362  1.00  0.00     0.165 HD
HETATM    4  C10 UNL     1     -12.054   3.715   2.383  1.00  0.00     0.015 A 
HETATM    5  C11 UNL     1     -13.302   3.568   1.777  1.00  0.00    -0.034 A 
HETATM    6  C12 UNL     1     -13.655   4.415   0.742  1.00  0.00     0.035 A 
HETATM    7  C13 UNL     1     -12.791   5.399   0.307  1.00  0.00     0.057 A 
HETATM    8 CL1  UNL     1     -13.284   6.454  -1.015  1.00  0.00    -0.082 Cl
HETATM    9  C14 UNL     1     -14.377   2.576   2.095  1.00  0.00     0.040 C 
HETATM   10  C15 UNL     1     -14.692   2.575   3.575  1.00  0.00     0.005 C 
HETATM   11  C16 UNL     1     -13.598   1.789   4.258  1.00  0.00     0.001 C 
HETATM   12  C17 UNL     1     -12.460   2.719   4.631  1.00  0.00     0.006 C 
HETATM   13  C18 UNL     1     -11.508   2.916   3.487  1.00  0.00     0.057 C 
ENDROOT
BRANCH   1  14
HETATM   14  C8  UNL     1     -10.604   6.531   0.509  1.00  0.00     0.068 C 
BRANCH  14  15
HETATM   15  C7  UNL     1      -9.793   7.165   1.567  1.00  0.00     0.109 C 
BRANCH  15  16
HETATM   16  C6  UNL     1      -8.392   7.431   1.282  1.00  0.00     0.220 C 
HETATM   17  N1  UNL     1      -7.515   7.701   2.366  1.00  0.00    -0.351 N 
HETATM   18  C5  UNL     1      -7.980   7.719   3.751  1.00  0.00     0.126 C 
HETATM   19  C19 UNL     1      -6.105   7.974   2.161  1.00  0.00     0.141 C 
HETATM   20  C4  UNL     1      -7.601   9.032   4.403  1.00  0.00     0.021 C 
HETATM   21  C3  UNL     1      -6.121   9.314   4.287  1.00  0.00     0.019 C 
HETATM   22  C2  UNL     1      -5.646   9.232   2.847  1.00  0.00     0.105 C 
HETATM   23  O3  UNL     1      -7.925   7.432   0.126  1.00  0.00    -0.273 OA
BRANCH  22  24
HETATM   24  C1  UNL     1      -4.155   9.199   2.890  1.00  0.00     0.178 C 
HETATM   25  O1  UNL     1      -3.448  10.084   2.375  1.00  0.00    -0.648 OA
HETATM   26  O2  UNL     1      -3.509   8.147   3.527  1.00  0.00    -0.648 OA
ENDBRANCH  22  24
ENDBRANCH  15  16
ENDBRANCH  14  15
ENDBRANCH   1  14
TORSDOF 4
ENDMDL
MODEL 3
REMARK VINA RESULT: -8.502973206      1.930      3.286
REMARK  4 active torsions:
REMARK  status: ('A' for Active; 'I' for Inactive)
REMARK    1  A    between atoms: C1_2  and  C2_4 
REMARK       I    between atoms: N1_8  and  C6_9 
REMARK    2  A    between atoms: C6_9  and  C7_11 
REMARK    3  A    between atoms: C7_11  and  C8_12 
REMARK    4  A    between atoms: C8_12  and  C9_13 
ROOT
HETATM    1  C9  UNL     1     -12.596   7.701  -3.547  1.00  0.00     0.031 A 
HETATM    2  N2  UNL     1     -13.683   7.708  -4.329  1.00  0.00    -0.361 N 
ATOM      3  H2  UNL     1     -14.575   7.955  -3.900  1.00  0.00     0.165 HD
HETATM    4  C10 UNL     1     -13.680   7.416  -5.635  1.00  0.00     0.015 A 
HETATM    5  C11 UNL     1     -12.455   7.080  -6.216  1.00  0.00    -0.034 A 
HETATM    6  C12 UNL     1     -11.317   7.063  -5.430  1.00  0.00     0.035 A 
HETATM    7  C13 UNL     1     -11.379   7.375  -4.088  1.00  0.00     0.057 A 
HETATM    8 CL1  UNL     1      -9.903   7.340  -3.126  1.00  0.00    -0.082 Cl
HETATM    9  C14 UNL     1     -12.172   6.715  -7.639  1.00  0.00     0.040 C 
HETATM   10  C15 UNL     1     -12.752   7.741  -8.587  1.00  0.00     0.005 C 
HETATM   11  C16 UNL     1     -14.233   7.466  -8.685  1.00  0.00     0.001 C 
HETATM   12  C17 UNL     1     -14.968   8.236  -7.604  1.00  0.00     0.006 C 
HETATM   13  C18 UNL     1     -14.984   7.486  -6.304  1.00  0.00     0.057 C 
ENDROOT
BRANCH   1  14
HETATM   14  C8  UNL     1     -12.738   8.033  -2.131  1.00  0.00     0.068 C 
BRANCH  14  15
HETATM   15  C7  UNL     1     -12.324   7.010  -1.151  1.00  0.00     0.109 C 
BRANCH  15  16
HETATM   16  C6  UNL     1     -13.368   6.255  -0.476  1.00  0.00     0.220 C 
HETATM   17  N1  UNL     1     -13.026   5.504   0.681  1.00  0.00    -0.351 N 
HETATM   18  C5  UNL     1     -11.663   5.471   1.207  1.00  0.00     0.126 C 
HETATM   19  C19 UNL     1     -14.012   4.727   1.408  1.00  0.00     0.141 C 
HETATM   20  C4  UNL     1     -11.202   4.035   1.344  1.00  0.00     0.021 C 
HETATM   21  C3  UNL     1     -12.159   3.210   2.171  1.00  0.00     0.019 C 
HETATM   22  C2  UNL     1     -13.580   3.305   1.643  1.00  0.00     0.105 C 
HETATM   23  O3  UNL     1     -14.551   6.236  -0.868  1.00  0.00    -0.273 OA
BRANCH  22  24
HETATM   24  C1  UNL     1     -14.468   2.738   2.700  1.00  0.00     0.178 C 
HETATM   25  O1  UNL     1     -15.691   2.966   2.743  1.00  0.00    -0.648 OA
HETATM   26  O2  UNL     1     -13.929   1.919   3.683  1.00  0.00    -0.648 OA
ENDBRANCH  22  24
ENDBRANCH  15  16
ENDBRANCH  14  15
ENDBRANCH   1  14
TORSDOF 4
ENDMDL
MODEL 4
REMARK VINA RESULT: -8.386705201      5.627      7.905
REMARK  4 active torsions:
REMARK  status: ('A' for Active; 'I' for Inactive)
REMARK    1  A    between atoms: C1_2  and  C2_4 
REMARK       I    between atoms: N1_8  and  C6_9 
REMARK    2  A    between atoms: C6_9  and  C7_11 
REMARK    3  A    between atoms: C7_11  and  C8_12 
REMARK    4  A    between atoms: C8_12  and  C9_13 
ROOT
HETATM    1  C9  UNL     1     -10.749   6.801   0.004  1.00  0.00     0.031 A 
HETATM    2  N2  UNL     1     -10.712   5.715   0.786  1.00  0.00    -0.361 N 
ATOM      3  H2  UNL     1      -9.839   5.511   1.273  1.00  0.00     0.165 HD
HETATM    4  C10 UNL     1     -11.741   4.880   0.974  1.00  0.00     0.015 A 
HETATM    5  C11 UNL     1     -12.932   5.167   0.305  1.00  0.00    -0.034 A 
HETATM    6  C12 UNL     1     -12.998   6.281  -0.510  1.00  0.00     0.035 A 
HETATM    7  C13 UNL     1     -11.905   7.109  -0.667  1.00  0.00     0.057 A 
HETATM    8 CL1  UNL     1     -12.035   8.518  -1.716  1.00  0.00    -0.082 Cl
HETATM    9  C14 UNL     1     -14.220   4.406   0.338  1.00  0.00     0.040 C 
HETATM   10  C15 UNL     1     -14.660   4.147   1.763  1.00  0.00     0.005 C 
HETATM   11  C16 UNL     1     -13.829   2.997   2.279  1.00  0.00     0.001 C 
HETATM   12  C17 UNL     1     -12.554   3.529   2.904  1.00  0.00     0.006 C 
HETATM   13  C18 UNL     1     -11.484   3.750   1.874  1.00  0.00     0.057 C 
ENDROOT
BRANCH   1  14
HETATM   14  C8  UNL     1      -9.551   7.628  -0.121  1.00  0.00     0.068 C 
BRANCH  14  15
HETATM   15  C7  UNL     1      -8.303   7.106   0.470  1.00  0.00     0.109 C 
BRANCH  15  16
HETATM   16  C6  UNL     1      -7.313   8.069   0.924  1.00  0.00     0.220 C 
HETATM   17  N1  UNL     1      -7.058   8.179   2.318  1.00  0.00    -0.351 N 
HETATM   18  C5  UNL     1      -7.761   7.356   3.300  1.00  0.00     0.126 C 
HETATM   19  C19 UNL     1      -6.084   9.115   2.847  1.00  0.00     0.141 C 
HETATM   20  C4  UNL     1      -8.401   8.242   4.347  1.00  0.00     0.021 C 
HETATM   21  C3  UNL     1      -7.401   9.175   4.987  1.00  0.00     0.019 C 
HETATM   22  C2  UNL     1      -6.640   9.979   3.947  1.00  0.00     0.105 C 
HETATM   23  O3  UNL     1      -6.675   8.804   0.145  1.00  0.00    -0.273 OA
BRANCH  22  24
HETATM   24  C1  UNL     1      -5.482  10.603   4.652  1.00  0.00     0.178 C 
HETATM   25  O1  UNL     1      -4.311  10.499   4.242  1.00  0.00    -0.648 OA
HETATM   26  O2  UNL     1      -5.697  11.334   5.813  1.00  0.00    -0.648 OA
ENDBRANCH  22  24
ENDBRANCH  15  16
ENDBRANCH  14  15
ENDBRANCH   1  14
TORSDOF 4
ENDMDL
MODEL 5
REMARK VINA RESULT: -8.372798520      2.904      4.780
REMARK  4 active torsions:
REMARK  status: ('A' for Active; 'I' for Inactive)
REMARK    1  A    between atoms: C1_2  and  C2_4 
REMARK       I    between atoms: N1_8  and  C6_9 
REMARK    2  A    between atoms: C6_9  and  C7_11 
REMARK    3  A    between atoms: C7_11  and  C8_12 
REMARK    4  A    between atoms: C8_12  and  C9_13 
ROOT
HETATM    1  C9  UNL     1     -13.297   8.364  -3.264  1.00  0.00     0.031 A 
HETATM    2  N2  UNL     1     -14.589   8.481  -3.593  1.00  0.00    -0.361 N 
ATOM      3  H2  UNL     1     -15.226   7.746  -3.285  1.00  0.00     0.165 HD
HETATM    4  C10 UNL     1     -15.104   9.496  -4.299  1.00  0.00     0.015 A 
HETATM    5  C11 UNL     1     -14.226  10.498  -4.717  1.00  0.00    -0.034 A 
HETATM    6  C12 UNL     1     -12.886  10.402  -4.392  1.00  0.00     0.035 A 
HETATM    7  C13 UNL     1     -12.410   9.333  -3.661  1.00  0.00     0.057 A 
HETATM    8 CL1  UNL     1     -10.694   9.252  -3.269  1.00  0.00    -0.082 Cl
HETATM    9  C14 UNL     1     -14.534  11.729  -5.510  1.00  0.00     0.040 C 
HETATM   10  C15 UNL     1     -15.689  12.492  -4.898  1.00  0.00     0.005 C 
HETATM   11  C16 UNL     1     -16.955  11.773  -5.298  1.00  0.00     0.001 C 
HETATM   12  C17 UNL     1     -17.281  10.706  -4.270  1.00  0.00     0.006 C 
HETATM   13  C18 UNL     1     -16.548   9.426  -4.548  1.00  0.00     0.057 C 
ENDROOT
BRANCH   1  14
HETATM   14  C8  UNL     1     -12.862   7.200  -2.495  1.00  0.00     0.068 C 
BRANCH  14  15
HETATM   15  C7  UNL     1     -12.893   7.313  -1.023  1.00  0.00     0.109 C 
BRANCH  15  16
HETATM   16  C6  UNL     1     -13.791   6.431  -0.294  1.00  0.00     0.220 C 
HETATM   17  N1  UNL     1     -13.266   5.652   0.771  1.00  0.00    -0.351 N 
HETATM   18  C5  UNL     1     -11.856   5.712   1.151  1.00  0.00     0.126 C 
HETATM   19  C19 UNL     1     -14.099   4.751   1.545  1.00  0.00     0.141 C 
HETATM   20  C4  UNL     1     -11.264   4.319   1.148  1.00  0.00     0.021 C 
HETATM   21  C3  UNL     1     -12.055   3.367   2.014  1.00  0.00     0.019 C 
HETATM   22  C2  UNL     1     -13.527   3.363   1.642  1.00  0.00     0.105 C 
HETATM   23  O3  UNL     1     -15.005   6.329  -0.562  1.00  0.00    -0.273 OA
BRANCH  22  24
HETATM   24  C1  UNL     1     -14.245   2.661   2.747  1.00  0.00     0.178 C 
HETATM   25  O1  UNL     1     -15.475   2.754   2.914  1.00  0.00    -0.648 OA
HETATM   26  O2  UNL     1     -13.532   1.867   3.635  1.00  0.00    -0.648 OA
ENDBRANCH  22  24
ENDBRANCH  15  16
ENDBRANCH  14  15
ENDBRANCH   1  14
TORSDOF 4
ENDMDL
