MODEL 1
REMARK VINA RESULT: -7.984264987      0.000      0.000
REMARK  5 active torsions:
REMARK  status: ('A' for Active; 'I' for Inactive)
REMARK    1  A    between atoms: C1_2  and  O2_3 
REMARK    2  A    between atoms: C1_2  and  C12_18 
REMARK    3  A    between atoms: O2_3  and  C2_4 
REMARK    4  A    between atoms: C2_4  and  C3_5 
REMARK    5  A    between atoms: C3_5  and  N1_6 
ROOT
HETATM    1  C2  UNL     1     -13.698   7.232  -2.374  1.00  0.00     0.200 C 
ENDROOT
BRANCH   1   2
HETATM    2  O2  UNL     1     -13.113   8.508  -2.505  1.00  0.00    -0.319 OA
BRANCH   2   3
HETATM    3  C1  UNL     1     -12.046   8.846  -3.301  1.00  0.00     0.267 C 
HETATM    4  O1  UNL     1     -12.256   9.421  -4.398  1.00  0.00    -0.264 OA
BRANCH   3   5
HETATM    5  C12 UNL     1     -10.639   8.552  -2.900  1.00  0.00     0.049 C 
HETATM    6  C13 UNL     1      -9.749   9.415  -3.756  1.00  0.00     0.024 C 
HETATM    7  C14 UNL     1      -8.272   9.127  -3.473  1.00  0.00    -0.013 C 
HETATM    8  C15 UNL     1      -8.066   7.660  -3.785  1.00  0.00     0.009 C 
HETATM    9  C19 UNL     1      -8.037   9.475  -2.039  1.00  0.00     0.009 C 
HETATM   10  C16 UNL     1      -8.884   6.819  -2.852  1.00  0.00    -0.013 C 
HETATM   11  C17 UNL     1      -8.659   7.149  -1.391  1.00  0.00     0.009 C 
HETATM   12  C21 UNL     1     -10.347   7.101  -3.170  1.00  0.00     0.024 C 
HETATM   13  C18 UNL     1      -8.934   8.607  -1.179  1.00  0.00    -0.013 C 
HETATM   14  C20 UNL     1     -10.400   8.867  -1.446  1.00  0.00     0.024 C 
ENDBRANCH   3   5
ENDBRANCH   2   3
ENDBRANCH   1   2
BRANCH   1  15
HETATM   15  C3  UNL     1     -14.271   7.032  -1.004  1.00  0.00     0.169 C 
BRANCH  15  16
HETATM   16  N1  UNL     1     -13.707   5.835  -0.417  1.00  0.00    -0.325 N 
HETATM   17  C4  UNL     1     -12.298   5.961  -0.180  1.00  0.00     0.147 C 
HETATM   18  C5  UNL     1     -11.843   5.922   1.230  1.00  0.00     0.062 C 
HETATM   19  C6  UNL     1     -12.486   4.763   1.898  1.00  0.00    -0.027 A 
HETATM   20  C7  UNL     1     -11.842   3.994   2.842  1.00  0.00     0.033 A 
HETATM   21  C11 UNL     1     -13.803   4.429   1.570  1.00  0.00     0.054 A 
HETATM   22  C8  UNL     1     -12.508   2.926   3.433  1.00  0.00     0.034 A 
HETATM   23 CL1  UNL     1     -11.684   1.940   4.636  1.00  0.00    -0.084 Cl
HETATM   24  C9  UNL     1     -13.817   2.600   3.101  1.00  0.00     0.026 A 
HETATM   25  C10 UNL     1     -14.455   3.369   2.160  1.00  0.00     0.033 A 
HETATM   26  N2  UNL     1     -14.433   5.248   0.578  1.00  0.00    -0.302 N 
ATOM     27  H2  UNL     1     -15.441   5.396   0.616  1.00  0.00     0.186 HD
ENDBRANCH  15  16
ENDBRANCH   1  15
TORSDOF 5
ENDMDL
MODEL 2
REMARK VINA RESULT: -7.935126869      0.078      1.452
REMARK  5 active torsions:
REMARK  status: ('A' for Active; 'I' for Inactive)
REMARK    1  A    between atoms: C1_2  and  O2_3 
REMARK    2  A    between atoms: C1_2  and  C12_18 
REMARK    3  A    between atoms: O2_3  and  C2_4 
REMARK    4  A    between atoms: C2_4  and  C3_5 
REMARK    5  A    between atoms: C3_5  and  N1_6 
ROOT
HETATM    1  C2  UNL     1     -13.722   7.241  -2.352  1.00  0.00     0.200 C 
ENDROOT
BRANCH   1   2
HETATM    2  O2  UNL     1     -13.122   8.510  -2.473  1.00  0.00    -0.319 OA
BRANCH   2   3
HETATM    3  C1  UNL     1     -12.107   8.862  -3.330  1.00  0.00     0.267 C 
HETATM    4  O1  UNL     1     -12.390   9.405  -4.427  1.00  0.00    -0.264 OA
BRANCH   3   5
HETATM    5  C12 UNL     1     -10.673   8.619  -2.996  1.00  0.00     0.049 C 
HETATM    6  C13 UNL     1     -10.397   7.165  -3.279  1.00  0.00     0.024 C 
HETATM    7  C14 UNL     1      -8.963   6.795  -2.891  1.00  0.00    -0.013 C 
HETATM    8  C15 UNL     1      -8.841   7.092  -1.411  1.00  0.00     0.009 C 
HETATM    9  C19 UNL     1      -8.062   7.627  -3.746  1.00  0.00     0.009 C 
HETATM   10  C16 UNL     1      -9.018   8.561  -1.168  1.00  0.00    -0.013 C 
HETATM   11  C17 UNL     1      -8.112   9.425  -2.020  1.00  0.00     0.009 C 
HETATM   12  C21 UNL     1     -10.457   8.899  -1.534  1.00  0.00     0.024 C 
HETATM   13  C18 UNL     1      -8.342   9.089  -3.462  1.00  0.00    -0.013 C 
HETATM   14  C20 UNL     1      -9.757   9.478  -3.830  1.00  0.00     0.024 C 
ENDBRANCH   3   5
ENDBRANCH   2   3
ENDBRANCH   1   2
BRANCH   1  15
HETATM   15  C3  UNL     1     -14.293   7.035  -0.982  1.00  0.00     0.169 C 
BRANCH  15  16
HETATM   16  N1  UNL     1     -13.725   5.836  -0.401  1.00  0.00    -0.325 N 
HETATM   17  C4  UNL     1     -12.316   5.962  -0.167  1.00  0.00     0.147 C 
HETATM   18  C5  UNL     1     -11.858   5.917   1.242  1.00  0.00     0.062 C 
HETATM   19  C6  UNL     1     -12.499   4.755   1.907  1.00  0.00    -0.027 A 
HETATM   20  C7  UNL     1     -11.852   3.983   2.846  1.00  0.00     0.033 A 
HETATM   21  C11 UNL     1     -13.816   4.421   1.580  1.00  0.00     0.054 A 
HETATM   22  C8  UNL     1     -12.515   2.911   3.433  1.00  0.00     0.034 A 
HETATM   23 CL1  UNL     1     -11.688   1.921   4.631  1.00  0.00    -0.084 Cl
HETATM   24  C9  UNL     1     -13.824   2.585   3.102  1.00  0.00     0.026 A 
HETATM   25  C10 UNL     1     -14.465   3.357   2.166  1.00  0.00     0.033 A 
HETATM   26  N2  UNL     1     -14.448   5.244   0.593  1.00  0.00    -0.302 N 
ATOM     27  H2  UNL     1     -15.457   5.390   0.633  1.00  0.00     0.186 HD
ENDBRANCH  15  16
ENDBRANCH   1  15
TORSDOF 5
ENDMDL
MODEL 3
REMARK VINA RESULT: -7.907582240      0.096      1.454
REMARK  5 active torsions:
REMARK  status: ('A' for Active; 'I' for Inactive)
REMARK    1  A    between atoms: C1_2  and  O2_3 
REMARK    2  A    between atoms: C1_2  and  C12_18 
REMARK    3  A    between atoms: O2_3  and  C2_4 
REMARK    4  A    between atoms: C2_4  and  C3_5 
REMARK    5  A    between atoms: C3_5  and  N1_6 
ROOT
HETATM    1  C2  UNL     1     -13.720   7.292  -2.355  1.00  0.00     0.200 C 
ENDROOT
BRANCH   1   2
HETATM    2  O2  UNL     1     -13.155   8.577  -2.470  1.00  0.00    -0.319 OA
BRANCH   2   3
HETATM    3  C1  UNL     1     -12.113   8.947  -3.287  1.00  0.00     0.267 C 
HETATM    4  O1  UNL     1     -12.351   9.632  -4.313  1.00  0.00    -0.264 OA
BRANCH   3   5
HETATM    5  C12 UNL     1     -10.703   8.562  -2.989  1.00  0.00     0.049 C 
HETATM    6  C13 UNL     1     -10.460   8.873  -1.535  1.00  0.00     0.024 C 
HETATM    7  C14 UNL     1      -9.007   8.584  -1.149  1.00  0.00    -0.013 C 
HETATM    8  C15 UNL     1      -8.156   9.463  -2.041  1.00  0.00     0.009 C 
HETATM    9  C19 UNL     1      -8.792   7.120  -1.367  1.00  0.00     0.009 C 
HETATM   10  C16 UNL     1      -8.338   9.065  -3.475  1.00  0.00    -0.013 C 
HETATM   11  C17 UNL     1      -8.119   7.587  -3.722  1.00  0.00     0.009 C 
HETATM   12  C21 UNL     1      -9.780   9.387  -3.844  1.00  0.00     0.024 C 
HETATM   13  C18 UNL     1      -9.038   6.809  -2.830  1.00  0.00    -0.013 C 
HETATM   14  C20 UNL     1     -10.466   7.094  -3.238  1.00  0.00     0.024 C 
ENDBRANCH   3   5
ENDBRANCH   2   3
ENDBRANCH   1   2
BRANCH   1  15
HETATM   15  C3  UNL     1     -14.298   7.070  -0.990  1.00  0.00     0.169 C 
BRANCH  15  16
HETATM   16  N1  UNL     1     -13.725   5.871  -0.414  1.00  0.00    -0.325 N 
HETATM   17  C4  UNL     1     -12.318   6.008  -0.168  1.00  0.00     0.147 C 
HETATM   18  C5  UNL     1     -11.871   5.956   1.245  1.00  0.00     0.062 C 
HETATM   19  C6  UNL     1     -12.506   4.782   1.894  1.00  0.00    -0.027 A 
HETATM   20  C7  UNL     1     -11.860   4.008   2.832  1.00  0.00     0.033 A 
HETATM   21  C11 UNL     1     -13.818   4.439   1.554  1.00  0.00     0.054 A 
HETATM   22  C8  UNL     1     -12.518   2.925   3.405  1.00  0.00     0.034 A 
HETATM   23 CL1  UNL     1     -11.691   1.933   4.601  1.00  0.00    -0.084 Cl
HETATM   24  C9  UNL     1     -13.822   2.591   3.061  1.00  0.00     0.026 A 
HETATM   25  C10 UNL     1     -14.462   3.365   2.126  1.00  0.00     0.033 A 
HETATM   26  N2  UNL     1     -14.450   5.264   0.568  1.00  0.00    -0.302 N 
ATOM     27  H2  UNL     1     -15.460   5.401   0.602  1.00  0.00     0.186 HD
ENDBRANCH  15  16
ENDBRANCH   1  15
TORSDOF 5
ENDMDL
MODEL 4
REMARK VINA RESULT: -7.814923925      2.057      3.119
REMARK  5 active torsions:
REMARK  status: ('A' for Active; 'I' for Inactive)
REMARK    1  A    between atoms: C1_2  and  O2_3 
REMARK    2  A    between atoms: C1_2  and  C12_18 
REMARK    3  A    between atoms: O2_3  and  C2_4 
REMARK    4  A    between atoms: C2_4  and  C3_5 
REMARK    5  A    between atoms: C3_5  and  N1_6 
ROOT
HETATM    1  C2  UNL     1     -11.152   8.813  -1.328  1.00  0.00     0.200 C 
ENDROOT
BRANCH   1   2
HETATM    2  O2  UNL     1      -9.983   8.617  -2.091  1.00  0.00    -0.319 OA
BRANCH   2   3
HETATM    3  C1  UNL     1      -9.337   7.425  -2.314  1.00  0.00     0.267 C 
HETATM    4  O1  UNL     1      -9.037   6.696  -1.335  1.00  0.00    -0.264 OA
BRANCH   3   5
HETATM    5  C12 UNL     1      -8.982   6.967  -3.689  1.00  0.00     0.049 C 
HETATM    6  C13 UNL     1      -8.223   8.091  -4.344  1.00  0.00     0.024 C 
HETATM    7  C14 UNL     1      -7.880   7.746  -5.796  1.00  0.00    -0.013 C 
HETATM    8  C15 UNL     1      -9.203   7.508  -6.492  1.00  0.00     0.009 C 
HETATM    9  C19 UNL     1      -7.000   6.539  -5.750  1.00  0.00     0.009 C 
HETATM   10  C16 UNL     1      -9.892   6.321  -5.889  1.00  0.00    -0.013 C 
HETATM   11  C17 UNL     1      -9.022   5.083  -5.837  1.00  0.00     0.009 C 
HETATM   12  C21 UNL     1     -10.248   6.697  -4.457  1.00  0.00     0.024 C 
HETATM   13  C18 UNL     1      -7.764   5.409  -5.090  1.00  0.00    -0.013 C 
HETATM   14  C20 UNL     1      -8.123   5.729  -3.655  1.00  0.00     0.024 C 
ENDBRANCH   3   5
ENDBRANCH   2   3
ENDBRANCH   1   2
BRANCH   1  15
HETATM   15  C3  UNL     1     -12.131   7.697  -1.534  1.00  0.00     0.169 C 
BRANCH  15  16
HETATM   16  N1  UNL     1     -12.445   7.092  -0.256  1.00  0.00    -0.325 N 
HETATM   17  C4  UNL     1     -13.856   7.071   0.000  1.00  0.00     0.147 C 
HETATM   18  C5  UNL     1     -14.506   5.742   0.097  1.00  0.00     0.062 C 
HETATM   19  C6  UNL     1     -13.696   4.889   1.001  1.00  0.00    -0.027 A 
HETATM   20  C7  UNL     1     -14.257   3.982   1.872  1.00  0.00     0.033 A 
HETATM   21  C11 UNL     1     -12.303   4.995   0.974  1.00  0.00     0.054 A 
HETATM   22  C8  UNL     1     -13.437   3.210   2.688  1.00  0.00     0.034 A 
HETATM   23 CL1  UNL     1     -14.153   2.054   3.804  1.00  0.00    -0.084 Cl
HETATM   24  C9  UNL     1     -12.052   3.321   2.655  1.00  0.00     0.026 A 
HETATM   25  C10 UNL     1     -11.498   4.226   1.785  1.00  0.00     0.033 A 
HETATM   26  N2  UNL     1     -11.761   5.956   0.061  1.00  0.00    -0.302 N 
ATOM     27  H2  UNL     1     -10.847   5.788  -0.360  1.00  0.00     0.186 HD
ENDBRANCH  15  16
ENDBRANCH   1  15
TORSDOF 5
ENDMDL
MODEL 5
REMARK VINA RESULT: -7.775319239      2.056      3.307
REMARK  5 active torsions:
REMARK  status: ('A' for Active; 'I' for Inactive)
REMARK    1  A    between atoms: C1_2  and  O2_3 
REMARK    2  A    between atoms: C1_2  and  C12_18 
REMARK    3  A    between atoms: O2_3  and  C2_4 
REMARK    4  A    between atoms: C2_4  and  C3_5 
REMARK    5  A    between atoms: C3_5  and  N1_6 
ROOT
HETATM    1  C2  UNL     1     -11.202   8.872  -1.338  1.00  0.00     0.200 C 
ENDROOT
BRANCH   1   2
HETATM    2  O2  UNL     1      -9.995   8.676  -2.040  1.00  0.00    -0.319 OA
BRANCH   2   3
HETATM    3  C1  UNL     1      -9.401   7.472  -2.332  1.00  0.00     0.267 C 
HETATM    4  O1  UNL     1      -9.104   6.690  -1.394  1.00  0.00    -0.264 OA
BRANCH   3   5
HETATM    5  C12 UNL     1      -9.098   7.063  -3.735  1.00  0.00     0.049 C 
HETATM    6  C13 UNL     1      -8.196   5.859  -3.655  1.00  0.00     0.024 C 
HETATM    7  C14 UNL     1      -7.761   5.407  -5.052  1.00  0.00    -0.013 C 
HETATM    8  C15 UNL     1      -7.037   6.587  -5.665  1.00  0.00     0.009 C 
HETATM    9  C19 UNL     1      -9.008   5.022  -5.782  1.00  0.00     0.009 C 
HETATM   10  C16 UNL     1      -7.983   7.739  -5.828  1.00  0.00    -0.013 C 
HETATM   11  C17 UNL     1      -9.252   7.375  -6.570  1.00  0.00     0.009 C 
HETATM   12  C21 UNL     1      -8.379   8.188  -4.428  1.00  0.00     0.024 C 
HETATM   13  C18 UNL     1      -9.915   6.234  -5.860  1.00  0.00    -0.013 C 
HETATM   14  C20 UNL     1     -10.352   6.705  -4.490  1.00  0.00     0.024 C 
ENDBRANCH   3   5
ENDBRANCH   2   3
ENDBRANCH   1   2
BRANCH   1  15
HETATM   15  C3  UNL     1     -12.156   7.739  -1.566  1.00  0.00     0.169 C 
BRANCH  15  16
HETATM   16  N1  UNL     1     -12.484   7.124  -0.297  1.00  0.00    -0.325 N 
HETATM   17  C4  UNL     1     -13.897   7.106  -0.053  1.00  0.00     0.147 C 
HETATM   18  C5  UNL     1     -14.552   5.778   0.026  1.00  0.00     0.062 C 
HETATM   19  C6  UNL     1     -13.753   4.914   0.930  1.00  0.00    -0.027 A 
HETATM   20  C7  UNL     1     -14.324   4.001   1.788  1.00  0.00     0.033 A 
HETATM   21  C11 UNL     1     -12.359   5.015   0.916  1.00  0.00     0.054 A 
HETATM   22  C8  UNL     1     -13.514   3.219   2.603  1.00  0.00     0.034 A 
HETATM   23 CL1  UNL     1     -14.244   2.055   3.703  1.00  0.00    -0.084 Cl
HETATM   24  C9  UNL     1     -12.129   3.325   2.583  1.00  0.00     0.026 A 
HETATM   25  C10 UNL     1     -11.563   4.236   1.726  1.00  0.00     0.033 A 
HETATM   26  N2  UNL     1     -11.806   5.982   0.015  1.00  0.00    -0.302 N 
ATOM     27  H2  UNL     1     -10.889   5.815  -0.400  1.00  0.00     0.186 HD
ENDBRANCH  15  16
ENDBRANCH   1  15
TORSDOF 5
ENDMDL
