MODEL 1
REMARK VINA RESULT: -6.226122638      0.000      0.000
REMARK  5 active torsions:
REMARK  status: ('A' for Active; 'I' for Inactive)
REMARK    1  A    between atoms: O1_2  and  C2_3 
REMARK    2  A    between atoms: C2_3  and  C3_5 
REMARK    3  A    between atoms: C7_11  and  C8_12 
REMARK    4  A    between atoms: N2_14  and  C9_15 
REMARK    5  A    between atoms: C9_15  and  C10_16 
ROOT
HETATM    1  C3  UNL     1      -9.550   9.830  -2.158  1.00  0.00     0.068 A 
HETATM    2  C4  UNL     1      -9.965  11.159  -2.319  1.00  0.00     0.106 A 
HETATM    3  N1  UNL     1     -11.252  11.155  -2.669  1.00  0.00    -0.367 N 
ATOM      4  H1  UNL     1     -11.825  11.979  -2.855  1.00  0.00     0.165 HD
HETATM    5  C5  UNL     1     -11.658   9.888  -2.735  1.00  0.00     0.023 A 
HETATM    6  C6  UNL     1     -10.597   9.007  -2.415  1.00  0.00     0.022 A 
HETATM    7  C7  UNL     1     -10.970   7.594  -2.496  1.00  0.00     0.011 C 
HETATM    8  N2  UNL     1     -12.142   7.181  -1.768  1.00  0.00    -0.285 NA
HETATM    9  C16 UNL     1     -13.157   8.209  -1.884  1.00  0.00     0.101 C 
HETATM   10  C17 UNL     1     -12.917   9.150  -3.060  1.00  0.00     0.073 C 
ENDROOT
BRANCH   8  11
HETATM   11  C9  UNL     1     -11.918   6.898  -0.395  1.00  0.00     0.100 C 
BRANCH  11  12
HETATM   12  C10 UNL     1     -12.541   5.685   0.178  1.00  0.00    -0.001 C 
HETATM   13  C11 UNL     1     -11.573   5.160   1.261  1.00  0.00     0.006 C 
HETATM   14  C12 UNL     1     -11.702   3.652   1.338  1.00  0.00     0.000 C 
HETATM   15  C13 UNL     1     -13.202   3.365   1.206  1.00  0.00     0.000 C 
HETATM   16  C14 UNL     1     -13.997   4.550   1.748  1.00  0.00     0.000 C 
HETATM   17  C15 UNL     1     -13.870   5.762   0.800  1.00  0.00     0.006 C 
ENDBRANCH  11  12
ENDBRANCH   8  11
BRANCH   7  18
HETATM   18  C8  UNL     1      -9.815   6.662  -2.382  1.00  0.00     0.137 C 
HETATM   19 BR1  UNL     1      -8.967   6.460  -4.143  1.00  0.00    -0.090 Br
ENDBRANCH   7  18
BRANCH   1  20
HETATM   20  C2  UNL     1      -8.217   9.406  -1.782  1.00  0.00     0.295 C 
HETATM   21  O2  UNL     1      -8.045   8.821  -0.693  1.00  0.00    -0.259 OA
BRANCH  20  22
HETATM   22  O1  UNL     1      -7.118   9.633  -2.596  1.00  0.00    -0.322 OA
HETATM   23  C1  UNL     1      -6.024  10.409  -2.230  1.00  0.00     0.213 C 
ENDBRANCH  20  22
ENDBRANCH   1  20
TORSDOF 5
ENDMDL
MODEL 2
REMARK VINA RESULT: -6.139880604      2.921      6.070
REMARK  5 active torsions:
REMARK  status: ('A' for Active; 'I' for Inactive)
REMARK    1  A    between atoms: O1_2  and  C2_3 
REMARK    2  A    between atoms: C2_3  and  C3_5 
REMARK    3  A    between atoms: C7_11  and  C8_12 
REMARK    4  A    between atoms: N2_14  and  C9_15 
REMARK    5  A    between atoms: C9_15  and  C10_16 
ROOT
HETATM    1  C3  UNL     1     -12.420   6.540  -0.342  1.00  0.00     0.068 A 
HETATM    2  C4  UNL     1     -13.793   6.260  -0.396  1.00  0.00     0.106 A 
HETATM    3  N1  UNL     1     -14.292   6.835  -1.491  1.00  0.00    -0.367 N 
ATOM      4  H1  UNL     1     -15.266   6.802  -1.794  1.00  0.00     0.165 HD
HETATM    5  C5  UNL     1     -13.297   7.458  -2.121  1.00  0.00     0.023 A 
HETATM    6  C6  UNL     1     -12.081   7.294  -1.416  1.00  0.00     0.022 A 
HETATM    7  C7  UNL     1     -10.949   7.980  -2.042  1.00  0.00     0.011 C 
HETATM    8  N2  UNL     1     -10.709   7.714  -3.437  1.00  0.00    -0.285 NA
HETATM    9  C16 UNL     1     -11.980   7.628  -4.127  1.00  0.00     0.101 C 
HETATM   10  C17 UNL     1     -13.120   8.283  -3.355  1.00  0.00     0.073 C 
ENDROOT
BRANCH   8  11
HETATM   11  C9  UNL     1      -9.957   6.538  -3.695  1.00  0.00     0.100 C 
BRANCH  11  12
HETATM   12  C10 UNL     1      -9.315   6.396  -5.020  1.00  0.00    -0.001 C 
HETATM   13  C11 UNL     1      -8.088   7.333  -5.020  1.00  0.00     0.006 C 
HETATM   14  C12 UNL     1      -7.853   7.827  -6.433  1.00  0.00     0.000 C 
HETATM   15  C13 UNL     1      -8.102   6.613  -7.335  1.00  0.00     0.000 C 
HETATM   16  C14 UNL     1      -7.782   5.334  -6.566  1.00  0.00     0.000 C 
HETATM   17  C15 UNL     1      -8.843   5.081  -5.474  1.00  0.00     0.006 C 
ENDBRANCH  11  12
ENDBRANCH   8  11
BRANCH   7  18
HETATM   18  C8  UNL     1      -9.722   8.003  -1.200  1.00  0.00     0.137 C 
HETATM   19 BR1  UNL     1      -8.498   9.385  -1.871  1.00  0.00    -0.090 Br
ENDBRANCH   7  18
BRANCH   1  20
HETATM   20  C2  UNL     1     -11.514   6.097   0.698  1.00  0.00     0.295 C 
HETATM   21  O2  UNL     1     -11.119   6.914   1.555  1.00  0.00    -0.259 OA
BRANCH  20  22
HETATM   22  O1  UNL     1     -11.065   4.788   0.771  1.00  0.00    -0.322 OA
HETATM   23  C1  UNL     1     -11.735   3.770   1.440  1.00  0.00     0.213 C 
ENDBRANCH  20  22
ENDBRANCH   1  20
TORSDOF 5
ENDMDL
MODEL 3
REMARK VINA RESULT: -6.100983569      1.103      1.350
REMARK  5 active torsions:
REMARK  status: ('A' for Active; 'I' for Inactive)
REMARK    1  A    between atoms: O1_2  and  C2_3 
REMARK    2  A    between atoms: C2_3  and  C3_5 
REMARK    3  A    between atoms: C7_11  and  C8_12 
REMARK    4  A    between atoms: N2_14  and  C9_15 
REMARK    5  A    between atoms: C9_15  and  C10_16 
ROOT
HETATM    1  C3  UNL     1     -10.565  10.021  -3.033  1.00  0.00     0.068 A 
HETATM    2  C4  UNL     1     -11.139  11.266  -3.327  1.00  0.00     0.106 A 
HETATM    3  N1  UNL     1     -12.427  11.074  -3.614  1.00  0.00    -0.367 N 
ATOM      4  H1  UNL     1     -13.099  11.799  -3.867  1.00  0.00     0.165 HD
HETATM    5  C5  UNL     1     -12.683   9.770  -3.513  1.00  0.00     0.023 A 
HETATM    6  C6  UNL     1     -11.515   9.060  -3.143  1.00  0.00     0.022 A 
HETATM    7  C7  UNL     1     -11.721   7.615  -3.041  1.00  0.00     0.011 C 
HETATM    8  N2  UNL     1     -12.812   7.163  -2.215  1.00  0.00    -0.285 NA
HETATM    9  C16 UNL     1     -13.944   8.048  -2.402  1.00  0.00     0.101 C 
HETATM   10  C17 UNL     1     -13.856   8.861  -3.690  1.00  0.00     0.073 C 
ENDROOT
BRANCH   8  11
HETATM   11  C9  UNL     1     -12.510   7.075  -0.831  1.00  0.00     0.100 C 
BRANCH  11  12
HETATM   12  C10 UNL     1     -12.902   5.846  -0.107  1.00  0.00    -0.001 C 
HETATM   13  C11 UNL     1     -11.803   5.582   0.945  1.00  0.00     0.006 C 
HETATM   14  C12 UNL     1     -11.691   4.087   1.166  1.00  0.00     0.000 C 
HETATM   15  C13 UNL     1     -13.133   3.567   1.169  1.00  0.00     0.000 C 
HETATM   16  C14 UNL     1     -14.070   4.668   1.659  1.00  0.00     0.000 C 
HETATM   17  C15 UNL     1     -14.189   5.785   0.600  1.00  0.00     0.006 C 
ENDBRANCH  11  12
ENDBRANCH   8  11
BRANCH   7  18
HETATM   18  C8  UNL     1     -10.462   6.840  -2.874  1.00  0.00     0.137 C 
HETATM   19 BR1  UNL     1      -9.683   6.477  -4.642  1.00  0.00    -0.090 Br
ENDBRANCH   7  18
BRANCH   1  20
HETATM   20  C2  UNL     1      -9.179   9.799  -2.674  1.00  0.00     0.295 C 
HETATM   21  O2  UNL     1      -8.305   9.820  -3.565  1.00  0.00    -0.259 OA
BRANCH  20  22
HETATM   22  O1  UNL     1      -8.789   9.560  -1.366  1.00  0.00    -0.322 OA
HETATM   23  C1  UNL     1      -7.863   8.593  -0.993  1.00  0.00     0.213 C 
ENDBRANCH  20  22
ENDBRANCH   1  20
TORSDOF 5
ENDMDL
MODEL 4
REMARK VINA RESULT: -6.022676061      2.831      5.466
REMARK  5 active torsions:
REMARK  status: ('A' for Active; 'I' for Inactive)
REMARK    1  A    between atoms: O1_2  and  C2_3 
REMARK    2  A    between atoms: C2_3  and  C3_5 
REMARK    3  A    between atoms: C7_11  and  C8_12 
REMARK    4  A    between atoms: N2_14  and  C9_15 
REMARK    5  A    between atoms: C9_15  and  C10_16 
ROOT
HETATM    1  C3  UNL     1     -10.430   6.638   0.203  1.00  0.00     0.068 A 
HETATM    2  C4  UNL     1     -11.008   5.570   0.904  1.00  0.00     0.106 A 
HETATM    3  N1  UNL     1     -12.298   5.505   0.575  1.00  0.00    -0.367 N 
ATOM      4  H1  UNL     1     -12.973   4.826   0.928  1.00  0.00     0.165 HD
HETATM    5  C5  UNL     1     -12.552   6.481  -0.297  1.00  0.00     0.023 A 
HETATM    6  C6  UNL     1     -11.381   7.230  -0.561  1.00  0.00     0.022 A 
HETATM    7  C7  UNL     1     -11.597   8.338  -1.491  1.00  0.00     0.011 C 
HETATM    8  N2  UNL     1     -12.234   8.029  -2.746  1.00  0.00    -0.285 NA
HETATM    9  C16 UNL     1     -13.283   7.056  -2.515  1.00  0.00     0.101 C 
HETATM   10  C17 UNL     1     -13.730   6.998  -1.058  1.00  0.00     0.073 C 
ENDROOT
BRANCH   8  11
HETATM   11  C9  UNL     1     -11.358   7.541  -3.751  1.00  0.00     0.100 C 
BRANCH  11  12
HETATM   12  C10 UNL     1     -11.938   7.152  -5.054  1.00  0.00    -0.001 C 
HETATM   13  C11 UNL     1     -12.713   8.380  -5.578  1.00  0.00     0.006 C 
HETATM   14  C12 UNL     1     -13.883   7.898  -6.411  1.00  0.00     0.000 C 
HETATM   15  C13 UNL     1     -13.343   6.717  -7.225  1.00  0.00     0.000 C 
HETATM   16  C14 UNL     1     -11.847   6.904  -7.463  1.00  0.00     0.000 C 
HETATM   17  C15 UNL     1     -11.063   6.706  -6.147  1.00  0.00     0.006 C 
ENDBRANCH  11  12
ENDBRANCH   8  11
BRANCH   7  18
HETATM   18  C8  UNL     1     -10.436   9.263  -1.603  1.00  0.00     0.137 C 
HETATM   19 BR1  UNL     1     -11.027  10.954  -2.411  1.00  0.00    -0.090 Br
ENDBRANCH   7  18
BRANCH   1  20
HETATM   20  C2  UNL     1      -9.042   7.044   0.287  1.00  0.00     0.295 C 
HETATM   21  O2  UNL     1      -8.365   7.130  -0.759  1.00  0.00    -0.259 OA
BRANCH  20  22
HETATM   22  O1  UNL     1      -8.435   7.337   1.497  1.00  0.00    -0.322 OA
HETATM   23  C1  UNL     1      -7.074   7.576   1.650  1.00  0.00     0.213 C 
ENDBRANCH  20  22
ENDBRANCH   1  20
TORSDOF 5
ENDMDL
MODEL 5
REMARK VINA RESULT: -5.947435969      2.710      4.046
REMARK  5 active torsions:
REMARK  status: ('A' for Active; 'I' for Inactive)
REMARK    1  A    between atoms: O1_2  and  C2_3 
REMARK    2  A    between atoms: C2_3  and  C3_5 
REMARK    3  A    between atoms: C7_11  and  C8_12 
REMARK    4  A    between atoms: N2_14  and  C9_15 
REMARK    5  A    between atoms: C9_15  and  C10_16 
ROOT
HETATM    1  C3  UNL     1     -11.333   8.177  -4.535  1.00  0.00     0.068 A 
HETATM    2  C4  UNL     1     -11.026   7.084  -5.358  1.00  0.00     0.106 A 
HETATM    3  N1  UNL     1     -10.082   6.360  -4.755  1.00  0.00    -0.367 N 
ATOM      4  H1  UNL     1      -9.660   5.504  -5.117  1.00  0.00     0.165 HD
HETATM    5  C5  UNL     1      -9.786   6.949  -3.596  1.00  0.00     0.023 A 
HETATM    6  C6  UNL     1     -10.566   8.117  -3.418  1.00  0.00     0.022 A 
HETATM    7  C7  UNL     1     -10.270   8.829  -2.175  1.00  0.00     0.011 C 
HETATM    8  N2  UNL     1     -10.306   8.066  -0.955  1.00  0.00    -0.285 NA
HETATM    9  C16 UNL     1      -9.731   6.757  -1.199  1.00  0.00     0.101 C 
HETATM   10  C17 UNL     1      -8.858   6.717  -2.448  1.00  0.00     0.073 C 
ENDROOT
BRANCH   8  11
HETATM   11  C9  UNL     1     -11.600   7.909  -0.392  1.00  0.00     0.100 C 
BRANCH  11  12
HETATM   12  C10 UNL     1     -12.080   6.538  -0.114  1.00  0.00    -0.001 C 
HETATM   13  C11 UNL     1     -11.941   6.319   1.408  1.00  0.00     0.006 C 
HETATM   14  C12 UNL     1     -11.667   4.852   1.666  1.00  0.00     0.000 C 
HETATM   15  C13 UNL     1     -12.574   4.092   0.691  1.00  0.00     0.000 C 
HETATM   16  C14 UNL     1     -13.816   4.926   0.395  1.00  0.00     0.000 C 
HETATM   17  C15 UNL     1     -13.450   6.149  -0.475  1.00  0.00     0.006 C 
ENDBRANCH  11  12
ENDBRANCH   8  11
BRANCH   7  18
HETATM   18  C8  UNL     1     -10.915  10.167  -2.082  1.00  0.00     0.137 C 
HETATM   19 BR1  UNL     1      -9.619  11.552  -2.598  1.00  0.00    -0.090 Br
ENDBRANCH   7  18
BRANCH   1  20
HETATM   20  C2  UNL     1     -12.309   9.205  -4.834  1.00  0.00     0.295 C 
HETATM   21  O2  UNL     1     -11.939  10.255  -5.399  1.00  0.00    -0.259 OA
BRANCH  20  22
HETATM   22  O1  UNL     1     -13.648   9.061  -4.509  1.00  0.00    -0.322 OA
HETATM   23  C1  UNL     1     -14.108   8.661  -3.260  1.00  0.00     0.213 C 
ENDBRANCH  20  22
ENDBRANCH   1  20
TORSDOF 5
ENDMDL
