MODEL 1
REMARK VINA RESULT: -4.721610637      0.000      0.000
REMARK  3 active torsions:
REMARK  status: ('A' for Active; 'I' for Inactive)
REMARK    1  A    between atoms: O1_2  and  N1_3 
REMARK    2  A    between atoms: C2_5  and  N2_6 
REMARK    3  A    between atoms: N2_6  and  C3_8 
ROOT
HETATM    1  N2  UNL     1      -3.016  26.702 -10.076  1.00  0.00    -0.380 N 
ATOM      2  H2  UNL     1      -3.363  25.761  -9.884  1.00  0.00     0.160 HD
ENDROOT
BRANCH   1   3
HETATM    3  C2  UNL     1      -1.638  27.011  -9.938  1.00  0.00     0.200 C 
HETATM    4  N1  UNL     1      -0.897  26.217  -9.256  1.00  0.00    -0.263 N 
ATOM      5  H1  UNL     1       0.092  26.451  -9.164  1.00  0.00     0.195 HD
BRANCH   4   6
HETATM    6  O1  UNL     1      -1.340  25.085  -8.648  1.00  0.00    -0.284 OA
HETATM    7  C1  UNL     1      -0.485  24.247  -7.916  1.00  0.00     0.237 C 
ENDBRANCH   4   6
ENDBRANCH   1   3
BRANCH   1   8
HETATM    8  C3  UNL     1      -3.907  27.738 -10.491  1.00  0.00     0.082 C 
HETATM    9  C4  UNL     1      -4.532  27.434 -11.850  1.00  0.00     0.025 C 
HETATM   10  C5  UNL     1      -5.160  28.765 -12.186  1.00  0.00     0.002 C 
HETATM   11  C6  UNL     1      -4.373  29.819 -11.432  1.00  0.00     0.002 C 
HETATM   12  C7  UNL     1      -3.224  29.049 -10.788  1.00  0.00     0.025 C 
ENDBRANCH   1   8
TORSDOF 3
ENDMDL
MODEL 2
REMARK VINA RESULT: -4.701207689      1.153      1.153
REMARK  3 active torsions:
REMARK  status: ('A' for Active; 'I' for Inactive)
REMARK    1  A    between atoms: O1_2  and  N1_3 
REMARK    2  A    between atoms: C2_5  and  N2_6 
REMARK    3  A    between atoms: N2_6  and  C3_8 
ROOT
HETATM    1  N2  UNL     1      -2.537  26.191 -10.638  1.00  0.00    -0.380 N 
ATOM      2  H2  UNL     1      -2.474  25.354 -11.218  1.00  0.00     0.160 HD
ENDROOT
BRANCH   1   3
HETATM    3  C2  UNL     1      -1.729  26.336  -9.481  1.00  0.00     0.200 C 
HETATM    4  N1  UNL     1      -1.059  25.324  -9.069  1.00  0.00    -0.263 N 
ATOM      5  H1  UNL     1      -0.483  25.441  -8.236  1.00  0.00     0.195 HD
BRANCH   4   6
HETATM    6  O1  UNL     1      -1.066  24.104  -9.670  1.00  0.00    -0.284 OA
HETATM    7  C1  UNL     1       0.119  23.442 -10.029  1.00  0.00     0.237 C 
ENDBRANCH   4   6
ENDBRANCH   1   3
BRANCH   1   8
HETATM    8  C3  UNL     1      -3.441  27.246 -10.973  1.00  0.00     0.082 C 
HETATM    9  C4  UNL     1      -3.597  27.396 -12.484  1.00  0.00     0.025 C 
HETATM   10  C5  UNL     1      -4.326  28.715 -12.572  1.00  0.00     0.002 C 
HETATM   11  C6  UNL     1      -3.975  29.488 -11.316  1.00  0.00     0.002 C 
HETATM   12  C7  UNL     1      -2.938  28.620 -10.610  1.00  0.00     0.025 C 
ENDBRANCH   1   8
TORSDOF 3
ENDMDL
MODEL 3
REMARK VINA RESULT: -4.598074458      0.846      1.414
REMARK  3 active torsions:
REMARK  status: ('A' for Active; 'I' for Inactive)
REMARK    1  A    between atoms: O1_2  and  N1_3 
REMARK    2  A    between atoms: C2_5  and  N2_6 
REMARK    3  A    between atoms: N2_6  and  C3_8 
ROOT
HETATM    1  N2  UNL     1      -2.935  26.542 -10.303  1.00  0.00    -0.380 N 
ATOM      2  H2  UNL     1      -3.292  26.277  -9.384  1.00  0.00     0.160 HD
ENDROOT
BRANCH   1   3
HETATM    3  C2  UNL     1      -1.820  25.873 -10.869  1.00  0.00     0.200 C 
HETATM    4  N1  UNL     1      -1.041  25.213 -10.093  1.00  0.00    -0.263 N 
ATOM      5  H1  UNL     1      -0.242  24.737 -10.513  1.00  0.00     0.195 HD
BRANCH   4   6
HETATM    6  O1  UNL     1      -1.207  25.107  -8.748  1.00  0.00    -0.284 OA
HETATM    7  C1  UNL     1      -0.344  24.342  -7.947  1.00  0.00     0.237 C 
ENDBRANCH   4   6
ENDBRANCH   1   3
BRANCH   1   8
HETATM    8  C3  UNL     1      -3.546  27.596 -11.048  1.00  0.00     0.082 C 
HETATM    9  C4  UNL     1      -2.946  28.956 -10.697  1.00  0.00     0.025 C 
HETATM   10  C5  UNL     1      -3.931  29.888 -11.359  1.00  0.00     0.002 C 
HETATM   11  C6  UNL     1      -5.246  29.139 -11.445  1.00  0.00     0.002 C 
HETATM   12  C7  UNL     1      -4.993  27.834 -10.697  1.00  0.00     0.025 C 
ENDBRANCH   1   8
TORSDOF 3
ENDMDL
MODEL 4
REMARK VINA RESULT: -4.553965572      1.060      1.616
REMARK  3 active torsions:
REMARK  status: ('A' for Active; 'I' for Inactive)
REMARK    1  A    between atoms: O1_2  and  N1_3 
REMARK    2  A    between atoms: C2_5  and  N2_6 
REMARK    3  A    between atoms: N2_6  and  C3_8 
ROOT
HETATM    1  N2  UNL     1      -2.642  26.250 -10.684  1.00  0.00    -0.380 N 
ATOM      2  H2  UNL     1      -2.855  25.308 -11.014  1.00  0.00     0.160 HD
ENDROOT
BRANCH   1   3
HETATM    3  C2  UNL     1      -1.805  26.452  -9.557  1.00  0.00     0.200 C 
HETATM    4  N1  UNL     1      -1.106  25.467  -9.126  1.00  0.00    -0.263 N 
ATOM      5  H1  UNL     1      -0.509  25.626  -8.315  1.00  0.00     0.195 HD
BRANCH   4   6
HETATM    6  O1  UNL     1      -1.109  24.225  -9.679  1.00  0.00    -0.284 OA
HETATM    7  C1  UNL     1       0.079  23.547  -9.997  1.00  0.00     0.237 C 
ENDBRANCH   4   6
ENDBRANCH   1   3
BRANCH   1   8
HETATM    8  C3  UNL     1      -3.180  27.395 -11.346  1.00  0.00     0.082 C 
HETATM    9  C4  UNL     1      -2.898  28.679 -10.569  1.00  0.00     0.025 C 
HETATM   10  C5  UNL     1      -3.797  29.657 -11.286  1.00  0.00     0.002 C 
HETATM   11  C6  UNL     1      -4.920  28.843 -11.900  1.00  0.00     0.002 C 
HETATM   12  C7  UNL     1      -4.687  27.424 -11.390  1.00  0.00     0.025 C 
ENDBRANCH   1   8
TORSDOF 3
ENDMDL
MODEL 5
REMARK VINA RESULT: -4.527784368      1.380      1.867
REMARK  3 active torsions:
REMARK  status: ('A' for Active; 'I' for Inactive)
REMARK    1  A    between atoms: O1_2  and  N1_3 
REMARK    2  A    between atoms: C2_5  and  N2_6 
REMARK    3  A    between atoms: N2_6  and  C3_8 
ROOT
HETATM    1  N2  UNL     1      -2.686  28.203 -10.560  1.00  0.00    -0.380 N 
ATOM      2  H2  UNL     1      -1.833  28.735 -10.385  1.00  0.00     0.160 HD
ENDROOT
BRANCH   1   3
HETATM    3  C2  UNL     1      -2.929  26.978  -9.887  1.00  0.00     0.200 C 
HETATM    4  N1  UNL     1      -1.935  26.352  -9.374  1.00  0.00    -0.263 N 
ATOM      5  H1  UNL     1      -2.123  25.472  -8.894  1.00  0.00     0.195 HD
BRANCH   4   6
HETATM    6  O1  UNL     1      -0.647  26.781  -9.429  1.00  0.00    -0.284 OA
HETATM    7  C1  UNL     1       0.434  25.944  -9.108  1.00  0.00     0.237 C 
ENDBRANCH   4   6
ENDBRANCH   1   3
BRANCH   1   8
HETATM    8  C3  UNL     1      -3.663  28.675 -11.489  1.00  0.00     0.082 C 
HETATM    9  C4  UNL     1      -3.857  30.185 -11.385  1.00  0.00     0.025 C 
HETATM   10  C5  UNL     1      -5.105  30.376 -12.213  1.00  0.00     0.002 C 
HETATM   11  C6  UNL     1      -5.857  29.061 -12.173  1.00  0.00     0.002 C 
HETATM   12  C7  UNL     1      -5.063  28.196 -11.199  1.00  0.00     0.025 C 
ENDBRANCH   1   8
TORSDOF 3
ENDMDL
