MODEL 1
REMARK VINA RESULT: -5.215489430      0.000      0.000
REMARK  4 active torsions:
REMARK  status: ('A' for Active; 'I' for Inactive)
REMARK    1  A    between atoms: C2_2  and  C4_5 
REMARK    2  A    between atoms: C4_5  and  N2_6 
REMARK    3  A    between atoms: C4_5  and  C5_10 
REMARK    4  A    between atoms: C5_10  and  C6_11 
ROOT
HETATM    1  C1  UNL     1       0.462  25.489  -8.453  1.00  0.00     0.027 C 
HETATM    2  C2  UNL     1      -0.696  24.870  -9.180  1.00  0.00     0.119 C 
HETATM    3  C3  UNL     1      -0.439  23.517  -9.608  1.00  0.00     0.065 C 
HETATM    4  N1  UNL     1      -0.246  22.439  -9.962  1.00  0.00    -0.197 NA
ENDROOT
BRANCH   2   5
HETATM    5  C4  UNL     1      -1.156  25.762 -10.313  1.00  0.00     0.201 C 
BRANCH   5   6
HETATM    6  N2  UNL     1      -1.821  24.982 -11.327  1.00  0.00    -0.074 N 
ATOM      7  H23 UNL     1      -2.021  25.535 -12.161  1.00  0.00     0.274 HD
ATOM      8  H22 UNL     1      -1.197  24.294 -11.748  1.00  0.00     0.274 HD
ATOM      9  H21 UNL     1      -2.663  24.550 -10.948  1.00  0.00     0.274 HD
ENDBRANCH   5   6
BRANCH   5  10
HETATM   10  C5  UNL     1      -2.100  26.819  -9.802  1.00  0.00     0.038 C 
BRANCH  10  11
HETATM   11  C6  UNL     1      -2.878  27.498 -10.869  1.00  0.00    -0.013 A 
HETATM   12  C7  UNL     1      -3.245  28.910 -10.858  1.00  0.00     0.005 A 
HETATM   13  C8  UNL     1      -4.298  27.882 -10.495  1.00  0.00     0.005 A 
ENDBRANCH  10  11
ENDBRANCH   5  10
ENDBRANCH   2   5
TORSDOF 4
ENDMDL
MODEL 2
REMARK VINA RESULT: -4.968064664      2.081      4.989
REMARK  4 active torsions:
REMARK  status: ('A' for Active; 'I' for Inactive)
REMARK    1  A    between atoms: C2_2  and  C4_5 
REMARK    2  A    between atoms: C4_5  and  N2_6 
REMARK    3  A    between atoms: C4_5  and  C5_10 
REMARK    4  A    between atoms: C5_10  and  C6_11 
ROOT
HETATM    1  C1  UNL     1      -4.563  29.714 -11.023  1.00  0.00     0.027 C 
HETATM    2  C2  UNL     1      -3.646  28.666 -11.582  1.00  0.00     0.119 C 
HETATM    3  C3  UNL     1      -3.980  28.280 -12.930  1.00  0.00     0.065 C 
HETATM    4  N1  UNL     1      -4.239  27.958 -14.005  1.00  0.00    -0.197 NA
ENDROOT
BRANCH   2   5
HETATM    5  C4  UNL     1      -3.553  27.481 -10.645  1.00  0.00     0.201 C 
BRANCH   5   6
HETATM    6  N2  UNL     1      -3.703  26.248 -11.377  1.00  0.00    -0.074 N 
ATOM      7  H23 UNL     1      -4.580  25.777 -11.153  1.00  0.00     0.274 HD
ATOM      8  H22 UNL     1      -3.869  26.414 -12.370  1.00  0.00     0.274 HD
ATOM      9  H21 UNL     1      -2.897  25.642 -11.223  1.00  0.00     0.274 HD
ENDBRANCH   5   6
BRANCH   5  10
HETATM   10  C5  UNL     1      -2.225  27.475  -9.932  1.00  0.00     0.038 C 
BRANCH  10  11
HETATM   11  C6  UNL     1      -1.523  26.167  -9.976  1.00  0.00    -0.013 A 
HETATM   12  C7  UNL     1      -1.299  25.306  -8.820  1.00  0.00     0.005 A 
HETATM   13  C8  UNL     1      -0.147  26.145  -9.336  1.00  0.00     0.005 A 
ENDBRANCH  10  11
ENDBRANCH   5  10
ENDBRANCH   2   5
TORSDOF 4
ENDMDL
MODEL 3
REMARK VINA RESULT: -4.797746398      2.640      5.081
REMARK  4 active torsions:
REMARK  status: ('A' for Active; 'I' for Inactive)
REMARK    1  A    between atoms: C2_2  and  C4_5 
REMARK    2  A    between atoms: C4_5  and  N2_6 
REMARK    3  A    between atoms: C4_5  and  C5_10 
REMARK    4  A    between atoms: C5_10  and  C6_11 
ROOT
HETATM    1  C1  UNL     1      -4.107  30.043 -11.728  1.00  0.00     0.027 C 
HETATM    2  C2  UNL     1      -3.781  28.583 -11.852  1.00  0.00     0.119 C 
HETATM    3  C3  UNL     1      -4.826  27.821 -12.490  1.00  0.00     0.065 C 
HETATM    4  N1  UNL     1      -5.654  27.200 -12.993  1.00  0.00    -0.197 NA
ENDROOT
BRANCH   2   5
HETATM    5  C4  UNL     1      -3.380  28.008 -10.511  1.00  0.00     0.201 C 
BRANCH   5   6
HETATM    6  N2  UNL     1      -4.531  27.475  -9.827  1.00  0.00    -0.074 N 
ATOM      7  H23 UNL     1      -5.101  28.212  -9.411  1.00  0.00     0.274 HD
ATOM      8  H22 UNL     1      -5.221  27.100 -10.480  1.00  0.00     0.274 HD
ATOM      9  H21 UNL     1      -4.246  26.781  -9.137  1.00  0.00     0.274 HD
ENDBRANCH   5   6
BRANCH   5  10
HETATM   10  C5  UNL     1      -2.359  26.913 -10.691  1.00  0.00     0.038 C 
BRANCH  10  11
HETATM   11  C6  UNL     1      -1.574  26.615  -9.466  1.00  0.00    -0.013 A 
HETATM   12  C7  UNL     1      -0.173  26.208  -9.458  1.00  0.00     0.005 A 
HETATM   13  C8  UNL     1      -1.240  25.150  -9.249  1.00  0.00     0.005 A 
ENDBRANCH  10  11
ENDBRANCH   5  10
ENDBRANCH   2   5
TORSDOF 4
ENDMDL
MODEL 4
REMARK VINA RESULT: -4.723048752      2.353      5.238
REMARK  4 active torsions:
REMARK  status: ('A' for Active; 'I' for Inactive)
REMARK    1  A    between atoms: C2_2  and  C4_5 
REMARK    2  A    between atoms: C4_5  and  N2_6 
REMARK    3  A    between atoms: C4_5  and  C5_10 
REMARK    4  A    between atoms: C5_10  and  C6_11 
ROOT
HETATM    1  C1  UNL     1      -3.705  29.760 -11.115  1.00  0.00     0.027 C 
HETATM    2  C2  UNL     1      -4.202  28.495 -11.753  1.00  0.00     0.119 C 
HETATM    3  C3  UNL     1      -5.606  28.539 -12.079  1.00  0.00     0.065 C 
HETATM    4  N1  UNL     1      -6.728  28.557 -12.339  1.00  0.00    -0.197 NA
ENDROOT
BRANCH   2   5
HETATM    5  C4  UNL     1      -3.838  27.291 -10.911  1.00  0.00     0.201 C 
BRANCH   5   6
HETATM    6  N2  UNL     1      -3.750  26.111 -11.734  1.00  0.00    -0.074 N 
ATOM      7  H23 UNL     1      -2.931  25.548 -11.504  1.00  0.00     0.274 HD
ATOM      8  H22 UNL     1      -4.473  25.430 -11.500  1.00  0.00     0.274 HD
ATOM      9  H21 UNL     1      -3.772  26.363 -12.722  1.00  0.00     0.274 HD
ENDBRANCH   5   6
BRANCH   5  10
HETATM   10  C5  UNL     1      -2.518  27.513 -10.219  1.00  0.00     0.038 C 
BRANCH  10  11
HETATM   11  C6  UNL     1      -1.657  26.304 -10.166  1.00  0.00    -0.013 A 
HETATM   12  C7  UNL     1      -1.433  25.497  -8.971  1.00  0.00     0.005 A 
HETATM   13  C8  UNL     1      -0.352  26.468  -9.406  1.00  0.00     0.005 A 
ENDBRANCH  10  11
ENDBRANCH   5  10
ENDBRANCH   2   5
TORSDOF 4
ENDMDL
MODEL 5
REMARK VINA RESULT: -4.716647260      1.627      2.165
REMARK  4 active torsions:
REMARK  status: ('A' for Active; 'I' for Inactive)
REMARK    1  A    between atoms: C2_2  and  C4_5 
REMARK    2  A    between atoms: C4_5  and  N2_6 
REMARK    3  A    between atoms: C4_5  and  C5_10 
REMARK    4  A    between atoms: C5_10  and  C6_11 
ROOT
HETATM    1  C1  UNL     1       0.267  24.694 -11.350  1.00  0.00     0.027 C 
HETATM    2  C2  UNL     1       0.271  24.014 -10.012  1.00  0.00     0.119 C 
HETATM    3  C3  UNL     1      -0.117  22.627 -10.079  1.00  0.00     0.065 C 
HETATM    4  N1  UNL     1      -0.431  21.520 -10.116  1.00  0.00    -0.197 NA
ENDROOT
BRANCH   2   5
HETATM    5  C4  UNL     1      -0.548  24.800  -9.011  1.00  0.00     0.201 C 
BRANCH   5   6
HETATM    6  N2  UNL     1       0.102  24.806  -7.724  1.00  0.00    -0.074 N 
ATOM      7  H23 UNL     1      -0.499  24.427  -6.992  1.00  0.00     0.274 HD
ATOM      8  H22 UNL     1       0.854  24.118  -7.675  1.00  0.00     0.274 HD
ATOM      9  H21 UNL     1       0.431  25.744  -7.496  1.00  0.00     0.274 HD
ENDBRANCH   5   6
BRANCH   5  10
HETATM   10  C5  UNL     1      -0.733  26.220  -9.479  1.00  0.00     0.038 C 
BRANCH  10  11
HETATM   11  C6  UNL     1      -2.153  26.612  -9.667  1.00  0.00    -0.013 A 
HETATM   12  C7  UNL     1      -2.812  26.752 -10.961  1.00  0.00     0.005 A 
HETATM   13  C8  UNL     1      -2.375  28.005 -10.228  1.00  0.00     0.005 A 
ENDBRANCH  10  11
ENDBRANCH   5  10
ENDBRANCH   2   5
TORSDOF 4
ENDMDL
