MODEL 1
REMARK VINA RESULT: -4.371815338      0.000      0.000
REMARK  3 active torsions:
REMARK  status: ('A' for Active; 'I' for Inactive)
REMARK    1  A    between atoms: C3_3  and  C4_4 
REMARK    2  A    between atoms: C4_4  and  N1_5 
REMARK    3  A    between atoms: N1_5  and  C5_7 
ROOT
HETATM    1  C4  UNL     1      -1.697  25.858 -10.994  1.00  0.00     0.129 C 
ENDROOT
BRANCH   1   2
HETATM    2  C3  UNL     1      -1.211  25.544  -9.588  1.00  0.00     0.065 C 
HETATM    3  C2  UNL     1       0.117  26.109  -9.203  1.00  0.00     0.027 C 
HETATM    4  C1  UNL     1       0.307  24.932  -8.272  1.00  0.00     0.075 C 
HETATM    5  S1  UNL     1      -0.415  23.874  -9.548  1.00  0.00    -0.163 SA
ENDBRANCH   1   2
BRANCH   1   6
HETATM    6  N1  UNL     1      -3.058  26.248 -10.970  1.00  0.00    -0.416 N 
ATOM      7  H1  UNL     1      -3.785  25.700 -11.431  1.00  0.00     0.153 HD
BRANCH   6   8
HETATM    8  C5  UNL     1      -3.349  27.443 -10.271  1.00  0.00     0.076 A 
HETATM    9  C6  UNL     1      -4.575  28.289 -10.629  1.00  0.00     0.027 A 
HETATM   10  C7  UNL     1      -3.205  28.782 -10.898  1.00  0.00     0.027 A 
ENDBRANCH   6   8
ENDBRANCH   1   6
TORSDOF 3
ENDMDL
MODEL 2
REMARK VINA RESULT: -4.342296274      0.810      1.085
REMARK  3 active torsions:
REMARK  status: ('A' for Active; 'I' for Inactive)
REMARK    1  A    between atoms: C3_3  and  C4_4 
REMARK    2  A    between atoms: C4_4  and  N1_5 
REMARK    3  A    between atoms: N1_5  and  C5_7 
ROOT
HETATM    1  C4  UNL     1      -1.965  26.383 -10.494  1.00  0.00     0.129 C 
ENDROOT
BRANCH   1   2
HETATM    2  C3  UNL     1      -1.223  25.841  -9.283  1.00  0.00     0.065 C 
HETATM    3  C2  UNL     1       0.225  26.193  -9.179  1.00  0.00     0.027 C 
HETATM    4  C1  UNL     1       0.448  24.894  -8.435  1.00  0.00     0.075 C 
HETATM    5  S1  UNL     1      -0.688  24.097  -9.591  1.00  0.00    -0.163 SA
ENDBRANCH   1   2
BRANCH   1   6
HETATM    6  N1  UNL     1      -2.556  27.634 -10.193  1.00  0.00    -0.416 N 
ATOM      7  H1  UNL     1      -2.392  28.110  -9.305  1.00  0.00     0.153 HD
BRANCH   6   8
HETATM    8  C5  UNL     1      -3.388  28.184 -11.196  1.00  0.00     0.076 A 
HETATM    9  C6  UNL     1      -3.714  29.681 -11.219  1.00  0.00     0.027 A 
HETATM   10  C7  UNL     1      -4.758  28.679 -10.906  1.00  0.00     0.027 A 
ENDBRANCH   6   8
ENDBRANCH   1   6
TORSDOF 3
ENDMDL
MODEL 3
REMARK VINA RESULT: -4.146313351      1.049      1.081
REMARK  3 active torsions:
REMARK  status: ('A' for Active; 'I' for Inactive)
REMARK    1  A    between atoms: C3_3  and  C4_4 
REMARK    2  A    between atoms: C4_4  and  N1_5 
REMARK    3  A    between atoms: N1_5  and  C5_7 
ROOT
HETATM    1  C4  UNL     1      -1.944  26.990  -9.788  1.00  0.00     0.129 C 
ENDROOT
BRANCH   1   2
HETATM    2  C3  UNL     1      -1.292  25.699  -9.320  1.00  0.00     0.065 C 
HETATM    3  C2  UNL     1       0.169  25.765  -9.017  1.00  0.00     0.027 C 
HETATM    4  C1  UNL     1       0.278  24.307  -9.407  1.00  0.00     0.075 C 
HETATM    5  S1  UNL     1      -0.855  24.642 -10.775  1.00  0.00    -0.163 SA
ENDBRANCH   1   2
BRANCH   1   6
HETATM    6  N1  UNL     1      -3.187  26.718 -10.410  1.00  0.00    -0.416 N 
ATOM      7  H1  UNL     1      -3.451  25.778 -10.704  1.00  0.00     0.153 HD
BRANCH   6   8
HETATM    8  C5  UNL     1      -4.042  27.830 -10.599  1.00  0.00     0.076 A 
HETATM    9  C6  UNL     1      -4.353  28.358 -12.002  1.00  0.00     0.027 A 
HETATM   10  C7  UNL     1      -3.536  29.150 -11.055  1.00  0.00     0.027 A 
ENDBRANCH   6   8
ENDBRANCH   1   6
TORSDOF 3
ENDMDL
MODEL 4
REMARK VINA RESULT: -4.073080398      2.599      4.748
REMARK  3 active torsions:
REMARK  status: ('A' for Active; 'I' for Inactive)
REMARK    1  A    between atoms: C3_3  and  C4_4 
REMARK    2  A    between atoms: C4_4  and  N1_5 
REMARK    3  A    between atoms: N1_5  and  C5_7 
ROOT
HETATM    1  C4  UNL     1      -3.378  26.590 -11.508  1.00  0.00     0.129 C 
ENDROOT
BRANCH   1   2
HETATM    2  C3  UNL     1      -3.592  28.029 -11.946  1.00  0.00     0.065 C 
HETATM    3  C2  UNL     1      -3.357  29.081 -10.912  1.00  0.00     0.027 C 
HETATM    4  C1  UNL     1      -4.385  29.945 -11.610  1.00  0.00     0.075 C 
HETATM    5  S1  UNL     1      -5.389  28.462 -11.854  1.00  0.00    -0.163 SA
ENDBRANCH   1   2
BRANCH   1   6
HETATM    6  N1  UNL     1      -2.737  26.548 -10.245  1.00  0.00    -0.416 N 
ATOM      7  H1  UNL     1      -3.132  27.005  -9.423  1.00  0.00     0.153 HD
BRANCH   6   8
HETATM    8  C5  UNL     1      -1.517  25.834 -10.193  1.00  0.00     0.076 A 
HETATM    9  C6  UNL     1      -1.102  25.070  -8.932  1.00  0.00     0.027 A 
HETATM   10  C7  UNL     1      -0.371  26.283  -9.361  1.00  0.00     0.027 A 
ENDBRANCH   6   8
ENDBRANCH   1   6
TORSDOF 3
ENDMDL
MODEL 5
REMARK VINA RESULT: -4.044742281      2.848      5.173
REMARK  3 active torsions:
REMARK  status: ('A' for Active; 'I' for Inactive)
REMARK    1  A    between atoms: C3_3  and  C4_4 
REMARK    2  A    between atoms: C4_4  and  N1_5 
REMARK    3  A    between atoms: N1_5  and  C5_7 
ROOT
HETATM    1  C4  UNL     1      -3.660  27.573 -10.547  1.00  0.00     0.129 C 
ENDROOT
BRANCH   1   2
HETATM    2  C3  UNL     1      -3.867  28.560 -11.684  1.00  0.00     0.065 C 
HETATM    3  C2  UNL     1      -3.935  30.004 -11.306  1.00  0.00     0.027 C 
HETATM    4  C1  UNL     1      -4.839  30.235 -12.497  1.00  0.00     0.075 C 
HETATM    5  S1  UNL     1      -5.665  28.675 -12.107  1.00  0.00    -0.163 SA
ENDBRANCH   1   2
BRANCH   1   6
HETATM    6  N1  UNL     1      -2.312  27.595 -10.113  1.00  0.00    -0.416 N 
ATOM      7  H1  UNL     1      -1.722  28.420 -10.222  1.00  0.00     0.153 HD
BRANCH   6   8
HETATM    8  C5  UNL     1      -1.832  26.403  -9.520  1.00  0.00     0.076 A 
HETATM    9  C6  UNL     1      -0.330  26.152  -9.356  1.00  0.00     0.027 A 
HETATM   10  C7  UNL     1      -1.135  25.352 -10.305  1.00  0.00     0.027 A 
ENDBRANCH   6   8
ENDBRANCH   1   6
TORSDOF 3
ENDMDL
