MODEL 1
REMARK VINA RESULT: -4.625272586      0.000      0.000
REMARK  3 active torsions:
REMARK  status: ('A' for Active; 'I' for Inactive)
REMARK    1  A    between atoms: C2_2  and  C3_3 
REMARK    2  A    between atoms: C3_3  and  N1_4 
REMARK    3  A    between atoms: N1_4  and  N3_8 
ROOT
HETATM    1  N1  UNL     1      -2.505  26.546 -10.956  1.00  0.00    -0.239 N 
HETATM    2  N2  UNL     1      -3.405  26.157 -11.764  1.00  0.00    -0.329 N 
ATOM      3  H21 UNL     1      -3.294  25.243 -12.202  1.00  0.00     0.178 HD
ATOM      4  H22 UNL     1      -4.228  26.714 -11.993  1.00  0.00     0.178 HD
ENDROOT
BRANCH   1   5
HETATM    5  C3  UNL     1      -2.663  27.842 -10.334  1.00  0.00     0.195 C 
BRANCH   5   6
HETATM    6  C2  UNL     1      -3.894  28.525 -10.808  1.00  0.00    -0.014 C 
HETATM    7  C1  UNL     1      -3.822  29.758 -11.273  1.00  0.00     0.008 C 
ENDBRANCH   5   6
ENDBRANCH   1   5
BRANCH   1   8
HETATM    8  N3  UNL     1      -1.383  25.785 -10.644  1.00  0.00    -0.298 N 
HETATM    9  C4  UNL     1      -0.371  24.829 -10.976  1.00  0.00     0.177 A 
HETATM   10  C5  UNL     1      -0.408  25.447  -9.628  1.00  0.00     0.060 A 
HETATM   11  C6  UNL     1       0.691  26.390  -9.282  1.00  0.00     0.041 C 
HETATM   12  C7  UNL     1      -0.984  24.682  -8.455  1.00  0.00     0.041 C 
ENDBRANCH   1   8
TORSDOF 3
ENDMDL
MODEL 2
REMARK VINA RESULT: -4.609196668      0.873      1.551
REMARK  3 active torsions:
REMARK  status: ('A' for Active; 'I' for Inactive)
REMARK    1  A    between atoms: C2_2  and  C3_3 
REMARK    2  A    between atoms: C3_3  and  N1_4 
REMARK    3  A    between atoms: N1_4  and  N3_8 
ROOT
HETATM    1  N1  UNL     1      -1.905  26.369 -10.432  1.00  0.00    -0.239 N 
HETATM    2  N2  UNL     1      -2.476  25.687 -11.339  1.00  0.00    -0.329 N 
ATOM      3  H21 UNL     1      -2.078  24.779 -11.579  1.00  0.00     0.178 HD
ATOM      4  H22 UNL     1      -3.309  26.004 -11.834  1.00  0.00     0.178 HD
ENDROOT
BRANCH   1   5
HETATM    5  C3  UNL     1      -2.470  27.656 -10.091  1.00  0.00     0.195 C 
BRANCH   5   6
HETATM    6  C2  UNL     1      -3.302  28.193 -11.197  1.00  0.00    -0.014 C 
HETATM    7  C1  UNL     1      -3.729  29.442 -11.151  1.00  0.00     0.008 C 
ENDBRANCH   5   6
ENDBRANCH   1   5
BRANCH   1   8
HETATM    8  N3  UNL     1      -0.769  25.935  -9.755  1.00  0.00    -0.298 N 
HETATM    9  C4  UNL     1       0.516  26.160  -9.169  1.00  0.00     0.177 A 
HETATM   10  C5  UNL     1      -0.097  24.810  -9.140  1.00  0.00     0.060 A 
HETATM   11  C6  UNL     1      -0.534  24.291  -7.815  1.00  0.00     0.041 C 
HETATM   12  C7  UNL     1       0.351  23.749 -10.124  1.00  0.00     0.041 C 
ENDBRANCH   1   8
TORSDOF 3
ENDMDL
MODEL 3
REMARK VINA RESULT: -4.548800048      0.495      1.409
REMARK  3 active torsions:
REMARK  status: ('A' for Active; 'I' for Inactive)
REMARK    1  A    between atoms: C2_2  and  C3_3 
REMARK    2  A    between atoms: C3_3  and  N1_4 
REMARK    3  A    between atoms: N1_4  and  N3_8 
ROOT
HETATM    1  N1  UNL     1      -2.382  26.570 -10.615  1.00  0.00    -0.239 N 
HETATM    2  N2  UNL     1      -3.017  26.093 -11.606  1.00  0.00    -0.329 N 
ATOM      3  H21 UNL     1      -2.872  25.111 -11.842  1.00  0.00     0.178 HD
ATOM      4  H22 UNL     1      -3.660  26.644 -12.174  1.00  0.00     0.178 HD
ENDROOT
BRANCH   1   5
HETATM    5  C3  UNL     1      -2.587  27.963 -10.282  1.00  0.00     0.195 C 
BRANCH   5   6
HETATM    6  C2  UNL     1      -3.825  28.493 -10.906  1.00  0.00    -0.014 C 
HETATM    7  C1  UNL     1      -3.892  29.764 -11.255  1.00  0.00     0.008 C 
ENDBRANCH   5   6
ENDBRANCH   1   5
BRANCH   1   8
HETATM    8  N3  UNL     1      -1.504  25.818  -9.840  1.00  0.00    -0.298 N 
HETATM    9  C4  UNL     1      -1.214  24.959  -8.734  1.00  0.00     0.177 A 
HETATM   10  C5  UNL     1      -0.136  25.384  -9.659  1.00  0.00     0.060 A 
HETATM   11  C6  UNL     1       0.457  24.338 -10.538  1.00  0.00     0.041 C 
HETATM   12  C7  UNL     1       0.813  26.495  -9.262  1.00  0.00     0.041 C 
ENDBRANCH   1   8
TORSDOF 3
ENDMDL
MODEL 4
REMARK VINA RESULT: -4.401957237      1.278      1.423
REMARK  3 active torsions:
REMARK  status: ('A' for Active; 'I' for Inactive)
REMARK    1  A    between atoms: C2_2  and  C3_3 
REMARK    2  A    between atoms: C3_3  and  N1_4 
REMARK    3  A    between atoms: N1_4  and  N3_8 
ROOT
HETATM    1  N1  UNL     1      -1.727  25.806 -10.844  1.00  0.00    -0.239 N 
HETATM    2  N2  UNL     1      -2.171  25.817 -12.034  1.00  0.00    -0.329 N 
ATOM      3  H21 UNL     1      -1.916  25.045 -12.650  1.00  0.00     0.178 HD
ATOM      4  H22 UNL     1      -2.767  26.560 -12.400  1.00  0.00     0.178 HD
ENDROOT
BRANCH   1   5
HETATM    5  C3  UNL     1      -2.090  26.900  -9.971  1.00  0.00     0.195 C 
BRANCH   5   6
HETATM    6  C2  UNL     1      -3.306  27.601 -10.457  1.00  0.00    -0.014 C 
HETATM    7  C1  UNL     1      -3.233  28.868 -10.819  1.00  0.00     0.008 C 
ENDBRANCH   5   6
ENDBRANCH   1   5
BRANCH   1   8
HETATM    8  N3  UNL     1      -0.915  24.792 -10.345  1.00  0.00    -0.298 N 
HETATM    9  C4  UNL     1      -0.631  23.415 -10.080  1.00  0.00     0.177 A 
HETATM   10  C5  UNL     1       0.333  24.471  -9.687  1.00  0.00     0.060 A 
HETATM   11  C6  UNL     1       1.624  24.524 -10.428  1.00  0.00     0.041 C 
HETATM   12  C7  UNL     1       0.406  24.938  -8.248  1.00  0.00     0.041 C 
ENDBRANCH   1   8
TORSDOF 3
ENDMDL
MODEL 5
REMARK VINA RESULT: -4.262445577      1.562      1.820
REMARK  3 active torsions:
REMARK  status: ('A' for Active; 'I' for Inactive)
REMARK    1  A    between atoms: C2_2  and  C3_3 
REMARK    2  A    between atoms: C3_3  and  N1_4 
REMARK    3  A    between atoms: N1_4  and  N3_8 
ROOT
HETATM    1  N1  UNL     1      -2.230  26.339 -10.702  1.00  0.00    -0.239 N 
HETATM    2  N2  UNL     1      -2.110  26.493  -9.447  1.00  0.00    -0.329 N 
ATOM      3  H21 UNL     1      -1.532  25.826  -8.935  1.00  0.00     0.178 HD
ATOM      4  H22 UNL     1      -2.563  27.247  -8.932  1.00  0.00     0.178 HD
ENDROOT
BRANCH   1   5
HETATM    5  C3  UNL     1      -3.048  27.285 -11.429  1.00  0.00     0.195 C 
BRANCH   5   6
HETATM    6  C2  UNL     1      -3.095  28.601 -10.742  1.00  0.00    -0.014 C 
HETATM    7  C1  UNL     1      -3.870  29.560 -11.214  1.00  0.00     0.008 C 
ENDBRANCH   5   6
ENDBRANCH   1   5
BRANCH   1   8
HETATM    8  N3  UNL     1      -1.611  25.310 -11.406  1.00  0.00    -0.298 N 
HETATM    9  C4  UNL     1      -1.503  24.437 -12.534  1.00  0.00     0.177 A 
HETATM   10  C5  UNL     1      -0.531  24.347 -11.417  1.00  0.00     0.060 A 
HETATM   11  C6  UNL     1       0.868  24.772 -11.698  1.00  0.00     0.041 C 
HETATM   12  C7  UNL     1      -0.668  23.257 -10.374  1.00  0.00     0.041 C 
ENDBRANCH   1   8
TORSDOF 3
ENDMDL
