MODEL 1
REMARK VINA RESULT: -4.720025732      0.000      0.000
REMARK  3 active torsions:
REMARK  status: ('A' for Active; 'I' for Inactive)
REMARK    1  A    between atoms: N1_2  and  C2_5 
REMARK    2  A    between atoms: C2_5  and  C3_6 
REMARK    3  A    between atoms: C6_9  and  O1_10 
ROOT
HETATM    1  C3  UNL     1      -4.072  28.598 -10.801  1.00  0.00     0.014 C 
HETATM    2  C4  UNL     1      -4.572  27.699 -11.891  1.00  0.00     0.009 C 
HETATM    3  C5  UNL     1      -4.285  28.506 -13.152  1.00  0.00     0.032 C 
HETATM    4  C6  UNL     1      -4.745  29.887 -12.670  1.00  0.00     0.121 C 
HETATM    5  C8  UNL     1      -3.980  29.993 -11.374  1.00  0.00     0.038 C 
ENDROOT
BRANCH   1   6
HETATM    6  C2  UNL     1      -2.698  28.076 -10.381  1.00  0.00     0.236 C 
BRANCH   6   7
HETATM    7  N1  UNL     1      -2.809  26.712  -9.885  1.00  0.00    -0.079 N 
HETATM    8  C1  UNL     1      -1.489  26.270  -9.506  1.00  0.00     0.267 C 
ATOM      9  H12 UNL     1      -3.261  26.084 -10.550  1.00  0.00     0.276 HD
ATOM     10  H11 UNL     1      -3.489  26.620  -9.130  1.00  0.00     0.276 HD
ENDBRANCH   6   7
ENDBRANCH   1   6
BRANCH   4  11
HETATM   11  O1  UNL     1      -4.462  30.879 -13.566  1.00  0.00    -0.391 OA
HETATM   12  C7  UNL     1      -4.298  30.279 -14.822  1.00  0.00     0.202 C 
ENDBRANCH   4  11
TORSDOF 3
ENDMDL
MODEL 2
REMARK VINA RESULT: -4.474265905      1.996      2.484
REMARK  3 active torsions:
REMARK  status: ('A' for Active; 'I' for Inactive)
REMARK    1  A    between atoms: N1_2  and  C2_5 
REMARK    2  A    between atoms: C2_5  and  C3_6 
REMARK    3  A    between atoms: C6_9  and  O1_10 
ROOT
HETATM    1  C3  UNL     1      -2.848  27.723 -11.239  1.00  0.00     0.014 C 
HETATM    2  C4  UNL     1      -3.389  29.090 -10.946  1.00  0.00     0.009 C 
HETATM    3  C5  UNL     1      -4.897  28.874 -10.995  1.00  0.00     0.032 C 
HETATM    4  C6  UNL     1      -4.978  27.983 -12.241  1.00  0.00     0.121 C 
HETATM    5  C8  UNL     1      -3.956  26.930 -11.891  1.00  0.00     0.038 C 
ENDROOT
BRANCH   1   6
HETATM    6  C2  UNL     1      -2.434  27.107  -9.903  1.00  0.00     0.236 C 
BRANCH   6   7
HETATM    7  N1  UNL     1      -2.041  25.718 -10.090  1.00  0.00    -0.079 N 
HETATM    8  C1  UNL     1      -1.179  25.350  -8.993  1.00  0.00     0.267 C 
ATOM      9  H12 UNL     1      -1.616  25.546 -11.002  1.00  0.00     0.276 HD
ATOM     10  H11 UNL     1      -2.839  25.092 -10.194  1.00  0.00     0.276 HD
ENDBRANCH   6   7
ENDBRANCH   1   6
BRANCH   4  11
HETATM   11  O1  UNL     1      -6.234  27.491 -12.456  1.00  0.00    -0.391 OA
HETATM   12  C7  UNL     1      -7.119  28.578 -12.458  1.00  0.00     0.202 C 
ENDBRANCH   4  11
TORSDOF 3
ENDMDL
MODEL 3
REMARK VINA RESULT: -4.251415110      3.835      6.420
REMARK  3 active torsions:
REMARK  status: ('A' for Active; 'I' for Inactive)
REMARK    1  A    between atoms: N1_2  and  C2_5 
REMARK    2  A    between atoms: C2_5  and  C3_6 
REMARK    3  A    between atoms: C6_9  and  O1_10 
ROOT
HETATM    1  C3  UNL     1      -1.353  25.366  -9.791  1.00  0.00     0.014 C 
HETATM    2  C4  UNL     1      -1.006  24.892  -8.412  1.00  0.00     0.009 C 
HETATM    3  C5  UNL     1       0.517  24.819  -8.453  1.00  0.00     0.032 C 
HETATM    4  C6  UNL     1       0.694  24.176  -9.834  1.00  0.00     0.121 C 
HETATM    5  C8  UNL     1      -0.158  25.093 -10.675  1.00  0.00     0.038 C 
ENDROOT
BRANCH   1   6
HETATM    6  C2  UNL     1      -1.644  26.863  -9.692  1.00  0.00     0.236 C 
BRANCH   6   7
HETATM    7  N1  UNL     1      -3.035  27.128 -10.031  1.00  0.00    -0.079 N 
HETATM    8  C1  UNL     1      -3.094  28.416 -10.678  1.00  0.00     0.267 C 
ATOM      9  H12 UNL     1      -3.658  27.060  -9.226  1.00  0.00     0.276 HD
ATOM     10  H11 UNL     1      -3.454  26.385 -10.589  1.00  0.00     0.276 HD
ENDBRANCH   6   7
ENDBRANCH   1   6
BRANCH   4  11
HETATM   11  O1  UNL     1       2.002  24.118 -10.224  1.00  0.00    -0.391 OA
HETATM   12  C7  UNL     1       2.174  25.045 -11.262  1.00  0.00     0.202 C 
ENDBRANCH   4  11
TORSDOF 3
ENDMDL
MODEL 4
REMARK VINA RESULT: -4.220817165      1.415      2.084
REMARK  3 active torsions:
REMARK  status: ('A' for Active; 'I' for Inactive)
REMARK    1  A    between atoms: N1_2  and  C2_5 
REMARK    2  A    between atoms: C2_5  and  C3_6 
REMARK    3  A    between atoms: C6_9  and  O1_10 
ROOT
HETATM    1  C3  UNL     1      -3.366  28.404 -11.550  1.00  0.00     0.014 C 
HETATM    2  C4  UNL     1      -3.749  29.814 -11.216  1.00  0.00     0.009 C 
HETATM    3  C5  UNL     1      -5.206  29.883 -11.660  1.00  0.00     0.032 C 
HETATM    4  C6  UNL     1      -5.090  29.140 -12.996  1.00  0.00     0.121 C 
HETATM    5  C8  UNL     1      -4.371  27.890 -12.554  1.00  0.00     0.038 C 
ENDROOT
BRANCH   1   6
HETATM    6  C2  UNL     1      -3.418  27.604 -10.249  1.00  0.00     0.236 C 
BRANCH   6   7
HETATM    7  N1  UNL     1      -2.683  26.356 -10.397  1.00  0.00    -0.079 N 
HETATM    8  C1  UNL     1      -1.510  26.431  -9.559  1.00  0.00     0.267 C 
ATOM      9  H12 UNL     1      -2.461  26.140 -11.369  1.00  0.00     0.276 HD
ATOM     10  H11 UNL     1      -3.255  25.534 -10.203  1.00  0.00     0.276 HD
ENDBRANCH   6   7
ENDBRANCH   1   6
BRANCH   4  11
HETATM   11  O1  UNL     1      -6.305  28.907 -13.576  1.00  0.00    -0.391 OA
HETATM   12  C7  UNL     1      -7.199  28.554 -12.555  1.00  0.00     0.202 C 
ENDBRANCH   4  11
TORSDOF 3
ENDMDL
MODEL 5
REMARK VINA RESULT: -4.213974086      1.257      1.329
REMARK  3 active torsions:
REMARK  status: ('A' for Active; 'I' for Inactive)
REMARK    1  A    between atoms: N1_2  and  C2_5 
REMARK    2  A    between atoms: C2_5  and  C3_6 
REMARK    3  A    between atoms: C6_9  and  O1_10 
ROOT
HETATM    1  C3  UNL     1      -4.491  29.320 -11.323  1.00  0.00     0.014 C 
HETATM    2  C4  UNL     1      -5.790  28.634 -11.620  1.00  0.00     0.009 C 
HETATM    3  C5  UNL     1      -6.074  29.056 -13.058  1.00  0.00     0.032 C 
HETATM    4  C6  UNL     1      -5.696  30.538 -12.957  1.00  0.00     0.121 C 
HETATM    5  C8  UNL     1      -4.327  30.431 -12.334  1.00  0.00     0.038 C 
ENDROOT
BRANCH   1   6
HETATM    6  C2  UNL     1      -3.387  28.272 -11.462  1.00  0.00     0.236 C 
BRANCH   6   7
HETATM    7  N1  UNL     1      -2.548  28.266 -10.271  1.00  0.00    -0.079 N 
HETATM    8  C1  UNL     1      -2.205  26.895  -9.980  1.00  0.00     0.267 C 
ATOM      9  H12 UNL     1      -2.982  28.742  -9.480  1.00  0.00     0.276 HD
ATOM     10  H11 UNL     1      -1.730  28.869 -10.360  1.00  0.00     0.276 HD
ENDBRANCH   6   7
ENDBRANCH   1   6
BRANCH   4  11
HETATM   11  O1  UNL     1      -5.708  31.168 -14.170  1.00  0.00    -0.391 OA
HETATM   12  C7  UNL     1      -5.064  30.327 -15.088  1.00  0.00     0.202 C 
ENDBRANCH   4  11
TORSDOF 3
ENDMDL
