MODEL 1
REMARK VINA RESULT: -7.722605921      0.000      0.000
REMARK  5 active torsions:
REMARK  status: ('A' for Active; 'I' for Inactive)
REMARK    1  A    between atoms: O1_2  and  N1_3 
REMARK    2  A    between atoms: C2_5  and  C4_7 
REMARK    3  A    between atoms: C5_9  and  N2_10 
REMARK    4  A    between atoms: N2_10  and  C6_12 
REMARK    5  A    between atoms: C12_22  and  C13_23 
ROOT
HETATM    1  C4  UNL     1      -4.059 -17.400  28.649  1.00  0.00     0.056 A 
HETATM    2  S1  UNL     1      -4.393 -15.717  29.094  1.00  0.00    -0.050 SA
HETATM    3  C5  UNL     1      -3.679 -14.958  27.776  1.00  0.00     0.150 A 
HETATM    4  N3  UNL     1      -3.220 -15.968  27.057  1.00  0.00    -0.338 N 
ATOM      5  H3  UNL     1      -2.728 -15.790  26.181  1.00  0.00     0.168 HD
HETATM    6  C12 UNL     1      -3.399 -17.211  27.476  1.00  0.00     0.038 A 
ENDROOT
BRANCH   3   7
HETATM    7  N2  UNL     1      -3.578 -13.662  27.490  1.00  0.00    -0.333 N 
ATOM      8  H2  UNL     1      -2.771 -13.139  27.829  1.00  0.00     0.168 HD
BRANCH   7   9
HETATM    9  C6  UNL     1      -4.546 -13.002  26.740  1.00  0.00     0.095 A 
HETATM   10  C7  UNL     1      -4.671 -13.183  25.383  1.00  0.00     0.144 A 
HETATM   11  F1  UNL     1      -3.829 -14.027  24.768  1.00  0.00    -0.204 F 
HETATM   12  C8  UNL     1      -5.629 -12.533  24.628  1.00  0.00     0.045 A 
HETATM   13  C9  UNL     1      -6.493 -11.672  25.239  1.00  0.00     0.005 A 
HETATM   14  C10 UNL     1      -6.398 -11.461  26.610  1.00  0.00     0.026 A 
HETATM   15  C11 UNL     1      -5.419 -12.132  27.353  1.00  0.00     0.063 A 
HETATM   16 CL1  UNL     1      -5.274 -11.889  29.079  1.00  0.00    -0.082 Cl
ENDBRANCH   7   9
ENDBRANCH   3   7
BRANCH   1  17
HETATM   17  C2  UNL     1      -4.500 -18.502  29.462  1.00  0.00     0.047 C 
HETATM   18  N1  UNL     1      -5.799 -18.829  29.304  1.00  0.00    -0.270 N 
ATOM     19  H1  UNL     1      -6.378 -18.288  28.661  1.00  0.00     0.194 HD
HETATM   20  C3  UNL     1      -3.811 -19.342  30.389  1.00  0.00     0.072 C 
BRANCH  18  21
HETATM   21  O1  UNL     1      -6.347 -19.854  29.979  1.00  0.00    -0.285 OA
HETATM   22  C1  UNL     1      -6.809 -21.060  29.398  1.00  0.00     0.237 C 
ENDBRANCH  18  21
ENDBRANCH   1  17
BRANCH   6  23
HETATM   23  C13 UNL     1      -2.833 -18.373  26.647  1.00  0.00    -0.007 C 
HETATM   24  C14 UNL     1      -2.775 -17.923  25.154  1.00  0.00     0.021 C 
HETATM   25  C15 UNL     1      -1.384 -18.573  26.986  1.00  0.00     0.021 C 
HETATM   26  C16 UNL     1      -3.715 -19.543  26.648  1.00  0.00     0.021 C 
ENDBRANCH   6  23
TORSDOF 5
ENDMDL
MODEL 2
REMARK VINA RESULT: -7.498322531      3.683      7.257
REMARK  5 active torsions:
REMARK  status: ('A' for Active; 'I' for Inactive)
REMARK    1  A    between atoms: O1_2  and  N1_3 
REMARK    2  A    between atoms: C2_5  and  C4_7 
REMARK    3  A    between atoms: C5_9  and  N2_10 
REMARK    4  A    between atoms: N2_10  and  C6_12 
REMARK    5  A    between atoms: C12_22  and  C13_23 
ROOT
HETATM    1  C4  UNL     1      -4.020 -14.562  25.687  1.00  0.00     0.056 A 
HETATM    2  S1  UNL     1      -3.438 -16.214  25.415  1.00  0.00    -0.050 SA
HETATM    3  C5  UNL     1      -3.240 -16.682  27.017  1.00  0.00     0.150 A 
HETATM    4  N3  UNL     1      -3.607 -15.606  27.693  1.00  0.00    -0.338 N 
ATOM      5  H3  UNL     1      -3.584 -15.612  28.713  1.00  0.00     0.168 HD
HETATM    6  C12 UNL     1      -4.005 -14.523  27.045  1.00  0.00     0.038 A 
ENDROOT
BRANCH   3   7
HETATM    7  N2  UNL     1      -2.819 -17.839  27.522  1.00  0.00    -0.333 N 
ATOM      8  H2  UNL     1      -1.914 -17.877  27.991  1.00  0.00     0.168 HD
BRANCH   7   9
HETATM    9  C6  UNL     1      -3.581 -18.998  27.425  1.00  0.00     0.095 A 
HETATM   10  C7  UNL     1      -4.719 -19.192  28.173  1.00  0.00     0.144 A 
HETATM   11  F1  UNL     1      -5.101 -18.226  29.020  1.00  0.00    -0.204 F 
HETATM   12  C8  UNL     1      -5.483 -20.340  28.084  1.00  0.00     0.045 A 
HETATM   13  C9  UNL     1      -5.107 -21.331  27.226  1.00  0.00     0.005 A 
HETATM   14  C10 UNL     1      -3.962 -21.174  26.454  1.00  0.00     0.026 A 
HETATM   15  C11 UNL     1      -3.204 -20.001  26.561  1.00  0.00     0.063 A 
HETATM   16 CL1  UNL     1      -1.759 -19.772  25.602  1.00  0.00    -0.082 Cl
ENDBRANCH   7   9
ENDBRANCH   3   7
BRANCH   1  17
HETATM   17  C2  UNL     1      -4.379 -13.695  24.597  1.00  0.00     0.047 C 
HETATM   18  N1  UNL     1      -3.918 -14.089  23.392  1.00  0.00    -0.270 N 
ATOM     19  H1  UNL     1      -3.348 -14.933  23.325  1.00  0.00     0.194 HD
HETATM   20  C3  UNL     1      -5.164 -12.502  24.541  1.00  0.00     0.072 C 
BRANCH  18  21
HETATM   21  O1  UNL     1      -4.196 -13.393  22.277  1.00  0.00    -0.285 OA
HETATM   22  C1  UNL     1      -3.253 -12.659  21.517  1.00  0.00     0.237 C 
ENDBRANCH  18  21
ENDBRANCH   1  17
BRANCH   6  23
HETATM   23  C13 UNL     1      -4.399 -13.272  27.843  1.00  0.00    -0.007 C 
HETATM   24  C14 UNL     1      -4.367 -13.632  29.361  1.00  0.00     0.021 C 
HETATM   25  C15 UNL     1      -3.314 -12.240  27.728  1.00  0.00     0.021 C 
HETATM   26  C16 UNL     1      -5.781 -12.857  27.588  1.00  0.00     0.021 C 
ENDBRANCH   6  23
TORSDOF 5
ENDMDL
MODEL 3
REMARK VINA RESULT: -7.496972901      1.612      2.153
REMARK  5 active torsions:
REMARK  status: ('A' for Active; 'I' for Inactive)
REMARK    1  A    between atoms: O1_2  and  N1_3 
REMARK    2  A    between atoms: C2_5  and  C4_7 
REMARK    3  A    between atoms: C5_9  and  N2_10 
REMARK    4  A    between atoms: N2_10  and  C6_12 
REMARK    5  A    between atoms: C12_22  and  C13_23 
ROOT
HETATM    1  C4  UNL     1      -4.127 -17.474  28.457  1.00  0.00     0.056 A 
HETATM    2  S1  UNL     1      -4.628 -15.796  28.738  1.00  0.00    -0.050 SA
HETATM    3  C5  UNL     1      -3.950 -15.095  27.369  1.00  0.00     0.150 A 
HETATM    4  N3  UNL     1      -3.380 -16.118  26.756  1.00  0.00    -0.338 N 
ATOM      5  H3  UNL     1      -2.882 -15.975  25.878  1.00  0.00     0.168 HD
HETATM    6  C12 UNL     1      -3.455 -17.329  27.285  1.00  0.00     0.038 A 
ENDROOT
BRANCH   3   7
HETATM    7  N2  UNL     1      -3.962 -13.827  26.966  1.00  0.00    -0.333 N 
ATOM      8  H2  UNL     1      -3.727 -13.610  25.997  1.00  0.00     0.168 HD
BRANCH   7   9
HETATM    9  C6  UNL     1      -4.288 -12.789  27.832  1.00  0.00     0.095 A 
HETATM   10  C7  UNL     1      -3.537 -12.502  28.948  1.00  0.00     0.144 A 
HETATM   11  F1  UNL     1      -2.455 -13.253  29.203  1.00  0.00    -0.204 F 
HETATM   12  C8  UNL     1      -3.851 -11.473  29.815  1.00  0.00     0.045 A 
HETATM   13  C9  UNL     1      -4.949 -10.701  29.569  1.00  0.00     0.005 A 
HETATM   14  C10 UNL     1      -5.733 -10.959  28.452  1.00  0.00     0.026 A 
HETATM   15  C11 UNL     1      -5.394 -12.008  27.587  1.00  0.00     0.063 A 
HETATM   16 CL1  UNL     1      -6.362 -12.358  26.173  1.00  0.00    -0.082 Cl
ENDBRANCH   7   9
ENDBRANCH   3   7
BRANCH   1  17
HETATM   17  C2  UNL     1      -4.488 -18.534  29.359  1.00  0.00     0.047 C 
HETATM   18  N1  UNL     1      -5.787 -18.894  29.311  1.00  0.00    -0.270 N 
ATOM     19  H1  UNL     1      -6.420 -18.401  28.680  1.00  0.00     0.194 HD
HETATM   20  C3  UNL     1      -3.719 -19.307  30.282  1.00  0.00     0.072 C 
BRANCH  18  21
HETATM   21  O1  UNL     1      -6.265 -19.888  30.079  1.00  0.00    -0.285 OA
HETATM   22  C1  UNL     1      -6.797 -21.108  29.597  1.00  0.00     0.237 C 
ENDBRANCH  18  21
ENDBRANCH   1  17
BRANCH   6  23
HETATM   23  C13 UNL     1      -2.760 -18.503  26.578  1.00  0.00    -0.007 C 
HETATM   24  C14 UNL     1      -2.622 -18.147  25.065  1.00  0.00     0.021 C 
HETATM   25  C15 UNL     1      -1.330 -18.585  27.028  1.00  0.00     0.021 C 
HETATM   26  C16 UNL     1      -3.568 -19.726  26.600  1.00  0.00     0.021 C 
ENDBRANCH   6  23
TORSDOF 5
ENDMDL
MODEL 4
REMARK VINA RESULT: -7.355889822      1.186      1.453
REMARK  5 active torsions:
REMARK  status: ('A' for Active; 'I' for Inactive)
REMARK    1  A    between atoms: O1_2  and  N1_3 
REMARK    2  A    between atoms: C2_5  and  C4_7 
REMARK    3  A    between atoms: C5_9  and  N2_10 
REMARK    4  A    between atoms: N2_10  and  C6_12 
REMARK    5  A    between atoms: C12_22  and  C13_23 
ROOT
HETATM    1  C4  UNL     1      -4.574 -18.155  28.493  1.00  0.00     0.056 A 
HETATM    2  S1  UNL     1      -5.017 -16.451  28.703  1.00  0.00    -0.050 SA
HETATM    3  C5  UNL     1      -3.672 -15.747  27.981  1.00  0.00     0.150 A 
HETATM    4  N3  UNL     1      -2.946 -16.789  27.614  1.00  0.00    -0.338 N 
ATOM      5  H3  UNL     1      -2.053 -16.649  27.141  1.00  0.00     0.168 HD
HETATM    6  C12 UNL     1      -3.379 -18.015  27.861  1.00  0.00     0.038 A 
ENDROOT
BRANCH   3   7
HETATM    7  N2  UNL     1      -3.374 -14.462  27.805  1.00  0.00    -0.333 N 
ATOM      8  H2  UNL     1      -2.465 -14.116  28.110  1.00  0.00     0.168 HD
BRANCH   7   9
HETATM    9  C6  UNL     1      -4.272 -13.579  27.214  1.00  0.00     0.095 A 
HETATM   10  C7  UNL     1      -4.464 -13.530  25.853  1.00  0.00     0.144 A 
HETATM   11  F1  UNL     1      -3.761 -14.367  25.076  1.00  0.00    -0.204 F 
HETATM   12  C8  UNL     1      -5.353 -12.657  25.256  1.00  0.00     0.045 A 
HETATM   13  C9  UNL     1      -6.075 -11.800  26.034  1.00  0.00     0.005 A 
HETATM   14  C10 UNL     1      -5.909 -11.818  27.413  1.00  0.00     0.026 A 
HETATM   15  C11 UNL     1      -5.002 -12.713  27.996  1.00  0.00     0.063 A 
HETATM   16 CL1  UNL     1      -4.770 -12.760  29.728  1.00  0.00    -0.082 Cl
ENDBRANCH   7   9
ENDBRANCH   3   7
BRANCH   1  17
HETATM   17  C2  UNL     1      -5.433 -19.222  28.932  1.00  0.00     0.047 C 
HETATM   18  N1  UNL     1      -5.513 -19.362  30.271  1.00  0.00    -0.270 N 
ATOM     19  H1  UNL     1      -4.968 -18.745  30.873  1.00  0.00     0.194 HD
HETATM   20  C3  UNL     1      -6.249 -20.149  28.215  1.00  0.00     0.072 C 
BRANCH  18  21
HETATM   21  O1  UNL     1      -6.297 -20.300  30.829  1.00  0.00    -0.285 OA
HETATM   22  C1  UNL     1      -6.127 -20.842  32.126  1.00  0.00     0.237 C 
ENDBRANCH  18  21
ENDBRANCH   1  17
BRANCH   6  23
HETATM   23  C13 UNL     1      -2.510 -19.216  27.457  1.00  0.00    -0.007 C 
HETATM   24  C14 UNL     1      -1.131 -18.675  26.966  1.00  0.00     0.021 C 
HETATM   25  C15 UNL     1      -2.138 -20.002  28.681  1.00  0.00     0.021 C 
HETATM   26  C16 UNL     1      -3.058 -19.940  26.306  1.00  0.00     0.021 C 
ENDBRANCH   6  23
TORSDOF 5
ENDMDL
MODEL 5
REMARK VINA RESULT: -7.284876199      3.383      7.082
REMARK  5 active torsions:
REMARK  status: ('A' for Active; 'I' for Inactive)
REMARK    1  A    between atoms: O1_2  and  N1_3 
REMARK    2  A    between atoms: C2_5  and  C4_7 
REMARK    3  A    between atoms: C5_9  and  N2_10 
REMARK    4  A    between atoms: N2_10  and  C6_12 
REMARK    5  A    between atoms: C12_22  and  C13_23 
ROOT
HETATM    1  C4  UNL     1      -4.005 -14.578  25.742  1.00  0.00     0.056 A 
HETATM    2  S1  UNL     1      -3.390 -16.226  25.517  1.00  0.00    -0.050 SA
HETATM    3  C5  UNL     1      -3.198 -16.649  27.132  1.00  0.00     0.150 A 
HETATM    4  N3  UNL     1      -3.592 -15.565  27.777  1.00  0.00    -0.338 N 
ATOM      5  H3  UNL     1      -3.578 -15.544  28.797  1.00  0.00     0.168 HD
HETATM    6  C12 UNL     1      -4.004 -14.506  27.098  1.00  0.00     0.038 A 
ENDROOT
BRANCH   3   7
HETATM    7  N2  UNL     1      -2.761 -17.786  27.669  1.00  0.00    -0.333 N 
ATOM      8  H2  UNL     1      -2.041 -17.749  28.391  1.00  0.00     0.168 HD
BRANCH   7   9
HETATM    9  C6  UNL     1      -3.259 -19.021  27.271  1.00  0.00     0.095 A 
HETATM   10  C7  UNL     1      -2.616 -19.807  26.343  1.00  0.00     0.144 A 
HETATM   11  F1  UNL     1      -1.469 -19.361  25.811  1.00  0.00    -0.204 F 
HETATM   12  C8  UNL     1      -3.102 -21.036  25.941  1.00  0.00     0.045 A 
HETATM   13  C9  UNL     1      -4.268 -21.503  26.474  1.00  0.00     0.005 A 
HETATM   14  C10 UNL     1      -4.949 -20.738  27.414  1.00  0.00     0.026 A 
HETATM   15  C11 UNL     1      -4.435 -19.495  27.806  1.00  0.00     0.063 A 
HETATM   16 CL1  UNL     1      -5.268 -18.508  28.986  1.00  0.00    -0.082 Cl
ENDBRANCH   7   9
ENDBRANCH   3   7
BRANCH   1  17
HETATM   17  C2  UNL     1      -4.369 -13.746  24.627  1.00  0.00     0.047 C 
HETATM   18  N1  UNL     1      -3.931 -14.188  23.430  1.00  0.00    -0.270 N 
ATOM     19  H1  UNL     1      -3.373 -15.041  23.385  1.00  0.00     0.194 HD
HETATM   20  C3  UNL     1      -5.140 -12.546  24.540  1.00  0.00     0.072 C 
BRANCH  18  21
HETATM   21  O1  UNL     1      -4.217 -13.528  22.295  1.00  0.00    -0.285 OA
HETATM   22  C1  UNL     1      -3.303 -12.732  21.562  1.00  0.00     0.237 C 
ENDBRANCH  18  21
ENDBRANCH   1  17
BRANCH   6  23
HETATM   23  C13 UNL     1      -4.429 -13.242  27.861  1.00  0.00    -0.007 C 
HETATM   24  C14 UNL     1      -4.488 -13.588  29.382  1.00  0.00     0.021 C 
HETATM   25  C15 UNL     1      -3.327 -12.223  27.799  1.00  0.00     0.021 C 
HETATM   26  C16 UNL     1      -5.790 -12.816  27.523  1.00  0.00     0.021 C 
ENDBRANCH   6  23
TORSDOF 5
ENDMDL
