MODEL 1
REMARK VINA RESULT: -9.441113824      0.000      0.000
REMARK  6 active torsions:
REMARK  status: ('A' for Active; 'I' for Inactive)
REMARK    1  A    between atoms: C2_2  and  C3_3 
REMARK    2  A    between atoms: C3_3  and  O1_4 
REMARK    3  A    between atoms: O1_4  and  C4_5 
REMARK    4  A    between atoms: C7_8  and  O2_9 
REMARK    5  A    between atoms: C14_19  and  C15_20 
REMARK    6  A    between atoms: C15_20  and  C18_23 
ROOT
HETATM    1  C4  UNL     1      -3.162 -16.777  24.098  1.00  0.00     0.084 A 
HETATM    2  C5  UNL     1      -3.180 -16.847  22.732  1.00  0.00     0.040 A 
HETATM    3  C6  UNL     1      -3.649 -15.785  22.006  1.00  0.00     0.040 A 
HETATM    4  C7  UNL     1      -4.113 -14.632  22.650  1.00  0.00     0.077 A 
HETATM    5  C8  UNL     1      -4.111 -14.529  24.024  1.00  0.00     0.026 A 
HETATM    6  C9  UNL     1      -3.636 -15.604  24.722  1.00  0.00     0.062 A 
HETATM    7  C10 UNL     1      -3.741 -15.241  26.129  1.00  0.00     0.198 A 
HETATM    8  O3  UNL     1      -3.392 -16.008  27.049  1.00  0.00    -0.286 OA
HETATM    9  C11 UNL     1      -4.311 -13.877  26.228  1.00  0.00     0.041 A 
HETATM   10  C12 UNL     1      -4.534 -13.450  24.979  1.00  0.00    -0.000 A 
HETATM   11  C13 UNL     1      -5.086 -12.193  24.842  1.00  0.00     0.063 A 
HETATM   12  S1  UNL     1      -5.267 -11.674  26.459  1.00  0.00    -0.103 SA
HETATM   13  C14 UNL     1      -4.645 -13.039  27.262  1.00  0.00     0.014 A 
ENDROOT
BRANCH  13  14
HETATM   14  C15 UNL     1      -4.467 -13.195  28.744  1.00  0.00     0.085 C 
HETATM   15  C16 UNL     1      -5.184 -14.366  29.317  1.00  0.00     0.030 C 
HETATM   16  C17 UNL     1      -5.277 -11.970  29.336  1.00  0.00     0.030 C 
BRANCH  14  17
HETATM   17  C18 UNL     1      -3.099 -12.948  29.246  1.00  0.00     0.399 C 
HETATM   18  F1  UNL     1      -2.438 -14.198  29.236  1.00  0.00    -0.170 F 
HETATM   19  F2  UNL     1      -2.418 -12.224  28.258  1.00  0.00    -0.170 F 
HETATM   20  F3  UNL     1      -2.939 -12.387  30.459  1.00  0.00    -0.170 F 
ENDBRANCH  14  17
ENDBRANCH  13  14
BRANCH   1  21
HETATM   21  O1  UNL     1      -2.719 -17.779  24.887  1.00  0.00    -0.350 OA
BRANCH  21  22
HETATM   22  C3  UNL     1      -2.319 -19.038  24.488  1.00  0.00     0.175 C 
BRANCH  22  23
HETATM   23  C2  UNL     1      -2.547 -20.090  25.536  1.00  0.00     0.022 C 
HETATM   24  C1  UNL     1      -3.280 -19.512  26.745  1.00  0.00     0.007 C 
ENDBRANCH  22  23
ENDBRANCH  21  22
ENDBRANCH   1  21
BRANCH   4  25
HETATM   25  O2  UNL     1      -4.570 -13.606  21.859  1.00  0.00    -0.360 OA
ATOM     26  H2  UNL     1      -5.007 -12.881  22.291  1.00  0.00     0.217 HD
ENDBRANCH   4  25
TORSDOF 6
ENDMDL
MODEL 2
REMARK VINA RESULT: -9.393633924      2.833      5.491
REMARK  6 active torsions:
REMARK  status: ('A' for Active; 'I' for Inactive)
REMARK    1  A    between atoms: C2_2  and  C3_3 
REMARK    2  A    between atoms: C3_3  and  O1_4 
REMARK    3  A    between atoms: O1_4  and  C4_5 
REMARK    4  A    between atoms: C7_8  and  O2_9 
REMARK    5  A    between atoms: C14_19  and  C15_20 
REMARK    6  A    between atoms: C15_20  and  C18_23 
ROOT
HETATM    1  C4  UNL     1      -4.432 -13.198  25.289  1.00  0.00     0.084 A 
HETATM    2  C5  UNL     1      -4.634 -12.553  24.099  1.00  0.00     0.040 A 
HETATM    3  C6  UNL     1      -4.400 -13.214  22.923  1.00  0.00     0.040 A 
HETATM    4  C7  UNL     1      -3.954 -14.541  22.928  1.00  0.00     0.077 A 
HETATM    5  C8  UNL     1      -3.738 -15.219  24.107  1.00  0.00     0.026 A 
HETATM    6  C9  UNL     1      -3.981 -14.535  25.266  1.00  0.00     0.062 A 
HETATM    7  C10 UNL     1      -3.680 -15.466  26.345  1.00  0.00     0.198 A 
HETATM    8  O3  UNL     1      -3.793 -15.157  27.549  1.00  0.00    -0.286 OA
HETATM    9  C11 UNL     1      -3.242 -16.752  25.757  1.00  0.00     0.041 A 
HETATM   10  C12 UNL     1      -3.274 -16.611  24.427  1.00  0.00    -0.000 A 
HETATM   11  C13 UNL     1      -2.880 -17.700  23.677  1.00  0.00     0.063 A 
HETATM   12  S1  UNL     1      -2.487 -18.863  24.865  1.00  0.00    -0.103 SA
HETATM   13  C14 UNL     1      -2.826 -17.958  26.265  1.00  0.00     0.014 A 
ENDROOT
BRANCH  13  14
HETATM   14  C15 UNL     1      -2.739 -18.446  27.681  1.00  0.00     0.085 C 
HETATM   15  C16 UNL     1      -1.715 -17.741  28.500  1.00  0.00     0.030 C 
HETATM   16  C17 UNL     1      -2.122 -19.896  27.528  1.00  0.00     0.030 C 
BRANCH  14  17
HETATM   17  C18 UNL     1      -4.036 -18.716  28.338  1.00  0.00     0.399 C 
HETATM   18  F1  UNL     1      -4.739 -19.597  27.486  1.00  0.00    -0.170 F 
HETATM   19  F2  UNL     1      -3.774 -19.508  29.464  1.00  0.00    -0.170 F 
HETATM   20  F3  UNL     1      -4.840 -17.682  28.647  1.00  0.00    -0.170 F 
ENDBRANCH  14  17
ENDBRANCH  13  14
BRANCH   1  21
HETATM   21  O1  UNL     1      -4.634 -12.620  26.492  1.00  0.00    -0.350 OA
BRANCH  21  22
HETATM   22  C3  UNL     1      -5.799 -12.042  26.952  1.00  0.00     0.175 C 
BRANCH  22  23
HETATM   23  C2  UNL     1      -5.621 -11.306  28.249  1.00  0.00     0.022 C 
HETATM   24  C1  UNL     1      -5.074 -12.229  29.336  1.00  0.00     0.007 C 
ENDBRANCH  22  23
ENDBRANCH  21  22
ENDBRANCH   1  21
BRANCH   4  25
HETATM   25  O2  UNL     1      -3.741 -15.140  21.711  1.00  0.00    -0.360 OA
ATOM     26  H2  UNL     1      -3.156 -15.889  21.689  1.00  0.00     0.217 HD
ENDBRANCH   4  25
TORSDOF 6
ENDMDL
MODEL 3
REMARK VINA RESULT: -9.337674672      1.449      2.425
REMARK  6 active torsions:
REMARK  status: ('A' for Active; 'I' for Inactive)
REMARK    1  A    between atoms: C2_2  and  C3_3 
REMARK    2  A    between atoms: C3_3  and  O1_4 
REMARK    3  A    between atoms: O1_4  and  C4_5 
REMARK    4  A    between atoms: C7_8  and  O2_9 
REMARK    5  A    between atoms: C14_19  and  C15_20 
REMARK    6  A    between atoms: C15_20  and  C18_23 
ROOT
HETATM    1  C4  UNL     1      -2.575 -18.351  26.436  1.00  0.00     0.084 A 
HETATM    2  C5  UNL     1      -2.339 -19.064  25.291  1.00  0.00     0.040 A 
HETATM    3  C6  UNL     1      -2.579 -18.487  24.073  1.00  0.00     0.040 A 
HETATM    4  C7  UNL     1      -3.065 -17.177  23.989  1.00  0.00     0.077 A 
HETATM    5  C8  UNL     1      -3.317 -16.432  25.121  1.00  0.00     0.026 A 
HETATM    6  C9  UNL     1      -3.067 -17.034  26.323  1.00  0.00     0.062 A 
HETATM    7  C10 UNL     1      -3.409 -16.047  27.338  1.00  0.00     0.198 A 
HETATM    8  O3  UNL     1      -3.301 -16.276  28.560  1.00  0.00    -0.286 OA
HETATM    9  C11 UNL     1      -3.880 -14.814  26.665  1.00  0.00     0.041 A 
HETATM   10  C12 UNL     1      -3.828 -15.038  25.347  1.00  0.00    -0.000 A 
HETATM   11  C13 UNL     1      -4.246 -14.012  24.525  1.00  0.00     0.063 A 
HETATM   12  S1  UNL     1      -4.689 -12.790  25.633  1.00  0.00    -0.103 SA
HETATM   13  C14 UNL     1      -4.338 -13.592  27.091  1.00  0.00     0.014 A 
ENDROOT
BRANCH  13  14
HETATM   14  C15 UNL     1      -4.458 -13.020  28.472  1.00  0.00     0.085 C 
HETATM   15  C16 UNL     1      -5.273 -13.849  29.401  1.00  0.00     0.030 C 
HETATM   16  C17 UNL     1      -5.369 -11.743  28.257  1.00  0.00     0.030 C 
BRANCH  14  17
HETATM   17  C18 UNL     1      -3.216 -12.439  29.026  1.00  0.00     0.399 C 
HETATM   18  F1  UNL     1      -3.598 -11.271  29.725  1.00  0.00    -0.170 F 
HETATM   19  F2  UNL     1      -2.779 -13.290  30.049  1.00  0.00    -0.170 F 
HETATM   20  F3  UNL     1      -2.210 -12.128  28.187  1.00  0.00    -0.170 F 
ENDBRANCH  14  17
ENDBRANCH  13  14
BRANCH   1  21
HETATM   21  O1  UNL     1      -2.369 -18.846  27.674  1.00  0.00    -0.350 OA
BRANCH  21  22
HETATM   22  C3  UNL     1      -3.116 -19.810  28.321  1.00  0.00     0.175 C 
BRANCH  22  23
HETATM   23  C2  UNL     1      -4.562 -19.807  27.914  1.00  0.00     0.022 C 
HETATM   24  C1  UNL     1      -5.411 -19.011  28.903  1.00  0.00     0.007 C 
ENDBRANCH  22  23
ENDBRANCH  21  22
ENDBRANCH   1  21
BRANCH   4  25
HETATM   25  O2  UNL     1      -3.283 -16.662  22.734  1.00  0.00    -0.360 OA
ATOM     26  H2  UNL     1      -4.162 -16.364  22.530  1.00  0.00     0.217 HD
ENDBRANCH   4  25
TORSDOF 6
ENDMDL
MODEL 4
REMARK VINA RESULT: -9.260850175      1.794      2.620
REMARK  6 active torsions:
REMARK  status: ('A' for Active; 'I' for Inactive)
REMARK    1  A    between atoms: C2_2  and  C3_3 
REMARK    2  A    between atoms: C3_3  and  O1_4 
REMARK    3  A    between atoms: O1_4  and  C4_5 
REMARK    4  A    between atoms: C7_8  and  O2_9 
REMARK    5  A    between atoms: C14_19  and  C15_20 
REMARK    6  A    between atoms: C15_20  and  C18_23 
ROOT
HETATM    1  C4  UNL     1      -2.509 -18.393  26.468  1.00  0.00     0.084 A 
HETATM    2  C5  UNL     1      -2.271 -19.119  25.332  1.00  0.00     0.040 A 
HETATM    3  C6  UNL     1      -2.525 -18.562  24.108  1.00  0.00     0.040 A 
HETATM    4  C7  UNL     1      -3.026 -17.259  24.008  1.00  0.00     0.077 A 
HETATM    5  C8  UNL     1      -3.279 -16.501  25.131  1.00  0.00     0.026 A 
HETATM    6  C9  UNL     1      -3.015 -17.082  26.340  1.00  0.00     0.062 A 
HETATM    7  C10 UNL     1      -3.363 -16.085  27.343  1.00  0.00     0.198 A 
HETATM    8  O3  UNL     1      -3.245 -16.295  28.567  1.00  0.00    -0.286 OA
HETATM    9  C11 UNL     1      -3.851 -14.867  26.655  1.00  0.00     0.041 A 
HETATM   10  C12 UNL     1      -3.804 -15.109  25.340  1.00  0.00    -0.000 A 
HETATM   11  C13 UNL     1      -4.238 -14.100  24.507  1.00  0.00     0.063 A 
HETATM   12  S1  UNL     1      -4.688 -12.866  25.599  1.00  0.00    -0.103 SA
HETATM   13  C14 UNL     1      -4.320 -13.644  27.067  1.00  0.00     0.014 A 
ENDROOT
BRANCH  13  14
HETATM   14  C15 UNL     1      -4.437 -13.054  28.441  1.00  0.00     0.085 C 
HETATM   15  C16 UNL     1      -5.275 -13.856  29.373  1.00  0.00     0.030 C 
HETATM   16  C17 UNL     1      -5.323 -11.762  28.205  1.00  0.00     0.030 C 
BRANCH  14  17
HETATM   17  C18 UNL     1      -3.188 -12.490  28.996  1.00  0.00     0.399 C 
HETATM   18  F1  UNL     1      -3.563 -11.354  29.749  1.00  0.00    -0.170 F 
HETATM   19  F2  UNL     1      -2.730 -13.381  29.975  1.00  0.00    -0.170 F 
HETATM   20  F3  UNL     1      -2.199 -12.140  28.154  1.00  0.00    -0.170 F 
ENDBRANCH  14  17
ENDBRANCH  13  14
BRANCH   1  21
HETATM   21  O1  UNL     1      -2.290 -18.868  27.713  1.00  0.00    -0.350 OA
BRANCH  21  22
HETATM   22  C3  UNL     1      -1.079 -19.231  28.264  1.00  0.00     0.175 C 
BRANCH  22  23
HETATM   23  C2  UNL     1      -0.107 -18.089  28.356  1.00  0.00     0.022 C 
HETATM   24  C1  UNL     1       1.131 -18.350  27.501  1.00  0.00     0.007 C 
ENDBRANCH  22  23
ENDBRANCH  21  22
ENDBRANCH   1  21
BRANCH   4  25
HETATM   25  O2  UNL     1      -3.257 -16.764  22.748  1.00  0.00    -0.360 OA
ATOM     26  H2  UNL     1      -3.565 -15.868  22.678  1.00  0.00     0.217 HD
ENDBRANCH   4  25
TORSDOF 6
ENDMDL
MODEL 5
REMARK VINA RESULT: -9.077497591      1.560      1.840
REMARK  6 active torsions:
REMARK  status: ('A' for Active; 'I' for Inactive)
REMARK    1  A    between atoms: C2_2  and  C3_3 
REMARK    2  A    between atoms: C3_3  and  O1_4 
REMARK    3  A    between atoms: O1_4  and  C4_5 
REMARK    4  A    between atoms: C7_8  and  O2_9 
REMARK    5  A    between atoms: C14_19  and  C15_20 
REMARK    6  A    between atoms: C15_20  and  C18_23 
ROOT
HETATM    1  C4  UNL     1      -2.744 -17.847  25.640  1.00  0.00     0.084 A 
HETATM    2  C5  UNL     1      -2.581 -18.374  24.387  1.00  0.00     0.040 A 
HETATM    3  C6  UNL     1      -2.915 -17.627  23.290  1.00  0.00     0.040 A 
HETATM    4  C7  UNL     1      -3.425 -16.331  23.439  1.00  0.00     0.077 A 
HETATM    5  C8  UNL     1      -3.604 -15.771  24.685  1.00  0.00     0.026 A 
HETATM    6  C9  UNL     1      -3.260 -16.539  25.762  1.00  0.00     0.062 A 
HETATM    7  C10 UNL     1      -3.542 -15.725  26.936  1.00  0.00     0.198 A 
HETATM    8  O3  UNL     1      -3.343 -16.131  28.099  1.00  0.00    -0.286 OA
HETATM    9  C11 UNL     1      -4.077 -14.417  26.491  1.00  0.00     0.041 A 
HETATM   10  C12 UNL     1      -4.117 -14.439  25.154  1.00  0.00    -0.000 A 
HETATM   11  C13 UNL     1      -4.606 -13.312  24.528  1.00  0.00     0.063 A 
HETATM   12  S1  UNL     1      -4.986 -12.281  25.835  1.00  0.00    -0.103 SA
HETATM   13  C14 UNL     1      -4.520 -13.284  27.128  1.00  0.00     0.014 A 
ENDROOT
BRANCH  13  14
HETATM   14  C15 UNL     1      -4.548 -12.928  28.585  1.00  0.00     0.085 C 
HETATM   15  C16 UNL     1      -5.324 -13.881  29.424  1.00  0.00     0.030 C 
HETATM   16  C17 UNL     1      -5.444 -11.624  28.622  1.00  0.00     0.030 C 
BRANCH  14  17
HETATM   17  C18 UNL     1      -3.264 -12.452  29.144  1.00  0.00     0.399 C 
HETATM   18  F1  UNL     1      -2.636 -13.579  29.720  1.00  0.00    -0.170 F 
HETATM   19  F2  UNL     1      -2.429 -12.144  28.062  1.00  0.00    -0.170 F 
HETATM   20  F3  UNL     1      -3.276 -11.457  30.049  1.00  0.00    -0.170 F 
ENDBRANCH  14  17
ENDBRANCH  13  14
BRANCH   1  21
HETATM   21  O1  UNL     1      -2.442 -18.517  26.772  1.00  0.00    -0.350 OA
BRANCH  21  22
HETATM   22  C3  UNL     1      -1.240 -19.113  27.092  1.00  0.00     0.175 C 
BRANCH  22  23
HETATM   23  C2  UNL     1      -0.404 -18.289  28.030  1.00  0.00     0.022 C 
HETATM   24  C1  UNL     1       1.072 -18.337  27.638  1.00  0.00     0.007 C 
ENDBRANCH  22  23
ENDBRANCH  21  22
ENDBRANCH   1  21
BRANCH   4  25
HETATM   25  O2  UNL     1      -3.739 -15.640  22.294  1.00  0.00    -0.360 OA
ATOM     26  H2  UNL     1      -4.248 -14.843  22.390  1.00  0.00     0.217 HD
ENDBRANCH   4  25
TORSDOF 6
ENDMDL
