MODEL 1
REMARK VINA RESULT: -8.387795628      0.000      0.000
REMARK  5 active torsions:
REMARK  status: ('A' for Active; 'I' for Inactive)
REMARK    1  A    between atoms: C2_2  and  C3_3 
REMARK    2  A    between atoms: C3_3  and  C4_4 
REMARK    3  A    between atoms: N2_14  and  C11_15 
REMARK    4  A    between atoms: C12_17  and  C13_18 
REMARK    5  A    between atoms: C18_25  and  O1_26 
ROOT
HETATM    1  C11 UNL     1      -3.360 -16.626  28.075  1.00  0.00     0.118 A 
HETATM    2  S1  UNL     1      -1.815 -17.314  28.303  1.00  0.00    -0.069 SA
HETATM    3  C12 UNL     1      -2.242 -18.647  29.277  1.00  0.00     0.047 A 
HETATM    4  C16 UNL     1      -3.597 -18.517  29.399  1.00  0.00     0.097 A 
HETATM    5  C17 UNL     1      -4.327 -19.518  30.194  1.00  0.00     0.103 C 
HETATM    6  N3  UNL     1      -4.915 -20.298  30.836  1.00  0.00    -0.191 NA
HETATM    7  C18 UNL     1      -4.178 -17.477  28.781  1.00  0.00     0.122 A 
ENDROOT
BRANCH   3   8
HETATM    8  C13 UNL     1      -1.314 -19.663  29.825  1.00  0.00     0.131 C 
HETATM    9  C14 UNL     1       0.112 -19.188  29.643  1.00  0.00     0.057 C 
HETATM   10  C15 UNL     1      -1.457 -21.011  29.240  1.00  0.00     0.057 C 
HETATM   11  F2  UNL     1      -1.546 -19.745  31.196  1.00  0.00    -0.238 F 
ENDBRANCH   3   8
BRANCH   7  12
HETATM   12  O1  UNL     1      -5.574 -17.212  28.817  1.00  0.00    -0.357 OA
ATOM     13  H1  UNL     1      -5.921 -16.688  29.530  1.00  0.00     0.218 HD
ENDBRANCH   7  12
BRANCH   1  14
HETATM   14  N2  UNL     1      -3.741 -15.445  27.330  1.00  0.00    -0.290 N 
HETATM   15  C4  UNL     1      -4.149 -14.270  27.811  1.00  0.00     0.089 A 
HETATM   16  N1  UNL     1      -4.405 -13.439  26.782  1.00  0.00    -0.344 N 
HETATM   17  C5  UNL     1      -4.162 -14.078  25.613  1.00  0.00     0.064 A 
ATOM     18  H1  UNL     1      -4.732 -12.477  26.870  1.00  0.00     0.167 HD
HETATM   19  C6  UNL     1      -4.236 -13.768  24.280  1.00  0.00     0.074 A 
HETATM   20  C10 UNL     1      -3.744 -15.340  25.986  1.00  0.00     0.068 A 
HETATM   21  C7  UNL     1      -3.911 -14.660  23.283  1.00  0.00     0.118 A 
HETATM   22  F1  UNL     1      -3.989 -14.336  21.956  1.00  0.00    -0.206 F 
HETATM   23  C8  UNL     1      -3.493 -15.926  23.649  1.00  0.00     0.044 A 
HETATM   24  C9  UNL     1      -3.416 -16.244  24.991  1.00  0.00     0.035 A 
BRANCH  15  25
HETATM   25  C3  UNL     1      -4.309 -13.893  29.229  1.00  0.00     0.076 C 
BRANCH  25  26
HETATM   26  C2  UNL     1      -5.109 -12.602  29.372  1.00  0.00     0.003 C 
HETATM   27  C1  UNL     1      -4.215 -11.461  29.796  1.00  0.00     0.005 C 
ENDBRANCH  25  26
ENDBRANCH  15  25
ENDBRANCH   1  14
TORSDOF 5
ENDMDL
MODEL 2
REMARK VINA RESULT: -8.277222119      1.800      3.778
REMARK  5 active torsions:
REMARK  status: ('A' for Active; 'I' for Inactive)
REMARK    1  A    between atoms: C2_2  and  C3_3 
REMARK    2  A    between atoms: C3_3  and  C4_4 
REMARK    3  A    between atoms: N2_14  and  C11_15 
REMARK    4  A    between atoms: C12_17  and  C13_18 
REMARK    5  A    between atoms: C18_25  and  O1_26 
ROOT
HETATM    1  C11 UNL     1      -3.460 -16.462  28.057  1.00  0.00     0.118 A 
HETATM    2  S1  UNL     1      -1.895 -17.119  28.230  1.00  0.00    -0.069 SA
HETATM    3  C12 UNL     1      -2.269 -18.490  29.173  1.00  0.00     0.047 A 
HETATM    4  C16 UNL     1      -3.623 -18.396  29.330  1.00  0.00     0.097 A 
HETATM    5  C17 UNL     1      -4.311 -19.437  30.110  1.00  0.00     0.103 C 
HETATM    6  N3  UNL     1      -4.865 -20.249  30.742  1.00  0.00    -0.191 NA
HETATM    7  C18 UNL     1      -4.242 -17.353  28.756  1.00  0.00     0.122 A 
ENDROOT
BRANCH   3   8
HETATM    8  C13 UNL     1      -1.305 -19.499  29.670  1.00  0.00     0.131 C 
HETATM    9  C14 UNL     1       0.106 -19.000  29.441  1.00  0.00     0.057 C 
HETATM   10  C15 UNL     1      -1.450 -20.841  29.070  1.00  0.00     0.057 C 
HETATM   11  F2  UNL     1      -1.482 -19.605  31.047  1.00  0.00    -0.238 F 
ENDBRANCH   3   8
BRANCH   7  12
HETATM   12  O1  UNL     1      -5.642 -17.122  28.831  1.00  0.00    -0.357 OA
ATOM     13  H1  UNL     1      -6.127 -16.986  28.025  1.00  0.00     0.218 HD
ENDBRANCH   7  12
BRANCH   1  14
HETATM   14  N2  UNL     1      -3.886 -15.269  27.357  1.00  0.00    -0.290 N 
HETATM   15  C4  UNL     1      -3.896 -15.051  26.042  1.00  0.00     0.089 A 
HETATM   16  N1  UNL     1      -4.367 -13.811  25.806  1.00  0.00    -0.344 N 
HETATM   17  C5  UNL     1      -4.670 -13.210  26.981  1.00  0.00     0.064 A 
ATOM     18  H1  UNL     1      -4.479 -13.390  24.883  1.00  0.00     0.167 HD
HETATM   19  C6  UNL     1      -5.167 -11.995  27.374  1.00  0.00     0.074 A 
HETATM   20  C10 UNL     1      -4.358 -14.150  27.942  1.00  0.00     0.068 A 
HETATM   21  C7  UNL     1      -5.374 -11.660  28.692  1.00  0.00     0.118 A 
HETATM   22  F1  UNL     1      -5.872 -10.442  29.069  1.00  0.00    -0.206 F 
HETATM   23  C8  UNL     1      -5.064 -12.595  29.662  1.00  0.00     0.044 A 
HETATM   24  C9  UNL     1      -4.562 -13.822  29.272  1.00  0.00     0.035 A 
BRANCH  15  25
HETATM   25  C3  UNL     1      -3.471 -15.983  24.979  1.00  0.00     0.076 C 
BRANCH  25  26
HETATM   26  C2  UNL     1      -3.712 -15.391  23.594  1.00  0.00     0.003 C 
HETATM   27  C1  UNL     1      -3.445 -16.417  22.519  1.00  0.00     0.005 C 
ENDBRANCH  25  26
ENDBRANCH  15  25
ENDBRANCH   1  14
TORSDOF 5
ENDMDL
MODEL 3
REMARK VINA RESULT: -8.242143724      2.428      4.426
REMARK  5 active torsions:
REMARK  status: ('A' for Active; 'I' for Inactive)
REMARK    1  A    between atoms: C2_2  and  C3_3 
REMARK    2  A    between atoms: C3_3  and  C4_4 
REMARK    3  A    between atoms: N2_14  and  C11_15 
REMARK    4  A    between atoms: C12_17  and  C13_18 
REMARK    5  A    between atoms: C18_25  and  O1_26 
ROOT
HETATM    1  C11 UNL     1      -3.865 -16.651  28.187  1.00  0.00     0.118 A 
HETATM    2  S1  UNL     1      -5.018 -17.758  28.784  1.00  0.00    -0.069 SA
HETATM    3  C12 UNL     1      -3.967 -18.929  29.443  1.00  0.00     0.047 A 
HETATM    4  C16 UNL     1      -2.729 -18.418  29.176  1.00  0.00     0.097 A 
HETATM    5  C17 UNL     1      -1.548 -19.181  29.611  1.00  0.00     0.103 C 
HETATM    6  N3  UNL     1      -0.603 -19.786  29.937  1.00  0.00    -0.191 NA
HETATM    7  C18 UNL     1      -2.670 -17.243  28.529  1.00  0.00     0.122 A 
ENDROOT
BRANCH   3   8
HETATM    8  C13 UNL     1      -4.371 -20.180  30.128  1.00  0.00     0.131 C 
HETATM    9  C14 UNL     1      -5.854 -20.406  29.924  1.00  0.00     0.057 C 
HETATM   10  C15 UNL     1      -4.065 -20.221  31.571  1.00  0.00     0.057 C 
HETATM   11  F2  UNL     1      -3.707 -21.232  29.502  1.00  0.00    -0.238 F 
ENDBRANCH   3   8
BRANCH   7  12
HETATM   12  O1  UNL     1      -1.458 -16.588  28.182  1.00  0.00    -0.357 OA
ATOM     13  H1  UNL     1      -1.497 -15.819  27.625  1.00  0.00     0.218 HD
ENDBRANCH   7  12
BRANCH   1  14
HETATM   14  N2  UNL     1      -4.065 -15.397  27.493  1.00  0.00    -0.290 N 
HETATM   15  C4  UNL     1      -3.893 -15.143  26.195  1.00  0.00     0.089 A 
HETATM   16  N1  UNL     1      -4.189 -13.851  25.958  1.00  0.00    -0.344 N 
HETATM   17  C5  UNL     1      -4.559 -13.251  27.114  1.00  0.00     0.064 A 
ATOM     18  H1  UNL     1      -4.141 -13.394  25.047  1.00  0.00     0.167 HD
HETATM   19  C6  UNL     1      -4.957 -11.997  27.497  1.00  0.00     0.074 A 
HETATM   20  C10 UNL     1      -4.473 -14.247  28.066  1.00  0.00     0.068 A 
HETATM   21  C7  UNL     1      -5.280 -11.676  28.796  1.00  0.00     0.118 A 
HETATM   22  F1  UNL     1      -5.677 -10.419  29.163  1.00  0.00    -0.206 F 
HETATM   23  C8  UNL     1      -5.196 -12.668  29.755  1.00  0.00     0.044 A 
HETATM   24  C9  UNL     1      -4.795 -13.934  29.375  1.00  0.00     0.035 A 
BRANCH  15  25
HETATM   25  C3  UNL     1      -3.454 -16.090  25.151  1.00  0.00     0.076 C 
BRANCH  25  26
HETATM   26  C2  UNL     1      -3.648 -15.504  23.756  1.00  0.00     0.003 C 
HETATM   27  C1  UNL     1      -3.368 -16.542  22.695  1.00  0.00     0.005 C 
ENDBRANCH  25  26
ENDBRANCH  15  25
ENDBRANCH   1  14
TORSDOF 5
ENDMDL
MODEL 4
REMARK VINA RESULT: -8.011013133      1.681      2.264
REMARK  5 active torsions:
REMARK  status: ('A' for Active; 'I' for Inactive)
REMARK    1  A    between atoms: C2_2  and  C3_3 
REMARK    2  A    between atoms: C3_3  and  C4_4 
REMARK    3  A    between atoms: N2_14  and  C11_15 
REMARK    4  A    between atoms: C12_17  and  C13_18 
REMARK    5  A    between atoms: C18_25  and  O1_26 
ROOT
HETATM    1  C11 UNL     1      -3.544 -16.880  28.146  1.00  0.00     0.118 A 
HETATM    2  S1  UNL     1      -4.615 -18.063  28.752  1.00  0.00    -0.069 SA
HETATM    3  C12 UNL     1      -3.487 -19.117  29.477  1.00  0.00     0.047 A 
HETATM    4  C16 UNL     1      -2.290 -18.510  29.223  1.00  0.00     0.097 A 
HETATM    5  C17 UNL     1      -1.060 -19.155  29.713  1.00  0.00     0.103 C 
HETATM    6  N3  UNL     1      -0.077 -19.665  30.083  1.00  0.00    -0.191 NA
HETATM    7  C18 UNL     1      -2.313 -17.357  28.537  1.00  0.00     0.122 A 
ENDROOT
BRANCH   3   8
HETATM    8  C13 UNL     1      -3.801 -20.375  30.194  1.00  0.00     0.131 C 
HETATM    9  C14 UNL     1      -5.244 -20.754  29.933  1.00  0.00     0.057 C 
HETATM   10  C15 UNL     1      -3.565 -20.332  31.651  1.00  0.00     0.057 C 
HETATM   11  F2  UNL     1      -3.009 -21.380  29.644  1.00  0.00    -0.238 F 
ENDBRANCH   3   8
BRANCH   7  12
HETATM   12  O1  UNL     1      -1.152 -16.611  28.198  1.00  0.00    -0.357 OA
ATOM     13  H1  UNL     1      -1.146 -16.118  27.385  1.00  0.00     0.218 HD
ENDBRANCH   7  12
BRANCH   1  14
HETATM   14  N2  UNL     1      -3.831 -15.671  27.404  1.00  0.00    -0.290 N 
HETATM   15  C4  UNL     1      -4.202 -14.484  27.884  1.00  0.00     0.089 A 
HETATM   16  N1  UNL     1      -4.368 -13.628  26.858  1.00  0.00    -0.344 N 
HETATM   17  C5  UNL     1      -4.102 -14.261  25.691  1.00  0.00     0.064 A 
ATOM     18  H1  UNL     1      -4.650 -12.651  26.946  1.00  0.00     0.167 HD
HETATM   19  C6  UNL     1      -4.098 -13.930  24.362  1.00  0.00     0.074 A 
HETATM   20  C10 UNL     1      -3.766 -15.548  26.063  1.00  0.00     0.068 A 
HETATM   21  C7  UNL     1      -3.772 -14.823  23.367  1.00  0.00     0.118 A 
HETATM   22  F1  UNL     1      -3.771 -14.477  22.043  1.00  0.00    -0.206 F 
HETATM   23  C8  UNL     1      -3.434 -16.114  23.731  1.00  0.00     0.044 A 
HETATM   24  C9  UNL     1      -3.437 -16.454  25.070  1.00  0.00     0.035 A 
BRANCH  15  25
HETATM   25  C3  UNL     1      -4.410 -14.120  29.300  1.00  0.00     0.076 C 
BRANCH  25  26
HETATM   26  C2  UNL     1      -5.107 -12.769  29.426  1.00  0.00     0.003 C 
HETATM   27  C1  UNL     1      -4.113 -11.681  29.758  1.00  0.00     0.005 C 
ENDBRANCH  25  26
ENDBRANCH  15  25
ENDBRANCH   1  14
TORSDOF 5
ENDMDL
MODEL 5
REMARK VINA RESULT: -7.961271112      2.132      2.591
REMARK  5 active torsions:
REMARK  status: ('A' for Active; 'I' for Inactive)
REMARK    1  A    between atoms: C2_2  and  C3_3 
REMARK    2  A    between atoms: C3_3  and  C4_4 
REMARK    3  A    between atoms: N2_14  and  C11_15 
REMARK    4  A    between atoms: C12_17  and  C13_18 
REMARK    5  A    between atoms: C18_25  and  O1_26 
ROOT
HETATM    1  C11 UNL     1      -2.951 -17.679  27.190  1.00  0.00     0.118 A 
HETATM    2  S1  UNL     1      -3.720 -19.202  27.165  1.00  0.00    -0.069 SA
HETATM    3  C12 UNL     1      -2.592 -20.100  28.077  1.00  0.00     0.047 A 
HETATM    4  C16 UNL     1      -1.634 -19.174  28.380  1.00  0.00     0.097 A 
HETATM    5  C17 UNL     1      -0.475 -19.603  29.179  1.00  0.00     0.103 C 
HETATM    6  N3  UNL     1       0.458 -19.936  29.799  1.00  0.00    -0.191 NA
HETATM    7  C18 UNL     1      -1.814 -17.924  27.925  1.00  0.00     0.122 A 
ENDROOT
BRANCH   3   8
HETATM    8  C13 UNL     1      -2.692 -21.538  28.420  1.00  0.00     0.131 C 
HETATM    9  C14 UNL     1      -3.713 -22.199  27.518  1.00  0.00     0.057 C 
HETATM   10  C15 UNL     1      -3.034 -21.814  29.829  1.00  0.00     0.057 C 
HETATM   11  F2  UNL     1      -1.459 -22.121  28.138  1.00  0.00    -0.238 F 
ENDBRANCH   3   8
BRANCH   7  12
HETATM   12  O1  UNL     1      -0.906 -16.856  28.158  1.00  0.00    -0.357 OA
ATOM     13  H1  UNL     1      -0.077 -17.045  28.581  1.00  0.00     0.218 HD
ENDBRANCH   7  12
BRANCH   1  14
HETATM   14  N2  UNL     1      -3.368 -16.427  26.595  1.00  0.00    -0.290 N 
HETATM   15  C4  UNL     1      -3.753 -15.312  27.218  1.00  0.00     0.089 A 
HETATM   16  N1  UNL     1      -4.058 -14.378  26.297  1.00  0.00    -0.344 N 
HETATM   17  C5  UNL     1      -3.871 -14.886  25.056  1.00  0.00     0.064 A 
ATOM     18  H1  UNL     1      -4.381 -13.432  26.502  1.00  0.00     0.167 HD
HETATM   19  C6  UNL     1      -4.008 -14.437  23.769  1.00  0.00     0.074 A 
HETATM   20  C10 UNL     1      -3.436 -16.179  25.272  1.00  0.00     0.068 A 
HETATM   21  C7  UNL     1      -3.732 -15.215  22.668  1.00  0.00     0.118 A 
HETATM   22  F1  UNL     1      -3.873 -14.751  21.388  1.00  0.00    -0.206 F 
HETATM   23  C8  UNL     1      -3.296 -16.510  22.875  1.00  0.00     0.044 A 
HETATM   24  C9  UNL     1      -3.155 -16.970  24.171  1.00  0.00     0.035 A 
BRANCH  15  25
HETATM   25  C3  UNL     1      -3.845 -15.090  28.674  1.00  0.00     0.076 C 
BRANCH  25  26
HETATM   26  C2  UNL     1      -5.164 -14.421  29.049  1.00  0.00     0.003 C 
HETATM   27  C1  UNL     1      -4.938 -12.986  29.465  1.00  0.00     0.005 C 
ENDBRANCH  25  26
ENDBRANCH  15  25
ENDBRANCH   1  14
TORSDOF 5
ENDMDL
