MODEL 1
REMARK VINA RESULT: -10.417154484      0.000      0.000
REMARK  5 active torsions:
REMARK  status: ('A' for Active; 'I' for Inactive)
REMARK    1  A    between atoms: C5_5  and  N1_6 
REMARK    2  A    between atoms: N1_6  and  C6_8 
REMARK    3  A    between atoms: C7_11  and  C8_12 
REMARK    4  A    between atoms: C11_20  and  S1_21 
REMARK    5  A    between atoms: S1_21  and  C12_22 
ROOT
HETATM    1  C6  UNL     1      -4.186 -14.320  25.643  1.00  0.00     0.127 A 
HETATM    2  N2  UNL     1      -3.873 -14.357  24.332  1.00  0.00    -0.326 N 
ATOM      3  H2  UNL     1      -3.251 -15.094  24.002  1.00  0.00     0.169 HD
HETATM    4  C7  UNL     1      -4.348 -13.459  23.426  1.00  0.00     0.150 A 
HETATM    5  N3  UNL     1      -5.169 -12.488  23.859  1.00  0.00    -0.332 N 
ATOM      6  H3  UNL     1      -5.538 -11.803  23.200  1.00  0.00     0.168 HD
HETATM    7  C9  UNL     1      -5.510 -12.414  25.177  1.00  0.00     0.136 A 
HETATM    8  C10 UNL     1      -6.378 -11.342  25.564  1.00  0.00     0.119 C 
HETATM    9  N4  UNL     1      -7.055 -10.470  25.872  1.00  0.00    -0.190 NA
HETATM   10  C11 UNL     1      -5.037 -13.315  26.097  1.00  0.00     0.083 A 
ENDROOT
BRANCH  10  11
HETATM   11  S1  UNL     1      -5.459 -13.231  27.819  1.00  0.00    -0.114 SA
BRANCH  11  12
HETATM   12  C12 UNL     1      -4.150 -12.662  28.883  1.00  0.00     0.002 C 
HETATM   13  C13 UNL     1      -4.644 -11.546  29.765  1.00  0.00     0.026 C 
HETATM   14  C14 UNL     1      -3.530 -13.754  29.720  1.00  0.00     0.026 C 
HETATM   15  C15 UNL     1      -3.035 -12.083  28.023  1.00  0.00     0.026 C 
ENDBRANCH  11  12
ENDBRANCH  10  11
BRANCH   4  16
HETATM   16  C8  UNL     1      -3.997 -13.514  22.006  1.00  0.00     0.420 C 
HETATM   17  F1  UNL     1      -2.927 -12.709  21.681  1.00  0.00    -0.206 F 
HETATM   18  F2  UNL     1      -3.592 -14.822  21.710  1.00  0.00    -0.206 F 
ENDBRANCH   4  16
BRANCH   1  19
HETATM   19  N1  UNL     1      -3.696 -15.203  26.445  1.00  0.00    -0.341 N 
ATOM     20  H1  UNL     1      -3.603 -15.001  27.440  1.00  0.00     0.167 HD
BRANCH  19  21
HETATM   21  C5  UNL     1      -3.290 -16.445  25.932  1.00  0.00     0.039 A 
HETATM   22  C4  UNL     1      -3.246 -16.622  24.557  1.00  0.00     0.030 A 
HETATM   23  C3  UNL     1      -2.863 -17.798  23.985  1.00  0.00     0.009 A 
HETATM   24  C2  UNL     1      -2.497 -18.880  24.748  1.00  0.00    -0.061 A 
HETATM   25  C1  UNL     1      -2.087 -20.139  24.081  1.00  0.00     0.048 C 
HETATM   26  C18 UNL     1      -2.531 -18.733  26.115  1.00  0.00     0.015 A 
HETATM   27  C16 UNL     1      -2.924 -17.526  26.696  1.00  0.00    -0.035 A 
HETATM   28  C17 UNL     1      -2.944 -17.420  28.156  1.00  0.00     0.050 C 
ENDBRANCH  19  21
ENDBRANCH   1  19
TORSDOF 5
ENDMDL
MODEL 2
REMARK VINA RESULT: -9.419094104      0.596      1.219
REMARK  5 active torsions:
REMARK  status: ('A' for Active; 'I' for Inactive)
REMARK    1  A    between atoms: C5_5  and  N1_6 
REMARK    2  A    between atoms: N1_6  and  C6_8 
REMARK    3  A    between atoms: C7_11  and  C8_12 
REMARK    4  A    between atoms: C11_20  and  S1_21 
REMARK    5  A    between atoms: S1_21  and  C12_22 
ROOT
HETATM    1  C6  UNL     1      -4.069 -14.656  25.743  1.00  0.00     0.127 A 
HETATM    2  N2  UNL     1      -3.721 -14.827  24.451  1.00  0.00    -0.326 N 
ATOM      3  H2  UNL     1      -3.143 -15.631  24.207  1.00  0.00     0.169 HD
HETATM    4  C7  UNL     1      -4.103 -13.980  23.457  1.00  0.00     0.150 A 
HETATM    5  N3  UNL     1      -4.865 -12.921  23.777  1.00  0.00    -0.332 N 
ATOM      6  H3  UNL     1      -5.164 -12.272  23.049  1.00  0.00     0.168 HD
HETATM    7  C9  UNL     1      -5.239 -12.711  25.070  1.00  0.00     0.136 A 
HETATM    8  C10 UNL     1      -6.039 -11.552  25.335  1.00  0.00     0.119 C 
HETATM    9  N4  UNL     1      -6.661 -10.612  25.543  1.00  0.00    -0.190 NA
HETATM   10  C11 UNL     1      -4.859 -13.559  26.080  1.00  0.00     0.083 A 
ENDROOT
BRANCH  10  11
HETATM   11  S1  UNL     1      -5.325 -13.298  27.772  1.00  0.00    -0.114 SA
BRANCH  11  12
HETATM   12  C12 UNL     1      -4.039 -12.632  28.808  1.00  0.00     0.002 C 
HETATM   13  C13 UNL     1      -2.876 -12.177  27.966  1.00  0.00     0.026 C 
HETATM   14  C14 UNL     1      -4.503 -11.513  29.707  1.00  0.00     0.026 C 
HETATM   15  C15 UNL     1      -3.519 -13.737  29.717  1.00  0.00     0.026 C 
ENDBRANCH  11  12
ENDBRANCH  10  11
BRANCH   4  16
HETATM   16  C8  UNL     1      -3.714 -14.182  22.059  1.00  0.00     0.420 C 
HETATM   17  F1  UNL     1      -4.443 -15.167  21.431  1.00  0.00    -0.206 F 
HETATM   18  F2  UNL     1      -3.990 -13.000  21.358  1.00  0.00    -0.206 F 
ENDBRANCH   4  16
BRANCH   1  19
HETATM   19  N1  UNL     1      -3.667 -15.498  26.633  1.00  0.00    -0.341 N 
ATOM     20  H1  UNL     1      -3.594 -15.218  27.610  1.00  0.00     0.167 HD
BRANCH  19  21
HETATM   21  C5  UNL     1      -3.332 -16.803  26.241  1.00  0.00     0.039 A 
HETATM   22  C4  UNL     1      -3.008 -17.043  24.913  1.00  0.00     0.030 A 
HETATM   23  C3  UNL     1      -2.672 -18.282  24.457  1.00  0.00     0.009 A 
HETATM   24  C2  UNL     1      -2.636 -19.369  25.297  1.00  0.00    -0.061 A 
HETATM   25  C1  UNL     1      -2.265 -20.698  24.755  1.00  0.00     0.048 C 
HETATM   26  C18 UNL     1      -2.953 -19.160  26.618  1.00  0.00     0.015 A 
HETATM   27  C16 UNL     1      -3.296 -17.889  27.080  1.00  0.00    -0.035 A 
HETATM   28  C17 UNL     1      -3.624 -17.718  28.497  1.00  0.00     0.050 C 
ENDBRANCH  19  21
ENDBRANCH   1  19
TORSDOF 5
ENDMDL
MODEL 3
REMARK VINA RESULT: -9.415414245      4.598      7.951
REMARK  5 active torsions:
REMARK  status: ('A' for Active; 'I' for Inactive)
REMARK    1  A    between atoms: C5_5  and  N1_6 
REMARK    2  A    between atoms: N1_6  and  C6_8 
REMARK    3  A    between atoms: C7_11  and  C8_12 
REMARK    4  A    between atoms: C11_20  and  S1_21 
REMARK    5  A    between atoms: S1_21  and  C12_22 
ROOT
HETATM    1  C6  UNL     1      -3.151 -19.530  26.646  1.00  0.00     0.127 A 
HETATM    2  N2  UNL     1      -4.376 -19.751  27.165  1.00  0.00    -0.326 N 
ATOM      3  H2  UNL     1      -4.825 -18.998  27.686  1.00  0.00     0.169 HD
HETATM    4  C7  UNL     1      -5.044 -20.928  27.026  1.00  0.00     0.150 A 
HETATM    5  N3  UNL     1      -4.454 -21.920  26.338  1.00  0.00    -0.332 N 
ATOM      6  H3  UNL     1      -4.934 -22.812  26.220  1.00  0.00     0.168 HD
HETATM    7  C9  UNL     1      -3.216 -21.739  25.797  1.00  0.00     0.136 A 
HETATM    8  C10 UNL     1      -2.647 -22.847  25.090  1.00  0.00     0.119 C 
HETATM    9  N4  UNL     1      -2.188 -23.745  24.544  1.00  0.00    -0.190 NA
HETATM   10  C11 UNL     1      -2.535 -20.555  25.932  1.00  0.00     0.083 A 
ENDROOT
BRANCH  10  11
HETATM   11  S1  UNL     1      -0.918 -20.300  25.245  1.00  0.00    -0.114 SA
BRANCH  11  12
HETATM   12  C12 UNL     1       0.420 -20.459  26.408  1.00  0.00     0.002 C 
HETATM   13  C13 UNL     1       1.637 -21.029  25.727  1.00  0.00     0.026 C 
HETATM   14  C14 UNL     1       0.770 -19.171  27.110  1.00  0.00     0.026 C 
HETATM   15  C15 UNL     1       0.017 -21.452  27.490  1.00  0.00     0.026 C 
ENDBRANCH  11  12
ENDBRANCH  10  11
BRANCH   4  16
HETATM   16  C8  UNL     1      -6.373 -21.151  27.598  1.00  0.00     0.420 C 
HETATM   17  F1  UNL     1      -7.221 -20.078  27.430  1.00  0.00    -0.206 F 
HETATM   18  F2  UNL     1      -6.968 -22.216  26.909  1.00  0.00    -0.206 F 
ENDBRANCH   4  16
BRANCH   1  19
HETATM   19  N1  UNL     1      -2.577 -18.388  26.820  1.00  0.00    -0.341 N 
ATOM     20  H1  UNL     1      -1.834 -18.286  27.511  1.00  0.00     0.167 HD
BRANCH  19  21
HETATM   21  C5  UNL     1      -2.986 -17.289  26.049  1.00  0.00     0.039 A 
HETATM   22  C4  UNL     1      -2.941 -17.386  24.666  1.00  0.00     0.030 A 
HETATM   23  C3  UNL     1      -3.321 -16.362  23.851  1.00  0.00     0.009 A 
HETATM   24  C2  UNL     1      -3.773 -15.169  24.362  1.00  0.00    -0.061 A 
HETATM   25  C1  UNL     1      -4.176 -14.084  23.436  1.00  0.00     0.048 C 
HETATM   26  C18 UNL     1      -3.827 -15.046  25.730  1.00  0.00     0.015 A 
HETATM   27  C16 UNL     1      -3.437 -16.097  26.561  1.00  0.00    -0.035 A 
HETATM   28  C17 UNL     1      -3.514 -15.917  28.011  1.00  0.00     0.050 C 
ENDBRANCH  19  21
ENDBRANCH   1  19
TORSDOF 5
ENDMDL
MODEL 4
REMARK VINA RESULT: -9.321303214      2.323      5.936
REMARK  5 active torsions:
REMARK  status: ('A' for Active; 'I' for Inactive)
REMARK    1  A    between atoms: C5_5  and  N1_6 
REMARK    2  A    between atoms: N1_6  and  C6_8 
REMARK    3  A    between atoms: C7_11  and  C8_12 
REMARK    4  A    between atoms: C11_20  and  S1_21 
REMARK    5  A    between atoms: S1_21  and  C12_22 
ROOT
HETATM    1  C6  UNL     1      -3.338 -16.132  25.746  1.00  0.00     0.127 A 
HETATM    2  N2  UNL     1      -3.540 -15.706  24.482  1.00  0.00    -0.326 N 
ATOM      3  H2  UNL     1      -3.869 -14.751  24.340  1.00  0.00     0.169 HD
HETATM    4  C7  UNL     1      -3.327 -16.487  23.388  1.00  0.00     0.150 A 
HETATM    5  N3  UNL     1      -2.893 -17.744  23.576  1.00  0.00    -0.332 N 
ATOM      6  H3  UNL     1      -2.725 -18.349  22.772  1.00  0.00     0.168 HD
HETATM    7  C9  UNL     1      -2.677 -18.215  24.836  1.00  0.00     0.136 A 
HETATM    8  C10 UNL     1      -2.228 -19.571  24.956  1.00  0.00     0.119 C 
HETATM    9  N4  UNL     1      -1.890 -20.662  25.045  1.00  0.00    -0.190 NA
HETATM   10  C11 UNL     1      -2.889 -17.435  25.946  1.00  0.00     0.083 A 
ENDROOT
BRANCH  10  11
HETATM   11  S1  UNL     1      -2.624 -18.031  27.596  1.00  0.00    -0.114 SA
BRANCH  11  12
HETATM   12  C12 UNL     1      -4.036 -18.815  28.343  1.00  0.00     0.002 C 
HETATM   13  C13 UNL     1      -5.076 -17.786  28.700  1.00  0.00     0.026 C 
HETATM   14  C14 UNL     1      -4.648 -19.902  27.494  1.00  0.00     0.026 C 
HETATM   15  C15 UNL     1      -3.602 -19.471  29.647  1.00  0.00     0.026 C 
ENDBRANCH  11  12
ENDBRANCH  10  11
BRANCH   4  16
HETATM   16  C8  UNL     1      -3.553 -16.007  22.023  1.00  0.00     0.420 C 
HETATM   17  F1  UNL     1      -4.262 -16.897  21.247  1.00  0.00    -0.206 F 
HETATM   18  F2  UNL     1      -4.343 -14.853  22.095  1.00  0.00    -0.206 F 
ENDBRANCH   4  16
BRANCH   1  19
HETATM   19  N1  UNL     1      -3.565 -15.337  26.735  1.00  0.00    -0.341 N 
ATOM     20  H1  UNL     1      -3.153 -15.521  27.650  1.00  0.00     0.167 HD
BRANCH  19  21
HETATM   21  C5  UNL     1      -4.385 -14.214  26.540  1.00  0.00     0.039 A 
HETATM   22  C4  UNL     1      -4.431 -13.628  25.283  1.00  0.00     0.030 A 
HETATM   23  C3  UNL     1      -5.203 -12.537  25.016  1.00  0.00     0.009 A 
HETATM   24  C2  UNL     1      -5.982 -11.955  25.987  1.00  0.00    -0.061 A 
HETATM   25  C1  UNL     1      -6.804 -10.769  25.650  1.00  0.00     0.048 C 
HETATM   26  C18 UNL     1      -5.954 -12.516  27.242  1.00  0.00     0.015 A 
HETATM   27  C16 UNL     1      -5.163 -13.633  27.510  1.00  0.00    -0.035 A 
HETATM   28  C17 UNL     1      -5.168 -14.194  28.863  1.00  0.00     0.050 C 
ENDBRANCH  19  21
ENDBRANCH   1  19
TORSDOF 5
ENDMDL
MODEL 5
REMARK VINA RESULT: -9.216779526      2.342      5.969
REMARK  5 active torsions:
REMARK  status: ('A' for Active; 'I' for Inactive)
REMARK    1  A    between atoms: C5_5  and  N1_6 
REMARK    2  A    between atoms: N1_6  and  C6_8 
REMARK    3  A    between atoms: C7_11  and  C8_12 
REMARK    4  A    between atoms: C11_20  and  S1_21 
REMARK    5  A    between atoms: S1_21  and  C12_22 
ROOT
HETATM    1  C6  UNL     1      -3.360 -16.247  25.941  1.00  0.00     0.127 A 
HETATM    2  N2  UNL     1      -3.665 -15.586  24.805  1.00  0.00    -0.326 N 
ATOM      3  H2  UNL     1      -4.032 -14.638  24.880  1.00  0.00     0.169 HD
HETATM    4  C7  UNL     1      -3.508 -16.123  23.565  1.00  0.00     0.150 A 
HETATM    5  N3  UNL     1      -3.024 -17.372  23.466  1.00  0.00    -0.332 N 
ATOM      6  H3  UNL     1      -2.897 -17.797  22.547  1.00  0.00     0.168 HD
HETATM    7  C9  UNL     1      -2.703 -18.075  24.588  1.00  0.00     0.136 A 
HETATM    8  C10 UNL     1      -2.206 -19.406  24.402  1.00  0.00     0.119 C 
HETATM    9  N4  UNL     1      -1.830 -20.478  24.247  1.00  0.00    -0.190 NA
HETATM   10  C11 UNL     1      -2.858 -17.542  25.844  1.00  0.00     0.083 A 
ENDROOT
BRANCH  10  11
HETATM   11  S1  UNL     1      -2.456 -18.443  27.319  1.00  0.00    -0.114 SA
BRANCH  11  12
HETATM   12  C12 UNL     1      -3.810 -19.355  28.029  1.00  0.00     0.002 C 
HETATM   13  C13 UNL     1      -4.840 -18.409  28.587  1.00  0.00     0.026 C 
HETATM   14  C14 UNL     1      -4.456 -20.326  27.072  1.00  0.00     0.026 C 
HETATM   15  C15 UNL     1      -3.288 -20.177  29.201  1.00  0.00     0.026 C 
ENDBRANCH  11  12
ENDBRANCH  10  11
BRANCH   4  16
HETATM   16  C8  UNL     1      -3.847 -15.392  22.342  1.00  0.00     0.420 C 
HETATM   17  F1  UNL     1      -3.436 -14.077  22.366  1.00  0.00    -0.206 F 
HETATM   18  F2  UNL     1      -3.156 -15.985  21.277  1.00  0.00    -0.206 F 
ENDBRANCH   4  16
BRANCH   1  19
HETATM   19  N1  UNL     1      -3.538 -15.675  27.083  1.00  0.00    -0.341 N 
ATOM     20  H1  UNL     1      -3.174 -16.101  27.935  1.00  0.00     0.167 HD
BRANCH  19  21
HETATM   21  C5  UNL     1      -4.240 -14.461  27.141  1.00  0.00     0.039 A 
HETATM   22  C4  UNL     1      -4.318 -13.676  25.999  1.00  0.00     0.030 A 
HETATM   23  C3  UNL     1      -4.981 -12.486  25.978  1.00  0.00     0.009 A 
HETATM   24  C2  UNL     1      -5.612 -11.996  27.096  1.00  0.00    -0.061 A 
HETATM   25  C1  UNL     1      -6.321 -10.696  27.025  1.00  0.00     0.048 C 
HETATM   26  C18 UNL     1      -5.550 -12.754  28.241  1.00  0.00     0.015 A 
HETATM   27  C16 UNL     1      -4.870 -13.973  28.259  1.00  0.00    -0.035 A 
HETATM   28  C17 UNL     1      -4.833 -14.742  29.503  1.00  0.00     0.050 C 
ENDBRANCH  19  21
ENDBRANCH   1  19
TORSDOF 5
ENDMDL
