MODEL 1
REMARK VINA RESULT: -7.346401768      0.000      0.000
REMARK  5 active torsions:
REMARK  status: ('A' for Active; 'I' for Inactive)
REMARK    1  A    between atoms: C4_4  and  N1_5 
REMARK    2  A    between atoms: N1_5  and  N2_7 
REMARK    3  A    between atoms: C6_9  and  C7_11 
REMARK    4  A    between atoms: C7_11  and  C8_12 
REMARK       I    between atoms: C8_12  and  N4_14 
REMARK    5  A    between atoms: N4_14  and  C10_16 
ROOT
HETATM    1  C8  UNL     1       3.718   8.121   5.111  1.00  0.00     0.226 C 
HETATM    2  O1  UNL     1       2.842   7.399   4.561  1.00  0.00    -0.273 OA
HETATM    3  N4  UNL     1       4.483   8.986   4.244  1.00  0.00    -0.351 N 
HETATM    4  C9  UNL     1       5.496   9.769   4.926  1.00  0.00     0.153 C 
ENDROOT
BRANCH   3   5
HETATM    5  C10 UNL     1       4.245   9.029   2.813  1.00  0.00     0.096 C 
HETATM    6  C11 UNL     1       5.482   8.822   2.022  1.00  0.00     0.035 C 
HETATM    7  C12 UNL     1       5.609   9.484   0.723  1.00  0.00    -0.045 C 
HETATM    8  C13 UNL     1       5.849   8.459  -0.405  1.00  0.00     0.015 C 
HETATM    9  C14 UNL     1       6.875  10.366   0.664  1.00  0.00     0.015 C 
HETATM   10  C15 UNL     1       4.494  10.350   0.258  1.00  0.00     0.018 C 
HETATM   11  C16 UNL     1       3.156  10.093   0.903  1.00  0.00    -0.038 C 
HETATM   12  C17 UNL     1       2.254  11.228   0.403  1.00  0.00     0.015 C 
HETATM   13  C18 UNL     1       2.550   8.835   0.403  1.00  0.00     0.015 C 
HETATM   14  C19 UNL     1       3.375  10.156   2.396  1.00  0.00    -0.020 C 
HETATM   15  C20 UNL     1       1.998   9.932   3.035  1.00  0.00     0.018 C 
HETATM   16  C21 UNL     1       3.801  11.525   2.788  1.00  0.00     0.018 C 
ENDBRANCH   3   5
BRANCH   1  17
HETATM   17  C7  UNL     1       3.923   8.058   6.551  1.00  0.00     0.177 C 
BRANCH  17  18
HETATM   18  C6  UNL     1       3.719   6.646   7.004  1.00  0.00     0.116 C 
HETATM   19  N2  UNL     1       4.642   5.768   6.907  1.00  0.00    -0.293 N 
ATOM     20  H2  UNL     1       4.421   4.830   7.242  1.00  0.00     0.187 HD
HETATM   21  N3  UNL     1       2.474   6.234   7.568  1.00  0.00    -0.086 NA
BRANCH  19  22
HETATM   22  N1  UNL     1       5.913   5.965   6.393  1.00  0.00    -0.326 N 
HETATM   23  C5  UNL     1       6.206   5.933   4.976  1.00  0.00     0.171 C 
BRANCH  22  24
HETATM   24  C4  UNL     1       7.021   6.220   7.322  1.00  0.00     0.106 A 
HETATM   25  C2  UNL     1       6.855   5.704   8.710  1.00  0.00     0.008 A 
HETATM   26  C1  UNL     1       7.407   6.619   9.803  1.00  0.00     0.012 C 
HETATM   27  C3  UNL     1       7.804   5.003   7.805  1.00  0.00     0.033 A 
ENDBRANCH  22  24
ENDBRANCH  19  22
ENDBRANCH  17  18
ENDBRANCH   1  17
TORSDOF 5
ENDMDL
MODEL 2
REMARK VINA RESULT: -6.449954680      1.322      1.939
REMARK  5 active torsions:
REMARK  status: ('A' for Active; 'I' for Inactive)
REMARK    1  A    between atoms: C4_4  and  N1_5 
REMARK    2  A    between atoms: N1_5  and  N2_7 
REMARK    3  A    between atoms: C6_9  and  C7_11 
REMARK    4  A    between atoms: C7_11  and  C8_12 
REMARK       I    between atoms: C8_12  and  N4_14 
REMARK    5  A    between atoms: N4_14  and  C10_16 
ROOT
HETATM    1  C8  UNL     1       3.987   8.934   4.048  1.00  0.00     0.226 C 
HETATM    2  O1  UNL     1       2.727   8.945   3.988  1.00  0.00    -0.273 OA
HETATM    3  N4  UNL     1       4.697   9.278   2.840  1.00  0.00    -0.351 N 
HETATM    4  C9  UNL     1       6.142   9.218   2.959  1.00  0.00     0.153 C 
ENDROOT
BRANCH   3   5
HETATM    5  C10 UNL     1       3.993   9.631   1.620  1.00  0.00     0.096 C 
HETATM    6  C11 UNL     1       4.130   8.599   0.563  1.00  0.00     0.035 C 
HETATM    7  C12 UNL     1       4.131   9.020  -0.839  1.00  0.00    -0.045 C 
HETATM    8  C13 UNL     1       3.005   8.324  -1.631  1.00  0.00     0.015 C 
HETATM    9  C14 UNL     1       5.408   8.548  -1.566  1.00  0.00     0.015 C 
HETATM   10  C15 UNL     1       4.008  10.471  -1.142  1.00  0.00     0.018 C 
HETATM   11  C16 UNL     1       3.411  11.317  -0.047  1.00  0.00    -0.038 C 
HETATM   12  C17 UNL     1       3.581  12.762  -0.532  1.00  0.00     0.015 C 
HETATM   13  C18 UNL     1       1.949  11.093   0.071  1.00  0.00     0.015 C 
HETATM   14  C19 UNL     1       4.210  11.037   1.202  1.00  0.00    -0.020 C 
HETATM   15  C20 UNL     1       3.614  11.936   2.295  1.00  0.00     0.018 C 
HETATM   16  C21 UNL     1       5.616  11.482   1.014  1.00  0.00     0.018 C 
ENDBRANCH   3   5
BRANCH   1  17
HETATM   17  C7  UNL     1       4.659   8.584   5.291  1.00  0.00     0.177 C 
BRANCH  17  18
HETATM   18  C6  UNL     1       3.785   7.644   6.063  1.00  0.00     0.116 C 
HETATM   19  N2  UNL     1       4.197   6.492   6.431  1.00  0.00    -0.293 N 
ATOM     20  H2  UNL     1       3.538   5.914   6.954  1.00  0.00     0.187 HD
HETATM   21  N3  UNL     1       2.452   8.012   6.417  1.00  0.00    -0.086 NA
BRANCH  19  22
HETATM   22  N1  UNL     1       5.449   5.950   6.189  1.00  0.00    -0.326 N 
HETATM   23  C5  UNL     1       6.110   6.031   4.904  1.00  0.00     0.171 C 
BRANCH  22  24
HETATM   24  C4  UNL     1       6.144   5.260   7.281  1.00  0.00     0.106 A 
HETATM   25  C2  UNL     1       7.394   5.900   7.782  1.00  0.00     0.008 A 
HETATM   26  C1  UNL     1       8.508   4.924   8.157  1.00  0.00     0.012 C 
HETATM   27  C3  UNL     1       6.175   5.970   8.631  1.00  0.00     0.033 A 
ENDBRANCH  22  24
ENDBRANCH  19  22
ENDBRANCH  17  18
ENDBRANCH   1  17
TORSDOF 5
ENDMDL
MODEL 3
REMARK VINA RESULT: -6.441632589      1.794      2.744
REMARK  5 active torsions:
REMARK  status: ('A' for Active; 'I' for Inactive)
REMARK    1  A    between atoms: C4_4  and  N1_5 
REMARK    2  A    between atoms: N1_5  and  N2_7 
REMARK    3  A    between atoms: C6_9  and  C7_11 
REMARK    4  A    between atoms: C7_11  and  C8_12 
REMARK       I    between atoms: C8_12  and  N4_14 
REMARK    5  A    between atoms: N4_14  and  C10_16 
ROOT
HETATM    1  C8  UNL     1       3.758   8.707   4.017  1.00  0.00     0.226 C 
HETATM    2  O1  UNL     1       2.947   7.749   4.140  1.00  0.00    -0.273 OA
HETATM    3  N4  UNL     1       3.605   9.541   2.849  1.00  0.00    -0.351 N 
HETATM    4  C9  UNL     1       4.584  10.606   2.743  1.00  0.00     0.153 C 
ENDROOT
BRANCH   3   5
HETATM    5  C10 UNL     1       2.560   9.293   1.871  1.00  0.00     0.096 C 
HETATM    6  C11 UNL     1       3.098   8.867   0.556  1.00  0.00     0.035 C 
HETATM    7  C12 UNL     1       2.368   9.235  -0.658  1.00  0.00    -0.045 C 
HETATM    8  C13 UNL     1       1.983   7.986  -1.477  1.00  0.00     0.015 C 
HETATM    9  C14 UNL     1       3.265  10.025  -1.634  1.00  0.00     0.015 C 
HETATM   10  C15 UNL     1       1.122  10.035  -0.519  1.00  0.00     0.018 C 
HETATM   11  C16 UNL     1       0.460   9.980   0.833  1.00  0.00    -0.038 C 
HETATM   12  C17 UNL     1      -0.661  11.024   0.764  1.00  0.00     0.015 C 
HETATM   13  C18 UNL     1      -0.209   8.674   1.054  1.00  0.00     0.015 C 
HETATM   14  C19 UNL     1       1.516  10.345   1.848  1.00  0.00    -0.020 C 
HETATM   15  C20 UNL     1       0.814  10.323   3.214  1.00  0.00     0.018 C 
HETATM   16  C21 UNL     1       1.965  11.745   1.631  1.00  0.00     0.018 C 
ENDBRANCH   3   5
BRANCH   1  17
HETATM   17  C7  UNL     1       4.787   8.931   5.022  1.00  0.00     0.177 C 
BRANCH  17  18
HETATM   18  C6  UNL     1       6.052   8.268   4.571  1.00  0.00     0.116 C 
HETATM   19  N2  UNL     1       6.424   7.140   5.040  1.00  0.00    -0.293 N 
ATOM     20  H2  UNL     1       7.297   6.756   4.678  1.00  0.00     0.187 HD
HETATM   21  N3  UNL     1       6.888   8.882   3.590  1.00  0.00    -0.086 NA
BRANCH  19  22
HETATM   22  N1  UNL     1       5.758   6.385   5.993  1.00  0.00    -0.326 N 
HETATM   23  C5  UNL     1       4.550   5.640   5.708  1.00  0.00     0.171 C 
BRANCH  22  24
HETATM   24  C4  UNL     1       6.296   6.332   7.357  1.00  0.00     0.106 A 
HETATM   25  C2  UNL     1       6.464   4.976   7.953  1.00  0.00     0.008 A 
HETATM   26  C1  UNL     1       6.132   4.886   9.442  1.00  0.00     0.012 C 
HETATM   27  C3  UNL     1       7.681   5.715   7.524  1.00  0.00     0.033 A 
ENDBRANCH  22  24
ENDBRANCH  19  22
ENDBRANCH  17  18
ENDBRANCH   1  17
TORSDOF 5
ENDMDL
MODEL 4
REMARK VINA RESULT: -6.089051529      2.807      5.102
REMARK  5 active torsions:
REMARK  status: ('A' for Active; 'I' for Inactive)
REMARK    1  A    between atoms: C4_4  and  N1_5 
REMARK    2  A    between atoms: N1_5  and  N2_7 
REMARK    3  A    between atoms: C6_9  and  C7_11 
REMARK    4  A    between atoms: C7_11  and  C8_12 
REMARK       I    between atoms: C8_12  and  N4_14 
REMARK    5  A    between atoms: N4_14  and  C10_16 
ROOT
HETATM    1  C8  UNL     1       2.044   9.409   2.762  1.00  0.00     0.226 C 
HETATM    2  O1  UNL     1       1.429   9.965   3.713  1.00  0.00    -0.273 OA
HETATM    3  N4  UNL     1       1.483   9.576   1.442  1.00  0.00    -0.351 N 
HETATM    4  C9  UNL     1       2.213   8.890   0.392  1.00  0.00     0.153 C 
ENDROOT
BRANCH   3   5
HETATM    5  C10 UNL     1       0.279  10.356   1.222  1.00  0.00     0.096 C 
HETATM    6  C11 UNL     1      -0.894   9.512   0.886  1.00  0.00     0.035 C 
HETATM    7  C12 UNL     1      -1.923  10.054  -0.002  1.00  0.00    -0.045 C 
HETATM    8  C13 UNL     1      -3.308  10.047   0.678  1.00  0.00     0.015 C 
HETATM    9  C14 UNL     1      -2.138   9.147  -1.232  1.00  0.00     0.015 C 
HETATM   10  C15 UNL     1      -1.739  11.428  -0.542  1.00  0.00     0.018 C 
HETATM   11  C16 UNL     1      -0.797  12.312   0.233  1.00  0.00    -0.038 C 
HETATM   12  C17 UNL     1      -0.639  13.570  -0.631  1.00  0.00     0.015 C 
HETATM   13  C18 UNL     1      -1.406  12.764   1.508  1.00  0.00     0.015 C 
HETATM   14  C19 UNL     1       0.498  11.550   0.370  1.00  0.00    -0.020 C 
HETATM   15  C20 UNL     1       1.458  12.480   1.126  1.00  0.00     0.018 C 
HETATM   16  C21 UNL     1       1.100  11.328  -0.970  1.00  0.00     0.018 C 
ENDBRANCH   3   5
BRANCH   1  17
HETATM   17  C7  UNL     1       3.255   8.643   3.018  1.00  0.00     0.177 C 
BRANCH  17  18
HETATM   18  C6  UNL     1       4.360   9.591   3.367  1.00  0.00     0.116 C 
HETATM   19  N2  UNL     1       5.077   9.433   4.412  1.00  0.00    -0.293 N 
ATOM     20  H2  UNL     1       5.810  10.124   4.575  1.00  0.00     0.187 HD
HETATM   21  N3  UNL     1       4.650  10.711   2.530  1.00  0.00    -0.086 NA
BRANCH  19  22
HETATM   22  N1  UNL     1       4.957   8.417   5.345  1.00  0.00    -0.326 N 
HETATM   23  C5  UNL     1       3.767   8.214   6.144  1.00  0.00     0.171 C 
BRANCH  22  24
HETATM   24  C4  UNL     1       6.084   7.497   5.540  1.00  0.00     0.106 A 
HETATM   25  C2  UNL     1       5.810   6.269   6.339  1.00  0.00     0.008 A 
HETATM   26  C1  UNL     1       6.948   5.839   7.263  1.00  0.00     0.012 C 
HETATM   27  C3  UNL     1       5.979   6.132   4.868  1.00  0.00     0.033 A 
ENDBRANCH  22  24
ENDBRANCH  19  22
ENDBRANCH  17  18
ENDBRANCH   1  17
TORSDOF 5
ENDMDL
MODEL 5
REMARK VINA RESULT: -5.916620767      2.644      4.121
REMARK  5 active torsions:
REMARK  status: ('A' for Active; 'I' for Inactive)
REMARK    1  A    between atoms: C4_4  and  N1_5 
REMARK    2  A    between atoms: N1_5  and  N2_7 
REMARK    3  A    between atoms: C6_9  and  C7_11 
REMARK    4  A    between atoms: C7_11  and  C8_12 
REMARK       I    between atoms: C8_12  and  N4_14 
REMARK    5  A    between atoms: N4_14  and  C10_16 
ROOT
HETATM    1  C8  UNL     1       3.853   9.152   3.584  1.00  0.00     0.226 C 
HETATM    2  O1  UNL     1       3.213   8.083   3.777  1.00  0.00    -0.273 OA
HETATM    3  N4  UNL     1       3.463   9.944   2.441  1.00  0.00    -0.351 N 
HETATM    4  C9  UNL     1       4.253  11.147   2.251  1.00  0.00     0.153 C 
ENDROOT
BRANCH   3   5
HETATM    5  C10 UNL     1       2.380   9.532   1.567  1.00  0.00     0.096 C 
HETATM    6  C11 UNL     1       2.858   9.108   0.228  1.00  0.00     0.035 C 
HETATM    7  C12 UNL     1       1.995   9.332  -0.933  1.00  0.00    -0.045 C 
HETATM    8  C13 UNL     1       1.695   8.009  -1.668  1.00  0.00     0.015 C 
HETATM    9  C14 UNL     1       2.712  10.172  -2.012  1.00  0.00     0.015 C 
HETATM   10  C15 UNL     1       0.679   9.990  -0.720  1.00  0.00     0.018 C 
HETATM   11  C16 UNL     1       0.137   9.925   0.685  1.00  0.00    -0.038 C 
HETATM   12  C17 UNL     1      -1.101  10.831   0.671  1.00  0.00     0.015 C 
HETATM   13  C18 UNL     1      -0.353   8.563   1.012  1.00  0.00     0.015 C 
HETATM   14  C19 UNL     1       1.221  10.456   1.592  1.00  0.00    -0.020 C 
HETATM   15  C20 UNL     1       0.638  10.421   3.012  1.00  0.00     0.018 C 
HETATM   16  C21 UNL     1       1.483  11.886   1.283  1.00  0.00     0.018 C 
ENDBRANCH   3   5
BRANCH   1  17
HETATM   17  C7  UNL     1       4.927   9.539   4.487  1.00  0.00     0.177 C 
BRANCH  17  18
HETATM   18  C6  UNL     1       5.884   8.393   4.615  1.00  0.00     0.116 C 
HETATM   19  N2  UNL     1       6.923   8.300   3.879  1.00  0.00    -0.293 N 
ATOM     20  H2  UNL     1       7.524   7.490   4.032  1.00  0.00     0.187 HD
HETATM   21  N3  UNL     1       5.661   7.361   5.576  1.00  0.00    -0.086 NA
BRANCH  19  22
HETATM   22  N1  UNL     1       7.316   9.192   2.895  1.00  0.00    -0.326 N 
HETATM   23  C5  UNL     1       6.836   9.126   1.531  1.00  0.00     0.171 C 
BRANCH  22  24
HETATM   24  C4  UNL     1       8.264  10.258   3.242  1.00  0.00     0.106 A 
HETATM   25  C2  UNL     1       9.409   9.870   4.115  1.00  0.00     0.008 A 
HETATM   26  C1  UNL     1       9.809  10.920   5.149  1.00  0.00     0.012 C 
HETATM   27  C3  UNL     1       9.675  10.132   2.675  1.00  0.00     0.033 A 
ENDBRANCH  22  24
ENDBRANCH  19  22
ENDBRANCH  17  18
ENDBRANCH   1  17
TORSDOF 5
ENDMDL
