MODEL 1
REMARK VINA RESULT: -7.657046266      0.000      0.000
REMARK  6 active torsions:
REMARK  status: ('A' for Active; 'I' for Inactive)
REMARK    1  A    between atoms: C2_2  and  N3_21 
REMARK    2  A    between atoms: N1_3  and  C3_5 
REMARK    3  A    between atoms: C3_5  and  C4_6 
REMARK    4  A    between atoms: C7_9  and  C8_10 
REMARK    5  A    between atoms: C9_11  and  C10_12 
REMARK    6  A    between atoms: C17_23  and  C18_25 
ROOT
HETATM    1  C3  UNL     1       2.167  11.662   1.275  1.00  0.00     0.160 C 
ENDROOT
BRANCH   1   2
HETATM    2  N1  UNL     1       1.320  10.982   0.323  1.00  0.00    -0.376 N 
HETATM    3  C2  UNL     1       0.167  11.460   0.066  1.00  0.00     0.074 C 
HETATM    4  C1  UNL     1      -0.293  12.691   0.734  1.00  0.00     0.089 C 
ATOM      5  H1  UNL     1       1.640  10.131  -0.138  1.00  0.00     0.161 HD
BRANCH   3   6
HETATM    6  N3  UNL     1      -0.667  10.801  -0.862  1.00  0.00    -0.333 N 
HETATM    7  C17 UNL     1      -1.254   9.710  -0.528  1.00  0.00     0.144 C 
HETATM    8  N4  UNL     1      -1.059   9.181   0.768  1.00  0.00    -0.080 NA
ATOM      9  H3  UNL     1      -0.802  11.190  -1.795  1.00  0.00     0.168 HD
BRANCH   7  10
HETATM   10  C18 UNL     1      -2.112   9.020  -1.466  1.00  0.00     0.073 A 
HETATM   11  C19 UNL     1      -1.609   8.051  -2.309  1.00  0.00     0.033 A 
HETATM   12  C20 UNL     1      -2.463   7.409  -3.197  1.00  0.00     0.004 A 
HETATM   13  C21 UNL     1      -3.798   7.758  -3.212  1.00  0.00     0.017 A 
HETATM   14  C22 UNL     1      -4.279   8.726  -2.364  1.00  0.00     0.088 A 
HETATM   15  N5  UNL     1      -3.434   9.321  -1.527  1.00  0.00    -0.363 N 
ATOM     16  H5  UNL     1      -3.797  10.039  -0.900  1.00  0.00     0.165 HD
ENDBRANCH   7  10
ENDBRANCH   3   6
ENDBRANCH   1   2
BRANCH   1  17
HETATM   17  C4  UNL     1       2.757  10.699   2.239  1.00  0.00    -0.025 A 
HETATM   18  C5  UNL     1       1.988   9.722   2.833  1.00  0.00     0.013 A 
HETATM   19  C6  UNL     1       2.555   8.820   3.740  1.00  0.00     0.039 A 
HETATM   20  C7  UNL     1       3.897   8.916   4.036  1.00  0.00     0.086 A 
HETATM   21  N2  UNL     1       4.625   9.869   3.448  1.00  0.00    -0.358 N 
HETATM   22  C16 UNL     1       4.095  10.762   2.561  1.00  0.00     0.097 A 
ATOM     23  H2  UNL     1       5.619   9.933   3.672  1.00  0.00     0.166 HD
BRANCH  20  24
HETATM   24  C8  UNL     1       4.464   7.974   4.974  1.00  0.00    -0.043 C 
HETATM   25  C9  UNL     1       4.942   7.200   5.775  1.00  0.00    -0.060 C 
BRANCH  25  26
HETATM   26  C10 UNL     1       5.511   6.296   6.743  1.00  0.00     0.018 A 
HETATM   27  C11 UNL     1       4.715   5.517   7.558  1.00  0.00     0.020 A 
HETATM   28  C12 UNL     1       5.239   4.646   8.491  1.00  0.00     0.001 A 
HETATM   29  C13 UNL     1       6.609   4.535   8.630  1.00  0.00     0.000 A 
HETATM   30  C14 UNL     1       7.426   5.306   7.822  1.00  0.00     0.001 A 
HETATM   31  C15 UNL     1       6.883   6.176   6.891  1.00  0.00     0.020 A 
ENDBRANCH  25  26
ENDBRANCH  20  24
ENDBRANCH   1  17
TORSDOF 6
ENDMDL
MODEL 2
REMARK VINA RESULT: -7.633575291      0.536      1.290
REMARK  6 active torsions:
REMARK  status: ('A' for Active; 'I' for Inactive)
REMARK    1  A    between atoms: C2_2  and  N3_21 
REMARK    2  A    between atoms: N1_3  and  C3_5 
REMARK    3  A    between atoms: C3_5  and  C4_6 
REMARK    4  A    between atoms: C7_9  and  C8_10 
REMARK    5  A    between atoms: C9_11  and  C10_12 
REMARK    6  A    between atoms: C17_23  and  C18_25 
ROOT
HETATM    1  C3  UNL     1       2.063  11.612   1.354  1.00  0.00     0.160 C 
ENDROOT
BRANCH   1   2
HETATM    2  N1  UNL     1       1.251  10.920   0.380  1.00  0.00    -0.376 N 
HETATM    3  C2  UNL     1       0.123  11.413   0.050  1.00  0.00     0.074 C 
HETATM    4  C1  UNL     1      -0.343  12.673   0.656  1.00  0.00     0.089 C 
ATOM      5  H1  UNL     1       1.576  10.048  -0.038  1.00  0.00     0.161 HD
BRANCH   3   6
HETATM    6  N3  UNL     1      -0.676  10.743  -0.900  1.00  0.00    -0.333 N 
HETATM    7  C17 UNL     1      -1.308   9.677  -0.564  1.00  0.00     0.144 C 
HETATM    8  N4  UNL     1      -1.196   9.189   0.758  1.00  0.00    -0.080 NA
ATOM      9  H3  UNL     1      -0.751  11.103  -1.852  1.00  0.00     0.168 HD
BRANCH   7  10
HETATM   10  C18 UNL     1      -2.132   8.976  -1.524  1.00  0.00     0.073 A 
HETATM   11  C19 UNL     1      -1.584   8.052  -2.390  1.00  0.00     0.033 A 
HETATM   12  C20 UNL     1      -2.405   7.398  -3.298  1.00  0.00     0.004 A 
HETATM   13  C21 UNL     1      -3.754   7.690  -3.312  1.00  0.00     0.017 A 
HETATM   14  C22 UNL     1      -4.279   8.614  -2.441  1.00  0.00     0.088 A 
HETATM   15  N5  UNL     1      -3.465   9.222  -1.584  1.00  0.00    -0.363 N 
ATOM     16  H5  UNL     1      -3.861   9.907  -0.941  1.00  0.00     0.165 HD
ENDBRANCH   7  10
ENDBRANCH   3   6
ENDBRANCH   1   2
BRANCH   1  17
HETATM   17  C4  UNL     1       2.680  10.652   2.305  1.00  0.00    -0.025 A 
HETATM   18  C5  UNL     1       4.032  10.676   2.566  1.00  0.00     0.013 A 
HETATM   19  C6  UNL     1       4.602   9.766   3.464  1.00  0.00     0.039 A 
HETATM   20  C7  UNL     1       3.795   8.840   4.088  1.00  0.00     0.086 A 
HETATM   21  N2  UNL     1       2.486   8.834   3.821  1.00  0.00    -0.358 N 
HETATM   22  C16 UNL     1       1.906   9.711   2.949  1.00  0.00     0.097 A 
ATOM     23  H2  UNL     1       1.895   8.146   4.288  1.00  0.00     0.166 HD
BRANCH  20  24
HETATM   24  C8  UNL     1       4.402   7.910   5.012  1.00  0.00    -0.043 C 
HETATM   25  C9  UNL     1       4.919   7.145   5.798  1.00  0.00    -0.060 C 
BRANCH  25  26
HETATM   26  C10 UNL     1       5.538   6.253   6.748  1.00  0.00     0.018 A 
HETATM   27  C11 UNL     1       6.910   6.178   6.879  1.00  0.00     0.020 A 
HETATM   28  C12 UNL     1       7.522   5.333   7.780  1.00  0.00     0.001 A 
HETATM   29  C13 UNL     1       6.751   4.522   8.591  1.00  0.00     0.000 A 
HETATM   30  C14 UNL     1       5.374   4.581   8.476  1.00  0.00     0.001 A 
HETATM   31  C15 UNL     1       4.775   5.437   7.566  1.00  0.00     0.020 A 
ENDBRANCH  25  26
ENDBRANCH  20  24
ENDBRANCH   1  17
TORSDOF 6
ENDMDL
MODEL 3
REMARK VINA RESULT: -7.550212434      4.769     10.368
REMARK  6 active torsions:
REMARK  status: ('A' for Active; 'I' for Inactive)
REMARK    1  A    between atoms: C2_2  and  N3_21 
REMARK    2  A    between atoms: N1_3  and  C3_5 
REMARK    3  A    between atoms: C3_5  and  C4_6 
REMARK    4  A    between atoms: C7_9  and  C8_10 
REMARK    5  A    between atoms: C9_11  and  C10_12 
REMARK    6  A    between atoms: C17_23  and  C18_25 
ROOT
HETATM    1  C3  UNL     1       4.247  10.267   2.991  1.00  0.00     0.160 C 
ENDROOT
BRANCH   1   2
HETATM    2  N1  UNL     1       4.737   9.422   4.056  1.00  0.00    -0.376 N 
HETATM    3  C2  UNL     1       3.926   8.640   4.651  1.00  0.00     0.074 C 
HETATM    4  C1  UNL     1       2.507   8.600   4.255  1.00  0.00     0.089 C 
ATOM      5  H1  UNL     1       5.720   9.452   4.328  1.00  0.00     0.161 HD
BRANCH   3   6
HETATM    6  N3  UNL     1       4.398   7.812   5.692  1.00  0.00    -0.333 N 
HETATM    7  C17 UNL     1       5.450   7.100   5.513  1.00  0.00     0.144 C 
HETATM    8  N4  UNL     1       6.126   7.154   4.272  1.00  0.00    -0.080 NA
ATOM      9  H3  UNL     1       3.904   7.780   6.584  1.00  0.00     0.168 HD
BRANCH   7  10
HETATM   10  C18 UNL     1       5.948   6.245   6.568  1.00  0.00     0.073 A 
HETATM   11  C19 UNL     1       5.086   5.503   7.348  1.00  0.00     0.033 A 
HETATM   12  C20 UNL     1       5.601   4.694   8.352  1.00  0.00     0.004 A 
HETATM   13  C21 UNL     1       6.967   4.652   8.545  1.00  0.00     0.017 A 
HETATM   14  C22 UNL     1       7.808   5.400   7.756  1.00  0.00     0.088 A 
HETATM   15  N5  UNL     1       7.282   6.164   6.804  1.00  0.00    -0.363 N 
ATOM     16  H5  UNL     1       7.912   6.717   6.223  1.00  0.00     0.165 HD
ENDBRANCH   7  10
ENDBRANCH   3   6
ENDBRANCH   1   2
BRANCH   1  17
HETATM   17  C4  UNL     1       4.490   9.641   1.667  1.00  0.00    -0.025 A 
HETATM   18  C5  UNL     1       5.767   9.363   1.232  1.00  0.00     0.013 A 
HETATM   19  C6  UNL     1       5.984   8.773  -0.019  1.00  0.00     0.039 A 
HETATM   20  C7  UNL     1       4.902   8.470  -0.816  1.00  0.00     0.086 A 
HETATM   21  N2  UNL     1       3.671   8.747  -0.376  1.00  0.00    -0.358 N 
HETATM   22  C16 UNL     1       3.434   9.323   0.840  1.00  0.00     0.097 A 
ATOM     23  H2  UNL     1       2.876   8.519  -0.972  1.00  0.00     0.166 HD
BRANCH  20  24
HETATM   24  C8  UNL     1       5.146   7.861  -2.104  1.00  0.00    -0.043 C 
HETATM   25  C9  UNL     1       5.330   7.344  -3.185  1.00  0.00    -0.060 C 
BRANCH  25  26
HETATM   26  C10 UNL     1       5.527   6.726  -4.473  1.00  0.00     0.018 A 
HETATM   27  C11 UNL     1       6.788   6.558  -5.007  1.00  0.00     0.020 A 
HETATM   28  C12 UNL     1       6.999   5.970  -6.237  1.00  0.00     0.001 A 
HETATM   29  C13 UNL     1       5.920   5.527  -6.978  1.00  0.00     0.000 A 
HETATM   30  C14 UNL     1       4.646   5.686  -6.461  1.00  0.00     0.001 A 
HETATM   31  C15 UNL     1       4.453   6.279  -5.224  1.00  0.00     0.020 A 
ENDBRANCH  25  26
ENDBRANCH  20  24
ENDBRANCH   1  17
TORSDOF 6
ENDMDL
MODEL 4
REMARK VINA RESULT: -7.441605372      4.823      5.581
REMARK  6 active torsions:
REMARK  status: ('A' for Active; 'I' for Inactive)
REMARK    1  A    between atoms: C2_2  and  N3_21 
REMARK    2  A    between atoms: N1_3  and  C3_5 
REMARK    3  A    between atoms: C3_5  and  C4_6 
REMARK    4  A    between atoms: C7_9  and  C8_10 
REMARK    5  A    between atoms: C9_11  and  C10_12 
REMARK    6  A    between atoms: C17_23  and  C18_25 
ROOT
HETATM    1  C3  UNL     1       5.586  11.635   0.243  1.00  0.00     0.160 C 
ENDROOT
BRANCH   1   2
HETATM    2  N1  UNL     1       4.530  12.590   0.488  1.00  0.00    -0.376 N 
HETATM    3  C2  UNL     1       4.726  13.818   0.208  1.00  0.00     0.074 C 
HETATM    4  C1  UNL     1       6.014  14.254  -0.359  1.00  0.00     0.089 C 
ATOM      5  H1  UNL     1       3.639  12.286   0.881  1.00  0.00     0.161 HD
BRANCH   3   6
HETATM    6  N3  UNL     1       3.700  14.756   0.446  1.00  0.00    -0.333 N 
HETATM    7  C17 UNL     1       2.672  14.786  -0.322  1.00  0.00     0.144 C 
HETATM    8  N4  UNL     1       2.581  13.875  -1.399  1.00  0.00    -0.080 NA
ATOM      9  H3  UNL     1       3.774  15.409   1.226  1.00  0.00     0.168 HD
BRANCH   7  10
HETATM   10  C18 UNL     1       1.610  15.740  -0.094  1.00  0.00     0.073 A 
HETATM   11  C19 UNL     1       1.558  16.926  -0.797  1.00  0.00     0.033 A 
HETATM   12  C20 UNL     1       0.523  17.819  -0.551  1.00  0.00     0.004 A 
HETATM   13  C21 UNL     1      -0.430  17.496   0.393  1.00  0.00     0.017 A 
HETATM   14  C22 UNL     1      -0.359  16.309   1.082  1.00  0.00     0.088 A 
HETATM   15  N5  UNL     1       0.644  15.478   0.823  1.00  0.00    -0.363 N 
ATOM     16  H5  UNL     1       0.691  14.599   1.338  1.00  0.00     0.165 HD
ENDBRANCH   7  10
ENDBRANCH   3   6
ENDBRANCH   1   2
BRANCH   1  17
HETATM   17  C4  UNL     1       5.692  10.666   1.363  1.00  0.00    -0.025 A 
HETATM   18  C5  UNL     1       6.909  10.142   1.740  1.00  0.00     0.013 A 
HETATM   19  C6  UNL     1       6.997   9.229   2.798  1.00  0.00     0.039 A 
HETATM   20  C7  UNL     1       5.849   8.857   3.463  1.00  0.00     0.086 A 
HETATM   21  N2  UNL     1       4.679   9.376   3.081  1.00  0.00    -0.358 N 
HETATM   22  C16 UNL     1       4.568  10.268   2.053  1.00  0.00     0.097 A 
ATOM     23  H2  UNL     1       3.834   9.096   3.579  1.00  0.00     0.166 HD
BRANCH  20  24
HETATM   24  C8  UNL     1       5.961   7.914   4.552  1.00  0.00    -0.043 C 
HETATM   25  C9  UNL     1       6.058   7.138   5.479  1.00  0.00    -0.060 C 
BRANCH  25  26
HETATM   26  C10 UNL     1       6.173   6.234   6.596  1.00  0.00     0.018 A 
HETATM   27  C11 UNL     1       7.398   5.934   7.157  1.00  0.00     0.020 A 
HETATM   28  C12 UNL     1       7.531   5.071   8.226  1.00  0.00     0.001 A 
HETATM   29  C13 UNL     1       6.408   4.476   8.768  1.00  0.00     0.000 A 
HETATM   30  C14 UNL     1       5.170   4.763   8.221  1.00  0.00     0.001 A 
HETATM   31  C15 UNL     1       5.055   5.631   7.148  1.00  0.00     0.020 A 
ENDBRANCH  25  26
ENDBRANCH  20  24
ENDBRANCH   1  17
TORSDOF 6
ENDMDL
MODEL 5
REMARK VINA RESULT: -7.421773098      3.942      4.735
REMARK  6 active torsions:
REMARK  status: ('A' for Active; 'I' for Inactive)
REMARK    1  A    between atoms: C2_2  and  N3_21 
REMARK    2  A    between atoms: N1_3  and  C3_5 
REMARK    3  A    between atoms: C3_5  and  C4_6 
REMARK    4  A    between atoms: C7_9  and  C8_10 
REMARK    5  A    between atoms: C9_11  and  C10_12 
REMARK    6  A    between atoms: C17_23  and  C18_25 
ROOT
HETATM    1  C3  UNL     1       4.995  11.883   0.578  1.00  0.00     0.160 C 
ENDROOT
BRANCH   1   2
HETATM    2  N1  UNL     1       3.929  12.789   0.938  1.00  0.00    -0.376 N 
HETATM    3  C2  UNL     1       3.261  13.360   0.015  1.00  0.00     0.074 C 
HETATM    4  C1  UNL     1       3.575  13.096  -1.401  1.00  0.00     0.089 C 
ATOM      5  H1  UNL     1       3.714  12.970   1.919  1.00  0.00     0.161 HD
BRANCH   3   6
HETATM    6  N3  UNL     1       2.219  14.246   0.359  1.00  0.00    -0.333 N 
HETATM    7  C17 UNL     1       1.104  13.782   0.793  1.00  0.00     0.144 C 
HETATM    8  N4  UNL     1       0.933  12.384   0.921  1.00  0.00    -0.080 NA
ATOM      9  H3  UNL     1       2.351  15.253   0.264  1.00  0.00     0.168 HD
BRANCH   7  10
HETATM   10  C18 UNL     1       0.024  14.675   1.151  1.00  0.00     0.073 A 
HETATM   11  C19 UNL     1       0.080  16.018   0.842  1.00  0.00     0.033 A 
HETATM   12  C20 UNL     1      -0.975  16.846   1.201  1.00  0.00     0.004 A 
HETATM   13  C21 UNL     1      -2.058  16.301   1.861  1.00  0.00     0.017 A 
HETATM   14  C22 UNL     1      -2.094  14.960   2.159  1.00  0.00     0.088 A 
HETATM   15  N5  UNL     1      -1.067  14.196   1.801  1.00  0.00    -0.363 N 
ATOM     16  H5  UNL     1      -1.100  13.202   2.026  1.00  0.00     0.165 HD
ENDBRANCH   7  10
ENDBRANCH   3   6
ENDBRANCH   1   2
BRANCH   1  17
HETATM   17  C4  UNL     1       5.209  10.870   1.642  1.00  0.00    -0.025 A 
HETATM   18  C5  UNL     1       4.227  10.589   2.568  1.00  0.00     0.013 A 
HETATM   19  C6  UNL     1       4.440   9.631   3.566  1.00  0.00     0.039 A 
HETATM   20  C7  UNL     1       5.647   8.968   3.617  1.00  0.00     0.086 A 
HETATM   21  N2  UNL     1       6.585   9.255   2.710  1.00  0.00    -0.358 N 
HETATM   22  C16 UNL     1       6.401  10.185   1.727  1.00  0.00     0.097 A 
ATOM     23  H2  UNL     1       7.475   8.759   2.754  1.00  0.00     0.166 HD
BRANCH  20  24
HETATM   24  C8  UNL     1       5.847   7.983   4.655  1.00  0.00    -0.043 C 
HETATM   25  C9  UNL     1       6.011   7.172   5.541  1.00  0.00    -0.060 C 
BRANCH  25  26
HETATM   26  C10 UNL     1       6.200   6.222   6.610  1.00  0.00     0.018 A 
HETATM   27  C11 UNL     1       7.452   5.952   7.122  1.00  0.00     0.020 A 
HETATM   28  C12 UNL     1       7.655   5.048   8.144  1.00  0.00     0.001 A 
HETATM   29  C13 UNL     1       6.576   4.377   8.688  1.00  0.00     0.000 A 
HETATM   30  C14 UNL     1       5.311   4.633   8.189  1.00  0.00     0.001 A 
HETATM   31  C15 UNL     1       5.126   5.544   7.162  1.00  0.00     0.020 A 
ENDBRANCH  25  26
ENDBRANCH  20  24
ENDBRANCH   1  17
TORSDOF 6
ENDMDL
