MODEL 1
REMARK VINA RESULT: -6.822388988      0.000      0.000
REMARK  5 active torsions:
REMARK  status: ('A' for Active; 'I' for Inactive)
REMARK       I    between atoms: N1_4  and  C4_5 
REMARK    1  A    between atoms: C4_5  and  C5_7 
REMARK    2  A    between atoms: C15_17  and  C16_18 
REMARK    3  A    between atoms: C16_18  and  O2_19 
REMARK    4  A    between atoms: C17_21  and  C18_22 
REMARK    5  A    between atoms: C18_22  and  C19_23 
ROOT
HETATM    1  C1  UNL     1       8.007   9.929   2.709  1.00  0.00     0.012 C 
HETATM    2  C2  UNL     1       6.971   8.933   2.233  1.00  0.00     0.006 C 
HETATM    3  C3  UNL     1       6.601   9.405   0.811  1.00  0.00     0.131 C 
HETATM    4  N1  UNL     1       5.164   9.753   0.909  1.00  0.00    -0.344 N 
HETATM    5  C4  UNL     1       4.166   9.603  -0.038  1.00  0.00     0.229 C 
HETATM    6  O1  UNL     1       2.978   9.961   0.275  1.00  0.00    -0.272 OA
HETATM    7  C15 UNL     1       5.109  10.265   2.262  1.00  0.00     0.115 C 
HETATM    8  C17 UNL     1       5.668   9.054   2.967  1.00  0.00     0.020 C 
ENDROOT
BRANCH   5   9
HETATM    9  C5  UNL     1       4.304   9.062  -1.412  1.00  0.00     0.042 C 
HETATM   10  C6  UNL     1       2.911   8.631  -1.926  1.00  0.00     0.024 C 
HETATM   11  C7  UNL     1       3.029   8.077  -3.317  1.00  0.00    -0.013 C 
HETATM   12  C8  UNL     1       3.971   6.919  -3.425  1.00  0.00     0.009 C 
HETATM   13  C12 UNL     1       3.513   9.146  -4.277  1.00  0.00     0.009 C 
HETATM   14  C9  UNL     1       5.331   7.417  -2.918  1.00  0.00    -0.013 C 
HETATM   15  C10 UNL     1       5.846   8.517  -3.785  1.00  0.00     0.009 C 
HETATM   16  C14 UNL     1       5.127   7.802  -1.480  1.00  0.00     0.024 C 
HETATM   17  C11 UNL     1       4.839   9.630  -3.784  1.00  0.00    -0.013 C 
HETATM   18  C13 UNL     1       4.737  10.141  -2.362  1.00  0.00     0.024 C 
ENDBRANCH   5   9
BRANCH   7  19
HETATM   19  C16 UNL     1       3.872  10.842   2.763  1.00  0.00     0.189 C 
BRANCH  19  20
HETATM   20  O2  UNL     1       3.732  12.155   2.319  1.00  0.00    -0.399 OA
ATOM     21  H2  UNL     1       4.570  12.499   2.032  1.00  0.00     0.209 HD
ENDBRANCH  19  20
ENDBRANCH   7  19
BRANCH   8  22
HETATM   22  C18 UNL     1       5.710   9.096   4.431  1.00  0.00     0.047 C 
BRANCH  22  23
HETATM   23  C19 UNL     1       5.023   7.913   4.997  1.00  0.00    -0.034 A 
HETATM   24  C20 UNL     1       5.669   6.725   5.319  1.00  0.00     0.033 A 
HETATM   25  C21 UNL     1       4.731   5.849   5.807  1.00  0.00     0.142 A 
HETATM   26  O3  UNL     1       3.566   6.445   5.797  1.00  0.00    -0.334 OA
HETATM   27  C22 UNL     1       3.711   7.681   5.317  1.00  0.00     0.148 A 
ENDBRANCH  22  23
ENDBRANCH   8  22
TORSDOF 5
ENDMDL
MODEL 2
REMARK VINA RESULT: -6.699423826      0.138      1.461
REMARK  5 active torsions:
REMARK  status: ('A' for Active; 'I' for Inactive)
REMARK       I    between atoms: N1_4  and  C4_5 
REMARK    1  A    between atoms: C4_5  and  C5_7 
REMARK    2  A    between atoms: C15_17  and  C16_18 
REMARK    3  A    between atoms: C16_18  and  O2_19 
REMARK    4  A    between atoms: C17_21  and  C18_22 
REMARK    5  A    between atoms: C18_22  and  C19_23 
ROOT
HETATM    1  C1  UNL     1       8.087   9.954   2.607  1.00  0.00     0.012 C 
HETATM    2  C2  UNL     1       7.057   8.947   2.140  1.00  0.00     0.006 C 
HETATM    3  C3  UNL     1       6.619   9.455   0.749  1.00  0.00     0.131 C 
HETATM    4  N1  UNL     1       5.179   9.762   0.915  1.00  0.00    -0.344 N 
HETATM    5  C4  UNL     1       4.148   9.617   0.004  1.00  0.00     0.229 C 
HETATM    6  O1  UNL     1       2.965   9.934   0.374  1.00  0.00    -0.272 OA
HETATM    7  C15 UNL     1       5.166  10.230   2.285  1.00  0.00     0.115 C 
HETATM    8  C17 UNL     1       5.781   9.012   2.927  1.00  0.00     0.020 C 
ENDROOT
BRANCH   5   9
HETATM    9  C5  UNL     1       4.244   9.123  -1.392  1.00  0.00     0.042 C 
HETATM   10  C6  UNL     1       4.865  10.228  -2.277  1.00  0.00     0.024 C 
HETATM   11  C7  UNL     1       4.969   9.748  -3.696  1.00  0.00    -0.013 C 
HETATM   12  C8  UNL     1       3.660   9.326  -4.285  1.00  0.00     0.009 C 
HETATM   13  C12 UNL     1       5.911   8.563  -3.790  1.00  0.00     0.009 C 
HETATM   14  C9  UNL     1       3.109   8.221  -3.373  1.00  0.00    -0.013 C 
HETATM   15  C10 UNL     1       4.018   7.040  -3.370  1.00  0.00     0.009 C 
HETATM   16  C14 UNL     1       2.904   8.853  -2.026  1.00  0.00     0.024 C 
HETATM   17  C11 UNL     1       5.373   7.487  -2.903  1.00  0.00    -0.013 C 
HETATM   18  C13 UNL     1       5.216   7.982  -1.480  1.00  0.00     0.024 C 
ENDBRANCH   5   9
BRANCH   7  19
HETATM   19  C16 UNL     1       3.936  10.759   2.853  1.00  0.00     0.189 C 
BRANCH  19  20
HETATM   20  O2  UNL     1       3.732  12.071   2.434  1.00  0.00    -0.399 OA
ATOM     21  H2  UNL     1       3.594  12.640   3.182  1.00  0.00     0.209 HD
ENDBRANCH  19  20
ENDBRANCH   7  19
BRANCH   8  22
HETATM   22  C18 UNL     1       5.881   9.008   4.389  1.00  0.00     0.047 C 
BRANCH  22  23
HETATM   23  C19 UNL     1       5.102   7.882   4.953  1.00  0.00    -0.034 A 
HETATM   24  C20 UNL     1       5.662   6.664   5.323  1.00  0.00     0.033 A 
HETATM   25  C21 UNL     1       4.655   5.858   5.793  1.00  0.00     0.142 A 
HETATM   26  O3  UNL     1       3.530   6.523   5.726  1.00  0.00    -0.334 OA
HETATM   27  C22 UNL     1       3.767   7.736   5.227  1.00  0.00     0.148 A 
ENDBRANCH  22  23
ENDBRANCH   8  22
TORSDOF 5
ENDMDL
MODEL 3
REMARK VINA RESULT: -6.388104516      0.987      1.090
REMARK  5 active torsions:
REMARK  status: ('A' for Active; 'I' for Inactive)
REMARK       I    between atoms: N1_4  and  C4_5 
REMARK    1  A    between atoms: C4_5  and  C5_7 
REMARK    2  A    between atoms: C15_17  and  C16_18 
REMARK    3  A    between atoms: C16_18  and  O2_19 
REMARK    4  A    between atoms: C17_21  and  C18_22 
REMARK    5  A    between atoms: C18_22  and  C19_23 
ROOT
HETATM    1  C1  UNL     1       7.605   9.656   2.588  1.00  0.00     0.012 C 
HETATM    2  C2  UNL     1       6.368   9.003   2.010  1.00  0.00     0.006 C 
HETATM    3  C3  UNL     1       6.385   9.393   0.516  1.00  0.00     0.131 C 
HETATM    4  N1  UNL     1       5.154  10.199   0.341  1.00  0.00    -0.344 N 
HETATM    5  C4  UNL     1       4.307  10.270  -0.751  1.00  0.00     0.229 C 
HETATM    6  O1  UNL     1       3.281  11.031  -0.673  1.00  0.00    -0.272 OA
HETATM    7  C15 UNL     1       5.089  10.863   1.627  1.00  0.00     0.115 C 
HETATM    8  C17 UNL     1       5.096   9.632   2.498  1.00  0.00     0.020 C 
ENDROOT
BRANCH   5   9
HETATM    9  C5  UNL     1       4.441   9.549  -2.041  1.00  0.00     0.042 C 
HETATM   10  C6  UNL     1       3.252   9.923  -2.954  1.00  0.00     0.024 C 
HETATM   11  C7  UNL     1       3.368   9.201  -4.265  1.00  0.00    -0.013 C 
HETATM   12  C8  UNL     1       3.432   7.713  -4.129  1.00  0.00     0.009 C 
HETATM   13  C12 UNL     1       4.614   9.642  -5.008  1.00  0.00     0.009 C 
HETATM   14  C9  UNL     1       4.639   7.411  -3.231  1.00  0.00    -0.013 C 
HETATM   15  C10 UNL     1       5.903   7.873  -3.874  1.00  0.00     0.009 C 
HETATM   16  C14 UNL     1       4.345   8.052  -1.904  1.00  0.00     0.024 C 
HETATM   17  C11 UNL     1       5.789   9.347  -4.133  1.00  0.00    -0.013 C 
HETATM   18  C13 UNL     1       5.652  10.029  -2.788  1.00  0.00     0.024 C 
ENDBRANCH   5   9
BRANCH   7  19
HETATM   19  C16 UNL     1       4.067  11.869   1.866  1.00  0.00     0.189 C 
BRANCH  19  20
HETATM   20  O2  UNL     1       4.439  13.086   1.301  1.00  0.00    -0.399 OA
ATOM     21  H2  UNL     1       3.715  13.700   1.328  1.00  0.00     0.209 HD
ENDBRANCH  19  20
ENDBRANCH   7  19
BRANCH   8  22
HETATM   22  C18 UNL     1       4.946   9.836   3.941  1.00  0.00     0.047 C 
BRANCH  22  23
HETATM   23  C19 UNL     1       4.316   8.649   4.563  1.00  0.00    -0.034 A 
HETATM   24  C20 UNL     1       5.025   7.666   5.244  1.00  0.00     0.033 A 
HETATM   25  C21 UNL     1       4.129   6.719   5.677  1.00  0.00     0.142 A 
HETATM   26  O3  UNL     1       2.931   7.080   5.296  1.00  0.00    -0.334 OA
HETATM   27  C22 UNL     1       3.012   8.231   4.627  1.00  0.00     0.148 A 
ENDBRANCH  22  23
ENDBRANCH   8  22
TORSDOF 5
ENDMDL
MODEL 4
REMARK VINA RESULT: -6.272989340      2.593      3.591
REMARK  5 active torsions:
REMARK  status: ('A' for Active; 'I' for Inactive)
REMARK       I    between atoms: N1_4  and  C4_5 
REMARK    1  A    between atoms: C4_5  and  C5_7 
REMARK    2  A    between atoms: C15_17  and  C16_18 
REMARK    3  A    between atoms: C16_18  and  O2_19 
REMARK    4  A    between atoms: C17_21  and  C18_22 
REMARK    5  A    between atoms: C18_22  and  C19_23 
ROOT
HETATM    1  C1  UNL     1       6.233   9.372   0.083  1.00  0.00     0.012 C 
HETATM    2  C2  UNL     1       4.906   8.842   0.581  1.00  0.00     0.006 C 
HETATM    3  C3  UNL     1       3.859   9.455  -0.373  1.00  0.00     0.131 C 
HETATM    4  N1  UNL     1       3.024  10.305   0.507  1.00  0.00    -0.344 N 
HETATM    5  C4  UNL     1       1.665  10.560   0.437  1.00  0.00     0.229 C 
HETATM    6  O1  UNL     1       1.146  11.322   1.325  1.00  0.00    -0.272 OA
HETATM    7  C15 UNL     1       4.020  10.765   1.451  1.00  0.00     0.115 C 
HETATM    8  C17 UNL     1       4.512   9.416   1.910  1.00  0.00     0.020 C 
ENDROOT
BRANCH   5   9
HETATM    9  C5  UNL     1       0.704  10.042  -0.567  1.00  0.00     0.042 C 
HETATM   10  C6  UNL     1      -0.725  10.473  -0.166  1.00  0.00     0.024 C 
HETATM   11  C7  UNL     1      -1.715   9.956  -1.170  1.00  0.00    -0.013 C 
HETATM   12  C8  UNL     1      -1.681   8.470  -1.338  1.00  0.00     0.009 C 
HETATM   13  C12 UNL     1      -1.464  10.573  -2.532  1.00  0.00     0.009 C 
HETATM   14  C9  UNL     1      -0.247   8.113  -1.752  1.00  0.00    -0.013 C 
HETATM   15  C10 UNL     1       0.094   8.737  -3.063  1.00  0.00     0.009 C 
HETATM   16  C14 UNL     1       0.636   8.538  -0.613  1.00  0.00     0.024 C 
HETATM   17  C11 UNL     1      -0.068  10.224  -2.935  1.00  0.00    -0.013 C 
HETATM   18  C13 UNL     1       0.932  10.696  -1.900  1.00  0.00     0.024 C 
ENDBRANCH   5   9
BRANCH   7  19
HETATM   19  C16 UNL     1       3.655  11.744   2.462  1.00  0.00     0.189 C 
BRANCH  19  20
HETATM   20  O2  UNL     1       3.573  13.016   1.901  1.00  0.00    -0.399 OA
ATOM     21  H2  UNL     1       4.039  13.647   2.438  1.00  0.00     0.209 HD
ENDBRANCH  19  20
ENDBRANCH   7  19
BRANCH   8  22
HETATM   22  C18 UNL     1       5.510   9.400   2.983  1.00  0.00     0.047 C 
BRANCH  22  23
HETATM   23  C19 UNL     1       5.032   8.573   4.115  1.00  0.00    -0.034 A 
HETATM   24  C20 UNL     1       3.707   8.524   4.532  1.00  0.00     0.033 A 
HETATM   25  C21 UNL     1       3.630   7.670   5.604  1.00  0.00     0.142 A 
HETATM   26  O3  UNL     1       4.828   7.206   5.850  1.00  0.00    -0.334 OA
HETATM   27  C22 UNL     1       5.688   7.730   4.974  1.00  0.00     0.148 A 
ENDBRANCH  22  23
ENDBRANCH   8  22
TORSDOF 5
ENDMDL
MODEL 5
REMARK VINA RESULT: -6.116939735      2.685      3.848
REMARK  5 active torsions:
REMARK  status: ('A' for Active; 'I' for Inactive)
REMARK       I    between atoms: N1_4  and  C4_5 
REMARK    1  A    between atoms: C4_5  and  C5_7 
REMARK    2  A    between atoms: C15_17  and  C16_18 
REMARK    3  A    between atoms: C16_18  and  O2_19 
REMARK    4  A    between atoms: C17_21  and  C18_22 
REMARK    5  A    between atoms: C18_22  and  C19_23 
ROOT
HETATM    1  C1  UNL     1       6.104   9.189   0.042  1.00  0.00     0.012 C 
HETATM    2  C2  UNL     1       4.753   8.792   0.597  1.00  0.00     0.006 C 
HETATM    3  C3  UNL     1       3.733   9.423  -0.374  1.00  0.00     0.131 C 
HETATM    4  N1  UNL     1       2.984  10.386   0.467  1.00  0.00    -0.344 N 
HETATM    5  C4  UNL     1       1.647  10.738   0.407  1.00  0.00     0.229 C 
HETATM    6  O1  UNL     1       1.207  11.589   1.255  1.00  0.00    -0.272 OA
HETATM    7  C15 UNL     1       4.034  10.826   1.362  1.00  0.00     0.115 C 
HETATM    8  C17 UNL     1       4.434   9.473   1.895  1.00  0.00     0.020 C 
ENDROOT
BRANCH   5   9
HETATM    9  C5  UNL     1       0.626  10.234  -0.545  1.00  0.00     0.042 C 
HETATM   10  C6  UNL     1       0.462   8.710  -0.348  1.00  0.00     0.024 C 
HETATM   11  C7  UNL     1      -0.567   8.180  -1.305  1.00  0.00    -0.013 C 
HETATM   12  C8  UNL     1      -0.252   8.458  -2.741  1.00  0.00     0.009 C 
HETATM   13  C12 UNL     1      -1.927   8.784  -1.015  1.00  0.00     0.009 C 
HETATM   14  C9  UNL     1      -0.120   9.981  -2.870  1.00  0.00    -0.013 C 
HETATM   15  C10 UNL     1      -1.410  10.651  -2.540  1.00  0.00     0.009 C 
HETATM   16  C14 UNL     1       1.030  10.378  -1.989  1.00  0.00     0.024 C 
HETATM   17  C11 UNL     1      -1.798  10.268  -1.142  1.00  0.00    -0.013 C 
HETATM   18  C13 UNL     1      -0.725  10.803  -0.217  1.00  0.00     0.024 C 
ENDBRANCH   5   9
BRANCH   7  19
HETATM   19  C16 UNL     1       3.766  11.889   2.317  1.00  0.00     0.189 C 
BRANCH  19  20
HETATM   20  O2  UNL     1       3.775  13.129   1.681  1.00  0.00    -0.399 OA
ATOM     21  H2  UNL     1       3.123  13.703   2.065  1.00  0.00     0.209 HD
ENDBRANCH  19  20
ENDBRANCH   7  19
BRANCH   8  22
HETATM   22  C18 UNL     1       5.453   9.448   2.948  1.00  0.00     0.047 C 
BRANCH  22  23
HETATM   23  C19 UNL     1       5.032   8.548   4.046  1.00  0.00    -0.034 A 
HETATM   24  C20 UNL     1       3.719   8.426   4.485  1.00  0.00     0.033 A 
HETATM   25  C21 UNL     1       3.697   7.517   5.515  1.00  0.00     0.142 A 
HETATM   26  O3  UNL     1       4.918   7.091   5.714  1.00  0.00    -0.334 OA
HETATM   27  C22 UNL     1       5.738   7.691   4.850  1.00  0.00     0.148 A 
ENDBRANCH  22  23
ENDBRANCH   8  22
TORSDOF 5
ENDMDL
