MODEL 1
REMARK VINA RESULT: -8.196038499      0.000      0.000
REMARK  4 active torsions:
REMARK  status: ('A' for Active; 'I' for Inactive)
REMARK    1  A    between atoms: C2_2  and  C4_5 
REMARK    2  A    between atoms: N2_8  and  C7_9 
REMARK    3  A    between atoms: C7_9  and  C8_10 
REMARK       I    between atoms: C8_10  and  N3_12 
REMARK    4  A    between atoms: N3_12  and  C9_14 
ROOT
HETATM    1  C1  UNL     1       6.260   4.841   9.621  1.00  0.00     0.026 C 
HETATM    2  C2  UNL     1       6.598   5.789   8.496  1.00  0.00     0.093 C 
HETATM    3  C3  UNL     1       8.067   5.777   8.365  1.00  0.00     0.064 C 
HETATM    4  N1  UNL     1       9.209   5.783   8.269  1.00  0.00    -0.197 NA
ENDROOT
BRANCH   2   5
HETATM    5  C4  UNL     1       5.963   5.374   7.188  1.00  0.00     0.006 C 
HETATM    6  C5  UNL     1       4.476   5.213   7.321  1.00  0.00     0.036 C 
HETATM    7  C6  UNL     1       3.897   6.603   7.178  1.00  0.00     0.273 C 
HETATM    8  N2  UNL     1       3.903   6.916   5.754  1.00  0.00     0.097 N 
HETATM    9  C21 UNL     1       5.184   6.647   5.153  1.00  0.00     0.273 C 
HETATM   10  C22 UNL     1       6.304   6.296   6.062  1.00  0.00     0.036 C 
BRANCH   8  11
HETATM   11  C7  UNL     1       3.644   8.343   5.685  1.00  0.00     0.374 C 
BRANCH  11  12
HETATM   12  C8  UNL     1       3.536   8.911   4.343  1.00  0.00     0.246 C 
HETATM   13  O1  UNL     1       2.423   8.700   3.750  1.00  0.00    -0.272 OA
HETATM   14  N3  UNL     1       4.520   9.635   3.679  1.00  0.00    -0.350 N 
ATOM     15  H3  UNL     1       5.403   9.789   4.166  1.00  0.00     0.163 HD
BRANCH  14  16
HETATM   16  C9  UNL     1       4.382  10.187   2.345  1.00  0.00     0.034 C 
HETATM   17  C10 UNL     1       3.523  11.410   2.292  1.00  0.00     0.035 C 
HETATM   18  C11 UNL     1       3.509  11.896   0.855  1.00  0.00    -0.011 C 
HETATM   19  C12 UNL     1       2.928  10.852  -0.059  1.00  0.00     0.014 C 
HETATM   20  C18 UNL     1       4.876  12.253   0.346  1.00  0.00     0.014 C 
HETATM   21  C13 UNL     1       3.811   9.635  -0.021  1.00  0.00    -0.041 C 
HETATM   22  C14 UNL     1       3.171   8.516  -0.846  1.00  0.00     0.015 C 
HETATM   23  C15 UNL     1       5.218   9.909  -0.446  1.00  0.00     0.018 C 
HETATM   24  C20 UNL     1       3.862   9.136   1.420  1.00  0.00     0.040 C 
HETATM   25  C16 UNL     1       5.744  11.022   0.434  1.00  0.00    -0.041 C 
HETATM   26  C17 UNL     1       7.137  11.333  -0.029  1.00  0.00     0.015 C 
HETATM   27  C19 UNL     1       5.776  10.586   1.865  1.00  0.00     0.040 C 
ENDBRANCH  14  16
ENDBRANCH  11  12
ENDBRANCH   8  11
ENDBRANCH   2   5
TORSDOF 4
ENDMDL
MODEL 2
REMARK VINA RESULT: -8.086089063      0.637      2.133
REMARK  4 active torsions:
REMARK  status: ('A' for Active; 'I' for Inactive)
REMARK    1  A    between atoms: C2_2  and  C4_5 
REMARK    2  A    between atoms: N2_8  and  C7_9 
REMARK    3  A    between atoms: C7_9  and  C8_10 
REMARK       I    between atoms: C8_10  and  N3_12 
REMARK    4  A    between atoms: N3_12  and  C9_14 
ROOT
HETATM    1  C1  UNL     1       6.259   4.827   9.671  1.00  0.00     0.026 C 
HETATM    2  C2  UNL     1       6.572   5.759   8.525  1.00  0.00     0.093 C 
HETATM    3  C3  UNL     1       8.034   5.717   8.337  1.00  0.00     0.064 C 
HETATM    4  N1  UNL     1       9.171   5.699   8.196  1.00  0.00    -0.197 NA
ENDROOT
BRANCH   2   5
HETATM    5  C4  UNL     1       5.878   5.347   7.247  1.00  0.00     0.006 C 
HETATM    6  C5  UNL     1       4.384   5.408   7.383  1.00  0.00     0.036 C 
HETATM    7  C6  UNL     1       4.006   6.852   7.140  1.00  0.00     0.273 C 
HETATM    8  N2  UNL     1       4.049   7.060   5.697  1.00  0.00     0.097 N 
HETATM    9  C21 UNL     1       5.276   6.571   5.123  1.00  0.00     0.273 C 
HETATM   10  C22 UNL     1       6.340   6.130   6.060  1.00  0.00     0.036 C 
BRANCH   8  11
HETATM   11  C7  UNL     1       3.995   8.501   5.527  1.00  0.00     0.374 C 
BRANCH  11  12
HETATM   12  C8  UNL     1       4.067   8.986   4.150  1.00  0.00     0.246 C 
HETATM   13  O1  UNL     1       2.963   8.967   3.507  1.00  0.00    -0.272 OA
HETATM   14  N3  UNL     1       5.208   9.449   3.505  1.00  0.00    -0.350 N 
ATOM     15  H3  UNL     1       6.081   9.453   4.032  1.00  0.00     0.163 HD
BRANCH  14  16
HETATM   16  C9  UNL     1       5.248   9.926   2.136  1.00  0.00     0.034 C 
HETATM   17  C10 UNL     1       6.621   9.926   1.544  1.00  0.00     0.035 C 
HETATM   18  C11 UNL     1       6.500  10.402   0.109  1.00  0.00    -0.011 C 
HETATM   19  C12 UNL     1       5.944  11.799   0.051  1.00  0.00     0.014 C 
HETATM   20  C18 UNL     1       5.623   9.516  -0.727  1.00  0.00     0.014 C 
HETATM   21  C13 UNL     1       4.553  11.786   0.624  1.00  0.00    -0.041 C 
HETATM   22  C14 UNL     1       4.016  13.217   0.690  1.00  0.00     0.015 C 
HETATM   23  C15 UNL     1       3.619  10.872  -0.105  1.00  0.00     0.018 C 
HETATM   24  C20 UNL     1       4.641  11.289   2.063  1.00  0.00     0.040 C 
HETATM   25  C16 UNL     1       4.248   9.495  -0.104  1.00  0.00    -0.041 C 
HETATM   26  C17 UNL     1       3.338   8.591  -0.882  1.00  0.00     0.015 C 
HETATM   27  C19 UNL     1       4.389   8.985   1.294  1.00  0.00     0.040 C 
ENDBRANCH  14  16
ENDBRANCH  11  12
ENDBRANCH   8  11
ENDBRANCH   2   5
TORSDOF 4
ENDMDL
MODEL 3
REMARK VINA RESULT: -8.055815739      1.701      2.287
REMARK  4 active torsions:
REMARK  status: ('A' for Active; 'I' for Inactive)
REMARK    1  A    between atoms: C2_2  and  C4_5 
REMARK    2  A    between atoms: N2_8  and  C7_9 
REMARK    3  A    between atoms: C7_9  and  C8_10 
REMARK       I    between atoms: C8_10  and  N3_12 
REMARK    4  A    between atoms: N3_12  and  C9_14 
ROOT
HETATM    1  C1  UNL     1       6.156   4.795   9.596  1.00  0.00     0.026 C 
HETATM    2  C2  UNL     1       6.445   5.796   8.504  1.00  0.00     0.093 C 
HETATM    3  C3  UNL     1       7.911   5.832   8.344  1.00  0.00     0.064 C 
HETATM    4  N1  UNL     1       9.050   5.875   8.227  1.00  0.00    -0.197 NA
ENDROOT
BRANCH   2   5
HETATM    5  C4  UNL     1       5.795   5.416   7.193  1.00  0.00     0.006 C 
HETATM    6  C5  UNL     1       4.325   5.723   7.194  1.00  0.00     0.036 C 
HETATM    7  C6  UNL     1       4.211   7.190   6.842  1.00  0.00     0.273 C 
HETATM    8  N2  UNL     1       4.401   7.293   5.400  1.00  0.00     0.097 N 
HETATM    9  C21 UNL     1       5.572   6.578   4.963  1.00  0.00     0.273 C 
HETATM   10  C22 UNL     1       6.471   6.036   6.012  1.00  0.00     0.036 C 
BRANCH   8  11
HETATM   11  C7  UNL     1       4.597   8.709   5.150  1.00  0.00     0.374 C 
BRANCH  11  12
HETATM   12  C8  UNL     1       4.099   9.209   3.870  1.00  0.00     0.246 C 
HETATM   13  O1  UNL     1       4.934   9.903   3.195  1.00  0.00    -0.272 OA
HETATM   14  N3  UNL     1       2.828   9.000   3.349  1.00  0.00    -0.350 N 
ATOM     15  H3  UNL     1       2.174   8.448   3.903  1.00  0.00     0.163 HD
BRANCH  14  16
HETATM   16  C9  UNL     1       2.363   9.510   2.073  1.00  0.00     0.034 C 
HETATM   17  C10 UNL     1       2.438  10.999   1.964  1.00  0.00     0.035 C 
HETATM   18  C11 UNL     1       1.967  11.379   0.572  1.00  0.00    -0.011 C 
HETATM   19  C12 UNL     1       0.544  10.944   0.350  1.00  0.00     0.014 C 
HETATM   20  C18 UNL     1       2.813  10.779  -0.514  1.00  0.00     0.014 C 
HETATM   21  C13 UNL     1       0.481   9.444   0.435  1.00  0.00    -0.041 C 
HETATM   22  C14 UNL     1      -0.977   8.989   0.337  1.00  0.00     0.015 C 
HETATM   23  C15 UNL     1       1.351   8.755  -0.568  1.00  0.00     0.018 C 
HETATM   24  C20 UNL     1       0.972   9.031   1.819  1.00  0.00     0.040 C 
HETATM   25  C16 UNL     1       2.758   9.278  -0.375  1.00  0.00    -0.041 C 
HETATM   26  C17 UNL     1       3.620   8.628  -1.417  1.00  0.00     0.015 C 
HETATM   27  C19 UNL     1       3.265   8.926   0.987  1.00  0.00     0.040 C 
ENDBRANCH  14  16
ENDBRANCH  11  12
ENDBRANCH   8  11
ENDBRANCH   2   5
TORSDOF 4
ENDMDL
MODEL 4
REMARK VINA RESULT: -8.044102115      1.734      3.105
REMARK  4 active torsions:
REMARK  status: ('A' for Active; 'I' for Inactive)
REMARK    1  A    between atoms: C2_2  and  C4_5 
REMARK    2  A    between atoms: N2_8  and  C7_9 
REMARK    3  A    between atoms: C7_9  and  C8_10 
REMARK       I    between atoms: C8_10  and  N3_12 
REMARK    4  A    between atoms: N3_12  and  C9_14 
ROOT
HETATM    1  C1  UNL     1       6.163   4.802   9.608  1.00  0.00     0.026 C 
HETATM    2  C2  UNL     1       6.461   5.797   8.512  1.00  0.00     0.093 C 
HETATM    3  C3  UNL     1       7.928   5.827   8.359  1.00  0.00     0.064 C 
HETATM    4  N1  UNL     1       9.067   5.865   8.247  1.00  0.00    -0.197 NA
ENDROOT
BRANCH   2   5
HETATM    5  C4  UNL     1       5.816   5.412   7.199  1.00  0.00     0.006 C 
HETATM    6  C5  UNL     1       4.349   5.733   7.187  1.00  0.00     0.036 C 
HETATM    7  C6  UNL     1       4.252   7.198   6.822  1.00  0.00     0.273 C 
HETATM    8  N2  UNL     1       4.453   7.286   5.380  1.00  0.00     0.097 N 
HETATM    9  C21 UNL     1       5.620   6.556   4.958  1.00  0.00     0.273 C 
HETATM   10  C22 UNL     1       6.507   6.014   6.018  1.00  0.00     0.036 C 
BRANCH   8  11
HETATM   11  C7  UNL     1       4.666   8.698   5.119  1.00  0.00     0.374 C 
BRANCH  11  12
HETATM   12  C8  UNL     1       4.186   9.191   3.830  1.00  0.00     0.246 C 
HETATM   13  O1  UNL     1       5.049   9.828   3.135  1.00  0.00    -0.272 OA
HETATM   14  N3  UNL     1       2.903   9.030   3.318  1.00  0.00    -0.350 N 
ATOM     15  H3  UNL     1       2.227   8.522   3.888  1.00  0.00     0.163 HD
BRANCH  14  16
HETATM   16  C9  UNL     1       2.457   9.531   2.032  1.00  0.00     0.034 C 
HETATM   17  C10 UNL     1       3.293   9.058   0.886  1.00  0.00     0.035 C 
HETATM   18  C11 UNL     1       2.685   9.621  -0.385  1.00  0.00    -0.011 C 
HETATM   19  C12 UNL     1       2.692  11.125  -0.364  1.00  0.00     0.014 C 
HETATM   20  C18 UNL     1       1.272   9.164  -0.607  1.00  0.00     0.014 C 
HETATM   21  C13 UNL     1       1.828  11.593   0.775  1.00  0.00    -0.041 C 
HETATM   22  C14 UNL     1       1.921  13.116   0.892  1.00  0.00     0.015 C 
HETATM   23  C15 UNL     1       0.411  11.126   0.677  1.00  0.00     0.018 C 
HETATM   24  C20 UNL     1       2.404  11.023   2.067  1.00  0.00     0.040 C 
HETATM   25  C16 UNL     1       0.443   9.616   0.570  1.00  0.00    -0.041 C 
HETATM   26  C17 UNL     1      -0.975   9.152   0.416  1.00  0.00     0.015 C 
HETATM   27  C19 UNL     1       1.037   9.017   1.804  1.00  0.00     0.040 C 
ENDBRANCH  14  16
ENDBRANCH  11  12
ENDBRANCH   8  11
ENDBRANCH   2   5
TORSDOF 4
ENDMDL
MODEL 5
REMARK VINA RESULT: -7.953554366      0.446      2.044
REMARK  4 active torsions:
REMARK  status: ('A' for Active; 'I' for Inactive)
REMARK    1  A    between atoms: C2_2  and  C4_5 
REMARK    2  A    between atoms: N2_8  and  C7_9 
REMARK    3  A    between atoms: C7_9  and  C8_10 
REMARK       I    between atoms: C8_10  and  N3_12 
REMARK    4  A    between atoms: N3_12  and  C9_14 
ROOT
HETATM    1  C1  UNL     1       6.250   4.814   9.651  1.00  0.00     0.026 C 
HETATM    2  C2  UNL     1       6.559   5.769   8.524  1.00  0.00     0.093 C 
HETATM    3  C3  UNL     1       8.025   5.769   8.361  1.00  0.00     0.064 C 
HETATM    4  N1  UNL     1       9.164   5.783   8.242  1.00  0.00    -0.197 NA
ENDROOT
BRANCH   2   5
HETATM    5  C4  UNL     1       5.899   5.357   7.228  1.00  0.00     0.006 C 
HETATM    6  C5  UNL     1       4.401   5.391   7.333  1.00  0.00     0.036 C 
HETATM    7  C6  UNL     1       4.004   6.831   7.094  1.00  0.00     0.273 C 
HETATM    8  N2  UNL     1       4.073   7.052   5.655  1.00  0.00     0.097 N 
HETATM    9  C21 UNL     1       5.320   6.590   5.102  1.00  0.00     0.273 C 
HETATM   10  C22 UNL     1       6.371   6.159   6.058  1.00  0.00     0.036 C 
BRANCH   8  11
HETATM   11  C7  UNL     1       3.997   8.493   5.496  1.00  0.00     0.374 C 
BRANCH  11  12
HETATM   12  C8  UNL     1       3.886   8.982   4.123  1.00  0.00     0.246 C 
HETATM   13  O1  UNL     1       2.776   8.727   3.542  1.00  0.00    -0.272 OA
HETATM   14  N3  UNL     1       4.864   9.676   3.420  1.00  0.00    -0.350 N 
ATOM     15  H3  UNL     1       5.745   9.867   3.898  1.00  0.00     0.163 HD
BRANCH  14  16
HETATM   16  C9  UNL     1       4.723  10.149   2.056  1.00  0.00     0.034 C 
HETATM   17  C10 UNL     1       4.176   9.118   1.121  1.00  0.00     0.035 C 
HETATM   18  C11 UNL     1       4.043   9.764  -0.245  1.00  0.00    -0.011 C 
HETATM   19  C12 UNL     1       5.382  10.224  -0.754  1.00  0.00     0.014 C 
HETATM   20  C18 UNL     1       3.115  10.945  -0.243  1.00  0.00     0.014 C 
HETATM   21  C13 UNL     1       5.914  11.279   0.177  1.00  0.00    -0.041 C 
HETATM   22  C14 UNL     1       7.330  11.670  -0.253  1.00  0.00     0.015 C 
HETATM   23  C15 UNL     1       5.017  12.471   0.298  1.00  0.00     0.018 C 
HETATM   24  C20 UNL     1       6.037  10.663   1.566  1.00  0.00     0.040 C 
HETATM   25  C16 UNL     1       3.657  11.965   0.727  1.00  0.00    -0.041 C 
HETATM   26  C17 UNL     1       2.744  13.154   0.796  1.00  0.00     0.015 C 
HETATM   27  C19 UNL     1       3.740  11.317   2.073  1.00  0.00     0.040 C 
ENDBRANCH  14  16
ENDBRANCH  11  12
ENDBRANCH   8  11
ENDBRANCH   2   5
TORSDOF 4
ENDMDL
