MODEL 1
REMARK VINA RESULT: -5.846210739      0.000      0.000
REMARK  4 active torsions:
REMARK  status: ('A' for Active; 'I' for Inactive)
REMARK    1  A    between atoms: C2_2  and  C4_4 
REMARK    2  A    between atoms: C4_4  and  C5_5 
REMARK    3  A    between atoms: C5_5  and  N1_6 
REMARK       I    between atoms: N2_11  and  C10_12 
REMARK    4  A    between atoms: C10_12  and  C11_14 
ROOT
HETATM    1  C5  UNL     1       5.498   9.669  -0.358  1.00  0.00     0.030 C 
HETATM    2  C8  UNL     1       5.876   8.234  -0.565  1.00  0.00     0.050 C 
HETATM    3  C9  UNL     1       5.412   7.621  -1.847  1.00  0.00     0.128 C 
HETATM    4  N2  UNL     1       5.471   8.441  -2.995  1.00  0.00    -0.350 N 
HETATM    5  C10 UNL     1       5.860   8.039  -4.300  1.00  0.00     0.251 C 
HETATM    6  O1  UNL     1       5.856   8.885  -5.264  1.00  0.00    -0.271 OA
HETATM    7  C21 UNL     1       5.100   9.837  -2.827  1.00  0.00     0.128 C 
HETATM    8  C22 UNL     1       5.931  10.338  -1.697  1.00  0.00     0.050 C 
ENDROOT
BRANCH   5   9
HETATM    9  C11 UNL     1       6.287   6.663  -4.649  1.00  0.00     0.282 C 
HETATM   10  N3  UNL     1       5.193   5.996  -5.317  1.00  0.00    -0.053 N 
HETATM   11  C12 UNL     1       5.693   5.268  -6.437  1.00  0.00     0.131 C 
ATOM     12  H32 UNL     1       4.656   5.406  -4.682  1.00  0.00     0.279 HD
ATOM     13  H31 UNL     1       4.450   6.643  -5.579  1.00  0.00     0.279 HD
HETATM   14  C13 UNL     1       4.789   5.426  -7.666  1.00  0.00     0.039 C 
HETATM   15  C17 UNL     1       5.766   3.808  -6.075  1.00  0.00     0.039 C 
HETATM   16  C18 UNL     1       7.028   5.820  -6.809  1.00  0.00     0.029 A 
HETATM   17  C14 UNL     1       3.904   4.226  -7.873  1.00  0.00     0.002 C 
HETATM   18  C15 UNL     1       3.306   3.841  -6.543  1.00  0.00     0.000 C 
HETATM   19  C16 UNL     1       4.423   3.271  -5.698  1.00  0.00     0.002 C 
HETATM   20  C19 UNL     1       8.230   5.618  -5.967  1.00  0.00     0.015 A 
HETATM   21  C20 UNL     1       7.323   6.800  -5.763  1.00  0.00     0.033 A 
ENDBRANCH   5   9
BRANCH   1  22
HETATM   22  C4  UNL     1       6.478  10.293   0.589  1.00  0.00     0.034 C 
BRANCH  22  23
HETATM   23  C2  UNL     1       6.994   9.541   1.726  1.00  0.00    -0.020 C 
HETATM   24  C1  UNL     1       6.112   9.288   2.889  1.00  0.00     0.009 C 
HETATM   25  C3  UNL     1       8.351   9.977   2.248  1.00  0.00     0.009 C 
ENDBRANCH  22  23
ENDBRANCH   1  22
BRANCH   1  26
HETATM   26  N1  UNL     1       4.170   9.922  -0.048  1.00  0.00    -0.412 N 
HETATM   27  C6  UNL     1       3.283   8.943   0.395  1.00  0.00     0.143 C 
HETATM   28  C7  UNL     1       3.691  11.228   0.176  1.00  0.00     0.143 C 
ENDBRANCH   1  26
TORSDOF 4
ENDMDL
MODEL 2
REMARK VINA RESULT: -5.734234054      7.597      9.894
REMARK  4 active torsions:
REMARK  status: ('A' for Active; 'I' for Inactive)
REMARK    1  A    between atoms: C2_2  and  C4_4 
REMARK    2  A    between atoms: C4_4  and  C5_5 
REMARK    3  A    between atoms: C5_5  and  N1_6 
REMARK       I    between atoms: N2_11  and  C10_12 
REMARK    4  A    between atoms: C10_12  and  C11_14 
ROOT
HETATM    1  C5  UNL     1      11.055  12.334   2.601  1.00  0.00     0.030 C 
HETATM    2  C8  UNL     1      10.088  11.444   1.883  1.00  0.00     0.050 C 
HETATM    3  C9  UNL     1       9.704  10.191   2.603  1.00  0.00     0.128 C 
HETATM    4  N2  UNL     1       9.517  10.300   3.998  1.00  0.00    -0.350 N 
HETATM    5  C10 UNL     1       8.506   9.661   4.766  1.00  0.00     0.251 C 
HETATM    6  O1  UNL     1       8.456   9.833   6.036  1.00  0.00    -0.271 OA
HETATM    7  C21 UNL     1      10.447  11.149   4.724  1.00  0.00     0.128 C 
HETATM    8  C22 UNL     1      10.423  12.461   4.020  1.00  0.00     0.050 C 
ENDROOT
BRANCH   5   9
HETATM    9  C11 UNL     1       7.465   8.778   4.191  1.00  0.00     0.282 C 
HETATM   10  N3  UNL     1       6.672   8.236   5.270  1.00  0.00    -0.053 N 
HETATM   11  C12 UNL     1       5.291   8.278   4.914  1.00  0.00     0.131 C 
ATOM     12  H32 UNL     1       6.973   7.298   5.536  1.00  0.00     0.279 HD
ATOM     13  H31 UNL     1       6.856   8.705   6.157  1.00  0.00     0.279 HD
HETATM   14  C13 UNL     1       4.418   8.744   6.085  1.00  0.00     0.039 C 
HETATM   15  C17 UNL     1       4.852   6.897   4.503  1.00  0.00     0.039 C 
HETATM   16  C18 UNL     1       5.110   9.273   3.818  1.00  0.00     0.029 A 
HETATM   17  C14 UNL     1       3.726   7.592   6.766  1.00  0.00     0.002 C 
HETATM   18  C15 UNL     1       4.732   6.488   6.970  1.00  0.00     0.000 C 
HETATM   19  C16 UNL     1       5.046   5.910   5.608  1.00  0.00     0.002 C 
HETATM   20  C19 UNL     1       5.599   9.030   2.441  1.00  0.00     0.015 A 
HETATM   21  C20 UNL     1       6.470   9.690   3.474  1.00  0.00     0.033 A 
ENDBRANCH   5   9
BRANCH   1  22
HETATM   22  C4  UNL     1      10.884  13.735   2.099  1.00  0.00     0.034 C 
BRANCH  22  23
HETATM   23  C2  UNL     1      10.712  13.999   0.676  1.00  0.00    -0.020 C 
HETATM   24  C1  UNL     1      11.909  14.126  -0.188  1.00  0.00     0.009 C 
HETATM   25  C3  UNL     1       9.751  15.119   0.320  1.00  0.00     0.009 C 
ENDBRANCH  22  23
ENDBRANCH   1  22
BRANCH   1  26
HETATM   26  N1  UNL     1      12.374  11.907   2.649  1.00  0.00    -0.412 N 
HETATM   27  C6  UNL     1      12.939  11.047   1.708  1.00  0.00     0.143 C 
HETATM   28  C7  UNL     1      13.343  12.558   3.437  1.00  0.00     0.143 C 
ENDBRANCH   1  26
TORSDOF 4
ENDMDL
MODEL 3
REMARK VINA RESULT: -5.702670870      4.343     10.000
REMARK  4 active torsions:
REMARK  status: ('A' for Active; 'I' for Inactive)
REMARK    1  A    between atoms: C2_2  and  C4_4 
REMARK    2  A    between atoms: C4_4  and  C5_5 
REMARK    3  A    between atoms: C5_5  and  N1_6 
REMARK       I    between atoms: N2_11  and  C10_12 
REMARK    4  A    between atoms: C10_12  and  C11_14 
ROOT
HETATM    1  C5  UNL     1       5.852   9.667   0.563  1.00  0.00     0.030 C 
HETATM    2  C8  UNL     1       6.730  10.732  -0.019  1.00  0.00     0.050 C 
HETATM    3  C9  UNL     1       7.641  11.418   0.947  1.00  0.00     0.128 C 
HETATM    4  N2  UNL     1       8.237  10.605   1.937  1.00  0.00    -0.350 N 
HETATM    5  C10 UNL     1       9.572  10.698   2.413  1.00  0.00     0.251 C 
HETATM    6  O1  UNL     1       9.985   9.903   3.331  1.00  0.00    -0.271 OA
HETATM    7  C21 UNL     1       7.405   9.569   2.527  1.00  0.00     0.128 C 
HETATM    8  C22 UNL     1       6.853   8.797   1.379  1.00  0.00     0.050 C 
ENDROOT
BRANCH   5   9
HETATM    9  C11 UNL     1      10.563  11.679   1.912  1.00  0.00     0.282 C 
HETATM   10  N3  UNL     1      10.754  12.696   2.919  1.00  0.00    -0.053 N 
HETATM   11  C12 UNL     1      12.145  12.990   3.040  1.00  0.00     0.131 C 
ATOM     12  H32 UNL     1      10.199  13.532   2.734  1.00  0.00     0.279 HD
ATOM     13  H31 UNL     1      10.336  12.438   3.813  1.00  0.00     0.279 HD
HETATM   14  C13 UNL     1      12.569  13.132   4.507  1.00  0.00     0.039 C 
HETATM   15  C17 UNL     1      12.433  14.284   2.326  1.00  0.00     0.039 C 
HETATM   16  C18 UNL     1      12.925  11.853   2.474  1.00  0.00     0.029 A 
HETATM   17  C14 UNL     1      12.706  14.575   4.917  1.00  0.00     0.002 C 
HETATM   18  C15 UNL     1      11.506  15.331   4.404  1.00  0.00     0.000 C 
HETATM   19  C16 UNL     1      11.639  15.414   2.900  1.00  0.00     0.002 C 
HETATM   20  C19 UNL     1      12.971  11.571   1.020  1.00  0.00     0.015 A 
HETATM   21  C20 UNL     1      11.913  10.964   1.900  1.00  0.00     0.033 A 
ENDBRANCH   5   9
BRANCH   1  22
HETATM   22  C4  UNL     1       5.476   8.706  -0.524  1.00  0.00     0.034 C 
BRANCH  22  23
HETATM   23  C2  UNL     1       4.812   9.174  -1.734  1.00  0.00    -0.020 C 
HETATM   24  C1  UNL     1       3.344   9.018  -1.862  1.00  0.00     0.009 C 
HETATM   25  C3  UNL     1       5.448   8.753  -3.046  1.00  0.00     0.009 C 
ENDBRANCH  22  23
ENDBRANCH   1  22
BRANCH   1  26
HETATM   26  N1  UNL     1       4.780  10.098   1.332  1.00  0.00    -0.412 N 
HETATM   27  C6  UNL     1       4.293  11.404   1.310  1.00  0.00     0.143 C 
HETATM   28  C7  UNL     1       3.883   9.196   1.937  1.00  0.00     0.143 C 
ENDBRANCH   1  26
TORSDOF 4
ENDMDL
MODEL 4
REMARK VINA RESULT: -5.626130777      5.982      8.823
REMARK  4 active torsions:
REMARK  status: ('A' for Active; 'I' for Inactive)
REMARK    1  A    between atoms: C2_2  and  C4_4 
REMARK    2  A    between atoms: C4_4  and  C5_5 
REMARK    3  A    between atoms: C5_5  and  N1_6 
REMARK       I    between atoms: N2_11  and  C10_12 
REMARK    4  A    between atoms: C10_12  and  C11_14 
ROOT
HETATM    1  C5  UNL     1       3.670  10.477   1.915  1.00  0.00     0.030 C 
HETATM    2  C8  UNL     1       2.257  10.823   2.273  1.00  0.00     0.050 C 
HETATM    3  C9  UNL     1       1.244  10.601   1.196  1.00  0.00     0.128 C 
HETATM    4  N2  UNL     1       1.410   9.443   0.405  1.00  0.00    -0.350 N 
HETATM    5  C10 UNL     1       0.377   8.587  -0.063  1.00  0.00     0.251 C 
HETATM    6  O1  UNL     1       0.664   7.569  -0.790  1.00  0.00    -0.271 OA
HETATM    7  C21 UNL     1       2.770   9.087   0.034  1.00  0.00     0.128 C 
HETATM    8  C22 UNL     1       3.536   9.047   1.311  1.00  0.00     0.050 C 
ENDROOT
BRANCH   5   9
HETATM    9  C11 UNL     1      -1.060   8.785   0.234  1.00  0.00     0.282 C 
HETATM   10  N3  UNL     1      -1.178   9.675   1.367  1.00  0.00    -0.053 N 
HETATM   11  C12 UNL     1      -2.215  10.623   1.121  1.00  0.00     0.131 C 
ATOM     12  H32 UNL     1      -1.318   9.169   2.242  1.00  0.00     0.279 HD
ATOM     13  H31 UNL     1      -0.292  10.123   1.598  1.00  0.00     0.279 HD
HETATM   14  C13 UNL     1      -1.807  12.035   1.559  1.00  0.00     0.039 C 
HETATM   15  C17 UNL     1      -3.442  10.214   1.891  1.00  0.00     0.039 C 
HETATM   16  C18 UNL     1      -2.469  10.683  -0.347  1.00  0.00     0.029 A 
HETATM   17  C14 UNL     1      -2.416  12.413   2.883  1.00  0.00     0.002 C 
HETATM   18  C15 UNL     1      -2.248  11.252   3.832  1.00  0.00     0.000 C 
HETATM   19  C16 UNL     1      -3.170  10.151   3.360  1.00  0.00     0.002 C 
HETATM   20  C19 UNL     1      -3.121   9.575  -1.083  1.00  0.00     0.015 A 
HETATM   21  C20 UNL     1      -1.628   9.625  -0.908  1.00  0.00     0.033 A 
ENDBRANCH   5   9
BRANCH   1  22
HETATM   22  C4  UNL     1       4.424  10.171   3.173  1.00  0.00     0.034 C 
BRANCH  22  23
HETATM   23  C2  UNL     1       4.539   8.801   3.657  1.00  0.00    -0.020 C 
HETATM   24  C1  UNL     1       3.665   8.347   4.764  1.00  0.00     0.009 C 
HETATM   25  C3  UNL     1       5.949   8.312   3.937  1.00  0.00     0.009 C 
ENDBRANCH  22  23
ENDBRANCH   1  22
BRANCH   1  26
HETATM   26  N1  UNL     1       4.326  11.350   1.060  1.00  0.00    -0.412 N 
HETATM   27  C6  UNL     1       3.992  12.698   0.932  1.00  0.00     0.143 C 
HETATM   28  C7  UNL     1       5.587  11.050   0.507  1.00  0.00     0.143 C 
ENDBRANCH   1  26
TORSDOF 4
ENDMDL
MODEL 5
REMARK VINA RESULT: -5.519723758      5.755     10.598
REMARK  4 active torsions:
REMARK  status: ('A' for Active; 'I' for Inactive)
REMARK    1  A    between atoms: C2_2  and  C4_4 
REMARK    2  A    between atoms: C4_4  and  C5_5 
REMARK    3  A    between atoms: C5_5  and  N1_6 
REMARK       I    between atoms: N2_11  and  C10_12 
REMARK    4  A    between atoms: C10_12  and  C11_14 
ROOT
HETATM    1  C5  UNL     1       3.397  10.155   1.049  1.00  0.00     0.030 C 
HETATM    2  C8  UNL     1       2.822  10.746   2.300  1.00  0.00     0.050 C 
HETATM    3  C9  UNL     1       1.429  11.276   2.185  1.00  0.00     0.128 C 
HETATM    4  N2  UNL     1       0.533  10.523   1.395  1.00  0.00    -0.350 N 
HETATM    5  C10 UNL     1      -0.836  10.271   1.680  1.00  0.00     0.251 C 
HETATM    6  O1  UNL     1      -1.547   9.580   0.867  1.00  0.00    -0.271 OA
HETATM    7  C21 UNL     1       1.060   9.946   0.169  1.00  0.00     0.128 C 
HETATM    8  C22 UNL     1       2.274   9.185   0.575  1.00  0.00     0.050 C 
ENDROOT
BRANCH   5   9
HETATM    9  C11 UNL     1      -1.532  10.763   2.892  1.00  0.00     0.282 C 
HETATM   10  N3  UNL     1      -1.952  12.127   2.661  1.00  0.00    -0.053 N 
HETATM   11  C12 UNL     1      -3.280  12.305   3.150  1.00  0.00     0.131 C 
ATOM     12  H32 UNL     1      -1.300  12.803   3.059  1.00  0.00     0.279 HD
ATOM     13  H31 UNL     1      -1.862  12.396   1.681  1.00  0.00     0.279 HD
HETATM   14  C13 UNL     1      -4.136  13.126   2.179  1.00  0.00     0.039 C 
HETATM   15  C17 UNL     1      -3.219  13.027   4.470  1.00  0.00     0.039 C 
HETATM   16  C18 UNL     1      -3.928  10.968   3.272  1.00  0.00     0.029 A 
HETATM   17  C14 UNL     1      -4.279  14.558   2.625  1.00  0.00     0.002 C 
HETATM   18  C15 UNL     1      -2.921  15.063   3.043  1.00  0.00     0.000 C 
HETATM   19  C16 UNL     1      -2.561  14.362   4.334  1.00  0.00     0.002 C 
HETATM   20  C19 UNL     1      -3.530   9.988   4.309  1.00  0.00     0.015 A 
HETATM   21  C20 UNL     1      -2.861  10.014   2.962  1.00  0.00     0.033 A 
ENDBRANCH   5   9
BRANCH   1  22
HETATM   22  C4  UNL     1       4.465   9.173   1.426  1.00  0.00     0.034 C 
BRANCH  22  23
HETATM   23  C2  UNL     1       5.617   9.595   2.213  1.00  0.00    -0.020 C 
HETATM   24  C1  UNL     1       6.919   9.806   1.538  1.00  0.00     0.009 C 
HETATM   25  C3  UNL     1       5.868   8.815   3.491  1.00  0.00     0.009 C 
ENDBRANCH  22  23
ENDBRANCH   1  22
BRANCH   1  26
HETATM   26  N1  UNL     1       3.774  11.049   0.056  1.00  0.00    -0.412 N 
HETATM   27  C6  UNL     1       4.009  12.403   0.290  1.00  0.00     0.143 C 
HETATM   28  C7  UNL     1       4.280  10.617  -1.185  1.00  0.00     0.143 C 
ENDBRANCH   1  26
TORSDOF 4
ENDMDL
