MODEL 1
REMARK VINA RESULT: -10.948831034      0.000      0.000
REMARK  8 active torsions:
REMARK  status: ('A' for Active; 'I' for Inactive)
REMARK    1  A    between atoms: C1_2  and  C2_3 
REMARK    2  A    between atoms: C1_2  and  C5_9 
REMARK    3  A    between atoms: C2_3  and  C3_4 
REMARK    4  A    between atoms: C3_4  and  C4_5 
REMARK       I    between atoms: C5_9  and  N1_11 
REMARK    5  A    between atoms: C8_14  and  C9_15 
REMARK       I    between atoms: C9_15  and  N2_17 
REMARK       I    between atoms: N2_17  and  C10_19 
REMARK    6  A    between atoms: C10_19  and  C11_21 
REMARK    7  A    between atoms: C16_27  and  C17_28 
REMARK       I    between atoms: C17_28  and  N3_30 
REMARK    8  A    between atoms: N4_33  and  C20_34 
ROOT
HETATM    1  C9  UNL     1       3.457  -4.079  -9.007  1.00  0.00     0.228 C 
HETATM    2  O3  UNL     1       2.300  -3.647  -8.936  1.00  0.00    -0.273 OA
HETATM    3  N2  UNL     1       4.516  -3.343  -9.550  1.00  0.00    -0.297 N 
ATOM      4  H2  UNL     1       5.420  -3.817  -9.542  1.00  0.00     0.171 HD
HETATM    5  C10 UNL     1       4.528  -2.056 -10.103  1.00  0.00     0.236 C 
HETATM    6  O4  UNL     1       5.662  -1.662 -10.571  1.00  0.00    -0.272 OA
ENDROOT
BRANCH   5   7
HETATM    7  C11 UNL     1       3.347  -1.217 -10.144  1.00  0.00     0.160 C 
HETATM    8  C12 UNL     1       3.620   0.228  -9.959  1.00  0.00     0.140 C 
HETATM    9  O5  UNL     1       4.722   0.671  -9.944  1.00  0.00    -0.297 OA
HETATM   10  C13 UNL     1       2.435   1.101  -9.791  1.00  0.00     0.079 C 
HETATM   11  C14 UNL     1       1.226   0.191  -9.822  1.00  0.00     0.008 C 
HETATM   12  C15 UNL     1       1.162  -0.710 -11.019  1.00  0.00     0.015 C 
HETATM   13  C16 UNL     1       2.454  -1.422 -11.348  1.00  0.00     0.098 C 
BRANCH  13  14
HETATM   14  C17 UNL     1       3.003  -0.909 -12.596  1.00  0.00     0.225 C 
HETATM   15  O6  UNL     1       3.117   0.328 -12.759  1.00  0.00    -0.273 OA
HETATM   16  N3  UNL     1       3.432  -1.711 -13.678  1.00  0.00    -0.349 N 
HETATM   17  C18 UNL     1       3.335  -3.154 -13.551  1.00  0.00     0.145 C 
HETATM   18  C27 UNL     1       3.964  -1.189 -14.916  1.00  0.00     0.145 C 
HETATM   19  C19 UNL     1       4.544  -3.857 -14.084  1.00  0.00     0.143 C 
HETATM   20  N4  UNL     1       5.072  -3.269 -15.302  1.00  0.00    -0.378 N 
HETATM   21  C26 UNL     1       5.309  -1.830 -15.225  1.00  0.00     0.143 C 
BRANCH  20  22
HETATM   22  C20 UNL     1       5.334  -3.967 -16.484  1.00  0.00     0.030 A 
HETATM   23  C21 UNL     1       5.265  -3.365 -17.719  1.00  0.00     0.029 A 
HETATM   24  C22 UNL     1       5.509  -4.060 -18.910  1.00  0.00     0.002 A 
HETATM   25  C23 UNL     1       5.830  -5.398 -18.845  1.00  0.00     0.000 A 
HETATM   26  C24 UNL     1       5.907  -6.028 -17.626  1.00  0.00     0.002 A 
HETATM   27  C25 UNL     1       5.657  -5.301 -16.464  1.00  0.00     0.029 A 
ENDBRANCH  20  22
ENDBRANCH  13  14
ENDBRANCH   5   7
BRANCH   1  28
HETATM   28  C8  UNL     1       3.678  -5.467  -8.468  1.00  0.00     0.081 C 
HETATM   29  C7  UNL     1       2.642  -6.365  -9.128  1.00  0.00     0.034 C 
HETATM   30  C6  UNL     1       2.715  -7.709  -8.404  1.00  0.00     0.127 C 
HETATM   31  N1  UNL     1       4.071  -8.181  -8.498  1.00  0.00    -0.346 N 
HETATM   32  C5  UNL     1       4.477  -9.346  -7.829  1.00  0.00     0.289 C 
HETATM   33  C29 UNL     1       5.003  -7.400  -9.321  1.00  0.00     0.127 C 
HETATM   34  O2  UNL     1       5.685  -9.693  -7.949  1.00  0.00    -0.264 OA
HETATM   35  C28 UNL     1       5.048  -5.979  -8.787  1.00  0.00     0.034 C 
BRANCH  32  36
HETATM   36  C1  UNL     1       3.572 -10.130  -7.035  1.00  0.00     0.216 C 
HETATM   37  O1  UNL     1       3.688 -10.214  -5.802  1.00  0.00    -0.287 OA
BRANCH  36  38
HETATM   38  C2  UNL     1       2.474 -10.852  -7.704  1.00  0.00     0.098 C 
BRANCH  38  39
HETATM   39  C3  UNL     1       2.949 -11.691  -8.844  1.00  0.00     0.125 C 
BRANCH  39  40
HETATM   40  C4  UNL     1       1.897 -12.652  -9.297  1.00  0.00     0.388 C 
HETATM   41  F1  UNL     1       0.717 -12.388  -8.635  1.00  0.00    -0.171 F 
HETATM   42  F2  UNL     1       2.275 -13.953  -8.910  1.00  0.00    -0.171 F 
HETATM   43  F3  UNL     1       1.735 -12.582 -10.642  1.00  0.00    -0.171 F 
ENDBRANCH  39  40
ENDBRANCH  38  39
ENDBRANCH  36  38
ENDBRANCH  32  36
ENDBRANCH   1  28
TORSDOF 8
ENDMDL
MODEL 2
REMARK VINA RESULT: -10.624804789      0.784      1.068
REMARK  8 active torsions:
REMARK  status: ('A' for Active; 'I' for Inactive)
REMARK    1  A    between atoms: C1_2  and  C2_3 
REMARK    2  A    between atoms: C1_2  and  C5_9 
REMARK    3  A    between atoms: C2_3  and  C3_4 
REMARK    4  A    between atoms: C3_4  and  C4_5 
REMARK       I    between atoms: C5_9  and  N1_11 
REMARK    5  A    between atoms: C8_14  and  C9_15 
REMARK       I    between atoms: C9_15  and  N2_17 
REMARK       I    between atoms: N2_17  and  C10_19 
REMARK    6  A    between atoms: C10_19  and  C11_21 
REMARK    7  A    between atoms: C16_27  and  C17_28 
REMARK       I    between atoms: C17_28  and  N3_30 
REMARK    8  A    between atoms: N4_33  and  C20_34 
ROOT
HETATM    1  C9  UNL     1       3.490  -3.930  -9.039  1.00  0.00     0.228 C 
HETATM    2  O3  UNL     1       2.322  -3.523  -8.990  1.00  0.00    -0.273 OA
HETATM    3  N2  UNL     1       4.541  -3.173  -9.567  1.00  0.00    -0.297 N 
ATOM      4  H2  UNL     1       5.454  -3.627  -9.541  1.00  0.00     0.171 HD
HETATM    5  C10 UNL     1       4.535  -1.888 -10.123  1.00  0.00     0.236 C 
HETATM    6  O4  UNL     1       5.667  -1.470 -10.573  1.00  0.00    -0.272 OA
ENDROOT
BRANCH   5   7
HETATM    7  C11 UNL     1       3.337  -1.074 -10.188  1.00  0.00     0.160 C 
HETATM    8  C12 UNL     1       3.579   0.380 -10.036  1.00  0.00     0.140 C 
HETATM    9  O5  UNL     1       4.671   0.846 -10.029  1.00  0.00    -0.297 OA
HETATM   10  C13 UNL     1       2.375   1.232  -9.892  1.00  0.00     0.079 C 
HETATM   11  C14 UNL     1       1.185   0.295  -9.906  1.00  0.00     0.008 C 
HETATM   12  C15 UNL     1       1.144  -0.634 -11.081  1.00  0.00     0.015 C 
HETATM   13  C16 UNL     1       2.452  -1.327 -11.389  1.00  0.00     0.098 C 
BRANCH  13  14
HETATM   14  C17 UNL     1       2.994  -0.832 -12.648  1.00  0.00     0.225 C 
HETATM   15  O6  UNL     1       3.101   0.402 -12.832  1.00  0.00    -0.273 OA
HETATM   16  N3  UNL     1       3.424  -1.650 -13.718  1.00  0.00    -0.349 N 
HETATM   17  C18 UNL     1       3.335  -3.091 -13.566  1.00  0.00     0.145 C 
HETATM   18  C27 UNL     1       3.949  -1.146 -14.965  1.00  0.00     0.145 C 
HETATM   19  C19 UNL     1       4.546  -3.797 -14.091  1.00  0.00     0.143 C 
HETATM   20  N4  UNL     1       5.066  -3.226 -15.320  1.00  0.00    -0.378 N 
HETATM   21  C26 UNL     1       5.296  -1.786 -15.268  1.00  0.00     0.143 C 
BRANCH  20  22
HETATM   22  C20 UNL     1       5.328  -3.943 -16.491  1.00  0.00     0.030 A 
HETATM   23  C21 UNL     1       5.260  -3.361 -17.735  1.00  0.00     0.029 A 
HETATM   24  C22 UNL     1       5.503  -4.075 -18.915  1.00  0.00     0.002 A 
HETATM   25  C23 UNL     1       5.824  -5.411 -18.829  1.00  0.00     0.000 A 
HETATM   26  C24 UNL     1       5.900  -6.022 -17.601  1.00  0.00     0.002 A 
HETATM   27  C25 UNL     1       5.651  -5.277 -16.451  1.00  0.00     0.029 A 
ENDBRANCH  20  22
ENDBRANCH  13  14
ENDBRANCH   5   7
BRANCH   1  28
HETATM   28  C8  UNL     1       3.731  -5.311  -8.491  1.00  0.00     0.081 C 
HETATM   29  C7  UNL     1       2.753  -6.241  -9.196  1.00  0.00     0.034 C 
HETATM   30  C6  UNL     1       2.838  -7.583  -8.470  1.00  0.00     0.127 C 
HETATM   31  N1  UNL     1       4.211  -8.011  -8.506  1.00  0.00    -0.346 N 
HETATM   32  C5  UNL     1       4.626  -9.164  -7.821  1.00  0.00     0.289 C 
HETATM   33  C29 UNL     1       5.153  -7.200  -9.288  1.00  0.00     0.127 C 
HETATM   34  O2  UNL     1       5.848  -9.472  -7.888  1.00  0.00    -0.264 OA
HETATM   35  C28 UNL     1       5.129  -5.778  -8.752  1.00  0.00     0.034 C 
BRANCH  32  36
HETATM   36  C1  UNL     1       3.712  -9.978  -7.066  1.00  0.00     0.216 C 
HETATM   37  O1  UNL     1       3.662  -9.928  -5.827  1.00  0.00    -0.287 OA
BRANCH  36  38
HETATM   38  C2  UNL     1       2.809 -10.895  -7.785  1.00  0.00     0.098 C 
BRANCH  38  39
HETATM   39  C3  UNL     1       1.376 -10.697  -7.414  1.00  0.00     0.125 C 
BRANCH  39  40
HETATM   40  C4  UNL     1       0.800 -11.917  -6.771  1.00  0.00     0.388 C 
HETATM   41  F1  UNL     1      -0.570 -11.788  -6.683  1.00  0.00    -0.171 F 
HETATM   42  F2  UNL     1       1.267 -11.994  -5.445  1.00  0.00    -0.171 F 
HETATM   43  F3  UNL     1       1.147 -13.031  -7.465  1.00  0.00    -0.171 F 
ENDBRANCH  39  40
ENDBRANCH  38  39
ENDBRANCH  36  38
ENDBRANCH  32  36
ENDBRANCH   1  28
TORSDOF 8
ENDMDL
MODEL 3
REMARK VINA RESULT: -10.478561569      0.935      1.441
REMARK  8 active torsions:
REMARK  status: ('A' for Active; 'I' for Inactive)
REMARK    1  A    between atoms: C1_2  and  C2_3 
REMARK    2  A    between atoms: C1_2  and  C5_9 
REMARK    3  A    between atoms: C2_3  and  C3_4 
REMARK    4  A    between atoms: C3_4  and  C4_5 
REMARK       I    between atoms: C5_9  and  N1_11 
REMARK    5  A    between atoms: C8_14  and  C9_15 
REMARK       I    between atoms: C9_15  and  N2_17 
REMARK       I    between atoms: N2_17  and  C10_19 
REMARK    6  A    between atoms: C10_19  and  C11_21 
REMARK    7  A    between atoms: C16_27  and  C17_28 
REMARK       I    between atoms: C17_28  and  N3_30 
REMARK    8  A    between atoms: N4_33  and  C20_34 
ROOT
HETATM    1  C9  UNL     1       3.285  -5.052  -9.586  1.00  0.00     0.228 C 
HETATM    2  O3  UNL     1       2.151  -4.565  -9.498  1.00  0.00    -0.273 OA
HETATM    3  N2  UNL     1       4.433  -4.282  -9.803  1.00  0.00    -0.297 N 
ATOM      4  H2  UNL     1       5.304  -4.811  -9.849  1.00  0.00     0.171 HD
HETATM    5  C10 UNL     1       4.572  -2.898  -9.965  1.00  0.00     0.236 C 
HETATM    6  O4  UNL     1       5.768  -2.482 -10.200  1.00  0.00    -0.272 OA
ENDROOT
BRANCH   5   7
HETATM    7  C11 UNL     1       3.448  -1.988  -9.871  1.00  0.00     0.160 C 
HETATM    8  C12 UNL     1       3.820  -0.595  -9.530  1.00  0.00     0.140 C 
HETATM    9  O5  UNL     1       4.949  -0.226  -9.500  1.00  0.00    -0.297 OA
HETATM   10  C13 UNL     1       2.700   0.326  -9.223  1.00  0.00     0.079 C 
HETATM   11  C14 UNL     1       1.433  -0.498  -9.320  1.00  0.00     0.008 C 
HETATM   12  C15 UNL     1       1.279  -1.246 -10.609  1.00  0.00     0.015 C 
HETATM   13  C16 UNL     1       2.513  -1.994 -11.060  1.00  0.00     0.098 C 
BRANCH  13  14
HETATM   14  C17 UNL     1       3.063  -1.374 -12.258  1.00  0.00     0.225 C 
HETATM   15  O6  UNL     1       3.187  -0.129 -12.309  1.00  0.00    -0.273 OA
HETATM   16  N3  UNL     1       3.482  -2.078 -13.411  1.00  0.00    -0.349 N 
HETATM   17  C18 UNL     1       3.373  -3.526 -13.415  1.00  0.00     0.145 C 
HETATM   18  C27 UNL     1       4.014  -1.450 -14.597  1.00  0.00     0.145 C 
HETATM   19  C19 UNL     1       4.574  -4.187 -14.015  1.00  0.00     0.143 C 
HETATM   20  N4  UNL     1       5.103  -3.495 -15.176  1.00  0.00    -0.378 N 
HETATM   21  C26 UNL     1       5.353  -2.072 -14.969  1.00  0.00     0.143 C 
BRANCH  20  22
HETATM   22  C20 UNL     1       5.356  -4.085 -16.417  1.00  0.00     0.030 A 
HETATM   23  C21 UNL     1       5.285  -3.373 -17.592  1.00  0.00     0.029 A 
HETATM   24  C22 UNL     1       5.520  -3.959 -18.842  1.00  0.00     0.002 A 
HETATM   25  C23 UNL     1       5.833  -5.299 -18.901  1.00  0.00     0.000 A 
HETATM   26  C24 UNL     1       5.911  -6.037 -17.744  1.00  0.00     0.002 A 
HETATM   27  C25 UNL     1       5.671  -5.417 -16.520  1.00  0.00     0.029 A 
ENDBRANCH  20  22
ENDBRANCH  13  14
ENDBRANCH   5   7
BRANCH   1  28
HETATM   28  C8  UNL     1       3.373  -6.548  -9.445  1.00  0.00     0.081 C 
HETATM   29  C7  UNL     1       4.853  -6.902  -9.429  1.00  0.00     0.034 C 
HETATM   30  C6  UNL     1       4.931  -8.425  -9.527  1.00  0.00     0.127 C 
HETATM   31  N1  UNL     1       4.168  -8.971  -8.435  1.00  0.00    -0.346 N 
HETATM   32  C5  UNL     1       3.960 -10.354  -8.321  1.00  0.00     0.289 C 
HETATM   33  C29 UNL     1       3.624  -8.026  -7.451  1.00  0.00     0.127 C 
HETATM   34  O2  UNL     1       3.271 -10.759  -7.344  1.00  0.00    -0.264 OA
HETATM   35  C28 UNL     1       2.738  -7.027  -8.176  1.00  0.00     0.034 C 
BRANCH  32  36
HETATM   36  C1  UNL     1       4.501 -11.292  -9.266  1.00  0.00     0.216 C 
HETATM   37  O1  UNL     1       5.704 -11.598  -9.268  1.00  0.00    -0.287 OA
BRANCH  36  38
HETATM   38  C2  UNL     1       3.602 -11.906 -10.260  1.00  0.00     0.098 C 
BRANCH  38  39
HETATM   39  C3  UNL     1       2.186 -11.455 -10.110  1.00  0.00     0.125 C 
BRANCH  39  40
HETATM   40  C4  UNL     1       1.299 -12.566  -9.652  1.00  0.00     0.388 C 
HETATM   41  F1  UNL     1       0.615 -12.173  -8.521  1.00  0.00    -0.171 F 
HETATM   42  F2  UNL     1       2.102 -13.655  -9.259  1.00  0.00    -0.171 F 
HETATM   43  F3  UNL     1       0.446 -12.934 -10.641  1.00  0.00    -0.171 F 
ENDBRANCH  39  40
ENDBRANCH  38  39
ENDBRANCH  36  38
ENDBRANCH  32  36
ENDBRANCH   1  28
TORSDOF 8
ENDMDL
MODEL 4
REMARK VINA RESULT: -10.201297590      1.150      1.642
REMARK  8 active torsions:
REMARK  status: ('A' for Active; 'I' for Inactive)
REMARK    1  A    between atoms: C1_2  and  C2_3 
REMARK    2  A    between atoms: C1_2  and  C5_9 
REMARK    3  A    between atoms: C2_3  and  C3_4 
REMARK    4  A    between atoms: C3_4  and  C4_5 
REMARK       I    between atoms: C5_9  and  N1_11 
REMARK    5  A    between atoms: C8_14  and  C9_15 
REMARK       I    between atoms: C9_15  and  N2_17 
REMARK       I    between atoms: N2_17  and  C10_19 
REMARK    6  A    between atoms: C10_19  and  C11_21 
REMARK    7  A    between atoms: C16_27  and  C17_28 
REMARK       I    between atoms: C17_28  and  N3_30 
REMARK    8  A    between atoms: N4_33  and  C20_34 
ROOT
HETATM    1  C9  UNL     1       2.451  -4.624  -9.118  1.00  0.00     0.228 C 
HETATM    2  O3  UNL     1       1.487  -3.872  -8.934  1.00  0.00    -0.273 OA
HETATM    3  N2  UNL     1       3.650  -4.202  -9.703  1.00  0.00    -0.297 N 
ATOM      4  H2  UNL     1       4.365  -4.924  -9.790  1.00  0.00     0.171 HD
HETATM    5  C10 UNL     1       4.020  -2.941 -10.188  1.00  0.00     0.236 C 
HETATM    6  O4  UNL     1       5.190  -2.871 -10.723  1.00  0.00    -0.272 OA
ENDROOT
BRANCH   5   7
HETATM    7  C11 UNL     1       3.150  -1.786 -10.094  1.00  0.00     0.160 C 
HETATM    8  C12 UNL     1       3.835  -0.540  -9.676  1.00  0.00     0.140 C 
HETATM    9  O5  UNL     1       5.017  -0.462  -9.588  1.00  0.00    -0.297 OA
HETATM   10  C13 UNL     1       2.961   0.616  -9.369  1.00  0.00     0.079 C 
HETATM   11  C14 UNL     1       1.537   0.134  -9.550  1.00  0.00     0.008 C 
HETATM   12  C15 UNL     1       1.266  -0.507 -10.877  1.00  0.00     0.015 C 
HETATM   13  C16 UNL     1       2.299  -1.520 -11.316  1.00  0.00     0.098 C 
BRANCH  13  14
HETATM   14  C17 UNL     1       3.039  -1.012 -12.464  1.00  0.00     0.225 C 
HETATM   15  O6  UNL     1       3.336   0.203 -12.519  1.00  0.00    -0.273 OA
HETATM   16  N3  UNL     1       3.466  -1.797 -13.559  1.00  0.00    -0.349 N 
HETATM   17  C18 UNL     1       3.161  -3.217 -13.553  1.00  0.00     0.145 C 
HETATM   18  C27 UNL     1       4.189  -1.280 -14.697  1.00  0.00     0.145 C 
HETATM   19  C19 UNL     1       4.313  -4.050 -14.023  1.00  0.00     0.143 C 
HETATM   20  N4  UNL     1       5.039  -3.467 -15.136  1.00  0.00    -0.378 N 
HETATM   21  C26 UNL     1       5.460  -2.085 -14.926  1.00  0.00     0.143 C 
BRANCH  20  22
HETATM   22  C20 UNL     1       5.326  -4.120 -16.338  1.00  0.00     0.030 A 
HETATM   23  C21 UNL     1       5.252  -3.479 -17.553  1.00  0.00     0.029 A 
HETATM   24  C22 UNL     1       5.521  -4.129 -18.764  1.00  0.00     0.002 A 
HETATM   25  C23 UNL     1       5.872  -5.460 -18.741  1.00  0.00     0.000 A 
HETATM   26  C24 UNL     1       5.955  -6.128 -17.543  1.00  0.00     0.002 A 
HETATM   27  C25 UNL     1       5.680  -5.446 -16.360  1.00  0.00     0.029 A 
ENDBRANCH  20  22
ENDBRANCH  13  14
ENDBRANCH   5   7
BRANCH   1  28
HETATM   28  C8  UNL     1       2.271  -6.050  -8.670  1.00  0.00     0.081 C 
HETATM   29  C7  UNL     1       3.649  -6.697  -8.695  1.00  0.00     0.034 C 
HETATM   30  C6  UNL     1       3.424  -8.192  -8.473  1.00  0.00     0.127 C 
HETATM   31  N1  UNL     1       2.708  -8.345  -7.234  1.00  0.00    -0.346 N 
HETATM   32  C5  UNL     1       2.258  -9.606  -6.813  1.00  0.00     0.289 C 
HETATM   33  C29 UNL     1       2.475  -7.137  -6.434  1.00  0.00     0.127 C 
HETATM   34  O2  UNL     1       1.626  -9.662  -5.721  1.00  0.00    -0.264 OA
HETATM   35  C28 UNL     1       1.713  -6.132  -7.283  1.00  0.00     0.034 C 
BRANCH  32  36
HETATM   36  C1  UNL     1       2.494 -10.800  -7.577  1.00  0.00     0.216 C 
HETATM   37  O1  UNL     1       3.641 -11.166  -7.881  1.00  0.00    -0.287 OA
BRANCH  36  38
HETATM   38  C2  UNL     1       1.343 -11.613  -8.012  1.00  0.00     0.098 C 
BRANCH  38  39
HETATM   39  C3  UNL     1       1.711 -12.621  -9.050  1.00  0.00     0.125 C 
BRANCH  39  40
HETATM   40  C4  UNL     1       1.368 -12.146 -10.424  1.00  0.00     0.388 C 
HETATM   41  F1  UNL     1       2.502 -12.146 -11.208  1.00  0.00    -0.171 F 
HETATM   42  F2  UNL     1       0.949 -10.803 -10.349  1.00  0.00    -0.171 F 
HETATM   43  F3  UNL     1       0.394 -12.920 -10.967  1.00  0.00    -0.171 F 
ENDBRANCH  39  40
ENDBRANCH  38  39
ENDBRANCH  36  38
ENDBRANCH  32  36
ENDBRANCH   1  28
TORSDOF 8
ENDMDL
MODEL 5
REMARK VINA RESULT: -10.155582550      0.973      1.283
REMARK  8 active torsions:
REMARK  status: ('A' for Active; 'I' for Inactive)
REMARK    1  A    between atoms: C1_2  and  C2_3 
REMARK    2  A    between atoms: C1_2  and  C5_9 
REMARK    3  A    between atoms: C2_3  and  C3_4 
REMARK    4  A    between atoms: C3_4  and  C4_5 
REMARK       I    between atoms: C5_9  and  N1_11 
REMARK    5  A    between atoms: C8_14  and  C9_15 
REMARK       I    between atoms: C9_15  and  N2_17 
REMARK       I    between atoms: N2_17  and  C10_19 
REMARK    6  A    between atoms: C10_19  and  C11_21 
REMARK    7  A    between atoms: C16_27  and  C17_28 
REMARK       I    between atoms: C17_28  and  N3_30 
REMARK    8  A    between atoms: N4_33  and  C20_34 
ROOT
HETATM    1  C9  UNL     1       2.838  -4.538  -8.826  1.00  0.00     0.228 C 
HETATM    2  O3  UNL     1       1.842  -3.837  -8.611  1.00  0.00    -0.273 OA
HETATM    3  N2  UNL     1       3.947  -4.089  -9.552  1.00  0.00    -0.297 N 
ATOM      4  H2  UNL     1       4.702  -4.767  -9.650  1.00  0.00     0.171 HD
HETATM    5  C10 UNL     1       4.180  -2.851 -10.165  1.00  0.00     0.236 C 
HETATM    6  O4  UNL     1       5.290  -2.751 -10.811  1.00  0.00    -0.272 OA
ENDROOT
BRANCH   5   7
HETATM    7  C11 UNL     1       3.241  -1.751 -10.079  1.00  0.00     0.160 C 
HETATM    8  C12 UNL     1       3.854  -0.455  -9.707  1.00  0.00     0.140 C 
HETATM    9  O5  UNL     1       5.030  -0.300  -9.648  1.00  0.00    -0.297 OA
HETATM   10  C13 UNL     1       2.915   0.652  -9.408  1.00  0.00     0.079 C 
HETATM   11  C14 UNL     1       1.521   0.076  -9.545  1.00  0.00     0.008 C 
HETATM   12  C15 UNL     1       1.263  -0.615 -10.850  1.00  0.00     0.015 C 
HETATM   13  C16 UNL     1       2.348  -1.571 -11.288  1.00  0.00     0.098 C 
BRANCH  13  14
HETATM   14  C17 UNL     1       3.031  -1.047 -12.464  1.00  0.00     0.225 C 
HETATM   15  O6  UNL     1       3.280   0.178 -12.539  1.00  0.00    -0.273 OA
HETATM   16  N3  UNL     1       3.450  -1.825 -13.567  1.00  0.00    -0.349 N 
HETATM   17  C18 UNL     1       3.199  -3.255 -13.539  1.00  0.00     0.145 C 
HETATM   18  C27 UNL     1       4.115  -1.292 -14.732  1.00  0.00     0.145 C 
HETATM   19  C19 UNL     1       4.364  -4.049 -14.041  1.00  0.00     0.143 C 
HETATM   20  N4  UNL     1       5.031  -3.450 -15.182  1.00  0.00    -0.378 N 
HETATM   21  C26 UNL     1       5.406  -2.052 -14.998  1.00  0.00     0.143 C 
BRANCH  20  22
HETATM   22  C20 UNL     1       5.302  -4.103 -16.389  1.00  0.00     0.030 A 
HETATM   23  C21 UNL     1       5.682  -5.424 -16.435  1.00  0.00     0.029 A 
HETATM   24  C22 UNL     1       5.972  -6.081 -17.637  1.00  0.00     0.002 A 
HETATM   25  C23 UNL     1       5.874  -5.381 -18.819  1.00  0.00     0.000 A 
HETATM   26  C24 UNL     1       5.497  -4.059 -18.805  1.00  0.00     0.002 A 
HETATM   27  C25 UNL     1       5.217  -3.441 -17.589  1.00  0.00     0.029 A 
ENDBRANCH  20  22
ENDBRANCH  13  14
ENDBRANCH   5   7
BRANCH   1  28
HETATM   28  C8  UNL     1       2.802  -5.930  -8.254  1.00  0.00     0.081 C 
HETATM   29  C7  UNL     1       1.718  -6.687  -9.008  1.00  0.00     0.034 C 
HETATM   30  C6  UNL     1       1.524  -8.009  -8.267  1.00  0.00     0.127 C 
HETATM   31  N1  UNL     1       2.800  -8.672  -8.219  1.00  0.00    -0.346 N 
HETATM   32  C5  UNL     1       2.966  -9.867  -7.502  1.00  0.00     0.289 C 
HETATM   33  C29 UNL     1       3.913  -8.052  -8.950  1.00  0.00     0.127 C 
HETATM   34  O2  UNL     1       4.117 -10.385  -7.494  1.00  0.00    -0.264 OA
HETATM   35  C28 UNL     1       4.109  -6.639  -8.427  1.00  0.00     0.034 C 
BRANCH  32  36
HETATM   36  C1  UNL     1       1.883 -10.495  -6.796  1.00  0.00     0.216 C 
HETATM   37  O1  UNL     1       1.778 -10.424  -5.561  1.00  0.00    -0.287 OA
BRANCH  36  38
HETATM   38  C2  UNL     1       0.867 -11.241  -7.561  1.00  0.00     0.098 C 
BRANCH  38  39
HETATM   39  C3  UNL     1       1.443 -12.406  -8.296  1.00  0.00     0.125 C 
BRANCH  39  40
HETATM   40  C4  UNL     1       1.491 -12.158  -9.769  1.00  0.00     0.388 C 
HETATM   41  F1  UNL     1       1.090 -10.866 -10.033  1.00  0.00    -0.171 F 
HETATM   42  F2  UNL     1       0.548 -12.992 -10.401  1.00  0.00    -0.171 F 
HETATM   43  F3  UNL     1       2.737 -12.395 -10.253  1.00  0.00    -0.171 F 
ENDBRANCH  39  40
ENDBRANCH  38  39
ENDBRANCH  36  38
ENDBRANCH  32  36
ENDBRANCH   1  28
TORSDOF 8
ENDMDL
