MODEL 1
REMARK VINA RESULT: -9.498722978      0.000      0.000
REMARK  12 active torsions:
REMARK  status: ('A' for Active; 'I' for Inactive)
REMARK    1  A    between atoms: C2_2  and  C3_4 
REMARK    2  A    between atoms: C2_2  and  C30_44 
REMARK    3  A    between atoms: C3_4  and  N1_5 
REMARK    4  A    between atoms: C6_8  and  N2_9 
REMARK    5  A    between atoms: C6_8  and  C14_19 
REMARK       I    between atoms: N2_9  and  C7_11 
REMARK    6  A    between atoms: C7_11  and  C8_13 
REMARK    7  A    between atoms: C14_19  and  O2_20 
REMARK    8  A    between atoms: C14_19  and  N3_22 
REMARK    9  A    between atoms: N4_25  and  C17_26 
REMARK   10  A    between atoms: C17_26  and  O3_27 
REMARK   11  A    between atoms: C17_26  and  C18_29 
REMARK   12  A    between atoms: C21_32  and  N5_33 
ROOT
HETATM    1  C14 UNL     1       1.308  -6.568  -7.711  1.00  0.00     0.144 C 
ENDROOT
BRANCH   1   2
HETATM    2  C6  UNL     1       1.545  -7.930  -7.232  1.00  0.00     0.125 C 
HETATM    3  C5  UNL     1       2.962  -8.010  -6.667  1.00  0.00     0.072 C 
HETATM    4  C4  UNL     1       3.552  -9.253  -7.212  1.00  0.00     0.275 C 
HETATM    5  N1  UNL     1       2.448 -10.064  -7.741  1.00  0.00     0.095 N 
HETATM    6  C29 UNL     1       1.484  -9.048  -8.185  1.00  0.00     0.312 C 
BRANCH   5   7
HETATM    7  C3  UNL     1       3.002 -10.864  -8.780  1.00  0.00     0.324 C 
BRANCH   7   8
HETATM    8  C2  UNL     1       2.293 -12.125  -9.092  1.00  0.00     0.222 C 
HETATM    9  C1  UNL     1       1.323 -12.572  -8.066  1.00  0.00     0.063 C 
HETATM   10  F1  UNL     1       3.291 -13.107  -9.291  1.00  0.00    -0.232 F 
BRANCH   8  11
HETATM   11  C30 UNL     1       1.591 -12.050 -10.455  1.00  0.00     0.424 C 
HETATM   12  F2  UNL     1       0.912 -10.873 -10.602  1.00  0.00    -0.167 F 
HETATM   13  F3  UNL     1       0.686 -13.102 -10.565  1.00  0.00    -0.167 F 
HETATM   14  F4  UNL     1       2.567 -12.115 -11.422  1.00  0.00    -0.167 F 
ENDBRANCH   8  11
ENDBRANCH   7   8
ENDBRANCH   5   7
BRANCH   2  15
HETATM   15  N2  UNL     1       0.681  -8.113  -6.070  1.00  0.00    -0.342 N 
HETATM   16  C7  UNL     1      -0.455  -8.884  -5.898  1.00  0.00     0.222 C 
HETATM   17  O1  UNL     1      -0.945  -9.599  -6.777  1.00  0.00    -0.273 OA
ATOM     18  H2  UNL     1       0.962  -7.584  -5.246  1.00  0.00     0.163 HD
BRANCH  16  19
HETATM   19  C8  UNL     1      -1.209  -8.915  -4.588  1.00  0.00     0.078 C 
HETATM   20  C9  UNL     1      -0.424  -8.331  -3.467  1.00  0.00     0.014 C 
HETATM   21  C10 UNL     1      -0.347  -9.301  -2.288  1.00  0.00     0.001 C 
HETATM   22  C11 UNL     1       0.169 -10.621  -2.863  1.00  0.00     0.000 C 
HETATM   23  C12 UNL     1      -0.895 -11.250  -3.697  1.00  0.00     0.001 C 
HETATM   24  C13 UNL     1      -1.819 -10.245  -4.348  1.00  0.00     0.014 C 
ENDBRANCH  16  19
ENDBRANCH   2  15
ENDBRANCH   1   2
BRANCH   1  25
HETATM   25  O2  UNL     1       0.384  -5.940  -6.984  1.00  0.00    -0.347 OA
ATOM     26  H2  UNL     1      -0.252  -5.492  -7.530  1.00  0.00     0.219 HD
ENDBRANCH   1  25
BRANCH   1  27
HETATM   27  N3  UNL     1       1.800  -5.780  -8.718  1.00  0.00    -0.360 N 
HETATM   28  C15 UNL     1       3.145  -5.119  -8.547  1.00  0.00     0.144 C 
HETATM   29  C16 UNL     1       3.939  -5.509  -9.772  1.00  0.00     0.145 C 
HETATM   30  N4  UNL     1       3.360  -4.602 -10.828  1.00  0.00    -0.358 N 
HETATM   31  C27 UNL     1       1.936  -4.494 -10.859  1.00  0.00     0.145 C 
HETATM   32  C28 UNL     1       1.182  -5.460  -9.949  1.00  0.00     0.144 C 
BRANCH  30  33
HETATM   33  C17 UNL     1       4.311  -3.995 -11.653  1.00  0.00     0.148 C 
BRANCH  33  34
HETATM   34  O3  UNL     1       5.017  -3.050 -11.076  1.00  0.00    -0.346 OA
ATOM     35  H3  UNL     1       4.924  -2.189 -11.467  1.00  0.00     0.219 HD
ENDBRANCH  33  34
BRANCH  33  36
HETATM   36  C18 UNL     1       4.623  -4.253 -13.031  1.00  0.00     0.015 A 
HETATM   37  C19 UNL     1       5.086  -5.438 -13.558  1.00  0.00     0.018 A 
HETATM   38  C20 UNL     1       5.365  -5.542 -14.932  1.00  0.00     0.032 A 
HETATM   39  C21 UNL     1       5.187  -4.483 -15.781  1.00  0.00     0.056 A 
HETATM   40  C25 UNL     1       4.725  -3.295 -15.266  1.00  0.00     0.032 A 
HETATM   41  C26 UNL     1       4.449  -3.177 -13.928  1.00  0.00     0.018 A 
BRANCH  39  42
HETATM   42  N5  UNL     1       5.447  -4.581 -17.165  1.00  0.00    -0.268 N 
HETATM   43  C22 UNL     1       5.898  -5.638 -17.830  1.00  0.00     0.118 A 
HETATM   44  C23 UNL     1       6.009  -5.309 -19.168  1.00  0.00     0.038 A 
HETATM   45  C24 UNL     1       5.595  -3.993 -19.261  1.00  0.00     0.109 A 
HETATM   46  N6  UNL     1       5.261  -3.575 -18.029  1.00  0.00    -0.305 N 
ATOM     47  H6  UNL     1       4.920  -2.644 -17.791  1.00  0.00     0.186 HD
ENDBRANCH  39  42
ENDBRANCH  33  36
ENDBRANCH  30  33
ENDBRANCH   1  27
TORSDOF 12
ENDMDL
MODEL 2
REMARK VINA RESULT: -9.409000477      1.032      1.365
REMARK  12 active torsions:
REMARK  status: ('A' for Active; 'I' for Inactive)
REMARK    1  A    between atoms: C2_2  and  C3_4 
REMARK    2  A    between atoms: C2_2  and  C30_44 
REMARK    3  A    between atoms: C3_4  and  N1_5 
REMARK    4  A    between atoms: C6_8  and  N2_9 
REMARK    5  A    between atoms: C6_8  and  C14_19 
REMARK       I    between atoms: N2_9  and  C7_11 
REMARK    6  A    between atoms: C7_11  and  C8_13 
REMARK    7  A    between atoms: C14_19  and  O2_20 
REMARK    8  A    between atoms: C14_19  and  N3_22 
REMARK    9  A    between atoms: N4_25  and  C17_26 
REMARK   10  A    between atoms: C17_26  and  O3_27 
REMARK   11  A    between atoms: C17_26  and  C18_29 
REMARK   12  A    between atoms: C21_32  and  N5_33 
ROOT
HETATM    1  C14 UNL     1       1.427  -7.334  -7.559  1.00  0.00     0.144 C 
ENDROOT
BRANCH   1   2
HETATM    2  C6  UNL     1       1.649  -8.750  -7.261  1.00  0.00     0.125 C 
HETATM    3  C5  UNL     1       2.771  -8.861  -6.230  1.00  0.00     0.072 C 
HETATM    4  C4  UNL     1       3.670  -9.933  -6.715  1.00  0.00     0.275 C 
HETATM    5  N1  UNL     1       2.939 -10.681  -7.745  1.00  0.00     0.095 N 
HETATM    6  C29 UNL     1       2.075  -9.654  -8.340  1.00  0.00     0.312 C 
BRANCH   5   7
HETATM    7  C3  UNL     1       3.923 -11.222  -8.619  1.00  0.00     0.324 C 
BRANCH   7   8
HETATM    8  C2  UNL     1       3.489 -12.334  -9.495  1.00  0.00     0.222 C 
HETATM    9  C1  UNL     1       2.255 -13.029  -9.065  1.00  0.00     0.063 C 
HETATM   10  F1  UNL     1       4.573 -13.241  -9.557  1.00  0.00    -0.232 F 
BRANCH   8  11
HETATM   11  C30 UNL     1       3.330 -11.871 -10.950  1.00  0.00     0.424 C 
HETATM   12  F2  UNL     1       4.053 -12.655 -11.805  1.00  0.00    -0.167 F 
HETATM   13  F3  UNL     1       3.778 -10.558 -11.065  1.00  0.00    -0.167 F 
HETATM   14  F4  UNL     1       1.997 -11.984 -11.272  1.00  0.00    -0.167 F 
ENDBRANCH   8  11
ENDBRANCH   7   8
ENDBRANCH   5   7
BRANCH   2  15
HETATM   15  N2  UNL     1       0.460  -9.213  -6.554  1.00  0.00    -0.342 N 
HETATM   16  C7  UNL     1      -0.256 -10.392  -6.661  1.00  0.00     0.222 C 
HETATM   17  O1  UNL     1       0.035 -11.310  -7.433  1.00  0.00    -0.273 OA
ATOM     18  H2  UNL     1       0.095  -8.557  -5.864  1.00  0.00     0.163 HD
BRANCH  16  19
HETATM   19  C8  UNL     1      -1.484 -10.660  -5.821  1.00  0.00     0.078 C 
HETATM   20  C9  UNL     1      -1.815  -9.524  -4.919  1.00  0.00     0.014 C 
HETATM   21  C10 UNL     1      -1.957  -9.996  -3.472  1.00  0.00     0.001 C 
HETATM   22  C11 UNL     1      -0.675 -10.765  -3.153  1.00  0.00     0.000 C 
HETATM   23  C12 UNL     1      -0.674 -12.062  -3.891  1.00  0.00     0.001 C 
HETATM   24  C13 UNL     1      -1.430 -12.006  -5.200  1.00  0.00     0.014 C 
ENDBRANCH  16  19
ENDBRANCH   2  15
ENDBRANCH   1   2
BRANCH   1  25
HETATM   25  O2  UNL     1       0.521  -6.793  -6.745  1.00  0.00    -0.347 OA
ATOM     26  H2  UNL     1      -0.364  -7.038  -6.988  1.00  0.00     0.219 HD
ENDBRANCH   1  25
BRANCH   1  27
HETATM   27  N3  UNL     1       1.918  -6.431  -8.464  1.00  0.00    -0.360 N 
HETATM   28  C15 UNL     1       3.350  -5.972  -8.344  1.00  0.00     0.144 C 
HETATM   29  C16 UNL     1       3.959  -6.209  -9.706  1.00  0.00     0.145 C 
HETATM   30  N4  UNL     1       3.405  -5.059 -10.507  1.00  0.00    -0.358 N 
HETATM   31  C27 UNL     1       2.013  -4.787 -10.346  1.00  0.00     0.145 C 
HETATM   32  C28 UNL     1       1.230  -5.815  -9.535  1.00  0.00     0.144 C 
BRANCH  30  33
HETATM   33  C17 UNL     1       4.343  -4.418 -11.323  1.00  0.00     0.148 C 
BRANCH  33  34
HETATM   34  O3  UNL     1       5.050  -3.488 -10.722  1.00  0.00    -0.346 OA
ATOM     35  H3  UNL     1       5.772  -3.814 -10.197  1.00  0.00     0.219 HD
ENDBRANCH  33  34
BRANCH  33  36
HETATM   36  C18 UNL     1       4.641  -4.628 -12.712  1.00  0.00     0.015 A 
HETATM   37  C19 UNL     1       5.036  -5.811 -13.296  1.00  0.00     0.018 A 
HETATM   38  C20 UNL     1       5.309  -5.865 -14.673  1.00  0.00     0.032 A 
HETATM   39  C21 UNL     1       5.193  -4.758 -15.471  1.00  0.00     0.056 A 
HETATM   40  C25 UNL     1       4.799  -3.571 -14.899  1.00  0.00     0.032 A 
HETATM   41  C26 UNL     1       4.529  -3.502 -13.556  1.00  0.00     0.018 A 
BRANCH  39  42
HETATM   42  N5  UNL     1       5.448  -4.805 -16.859  1.00  0.00    -0.268 N 
HETATM   43  C22 UNL     1       5.916  -5.829 -17.560  1.00  0.00     0.118 A 
HETATM   44  C23 UNL     1       6.014  -5.454 -18.887  1.00  0.00     0.038 A 
HETATM   45  C24 UNL     1       5.574  -4.144 -18.934  1.00  0.00     0.109 A 
HETATM   46  N6  UNL     1       5.237  -3.775 -17.688  1.00  0.00    -0.305 N 
ATOM     47  H6  UNL     1       4.880  -2.859 -17.417  1.00  0.00     0.186 HD
ENDBRANCH  39  42
ENDBRANCH  33  36
ENDBRANCH  30  33
ENDBRANCH   1  27
TORSDOF 12
ENDMDL
MODEL 3
REMARK VINA RESULT: -9.393928764      1.074      1.414
REMARK  12 active torsions:
REMARK  status: ('A' for Active; 'I' for Inactive)
REMARK    1  A    between atoms: C2_2  and  C3_4 
REMARK    2  A    between atoms: C2_2  and  C30_44 
REMARK    3  A    between atoms: C3_4  and  N1_5 
REMARK    4  A    between atoms: C6_8  and  N2_9 
REMARK    5  A    between atoms: C6_8  and  C14_19 
REMARK       I    between atoms: N2_9  and  C7_11 
REMARK    6  A    between atoms: C7_11  and  C8_13 
REMARK    7  A    between atoms: C14_19  and  O2_20 
REMARK    8  A    between atoms: C14_19  and  N3_22 
REMARK    9  A    between atoms: N4_25  and  C17_26 
REMARK   10  A    between atoms: C17_26  and  O3_27 
REMARK   11  A    between atoms: C17_26  and  C18_29 
REMARK   12  A    between atoms: C21_32  and  N5_33 
ROOT
HETATM    1  C14 UNL     1       2.552  -6.803  -7.461  1.00  0.00     0.144 C 
ENDROOT
BRANCH   1   2
HETATM    2  C6  UNL     1       2.559  -8.267  -7.443  1.00  0.00     0.125 C 
HETATM    3  C5  UNL     1       3.953  -8.744  -7.040  1.00  0.00     0.072 C 
HETATM    4  C4  UNL     1       4.306  -9.828  -7.984  1.00  0.00     0.275 C 
HETATM    5  N1  UNL     1       3.066 -10.244  -8.651  1.00  0.00     0.095 N 
HETATM    6  C29 UNL     1       2.284  -9.002  -8.687  1.00  0.00     0.312 C 
BRANCH   5   7
HETATM    7  C3  UNL     1       3.450 -10.752  -9.925  1.00  0.00     0.324 C 
BRANCH   7   8
HETATM    8  C2  UNL     1       2.886 -12.066 -10.309  1.00  0.00     0.222 C 
HETATM    9  C1  UNL     1       3.435 -13.227  -9.571  1.00  0.00     0.063 C 
HETATM   10  F1  UNL     1       3.113 -12.209 -11.697  1.00  0.00    -0.232 F 
BRANCH   8  11
HETATM   11  C30 UNL     1       1.355 -12.072 -10.197  1.00  0.00     0.424 C 
HETATM   12  F2  UNL     1       0.823 -10.870 -10.570  1.00  0.00    -0.167 F 
HETATM   13  F3  UNL     1       0.992 -12.329  -8.877  1.00  0.00    -0.167 F 
HETATM   14  F4  UNL     1       0.886 -13.042 -11.052  1.00  0.00    -0.167 F 
ENDBRANCH   8  11
ENDBRANCH   7   8
ENDBRANCH   5   7
BRANCH   2  15
HETATM   15  N2  UNL     1       1.704  -8.669  -6.332  1.00  0.00    -0.342 N 
HETATM   16  C7  UNL     1       0.391  -9.106  -6.311  1.00  0.00     0.222 C 
HETATM   17  O1  UNL     1      -0.310  -9.239  -7.319  1.00  0.00    -0.273 OA
ATOM     18  H2  UNL     1       2.148  -8.620  -5.416  1.00  0.00     0.163 HD
BRANCH  16  19
HETATM   19  C8  UNL     1      -0.311  -9.466  -5.021  1.00  0.00     0.078 C 
HETATM   20  C9  UNL     1       0.611  -9.467  -3.854  1.00  0.00     0.014 C 
HETATM   21  C10 UNL     1       0.529 -10.789  -3.091  1.00  0.00     0.001 C 
HETATM   22  C11 UNL     1       0.749 -11.888  -4.131  1.00  0.00     0.000 C 
HETATM   23  C12 UNL     1      -0.446 -11.981  -5.019  1.00  0.00     0.001 C 
HETATM   24  C13 UNL     1      -1.169 -10.664  -5.190  1.00  0.00     0.014 C 
ENDBRANCH  16  19
ENDBRANCH   2  15
ENDBRANCH   1   2
BRANCH   1  25
HETATM   25  O2  UNL     1       2.186  -6.295  -6.285  1.00  0.00    -0.347 OA
ATOM     26  H2  UNL     1       2.364  -5.364  -6.231  1.00  0.00     0.219 HD
ENDBRANCH   1  25
BRANCH   1  27
HETATM   27  N3  UNL     1       2.829  -5.829  -8.384  1.00  0.00    -0.360 N 
HETATM   28  C15 UNL     1       4.165  -5.131  -8.341  1.00  0.00     0.144 C 
HETATM   29  C16 UNL     1       4.728  -5.261  -9.736  1.00  0.00     0.145 C 
HETATM   30  N4  UNL     1       3.940  -4.224 -10.495  1.00  0.00    -0.358 N 
HETATM   31  C27 UNL     1       2.533  -4.194 -10.253  1.00  0.00     0.145 C 
HETATM   32  C28 UNL     1       1.986  -5.342  -9.409  1.00  0.00     0.144 C 
BRANCH  30  33
HETATM   33  C17 UNL     1       4.706  -3.432 -11.356  1.00  0.00     0.148 C 
BRANCH  33  34
HETATM   34  O3  UNL     1       5.337  -2.438 -10.773  1.00  0.00    -0.346 OA
ATOM     35  H3  UNL     1       5.919  -1.948 -11.342  1.00  0.00     0.219 HD
ENDBRANCH  33  34
BRANCH  33  36
HETATM   36  C18 UNL     1       4.899  -3.547 -12.774  1.00  0.00     0.015 A 
HETATM   37  C19 UNL     1       5.062  -2.510 -13.666  1.00  0.00     0.018 A 
HETATM   38  C20 UNL     1       5.227  -2.774 -15.036  1.00  0.00     0.032 A 
HETATM   39  C21 UNL     1       5.231  -4.053 -15.525  1.00  0.00     0.056 A 
HETATM   40  C25 UNL     1       5.069  -5.096 -14.644  1.00  0.00     0.032 A 
HETATM   41  C26 UNL     1       4.907  -4.855 -13.304  1.00  0.00     0.018 A 
BRANCH  39  42
HETATM   42  N5  UNL     1       5.414  -4.330 -16.898  1.00  0.00    -0.268 N 
HETATM   43  C22 UNL     1       5.701  -5.500 -17.455  1.00  0.00     0.118 A 
HETATM   44  C23 UNL     1       5.790  -5.332 -18.824  1.00  0.00     0.038 A 
HETATM   45  C24 UNL     1       5.537  -3.991 -19.049  1.00  0.00     0.109 A 
HETATM   46  N6  UNL     1       5.313  -3.406 -17.861  1.00  0.00    -0.305 N 
ATOM     47  H6  UNL     1       5.100  -2.419 -17.717  1.00  0.00     0.186 HD
ENDBRANCH  39  42
ENDBRANCH  33  36
ENDBRANCH  30  33
ENDBRANCH   1  27
TORSDOF 12
ENDMDL
MODEL 4
REMARK VINA RESULT: -9.381717685      4.783     11.697
REMARK  12 active torsions:
REMARK  status: ('A' for Active; 'I' for Inactive)
REMARK    1  A    between atoms: C2_2  and  C3_4 
REMARK    2  A    between atoms: C2_2  and  C30_44 
REMARK    3  A    between atoms: C3_4  and  N1_5 
REMARK    4  A    between atoms: C6_8  and  N2_9 
REMARK    5  A    between atoms: C6_8  and  C14_19 
REMARK       I    between atoms: N2_9  and  C7_11 
REMARK    6  A    between atoms: C7_11  and  C8_13 
REMARK    7  A    between atoms: C14_19  and  O2_20 
REMARK    8  A    between atoms: C14_19  and  N3_22 
REMARK    9  A    between atoms: N4_25  and  C17_26 
REMARK   10  A    between atoms: C17_26  and  O3_27 
REMARK   11  A    between atoms: C17_26  and  C18_29 
REMARK   12  A    between atoms: C21_32  and  N5_33 
ROOT
HETATM    1  C14 UNL     1       3.715  -5.073 -11.647  1.00  0.00     0.144 C 
ENDROOT
BRANCH   1   2
HETATM    2  C6  UNL     1       4.282  -3.892 -12.299  1.00  0.00     0.125 C 
HETATM    3  C5  UNL     1       5.221  -3.195 -11.316  1.00  0.00     0.072 C 
HETATM    4  C4  UNL     1       4.900  -1.752 -11.394  1.00  0.00     0.275 C 
HETATM    5  N1  UNL     1       4.109  -1.547 -12.614  1.00  0.00     0.095 N 
HETATM    6  C29 UNL     1       3.384  -2.817 -12.747  1.00  0.00     0.312 C 
BRANCH   5   7
HETATM    7  C3  UNL     1       3.290  -0.408 -12.372  1.00  0.00     0.324 C 
BRANCH   7   8
HETATM    8  C2  UNL     1       3.315   0.655 -13.403  1.00  0.00     0.222 C 
HETATM    9  C1  UNL     1       2.267   1.691 -13.264  1.00  0.00     0.063 C 
HETATM   10  F1  UNL     1       3.205   0.002 -14.652  1.00  0.00    -0.232 F 
BRANCH   8  11
HETATM   11  C30 UNL     1       4.691   1.330 -13.475  1.00  0.00     0.424 C 
HETATM   12  F2  UNL     1       5.562   0.610 -14.244  1.00  0.00    -0.167 F 
HETATM   13  F3  UNL     1       5.219   1.438 -12.191  1.00  0.00    -0.167 F 
HETATM   14  F4  UNL     1       4.512   2.564 -14.057  1.00  0.00    -0.167 F 
ENDBRANCH   8  11
ENDBRANCH   7   8
ENDBRANCH   5   7
BRANCH   2  15
HETATM   15  N2  UNL     1       5.163  -4.386 -13.352  1.00  0.00    -0.342 N 
HETATM   16  C7  UNL     1       5.055  -4.318 -14.730  1.00  0.00     0.222 C 
HETATM   17  O1  UNL     1       4.119  -3.774 -15.324  1.00  0.00    -0.273 OA
ATOM     18  H2  UNL     1       5.999  -4.863 -13.016  1.00  0.00     0.163 HD
BRANCH  16  19
HETATM   19  C8  UNL     1       6.099  -4.918 -15.644  1.00  0.00     0.078 C 
HETATM   20  C9  UNL     1       5.681  -4.903 -17.071  1.00  0.00     0.014 C 
HETATM   21  C10 UNL     1       5.790  -6.296 -17.690  1.00  0.00     0.001 C 
HETATM   22  C11 UNL     1       5.011  -7.230 -16.763  1.00  0.00     0.000 C 
HETATM   23  C12 UNL     1       5.763  -7.410 -15.488  1.00  0.00     0.001 C 
HETATM   24  C13 UNL     1       6.603  -6.208 -15.114  1.00  0.00     0.014 C 
ENDBRANCH  16  19
ENDBRANCH   2  15
ENDBRANCH   1   2
BRANCH   1  25
HETATM   25  O2  UNL     1       2.429  -5.240 -11.956  1.00  0.00    -0.347 OA
ATOM     26  H2  UNL     1       2.200  -6.159 -12.029  1.00  0.00     0.219 HD
ENDBRANCH   1  25
BRANCH   1  27
HETATM   27  N3  UNL     1       4.177  -6.047 -10.801  1.00  0.00    -0.360 N 
HETATM   28  C15 UNL     1       3.729  -6.044  -9.360  1.00  0.00     0.144 C 
HETATM   29  C16 UNL     1       3.191  -7.433  -9.108  1.00  0.00     0.145 C 
HETATM   30  N4  UNL     1       4.454  -8.243  -8.966  1.00  0.00    -0.358 N 
HETATM   31  C27 UNL     1       5.476  -7.999  -9.933  1.00  0.00     0.145 C 
HETATM   32  C28 UNL     1       5.080  -7.094 -11.095  1.00  0.00     0.144 C 
BRANCH  30  33
HETATM   33  C17 UNL     1       4.443  -9.147  -7.899  1.00  0.00     0.148 C 
BRANCH  33  34
HETATM   34  O3  UNL     1       5.604  -9.314  -7.308  1.00  0.00    -0.346 OA
ATOM     35  H3  UNL     1       5.618  -9.085  -6.386  1.00  0.00     0.219 HD
ENDBRANCH  33  34
BRANCH  33  36
HETATM   36  C18 UNL     1       3.354  -9.914  -7.362  1.00  0.00     0.015 A 
HETATM   37  C19 UNL     1       2.661 -10.915  -8.007  1.00  0.00     0.018 A 
HETATM   38  C20 UNL     1       1.602 -11.573  -7.358  1.00  0.00     0.032 A 
HETATM   39  C21 UNL     1       1.228 -11.246  -6.082  1.00  0.00     0.056 A 
HETATM   40  C25 UNL     1       1.913 -10.249  -5.430  1.00  0.00     0.032 A 
HETATM   41  C26 UNL     1       2.948  -9.596  -6.048  1.00  0.00     0.018 A 
BRANCH  39  42
HETATM   42  N5  UNL     1       0.176 -11.913  -5.416  1.00  0.00    -0.268 N 
HETATM   43  C22 UNL     1       0.237 -13.066  -4.762  1.00  0.00     0.118 A 
HETATM   44  C23 UNL     1      -1.016 -13.357  -4.256  1.00  0.00     0.038 A 
HETATM   45  C24 UNL     1      -1.827 -12.308  -4.647  1.00  0.00     0.109 A 
HETATM   46  N6  UNL     1      -1.077 -11.445  -5.351  1.00  0.00    -0.305 N 
ATOM     47  H6  UNL     1      -1.407 -10.575  -5.769  1.00  0.00     0.186 HD
ENDBRANCH  39  42
ENDBRANCH  33  36
ENDBRANCH  30  33
ENDBRANCH   1  27
TORSDOF 12
ENDMDL
MODEL 5
REMARK VINA RESULT: -9.220698695      2.357      4.431
REMARK  12 active torsions:
REMARK  status: ('A' for Active; 'I' for Inactive)
REMARK    1  A    between atoms: C2_2  and  C3_4 
REMARK    2  A    between atoms: C2_2  and  C30_44 
REMARK    3  A    between atoms: C3_4  and  N1_5 
REMARK    4  A    between atoms: C6_8  and  N2_9 
REMARK    5  A    between atoms: C6_8  and  C14_19 
REMARK       I    between atoms: N2_9  and  C7_11 
REMARK    6  A    between atoms: C7_11  and  C8_13 
REMARK    7  A    between atoms: C14_19  and  O2_20 
REMARK    8  A    between atoms: C14_19  and  N3_22 
REMARK    9  A    between atoms: N4_25  and  C17_26 
REMARK   10  A    between atoms: C17_26  and  O3_27 
REMARK   11  A    between atoms: C17_26  and  C18_29 
REMARK   12  A    between atoms: C21_32  and  N5_33 
ROOT
HETATM    1  C14 UNL     1       2.255  -7.377  -6.589  1.00  0.00     0.144 C 
ENDROOT
BRANCH   1   2
HETATM    2  C6  UNL     1       1.623  -8.687  -6.431  1.00  0.00     0.125 C 
HETATM    3  C5  UNL     1       0.112  -8.491  -6.316  1.00  0.00     0.072 C 
HETATM    4  C4  UNL     1      -0.329  -9.341  -5.188  1.00  0.00     0.275 C 
HETATM    5  N1  UNL     1       0.762 -10.282  -4.901  1.00  0.00     0.095 N 
HETATM    6  C29 UNL     1       1.959  -9.510  -5.259  1.00  0.00     0.312 C 
BRANCH   5   7
HETATM    7  C3  UNL     1       0.649 -10.613  -3.521  1.00  0.00     0.324 C 
BRANCH   7   8
HETATM    8  C2  UNL     1       0.791 -12.045  -3.171  1.00  0.00     0.222 C 
HETATM    9  C1  UNL     1       0.434 -12.391  -1.777  1.00  0.00     0.063 C 
HETATM   10  F1  UNL     1       2.136 -12.390  -3.439  1.00  0.00    -0.232 F 
BRANCH   8  11
HETATM   11  C30 UNL     1      -0.003 -12.937  -4.135  1.00  0.00     0.424 C 
HETATM   12  F2  UNL     1       0.555 -12.946  -5.382  1.00  0.00    -0.167 F 
HETATM   13  F3  UNL     1      -1.307 -12.458  -4.235  1.00  0.00    -0.167 F 
HETATM   14  F4  UNL     1       0.032 -14.217  -3.631  1.00  0.00    -0.167 F 
ENDBRANCH   8  11
ENDBRANCH   7   8
ENDBRANCH   5   7
BRANCH   2  15
HETATM   15  N2  UNL     1       1.801  -9.386  -7.699  1.00  0.00    -0.342 N 
HETATM   16  C7  UNL     1       2.931  -9.932  -8.282  1.00  0.00     0.222 C 
HETATM   17  O1  UNL     1       4.053  -9.914  -7.766  1.00  0.00    -0.273 OA
ATOM     18  H2  UNL     1       0.949  -9.490  -8.249  1.00  0.00     0.163 HD
BRANCH  16  19
HETATM   19  C8  UNL     1       2.885 -10.613  -9.631  1.00  0.00     0.078 C 
HETATM   20  C9  UNL     1       1.505 -11.008 -10.021  1.00  0.00     0.014 C 
HETATM   21  C10 UNL     1       1.443 -12.489 -10.396  1.00  0.00     0.001 C 
HETATM   22  C11 UNL     1       2.059 -13.246  -9.219  1.00  0.00     0.000 C 
HETATM   23  C12 UNL     1       3.531 -13.007  -9.187  1.00  0.00     0.001 C 
HETATM   24  C13 UNL     1       3.931 -11.659  -9.743  1.00  0.00     0.014 C 
ENDBRANCH  16  19
ENDBRANCH   2  15
ENDBRANCH   1   2
BRANCH   1  25
HETATM   25  O2  UNL     1       2.794  -6.946  -5.449  1.00  0.00    -0.347 OA
ATOM     26  H2  UNL     1       3.449  -6.274  -5.599  1.00  0.00     0.219 HD
ENDBRANCH   1  25
BRANCH   1  27
HETATM   27  N3  UNL     1       2.430  -6.486  -7.615  1.00  0.00    -0.360 N 
HETATM   28  C15 UNL     1       3.444  -5.380  -7.466  1.00  0.00     0.144 C 
HETATM   29  C16 UNL     1       4.327  -5.482  -8.687  1.00  0.00     0.145 C 
HETATM   30  N4  UNL     1       3.461  -4.870  -9.758  1.00  0.00    -0.358 N 
HETATM   31  C27 UNL     1       2.096  -5.285  -9.783  1.00  0.00     0.145 C 
HETATM   32  C28 UNL     1       1.741  -6.438  -8.849  1.00  0.00     0.144 C 
BRANCH  30  33
HETATM   33  C17 UNL     1       4.130  -3.977 -10.602  1.00  0.00     0.148 C 
BRANCH  33  34
HETATM   34  O3  UNL     1       4.525  -2.866 -10.024  1.00  0.00    -0.346 OA
ATOM     35  H3  UNL     1       4.970  -2.986  -9.193  1.00  0.00     0.219 HD
ENDBRANCH  33  34
BRANCH  33  36
HETATM   36  C18 UNL     1       4.442  -4.100 -11.998  1.00  0.00     0.015 A 
HETATM   37  C19 UNL     1       4.534  -3.072 -12.910  1.00  0.00     0.018 A 
HETATM   38  C20 UNL     1       4.835  -3.345 -14.256  1.00  0.00     0.032 A 
HETATM   39  C21 UNL     1       5.043  -4.623 -14.700  1.00  0.00     0.056 A 
HETATM   40  C25 UNL     1       4.954  -5.657 -13.798  1.00  0.00     0.032 A 
HETATM   41  C26 UNL     1       4.660  -5.408 -12.481  1.00  0.00     0.018 A 
BRANCH  39  42
HETATM   42  N5  UNL     1       5.363  -4.906 -16.046  1.00  0.00    -0.268 N 
HETATM   43  C22 UNL     1       5.733  -6.072 -16.560  1.00  0.00     0.118 A 
HETATM   44  C23 UNL     1       5.947  -5.913 -17.916  1.00  0.00     0.038 A 
HETATM   45  C24 UNL     1       5.682  -4.582 -18.179  1.00  0.00     0.109 A 
HETATM   46  N6  UNL     1       5.330  -3.993 -17.024  1.00  0.00    -0.305 N 
ATOM     47  H6  UNL     1       5.078  -3.011 -16.911  1.00  0.00     0.186 HD
ENDBRANCH  39  42
ENDBRANCH  33  36
ENDBRANCH  30  33
ENDBRANCH   1  27
TORSDOF 12
ENDMDL
