MODEL 1
REMARK VINA RESULT: -9.740518339      0.000      0.000
REMARK  11 active torsions:
REMARK  status: ('A' for Active; 'I' for Inactive)
REMARK       I    between atoms: N1_5  and  C5_6 
REMARK    1  A    between atoms: C5_6  and  C6_8 
REMARK    2  A    between atoms: C6_8  and  N2_9 
REMARK    3  A    between atoms: N2_9  and  C7_11 
REMARK    4  A    between atoms: C7_11  and  O2_12 
REMARK    5  A    between atoms: C7_11  and  C8_14 
REMARK    6  A    between atoms: C10_16  and  S1_17 
REMARK    7  A    between atoms: S1_17  and  N3_20 
REMARK    8  A    between atoms: C13_23  and  C14_24 
REMARK    9  A    between atoms: C19_32  and  O5_33 
REMARK   10  A    between atoms: O5_33  and  C20_34 
REMARK   11  A    between atoms: C20_34  and  C21_36 
ROOT
HETATM    1  C8  UNL     1       4.399  -4.266 -13.487  1.00  0.00     0.050 A 
HETATM    2  C9  UNL     1       4.241  -2.859 -13.362  1.00  0.00     0.044 A 
HETATM    3  C10 UNL     1       4.736  -1.937 -14.217  1.00  0.00     0.080 A 
HETATM    4  C17 UNL     1       5.463  -2.342 -15.310  1.00  0.00     0.028 A 
HETATM    5  C18 UNL     1       5.650  -3.691 -15.477  1.00  0.00     0.040 A 
HETATM    6  C19 UNL     1       5.127  -4.654 -14.582  1.00  0.00     0.093 A 
ENDROOT
BRANCH   1   7
HETATM    7  C7  UNL     1       3.751  -5.120 -12.557  1.00  0.00     0.150 C 
BRANCH   7   8
HETATM    8  N2  UNL     1       2.509  -5.076 -11.893  1.00  0.00    -0.351 N 
ATOM      9  H2  UNL     1       1.631  -5.251 -12.381  1.00  0.00     0.163 HD
BRANCH   8  10
HETATM   10  C6  UNL     1       2.552  -4.758 -10.440  1.00  0.00     0.131 A 
HETATM   11  C24 UNL     1       3.372  -3.585 -10.074  1.00  0.00     0.066 A 
HETATM   12  C25 UNL     1       1.889  -3.453 -10.056  1.00  0.00     0.122 A 
HETATM   13 CL1  UNL     1       1.039  -2.500 -11.281  1.00  0.00    -0.122 Cl
BRANCH  10  14
HETATM   14  C5  UNL     1       2.297  -5.828  -9.457  1.00  0.00     0.249 C 
HETATM   15  N1  UNL     1       3.225  -6.482  -8.676  1.00  0.00    -0.350 N 
HETATM   16  C4  UNL     1       4.703  -6.386  -8.742  1.00  0.00     0.126 C 
HETATM   17  C26 UNL     1       3.053  -7.505  -7.638  1.00  0.00     0.130 C 
HETATM   18  C3  UNL     1       4.895  -7.892  -9.149  1.00  0.00     0.026 C 
HETATM   19  C2  UNL     1       3.927  -8.615  -8.257  1.00  0.00     0.001 C 
HETATM   20  C1  UNL     1       3.036  -9.558  -9.076  1.00  0.00     0.011 C 
HETATM   21  O1  UNL     1       1.054  -6.175  -9.349  1.00  0.00    -0.270 OA
ENDBRANCH  10  14
ENDBRANCH   8  10
ENDBRANCH   7   8
BRANCH   7  22
HETATM   22  O2  UNL     1       4.438  -6.186 -12.233  1.00  0.00    -0.346 OA
ATOM     23  H2  UNL     1       4.914  -6.538 -12.975  1.00  0.00     0.219 HD
ENDBRANCH   7  22
ENDBRANCH   1   7
BRANCH   6  24
HETATM   24  O5  UNL     1       5.389  -5.963 -14.878  1.00  0.00    -0.278 OA
BRANCH  24  25
HETATM   25  C20 UNL     1       6.443  -6.456 -15.600  1.00  0.00     0.268 C 
HETATM   26  O6  UNL     1       7.551  -6.636 -15.024  1.00  0.00    -0.264 OA
BRANCH  25  27
HETATM   27  C21 UNL     1       6.335  -6.793 -17.055  1.00  0.00     0.086 A 
HETATM   28  C22 UNL     1       5.124  -6.438 -17.836  1.00  0.00     0.015 A 
HETATM   29  C23 UNL     1       5.166  -7.830 -17.286  1.00  0.00     0.015 A 
ENDBRANCH  25  27
ENDBRANCH  24  25
ENDBRANCH   6  24
BRANCH   3  30
HETATM   30  S1  UNL     1       4.413  -0.212 -14.011  1.00  0.00     0.260 S 
HETATM   31  O3  UNL     1       5.592   0.401 -13.333  1.00  0.00    -0.200 OA
HETATM   32  O4  UNL     1       3.238  -0.091 -13.027  1.00  0.00    -0.200 OA
BRANCH  30  33
HETATM   33  N3  UNL     1       4.063   0.583 -15.458  1.00  0.00    -0.307 N 
HETATM   34  C11 UNL     1       4.553  -0.026 -16.659  1.00  0.00     0.136 C 
HETATM   35  C12 UNL     1       5.932   0.421 -17.058  1.00  0.00     0.034 C 
HETATM   36  C13 UNL     1       5.916   1.915 -17.203  1.00  0.00     0.096 C 
HETATM   37  C15 UNL     1       5.659   2.446 -15.783  1.00  0.00     0.034 C 
HETATM   38  C16 UNL     1       4.242   1.998 -15.457  1.00  0.00     0.136 C 
BRANCH  36  39
HETATM   39  C14 UNL     1       7.157   2.502 -17.808  1.00  0.00     0.391 C 
HETATM   40  F1  UNL     1       6.807   3.241 -18.892  1.00  0.00    -0.171 F 
HETATM   41  F2  UNL     1       7.694   3.375 -16.860  1.00  0.00    -0.171 F 
HETATM   42  F3  UNL     1       8.092   1.519 -18.068  1.00  0.00    -0.171 F 
ENDBRANCH  36  39
ENDBRANCH  30  33
ENDBRANCH   3  30
TORSDOF 11
ENDMDL
MODEL 2
REMARK VINA RESULT: -9.630287025      4.106      4.934
REMARK  11 active torsions:
REMARK  status: ('A' for Active; 'I' for Inactive)
REMARK       I    between atoms: N1_5  and  C5_6 
REMARK    1  A    between atoms: C5_6  and  C6_8 
REMARK    2  A    between atoms: C6_8  and  N2_9 
REMARK    3  A    between atoms: N2_9  and  C7_11 
REMARK    4  A    between atoms: C7_11  and  O2_12 
REMARK    5  A    between atoms: C7_11  and  C8_14 
REMARK    6  A    between atoms: C10_16  and  S1_17 
REMARK    7  A    between atoms: S1_17  and  N3_20 
REMARK    8  A    between atoms: C13_23  and  C14_24 
REMARK    9  A    between atoms: C19_32  and  O5_33 
REMARK   10  A    between atoms: O5_33  and  C20_34 
REMARK   11  A    between atoms: C20_34  and  C21_36 
ROOT
HETATM    1  C8  UNL     1       4.392  -4.882 -12.569  1.00  0.00     0.050 A 
HETATM    2  C9  UNL     1       3.811  -3.600 -12.369  1.00  0.00     0.044 A 
HETATM    3  C10 UNL     1       3.898  -2.559 -13.226  1.00  0.00     0.080 A 
HETATM    4  C17 UNL     1       4.600  -2.698 -14.398  1.00  0.00     0.028 A 
HETATM    5  C18 UNL     1       5.185  -3.915 -14.640  1.00  0.00     0.040 A 
HETATM    6  C19 UNL     1       5.088  -5.005 -13.743  1.00  0.00     0.093 A 
ENDROOT
BRANCH   1   7
HETATM    7  C7  UNL     1       4.147  -5.908 -11.620  1.00  0.00     0.150 C 
BRANCH   7   8
HETATM    8  N2  UNL     1       3.257  -6.042 -10.536  1.00  0.00    -0.351 N 
ATOM      9  H2  UNL     1       2.262  -5.834 -10.626  1.00  0.00     0.163 HD
BRANCH   8  10
HETATM   10  C6  UNL     1       3.850  -6.502  -9.252  1.00  0.00     0.131 A 
HETATM   11  C24 UNL     1       4.824  -5.575  -8.638  1.00  0.00     0.066 A 
HETATM   12  C25 UNL     1       3.463  -5.680  -8.042  1.00  0.00     0.122 A 
HETATM   13 CL1  UNL     1       2.287  -4.367  -8.206  1.00  0.00    -0.122 Cl
BRANCH  10  14
HETATM   14  C5  UNL     1       3.903  -7.946  -8.955  1.00  0.00     0.249 C 
HETATM   15  N1  UNL     1       2.840  -8.789  -8.714  1.00  0.00    -0.350 N 
HETATM   16  C4  UNL     1       1.412  -8.429  -8.542  1.00  0.00     0.126 C 
HETATM   17  C26 UNL     1       2.799 -10.235  -8.473  1.00  0.00     0.130 C 
HETATM   18  C3  UNL     1       1.349  -8.930  -7.054  1.00  0.00     0.026 C 
HETATM   19  C2  UNL     1       2.110 -10.224  -7.094  1.00  0.00     0.001 C 
HETATM   20  C1  UNL     1       3.182 -10.256  -5.996  1.00  0.00     0.011 C 
HETATM   21  O1  UNL     1       5.098  -8.443  -8.910  1.00  0.00    -0.270 OA
ENDBRANCH  10  14
ENDBRANCH   8  10
ENDBRANCH   7   8
BRANCH   7  22
HETATM   22  O2  UNL     1       4.898  -6.970 -11.766  1.00  0.00    -0.346 OA
ATOM     23  H2  UNL     1       5.678  -6.783 -12.275  1.00  0.00     0.219 HD
ENDBRANCH   7  22
ENDBRANCH   1   7
BRANCH   6  24
HETATM   24  O5  UNL     1       5.719  -6.158 -14.119  1.00  0.00    -0.278 OA
BRANCH  24  25
HETATM   25  C20 UNL     1       6.064  -6.540 -15.388  1.00  0.00     0.268 C 
HETATM   26  O6  UNL     1       7.285  -6.663 -15.682  1.00  0.00    -0.264 OA
BRANCH  25  27
HETATM   27  C21 UNL     1       5.046  -6.821 -16.450  1.00  0.00     0.086 A 
HETATM   28  C22 UNL     1       5.456  -7.196 -17.826  1.00  0.00     0.015 A 
HETATM   29  C23 UNL     1       5.153  -5.747 -17.602  1.00  0.00     0.015 A 
ENDBRANCH  25  27
ENDBRANCH  24  25
ENDBRANCH   6  24
BRANCH   3  30
HETATM   30  S1  UNL     1       3.070  -1.029 -12.915  1.00  0.00     0.260 S 
HETATM   31  O3  UNL     1       1.690  -1.339 -12.439  1.00  0.00    -0.200 OA
HETATM   32  O4  UNL     1       2.910  -0.322 -14.271  1.00  0.00    -0.200 OA
BRANCH  30  33
HETATM   33  N3  UNL     1       3.882  -0.037 -11.818  1.00  0.00    -0.307 N 
HETATM   34  C11 UNL     1       5.190  -0.463 -11.415  1.00  0.00     0.136 C 
HETATM   35  C12 UNL     1       5.202  -1.356 -10.206  1.00  0.00     0.034 C 
HETATM   36  C13 UNL     1       4.523  -0.630  -9.080  1.00  0.00     0.096 C 
HETATM   37  C15 UNL     1       3.059  -0.491  -9.528  1.00  0.00     0.034 C 
HETATM   38  C16 UNL     1       3.111   0.452 -10.721  1.00  0.00     0.136 C 
BRANCH  36  39
HETATM   39  C14 UNL     1       4.641  -1.295  -7.741  1.00  0.00     0.391 C 
HETATM   40  F1  UNL     1       5.242  -0.434  -6.879  1.00  0.00    -0.171 F 
HETATM   41  F2  UNL     1       3.341  -1.511  -7.282  1.00  0.00    -0.171 F 
HETATM   42  F3  UNL     1       5.270  -2.520  -7.851  1.00  0.00    -0.171 F 
ENDBRANCH  36  39
ENDBRANCH  30  33
ENDBRANCH   3  30
TORSDOF 11
ENDMDL
MODEL 3
REMARK VINA RESULT: -9.589071668      3.502      4.164
REMARK  11 active torsions:
REMARK  status: ('A' for Active; 'I' for Inactive)
REMARK       I    between atoms: N1_5  and  C5_6 
REMARK    1  A    between atoms: C5_6  and  C6_8 
REMARK    2  A    between atoms: C6_8  and  N2_9 
REMARK    3  A    between atoms: N2_9  and  C7_11 
REMARK    4  A    between atoms: C7_11  and  O2_12 
REMARK    5  A    between atoms: C7_11  and  C8_14 
REMARK    6  A    between atoms: C10_16  and  S1_17 
REMARK    7  A    between atoms: S1_17  and  N3_20 
REMARK    8  A    between atoms: C13_23  and  C14_24 
REMARK    9  A    between atoms: C19_32  and  O5_33 
REMARK   10  A    between atoms: O5_33  and  C20_34 
REMARK   11  A    between atoms: C20_34  and  C21_36 
ROOT
HETATM    1  C8  UNL     1       4.169  -4.230 -13.166  1.00  0.00     0.050 A 
HETATM    2  C9  UNL     1       3.664  -2.901 -13.129  1.00  0.00     0.044 A 
HETATM    3  C10 UNL     1       4.024  -1.903 -13.966  1.00  0.00     0.080 A 
HETATM    4  C17 UNL     1       4.956  -2.140 -14.947  1.00  0.00     0.028 A 
HETATM    5  C18 UNL     1       5.479  -3.406 -15.026  1.00  0.00     0.040 A 
HETATM    6  C19 UNL     1       5.097  -4.449 -14.151  1.00  0.00     0.093 A 
ENDROOT
BRANCH   1   7
HETATM    7  C7  UNL     1       3.636  -5.197 -12.275  1.00  0.00     0.150 C 
BRANCH   7   8
HETATM    8  N2  UNL     1       2.452  -5.276 -11.516  1.00  0.00    -0.351 N 
ATOM      9  H2  UNL     1       1.548  -5.471 -11.946  1.00  0.00     0.163 HD
BRANCH   8  10
HETATM   10  C6  UNL     1       2.594  -5.059 -10.051  1.00  0.00     0.131 A 
HETATM   11  C24 UNL     1       3.473  -3.936  -9.662  1.00  0.00     0.066 A 
HETATM   12  C25 UNL     1       1.999  -3.765  -9.540  1.00  0.00     0.122 A 
HETATM   13 CL1  UNL     1       1.105  -2.707 -10.643  1.00  0.00    -0.122 Cl
BRANCH  10  14
HETATM   14  C5  UNL     1       2.366  -6.185  -9.126  1.00  0.00     0.249 C 
HETATM   15  N1  UNL     1       3.318  -7.000  -8.553  1.00  0.00    -0.350 N 
HETATM   16  C4  UNL     1       4.772  -7.048  -8.842  1.00  0.00     0.126 C 
HETATM   17  C26 UNL     1       3.186  -8.093  -7.584  1.00  0.00     0.130 C 
HETATM   18  C3  UNL     1       4.729  -8.520  -9.390  1.00  0.00     0.026 C 
HETATM   19  C2  UNL     1       3.827  -9.223  -8.416  1.00  0.00     0.001 C 
HETATM   20  C1  UNL     1       2.723  -9.990  -9.156  1.00  0.00     0.011 C 
HETATM   21  O1  UNL     1       1.122  -6.413  -8.852  1.00  0.00    -0.270 OA
ENDBRANCH  10  14
ENDBRANCH   8  10
ENDBRANCH   7   8
BRANCH   7  22
HETATM   22  O2  UNL     1       4.392  -6.253 -12.109  1.00  0.00    -0.346 OA
ATOM     23  H2  UNL     1       4.519  -6.727 -12.922  1.00  0.00     0.219 HD
ENDBRANCH   7  22
ENDBRANCH   1   7
BRANCH   6  24
HETATM   24  O5  UNL     1       5.699  -5.660 -14.351  1.00  0.00    -0.278 OA
BRANCH  24  25
HETATM   25  C20 UNL     1       6.016  -6.242 -15.549  1.00  0.00     0.268 C 
HETATM   26  O6  UNL     1       7.206  -6.608 -15.758  1.00  0.00    -0.264 OA
BRANCH  25  27
HETATM   27  C21 UNL     1       5.004  -6.464 -16.630  1.00  0.00     0.086 A 
HETATM   28  C22 UNL     1       5.393  -7.055 -17.934  1.00  0.00     0.015 A 
HETATM   29  C23 UNL     1       5.339  -5.560 -17.881  1.00  0.00     0.015 A 
ENDBRANCH  25  27
ENDBRANCH  24  25
ENDBRANCH   6  24
BRANCH   3  30
HETATM   30  S1  UNL     1       3.275  -0.305 -13.881  1.00  0.00     0.260 S 
HETATM   31  O3  UNL     1       1.820  -0.490 -13.610  1.00  0.00    -0.200 OA
HETATM   32  O4  UNL     1       3.377   0.312 -15.286  1.00  0.00    -0.200 OA
BRANCH  30  33
HETATM   33  N3  UNL     1       3.983   0.708 -12.733  1.00  0.00    -0.307 N 
HETATM   34  C11 UNL     1       5.174   0.224 -12.097  1.00  0.00     0.136 C 
HETATM   35  C12 UNL     1       4.924  -0.574 -10.848  1.00  0.00     0.034 C 
HETATM   36  C13 UNL     1       4.138   0.280  -9.895  1.00  0.00     0.096 C 
HETATM   37  C15 UNL     1       2.778   0.487 -10.582  1.00  0.00     0.034 C 
HETATM   38  C16 UNL     1       3.092   1.331 -11.808  1.00  0.00     0.136 C 
BRANCH  36  39
HETATM   39  C14 UNL     1       3.991  -0.288  -8.515  1.00  0.00     0.391 C 
HETATM   40  F1  UNL     1       4.962  -1.217  -8.321  1.00  0.00    -0.171 F 
HETATM   41  F2  UNL     1       4.224   0.758  -7.621  1.00  0.00    -0.171 F 
HETATM   42  F3  UNL     1       2.708  -0.756  -8.307  1.00  0.00    -0.171 F 
ENDBRANCH  36  39
ENDBRANCH  30  33
ENDBRANCH   3  30
TORSDOF 11
ENDMDL
MODEL 4
REMARK VINA RESULT: -9.579186839      4.113      5.080
REMARK  11 active torsions:
REMARK  status: ('A' for Active; 'I' for Inactive)
REMARK       I    between atoms: N1_5  and  C5_6 
REMARK    1  A    between atoms: C5_6  and  C6_8 
REMARK    2  A    between atoms: C6_8  and  N2_9 
REMARK    3  A    between atoms: N2_9  and  C7_11 
REMARK    4  A    between atoms: C7_11  and  O2_12 
REMARK    5  A    between atoms: C7_11  and  C8_14 
REMARK    6  A    between atoms: C10_16  and  S1_17 
REMARK    7  A    between atoms: S1_17  and  N3_20 
REMARK    8  A    between atoms: C13_23  and  C14_24 
REMARK    9  A    between atoms: C19_32  and  O5_33 
REMARK   10  A    between atoms: O5_33  and  C20_34 
REMARK   11  A    between atoms: C20_34  and  C21_36 
ROOT
HETATM    1  C8  UNL     1       4.676  -4.619 -12.781  1.00  0.00     0.050 A 
HETATM    2  C9  UNL     1       4.559  -3.273 -12.338  1.00  0.00     0.044 A 
HETATM    3  C10 UNL     1       4.773  -2.177 -13.099  1.00  0.00     0.080 A 
HETATM    4  C17 UNL     1       5.141  -2.322 -14.414  1.00  0.00     0.028 A 
HETATM    5  C18 UNL     1       5.272  -3.601 -14.893  1.00  0.00     0.040 A 
HETATM    6  C19 UNL     1       5.044  -4.746 -14.095  1.00  0.00     0.093 A 
ENDROOT
BRANCH   1   7
HETATM    7  C7  UNL     1       4.340  -5.672 -11.891  1.00  0.00     0.150 C 
BRANCH   7   8
HETATM    8  N2  UNL     1       3.514  -5.759 -10.752  1.00  0.00    -0.351 N 
ATOM      9  H2  UNL     1       2.544  -5.446 -10.764  1.00  0.00     0.163 HD
BRANCH   8  10
HETATM   10  C6  UNL     1       4.139  -6.335  -9.531  1.00  0.00     0.131 A 
HETATM   11  C24 UNL     1       5.250  -5.546  -8.959  1.00  0.00     0.066 A 
HETATM   12  C25 UNL     1       3.931  -5.525  -8.269  1.00  0.00     0.122 A 
HETATM   13 CL1  UNL     1       2.901  -4.086  -8.303  1.00  0.00    -0.122 Cl
BRANCH  10  14
HETATM   14  C5  UNL     1       4.051  -7.787  -9.286  1.00  0.00     0.249 C 
HETATM   15  N1  UNL     1       2.932  -8.506  -8.923  1.00  0.00    -0.350 N 
HETATM   16  C4  UNL     1       1.598  -7.985  -8.539  1.00  0.00     0.126 C 
HETATM   17  C26 UNL     1       2.744  -9.946  -8.721  1.00  0.00     0.130 C 
HETATM   18  C3  UNL     1       1.677  -8.543  -7.072  1.00  0.00     0.026 C 
HETATM   19  C2  UNL     1       2.256  -9.916  -7.257  1.00  0.00     0.001 C 
HETATM   20  C1  UNL     1       3.456 -10.128  -6.324  1.00  0.00     0.011 C 
HETATM   21  O1  UNL     1       5.168  -8.425  -9.426  1.00  0.00    -0.270 OA
ENDBRANCH  10  14
ENDBRANCH   8  10
ENDBRANCH   7   8
BRANCH   7  22
HETATM   22  O2  UNL     1       4.906  -6.817 -12.171  1.00  0.00    -0.346 OA
ATOM     23  H2  UNL     1       4.672  -7.490 -11.542  1.00  0.00     0.219 HD
ENDBRANCH   7  22
ENDBRANCH   1   7
BRANCH   6  24
HETATM   24  O5  UNL     1       5.208  -5.957 -14.709  1.00  0.00    -0.278 OA
BRANCH  24  25
HETATM   25  C20 UNL     1       6.307  -6.395 -15.400  1.00  0.00     0.268 C 
HETATM   26  O6  UNL     1       7.359  -6.679 -14.763  1.00  0.00    -0.264 OA
BRANCH  25  27
HETATM   27  C21 UNL     1       6.313  -6.552 -16.889  1.00  0.00     0.086 A 
HETATM   28  C22 UNL     1       5.143  -6.145 -17.706  1.00  0.00     0.015 A 
HETATM   29  C23 UNL     1       5.209  -7.592 -17.328  1.00  0.00     0.015 A 
ENDBRANCH  25  27
ENDBRANCH  24  25
ENDBRANCH   6  24
BRANCH   3  30
HETATM   30  S1  UNL     1       4.522  -0.545 -12.468  1.00  0.00     0.260 S 
HETATM   31  O3  UNL     1       5.173   0.417 -13.404  1.00  0.00    -0.200 OA
HETATM   32  O4  UNL     1       5.299  -0.453 -11.145  1.00  0.00    -0.200 OA
BRANCH  30  33
HETATM   33  N3  UNL     1       2.896  -0.160 -12.232  1.00  0.00    -0.307 N 
HETATM   34  C11 UNL     1       2.620   0.983 -11.412  1.00  0.00     0.136 C 
HETATM   35  C12 UNL     1       2.482   0.671  -9.948  1.00  0.00     0.034 C 
HETATM   36  C13 UNL     1       1.398  -0.356  -9.789  1.00  0.00     0.096 C 
HETATM   37  C15 UNL     1       1.948  -1.619 -10.472  1.00  0.00     0.034 C 
HETATM   38  C16 UNL     1       2.025  -1.254 -11.947  1.00  0.00     0.136 C 
BRANCH  36  39
HETATM   39  C14 UNL     1       0.984  -0.619  -8.371  1.00  0.00     0.391 C 
HETATM   40  F1  UNL     1       0.414  -1.850  -8.305  1.00  0.00    -0.171 F 
HETATM   41  F2  UNL     1       2.152  -0.655  -7.609  1.00  0.00    -0.171 F 
HETATM   42  F3  UNL     1       0.186   0.402  -7.892  1.00  0.00    -0.171 F 
ENDBRANCH  36  39
ENDBRANCH  30  33
ENDBRANCH   3  30
TORSDOF 11
ENDMDL
MODEL 5
REMARK VINA RESULT: -9.520185080      1.688      2.231
REMARK  11 active torsions:
REMARK  status: ('A' for Active; 'I' for Inactive)
REMARK       I    between atoms: N1_5  and  C5_6 
REMARK    1  A    between atoms: C5_6  and  C6_8 
REMARK    2  A    between atoms: C6_8  and  N2_9 
REMARK    3  A    between atoms: N2_9  and  C7_11 
REMARK    4  A    between atoms: C7_11  and  O2_12 
REMARK    5  A    between atoms: C7_11  and  C8_14 
REMARK    6  A    between atoms: C10_16  and  S1_17 
REMARK    7  A    between atoms: S1_17  and  N3_20 
REMARK    8  A    between atoms: C13_23  and  C14_24 
REMARK    9  A    between atoms: C19_32  and  O5_33 
REMARK   10  A    between atoms: O5_33  and  C20_34 
REMARK   11  A    between atoms: C20_34  and  C21_36 
ROOT
HETATM    1  C8  UNL     1       4.429  -4.519 -13.028  1.00  0.00     0.050 A 
HETATM    2  C9  UNL     1       4.190  -3.132 -12.828  1.00  0.00     0.044 A 
HETATM    3  C10 UNL     1       4.531  -2.147 -13.688  1.00  0.00     0.080 A 
HETATM    4  C17 UNL     1       5.168  -2.460 -14.864  1.00  0.00     0.028 A 
HETATM    5  C18 UNL     1       5.427  -3.785 -15.107  1.00  0.00     0.040 A 
HETATM    6  C19 UNL     1       5.064  -4.814 -14.206  1.00  0.00     0.093 A 
ENDROOT
BRANCH   1   7
HETATM    7  C7  UNL     1       3.939  -5.449 -12.075  1.00  0.00     0.150 C 
BRANCH   7   8
HETATM    8  N2  UNL     1       2.852  -5.446 -11.179  1.00  0.00    -0.351 N 
ATOM      9  H2  UNL     1       1.885  -5.478 -11.503  1.00  0.00     0.163 HD
BRANCH   8  10
HETATM   10  C6  UNL     1       3.193  -5.394  -9.732  1.00  0.00     0.131 A 
HETATM   11  C24 UNL     1       4.347  -4.538  -9.386  1.00  0.00     0.066 A 
HETATM   12  C25 UNL     1       2.976  -4.047  -9.076  1.00  0.00     0.122 A 
HETATM   13 CL1  UNL     1       2.246  -2.724  -9.998  1.00  0.00    -0.122 Cl
BRANCH  10  14
HETATM   14  C5  UNL     1       2.805  -6.514  -8.854  1.00  0.00     0.249 C 
HETATM   15  N1  UNL     1       3.608  -7.539  -8.404  1.00  0.00    -0.350 N 
HETATM   16  C4  UNL     1       5.000  -7.852  -8.808  1.00  0.00     0.126 C 
HETATM   17  C26 UNL     1       3.322  -8.649  -7.488  1.00  0.00     0.130 C 
HETATM   18  C3  UNL     1       4.625  -9.246  -9.430  1.00  0.00     0.026 C 
HETATM   19  C2  UNL     1       3.666  -9.823  -8.428  1.00  0.00     0.001 C 
HETATM   20  C1  UNL     1       2.383 -10.304  -9.121  1.00  0.00     0.011 C 
HETATM   21  O1  UNL     1       1.561  -6.511  -8.497  1.00  0.00    -0.270 OA
ENDBRANCH  10  14
ENDBRANCH   8  10
ENDBRANCH   7   8
BRANCH   7  22
HETATM   22  O2  UNL     1       4.631  -6.557 -11.997  1.00  0.00    -0.346 OA
ATOM     23  H2  UNL     1       5.566  -6.391 -12.020  1.00  0.00     0.219 HD
ENDBRANCH   7  22
ENDBRANCH   1   7
BRANCH   6  24
HETATM   24  O5  UNL     1       5.382  -6.090 -14.582  1.00  0.00    -0.278 OA
BRANCH  24  25
HETATM   25  C20 UNL     1       6.458  -6.492 -15.329  1.00  0.00     0.268 C 
HETATM   26  O6  UNL     1       7.589  -6.580 -14.777  1.00  0.00    -0.264 OA
BRANCH  25  27
HETATM   27  C21 UNL     1       6.347  -6.835 -16.782  1.00  0.00     0.086 A 
HETATM   28  C22 UNL     1       5.139  -6.475 -17.564  1.00  0.00     0.015 A 
HETATM   29  C23 UNL     1       5.172  -7.865 -17.008  1.00  0.00     0.015 A 
ENDBRANCH  25  27
ENDBRANCH  24  25
ENDBRANCH   6  24
BRANCH   3  30
HETATM   30  S1  UNL     1       4.117  -0.458 -13.377  1.00  0.00     0.260 S 
HETATM   31  O3  UNL     1       3.888  -0.300 -11.911  1.00  0.00    -0.200 OA
HETATM   32  O4  UNL     1       2.762  -0.197 -14.056  1.00  0.00    -0.200 OA
BRANCH  30  33
HETATM   33  N3  UNL     1       5.280   0.632 -13.931  1.00  0.00    -0.307 N 
HETATM   34  C11 UNL     1       5.600   1.726 -13.063  1.00  0.00     0.136 C 
HETATM   35  C12 UNL     1       4.746   2.946 -13.270  1.00  0.00     0.034 C 
HETATM   36  C13 UNL     1       4.873   3.368 -14.705  1.00  0.00     0.096 C 
HETATM   37  C15 UNL     1       4.235   2.225 -15.510  1.00  0.00     0.034 C 
HETATM   38  C16 UNL     1       5.163   1.039 -15.294  1.00  0.00     0.136 C 
BRANCH  36  39
HETATM   39  C14 UNL     1       4.255   4.697 -15.027  1.00  0.00     0.391 C 
HETATM   40  F1  UNL     1       4.631   5.594 -14.078  1.00  0.00    -0.171 F 
HETATM   41  F2  UNL     1       4.803   5.114 -16.241  1.00  0.00    -0.171 F 
HETATM   42  F3  UNL     1       2.888   4.580 -15.187  1.00  0.00    -0.171 F 
ENDBRANCH  36  39
ENDBRANCH  30  33
ENDBRANCH   3  30
TORSDOF 11
ENDMDL
