MODEL 1
REMARK VINA RESULT: -9.993343260      0.000      0.000
REMARK  8 active torsions:
REMARK  status: ('A' for Active; 'I' for Inactive)
REMARK    1  A    between atoms: C2_2  and  N2_6 
REMARK       I    between atoms: N2_6  and  C5_8 
REMARK    2  A    between atoms: C5_8  and  C6_10 
REMARK    3  A    between atoms: N3_13  and  C9_14 
REMARK    4  A    between atoms: C9_14  and  C10_15 
REMARK    5  A    between atoms: C10_15  and  C11_16 
REMARK    6  A    between atoms: N4_21  and  C15_22 
REMARK       I    between atoms: N5_25  and  C18_26 
REMARK    7  A    between atoms: C18_26  and  C19_28 
REMARK    8  A    between atoms: N6_32  and  C23_33 
ROOT
HETATM    1  C1  UNL     1       7.215  -6.765 -15.505  1.00  0.00     0.055 C 
HETATM    2  C2  UNL     1       5.782  -6.609 -15.953  1.00  0.00     0.114 C 
HETATM    3  C3  UNL     1       5.794  -5.816 -17.236  1.00  0.00     0.055 C 
HETATM    4  C4  UNL     1       5.260  -7.973 -16.188  1.00  0.00     0.090 C 
HETATM    5  N1  UNL     1       4.866  -9.042 -16.378  1.00  0.00    -0.195 NA
ENDROOT
BRANCH   2   6
HETATM    6  N2  UNL     1       5.022  -5.995 -14.910  1.00  0.00    -0.339 N 
HETATM    7  C5  UNL     1       5.048  -4.605 -14.623  1.00  0.00     0.223 C 
HETATM    8  O1  UNL     1       5.792  -3.861 -15.338  1.00  0.00    -0.273 OA
ATOM      9  H2  UNL     1       4.425  -6.592 -14.337  1.00  0.00     0.164 HD
BRANCH   7  10
HETATM   10  C6  UNL     1       4.220  -4.062 -13.514  1.00  0.00     0.082 C 
HETATM   11  C7  UNL     1       3.264  -3.023 -13.972  1.00  0.00     0.044 C 
HETATM   12  C8  UNL     1       3.283  -1.711 -13.290  1.00  0.00     0.274 C 
HETATM   13  N3  UNL     1       3.715  -1.774 -11.883  1.00  0.00     0.097 N 
HETATM   14  C27 UNL     1       5.034  -2.290 -11.922  1.00  0.00     0.153 C 
HETATM   15  C28 UNL     1       5.778  -1.426 -12.966  1.00  0.00     0.049 C 
HETATM   16  C29 UNL     1       5.833  -2.148 -10.652  1.00  0.00     0.049 C 
HETATM   17  C30 UNL     1       5.072  -3.735 -12.339  1.00  0.00     0.055 C 
BRANCH  13  18
HETATM   18  C9  UNL     1       2.710  -2.473 -11.182  1.00  0.00     0.275 C 
BRANCH  18  19
HETATM   19  C10 UNL     1       2.135  -1.826  -9.970  1.00  0.00     0.055 C 
BRANCH  19  20
HETATM   20  C11 UNL     1       2.711  -2.393  -8.679  1.00  0.00     0.084 C 
HETATM   21  C12 UNL     1       2.657  -1.296  -7.603  1.00  0.00     0.064 C 
HETATM   22  C13 UNL     1       2.369  -2.105  -6.364  1.00  0.00     0.189 C 
HETATM   23  F1  UNL     1       3.579  -2.492  -5.837  1.00  0.00    -0.248 F 
HETATM   24  C14 UNL     1       1.511  -3.207  -6.871  1.00  0.00     0.155 C 
HETATM   25  N4  UNL     1       1.976  -3.481  -8.179  1.00  0.00    -0.401 N 
BRANCH  25  26
HETATM   26  C15 UNL     1       2.314  -4.795  -8.494  1.00  0.00     0.082 C 
HETATM   27  C16 UNL     1       1.610  -5.910  -7.799  1.00  0.00     0.045 C 
HETATM   28  C17 UNL     1       1.824  -7.171  -8.663  1.00  0.00     0.127 C 
HETATM   29  N5  UNL     1       3.223  -7.467  -8.658  1.00  0.00    -0.351 N 
HETATM   30  C18 UNL     1       3.720  -8.698  -8.212  1.00  0.00     0.230 C 
HETATM   31  C25 UNL     1       4.094  -6.401  -9.152  1.00  0.00     0.127 C 
HETATM   32  O2  UNL     1       5.007  -8.808  -8.266  1.00  0.00    -0.272 OA
HETATM   33  C26 UNL     1       3.792  -5.094  -8.401  1.00  0.00     0.045 C 
BRANCH  30  34
HETATM   34  C19 UNL     1       3.012  -9.860  -7.705  1.00  0.00     0.066 C 
HETATM   35  C20 UNL     1       3.395 -10.084  -6.230  1.00  0.00     0.027 C 
HETATM   36  C21 UNL     1       1.515  -9.789  -7.720  1.00  0.00     0.051 C 
HETATM   37  C22 UNL     1       1.041 -11.189  -8.030  1.00  0.00     0.285 C 
HETATM   38  N6  UNL     1       2.177 -11.977  -8.349  1.00  0.00     0.198 N 
HETATM   39  C24 UNL     1       3.344 -11.164  -8.391  1.00  0.00     0.303 C 
BRANCH  38  40
HETATM   40  C23 UNL     1       2.027 -12.901  -9.429  1.00  0.00     0.603 C 
HETATM   41  F2  UNL     1       2.251 -14.171  -8.909  1.00  0.00    -0.144 F 
HETATM   42  F3  UNL     1       2.952 -12.671 -10.429  1.00  0.00    -0.144 F 
HETATM   43  F4  UNL     1       0.794 -12.926 -10.015  1.00  0.00    -0.144 F 
ENDBRANCH  38  40
ENDBRANCH  30  34
ENDBRANCH  25  26
ENDBRANCH  19  20
ENDBRANCH  18  19
ENDBRANCH  13  18
ENDBRANCH   7  10
ENDBRANCH   2   6
TORSDOF 8
ENDMDL
MODEL 2
REMARK VINA RESULT: -9.842852645      1.008      1.360
REMARK  8 active torsions:
REMARK  status: ('A' for Active; 'I' for Inactive)
REMARK    1  A    between atoms: C2_2  and  N2_6 
REMARK       I    between atoms: N2_6  and  C5_8 
REMARK    2  A    between atoms: C5_8  and  C6_10 
REMARK    3  A    between atoms: N3_13  and  C9_14 
REMARK    4  A    between atoms: C9_14  and  C10_15 
REMARK    5  A    between atoms: C10_15  and  C11_16 
REMARK    6  A    between atoms: N4_21  and  C15_22 
REMARK       I    between atoms: N5_25  and  C18_26 
REMARK    7  A    between atoms: C18_26  and  C19_28 
REMARK    8  A    between atoms: N6_32  and  C23_33 
ROOT
HETATM    1  C1  UNL     1       7.220  -6.628 -15.577  1.00  0.00     0.055 C 
HETATM    2  C2  UNL     1       5.780  -6.488 -16.007  1.00  0.00     0.114 C 
HETATM    3  C3  UNL     1       5.767  -5.683 -17.283  1.00  0.00     0.055 C 
HETATM    4  C4  UNL     1       5.274  -7.856 -16.249  1.00  0.00     0.090 C 
HETATM    5  N1  UNL     1       4.893  -8.929 -16.445  1.00  0.00    -0.195 NA
ENDROOT
BRANCH   2   6
HETATM    6  N2  UNL     1       5.024  -5.894 -14.950  1.00  0.00    -0.339 N 
HETATM    7  C5  UNL     1       5.015  -4.503 -14.666  1.00  0.00     0.223 C 
HETATM    8  O1  UNL     1       5.723  -3.739 -15.397  1.00  0.00    -0.273 OA
ATOM      9  H2  UNL     1       4.455  -6.506 -14.365  1.00  0.00     0.164 HD
BRANCH   7  10
HETATM   10  C6  UNL     1       4.194  -3.981 -13.542  1.00  0.00     0.082 C 
HETATM   11  C7  UNL     1       3.235  -2.934 -13.974  1.00  0.00     0.044 C 
HETATM   12  C8  UNL     1       3.258  -1.635 -13.267  1.00  0.00     0.274 C 
HETATM   13  N3  UNL     1       3.699  -1.725 -11.864  1.00  0.00     0.097 N 
HETATM   14  C27 UNL     1       5.017  -2.240 -11.921  1.00  0.00     0.153 C 
HETATM   15  C28 UNL     1       5.755  -1.356 -12.952  1.00  0.00     0.049 C 
HETATM   16  C29 UNL     1       5.824  -2.122 -10.653  1.00  0.00     0.049 C 
HETATM   17  C30 UNL     1       5.053  -3.676 -12.366  1.00  0.00     0.055 C 
BRANCH  13  18
HETATM   18  C9  UNL     1       2.698  -2.438 -11.171  1.00  0.00     0.275 C 
BRANCH  18  19
HETATM   19  C10 UNL     1       2.156  -1.831  -9.924  1.00  0.00     0.055 C 
BRANCH  19  20
HETATM   20  C11 UNL     1       2.709  -2.489  -8.667  1.00  0.00     0.084 C 
HETATM   21  C12 UNL     1       2.591  -1.490  -7.505  1.00  0.00     0.064 C 
HETATM   22  C13 UNL     1       2.290  -2.408  -6.348  1.00  0.00     0.189 C 
HETATM   23  F1  UNL     1       3.495  -2.806  -5.817  1.00  0.00    -0.248 F 
HETATM   24  C14 UNL     1       1.480  -3.486  -6.973  1.00  0.00     0.155 C 
HETATM   25  N4  UNL     1       1.992  -3.635  -8.284  1.00  0.00    -0.401 N 
BRANCH  25  26
HETATM   26  C15 UNL     1       2.377  -4.908  -8.698  1.00  0.00     0.082 C 
HETATM   27  C16 UNL     1       2.138  -6.067  -7.791  1.00  0.00     0.045 C 
HETATM   28  C17 UNL     1       2.203  -7.334  -8.671  1.00  0.00     0.127 C 
HETATM   29  N5  UNL     1       3.537  -7.442  -9.175  1.00  0.00    -0.351 N 
HETATM   30  C18 UNL     1       4.331  -8.571  -8.939  1.00  0.00     0.230 C 
HETATM   31  C25 UNL     1       4.009  -6.298  -9.955  1.00  0.00     0.127 C 
HETATM   32  O2  UNL     1       5.514  -8.513  -9.458  1.00  0.00    -0.272 OA
HETATM   33  C26 UNL     1       3.816  -5.004  -9.149  1.00  0.00     0.045 C 
BRANCH  30  34
HETATM   34  C19 UNL     1       4.027  -9.786  -8.206  1.00  0.00     0.066 C 
HETATM   35  C20 UNL     1       5.188 -10.785  -8.374  1.00  0.00     0.027 C 
HETATM   36  C21 UNL     1       3.838  -9.645  -6.726  1.00  0.00     0.051 C 
HETATM   37  C22 UNL     1       2.760 -10.634  -6.353  1.00  0.00     0.285 C 
HETATM   38  N6  UNL     1       2.235 -11.185  -7.551  1.00  0.00     0.198 N 
HETATM   39  C24 UNL     1       2.804 -10.534  -8.682  1.00  0.00     0.303 C 
BRANCH  38  40
HETATM   40  C23 UNL     1       0.820 -11.376  -7.595  1.00  0.00     0.603 C 
HETATM   41  F2  UNL     1       0.564 -12.261  -8.637  1.00  0.00    -0.144 F 
HETATM   42  F3  UNL     1       0.152 -10.195  -7.855  1.00  0.00    -0.144 F 
HETATM   43  F4  UNL     1       0.264 -11.917  -6.472  1.00  0.00    -0.144 F 
ENDBRANCH  38  40
ENDBRANCH  30  34
ENDBRANCH  25  26
ENDBRANCH  19  20
ENDBRANCH  18  19
ENDBRANCH  13  18
ENDBRANCH   7  10
ENDBRANCH   2   6
TORSDOF 8
ENDMDL
MODEL 3
REMARK VINA RESULT: -9.818784750      1.769      2.235
REMARK  8 active torsions:
REMARK  status: ('A' for Active; 'I' for Inactive)
REMARK    1  A    between atoms: C2_2  and  N2_6 
REMARK       I    between atoms: N2_6  and  C5_8 
REMARK    2  A    between atoms: C5_8  and  C6_10 
REMARK    3  A    between atoms: N3_13  and  C9_14 
REMARK    4  A    between atoms: C9_14  and  C10_15 
REMARK    5  A    between atoms: C10_15  and  C11_16 
REMARK    6  A    between atoms: N4_21  and  C15_22 
REMARK       I    between atoms: N5_25  and  C18_26 
REMARK    7  A    between atoms: C18_26  and  C19_28 
REMARK    8  A    between atoms: N6_32  and  C23_33 
ROOT
HETATM    1  C1  UNL     1       5.535  -8.102 -16.167  1.00  0.00     0.055 C 
HETATM    2  C2  UNL     1       5.887  -6.669 -15.847  1.00  0.00     0.114 C 
HETATM    3  C3  UNL     1       7.324  -6.649 -15.389  1.00  0.00     0.055 C 
HETATM    4  C4  UNL     1       5.729  -5.903 -17.102  1.00  0.00     0.090 C 
HETATM    5  N1  UNL     1       5.612  -5.317 -18.091  1.00  0.00    -0.195 NA
ENDROOT
BRANCH   2   6
HETATM    6  N2  UNL     1       4.972  -6.160 -14.875  1.00  0.00    -0.339 N 
HETATM    7  C5  UNL     1       4.961  -4.813 -14.427  1.00  0.00     0.223 C 
HETATM    8  O1  UNL     1       5.816  -4.011 -14.921  1.00  0.00    -0.273 OA
ATOM      9  H2  UNL     1       4.285  -6.802 -14.479  1.00  0.00     0.164 HD
BRANCH   7  10
HETATM   10  C6  UNL     1       3.967  -4.379 -13.409  1.00  0.00     0.082 C 
HETATM   11  C7  UNL     1       3.290  -3.111 -13.777  1.00  0.00     0.044 C 
HETATM   12  C8  UNL     1       3.312  -2.001 -12.800  1.00  0.00     0.274 C 
HETATM   13  N3  UNL     1       3.383  -2.441 -11.396  1.00  0.00     0.097 N 
HETATM   14  C27 UNL     1       4.596  -3.166 -11.295  1.00  0.00     0.153 C 
HETATM   15  C28 UNL     1       5.672  -2.247 -11.917  1.00  0.00     0.049 C 
HETATM   16  C29 UNL     1       5.078  -3.446  -9.894  1.00  0.00     0.049 C 
HETATM   17  C30 UNL     1       4.547  -4.470 -12.042  1.00  0.00     0.055 C 
BRANCH  13  18
HETATM   18  C9  UNL     1       2.158  -3.080 -11.110  1.00  0.00     0.275 C 
BRANCH  18  19
HETATM   19  C10 UNL     1       1.151  -2.321 -10.319  1.00  0.00     0.055 C 
BRANCH  19  20
HETATM   20  C11 UNL     1       1.639  -1.997  -8.913  1.00  0.00     0.084 C 
HETATM   21  C12 UNL     1       1.218  -0.558  -8.574  1.00  0.00     0.064 C 
HETATM   22  C13 UNL     1       0.924  -0.669  -7.101  1.00  0.00     0.189 C 
HETATM   23  F1  UNL     1       2.100  -0.430  -6.429  1.00  0.00    -0.248 F 
HETATM   24  C14 UNL     1       0.381  -2.046  -6.967  1.00  0.00     0.155 C 
HETATM   25  N4  UNL     1       1.071  -2.822  -7.928  1.00  0.00    -0.401 N 
BRANCH  25  26
HETATM   26  C15 UNL     1       1.703  -3.988  -7.501  1.00  0.00     0.082 C 
HETATM   27  C16 UNL     1       1.423  -5.266  -8.214  1.00  0.00     0.045 C 
HETATM   28  C17 UNL     1       2.578  -6.229  -7.860  1.00  0.00     0.127 C 
HETATM   29  N5  UNL     1       2.509  -6.488  -6.456  1.00  0.00    -0.351 N 
HETATM   30  C18 UNL     1       2.374  -7.786  -5.947  1.00  0.00     0.230 C 
HETATM   31  C25 UNL     1       2.593  -5.310  -5.593  1.00  0.00     0.127 C 
HETATM   32  O2  UNL     1       2.322  -7.853  -4.657  1.00  0.00    -0.272 OA
HETATM   33  C26 UNL     1       1.544  -4.274  -6.025  1.00  0.00     0.045 C 
BRANCH  30  34
HETATM   34  C19 UNL     1       2.287  -9.056  -6.644  1.00  0.00     0.066 C 
HETATM   35  C20 UNL     1       1.945 -10.168  -5.634  1.00  0.00     0.027 C 
HETATM   36  C21 UNL     1       1.246  -9.160  -7.716  1.00  0.00     0.051 C 
HETATM   37  C22 UNL     1       1.849 -10.030  -8.793  1.00  0.00     0.285 C 
HETATM   38  N6  UNL     1       3.206 -10.269  -8.455  1.00  0.00     0.198 N 
HETATM   39  C24 UNL     1       3.567  -9.516  -7.303  1.00  0.00     0.303 C 
BRANCH  38  40
HETATM   40  C23 UNL     1       4.144 -10.238  -9.533  1.00  0.00     0.603 C 
HETATM   41  F2  UNL     1       5.286 -10.898  -9.093  1.00  0.00    -0.144 F 
HETATM   42  F3  UNL     1       4.491  -8.944  -9.870  1.00  0.00    -0.144 F 
HETATM   43  F4  UNL     1       3.744 -10.862 -10.680  1.00  0.00    -0.144 F 
ENDBRANCH  38  40
ENDBRANCH  30  34
ENDBRANCH  25  26
ENDBRANCH  19  20
ENDBRANCH  18  19
ENDBRANCH  13  18
ENDBRANCH   7  10
ENDBRANCH   2   6
TORSDOF 8
ENDMDL
MODEL 4
REMARK VINA RESULT: -9.566159359      4.311      8.880
REMARK  8 active torsions:
REMARK  status: ('A' for Active; 'I' for Inactive)
REMARK    1  A    between atoms: C2_2  and  N2_6 
REMARK       I    between atoms: N2_6  and  C5_8 
REMARK    2  A    between atoms: C5_8  and  C6_10 
REMARK    3  A    between atoms: N3_13  and  C9_14 
REMARK    4  A    between atoms: C9_14  and  C10_15 
REMARK    5  A    between atoms: C10_15  and  C11_16 
REMARK    6  A    between atoms: N4_21  and  C15_22 
REMARK       I    between atoms: N5_25  and  C18_26 
REMARK    7  A    between atoms: C18_26  and  C19_28 
REMARK    8  A    between atoms: N6_32  and  C23_33 
ROOT
HETATM    1  C1  UNL     1       3.188  -3.721  -8.561  1.00  0.00     0.055 C 
HETATM    2  C2  UNL     1       3.048  -4.405  -9.899  1.00  0.00     0.114 C 
HETATM    3  C3  UNL     1       4.128  -5.456  -9.983  1.00  0.00     0.055 C 
HETATM    4  C4  UNL     1       1.709  -5.032  -9.918  1.00  0.00     0.090 C 
HETATM    5  N1  UNL     1       0.664  -5.526  -9.917  1.00  0.00    -0.195 NA
ENDROOT
BRANCH   2   6
HETATM    6  N2  UNL     1       3.118  -3.431 -10.942  1.00  0.00    -0.339 N 
HETATM    7  C5  UNL     1       4.286  -2.687 -11.253  1.00  0.00     0.223 C 
HETATM    8  O1  UNL     1       5.333  -2.901 -10.564  1.00  0.00    -0.273 OA
ATOM      9  H2  UNL     1       2.279  -3.260 -11.496  1.00  0.00     0.164 HD
BRANCH   7  10
HETATM   10  C6  UNL     1       4.258  -1.693 -12.359  1.00  0.00     0.082 C 
HETATM   11  C7  UNL     1       5.158  -0.539 -12.112  1.00  0.00     0.044 C 
HETATM   12  C8  UNL     1       4.582   0.821 -12.191  1.00  0.00     0.274 C 
HETATM   13  N3  UNL     1       3.441   0.936 -13.115  1.00  0.00     0.097 N 
HETATM   14  C27 UNL     1       2.459   0.050 -12.604  1.00  0.00     0.153 C 
HETATM   15  C28 UNL     1       2.333   0.404 -11.105  1.00  0.00     0.049 C 
HETATM   16  C29 UNL     1       1.070   0.216 -13.166  1.00  0.00     0.049 C 
HETATM   17  C30 UNL     1       2.856  -1.393 -12.754  1.00  0.00     0.055 C 
BRANCH  13  18
HETATM   18  C9  UNL     1       3.952   0.740 -14.415  1.00  0.00     0.275 C 
BRANCH  18  19
HETATM   19  C10 UNL     1       4.887   1.768 -14.951  1.00  0.00     0.055 C 
BRANCH  19  20
HETATM   20  C11 UNL     1       5.037   1.686 -16.464  1.00  0.00     0.084 C 
HETATM   21  C12 UNL     1       5.578   3.033 -16.971  1.00  0.00     0.064 C 
HETATM   22  C13 UNL     1       6.461   2.594 -18.110  1.00  0.00     0.189 C 
HETATM   23  F1  UNL     1       5.678   2.541 -19.239  1.00  0.00    -0.248 F 
HETATM   24  C14 UNL     1       6.994   1.288 -17.640  1.00  0.00     0.155 C 
HETATM   25  N4  UNL     1       5.956   0.706 -16.875  1.00  0.00    -0.401 N 
BRANCH  25  26
HETATM   26  C15 UNL     1       5.548  -0.587 -17.197  1.00  0.00     0.082 C 
HETATM   27  C16 UNL     1       5.791  -1.686 -16.220  1.00  0.00     0.045 C 
HETATM   28  C17 UNL     1       4.840  -2.838 -16.610  1.00  0.00     0.127 C 
HETATM   29  N5  UNL     1       5.236  -3.306 -17.903  1.00  0.00    -0.351 N 
HETATM   30  C18 UNL     1       5.603  -4.639 -18.129  1.00  0.00     0.230 C 
HETATM   31  C25 UNL     1       5.225  -2.303 -18.966  1.00  0.00     0.127 C 
HETATM   32  O2  UNL     1       5.938  -4.902 -19.349  1.00  0.00    -0.272 OA
HETATM   33  C26 UNL     1       6.050  -1.080 -18.535  1.00  0.00     0.045 C 
BRANCH  30  34
HETATM   34  C19 UNL     1       5.661  -5.759 -17.207  1.00  0.00     0.066 C 
HETATM   35  C20 UNL     1       5.212  -7.040 -17.935  1.00  0.00     0.027 C 
HETATM   36  C21 UNL     1       7.006  -6.080 -16.630  1.00  0.00     0.051 C 
HETATM   37  C22 UNL     1       6.748  -6.539 -15.215  1.00  0.00     0.285 C 
HETATM   38  N6  UNL     1       5.373  -6.331 -14.930  1.00  0.00     0.198 N 
HETATM   39  C24 UNL     1       4.743  -5.654 -16.011  1.00  0.00     0.303 C 
BRANCH  38  40
HETATM   40  C23 UNL     1       5.063  -5.837 -13.625  1.00  0.00     0.603 C 
HETATM   41  F2  UNL     1       5.620  -4.566 -13.532  1.00  0.00    -0.144 F 
HETATM   42  F3  UNL     1       5.615  -6.627 -12.635  1.00  0.00    -0.144 F 
HETATM   43  F4  UNL     1       3.733  -5.708 -13.345  1.00  0.00    -0.144 F 
ENDBRANCH  38  40
ENDBRANCH  30  34
ENDBRANCH  25  26
ENDBRANCH  19  20
ENDBRANCH  18  19
ENDBRANCH  13  18
ENDBRANCH   7  10
ENDBRANCH   2   6
TORSDOF 8
ENDMDL
MODEL 5
REMARK VINA RESULT: -9.438865215      1.738      2.182
REMARK  8 active torsions:
REMARK  status: ('A' for Active; 'I' for Inactive)
REMARK    1  A    between atoms: C2_2  and  N2_6 
REMARK       I    between atoms: N2_6  and  C5_8 
REMARK    2  A    between atoms: C5_8  and  C6_10 
REMARK    3  A    between atoms: N3_13  and  C9_14 
REMARK    4  A    between atoms: C9_14  and  C10_15 
REMARK    5  A    between atoms: C10_15  and  C11_16 
REMARK    6  A    between atoms: N4_21  and  C15_22 
REMARK       I    between atoms: N5_25  and  C18_26 
REMARK    7  A    between atoms: C18_26  and  C19_28 
REMARK    8  A    between atoms: N6_32  and  C23_33 
ROOT
HETATM    1  C1  UNL     1       7.188  -6.747 -15.892  1.00  0.00     0.055 C 
HETATM    2  C2  UNL     1       5.683  -6.651 -15.963  1.00  0.00     0.114 C 
HETATM    3  C3  UNL     1       5.344  -5.714 -17.095  1.00  0.00     0.055 C 
HETATM    4  C4  UNL     1       5.184  -8.014 -16.246  1.00  0.00     0.090 C 
HETATM    5  N1  UNL     1       4.806  -9.081 -16.478  1.00  0.00    -0.195 NA
ENDROOT
BRANCH   2   6
HETATM    6  N2  UNL     1       5.173  -6.225 -14.698  1.00  0.00    -0.339 N 
HETATM    7  C5  UNL     1       5.186  -4.877 -14.252  1.00  0.00     0.223 C 
HETATM    8  O1  UNL     1       5.680  -3.996 -15.025  1.00  0.00    -0.273 OA
ATOM      9  H2  UNL     1       4.776  -6.931 -14.078  1.00  0.00     0.164 HD
BRANCH   7  10
HETATM   10  C6  UNL     1       4.630  -4.534 -12.916  1.00  0.00     0.082 C 
HETATM   11  C7  UNL     1       3.180  -4.828 -12.808  1.00  0.00     0.044 C 
HETATM   12  C8  UNL     1       2.279  -3.739 -12.374  1.00  0.00     0.274 C 
HETATM   13  N3  UNL     1       2.918  -2.750 -11.488  1.00  0.00     0.097 N 
HETATM   14  C27 UNL     1       3.974  -2.196 -12.252  1.00  0.00     0.153 C 
HETATM   15  C28 UNL     1       3.333  -1.790 -13.599  1.00  0.00     0.049 C 
HETATM   16  C29 UNL     1       4.583  -0.928 -11.708  1.00  0.00     0.049 C 
HETATM   17  C30 UNL     1       5.085  -3.181 -12.495  1.00  0.00     0.055 C 
BRANCH  13  18
HETATM   18  C9  UNL     1       3.203  -3.416 -10.278  1.00  0.00     0.275 C 
BRANCH  18  19
HETATM   19  C10 UNL     1       3.684  -2.593  -9.134  1.00  0.00     0.055 C 
BRANCH  19  20
HETATM   20  C11 UNL     1       2.743  -2.652  -7.938  1.00  0.00     0.084 C 
HETATM   21  C12 UNL     1       1.835  -1.413  -7.974  1.00  0.00     0.064 C 
HETATM   22  C13 UNL     1       0.542  -1.971  -7.437  1.00  0.00     0.189 C 
HETATM   23  F1  UNL     1       0.578  -1.842  -6.068  1.00  0.00    -0.248 F 
HETATM   24  C14 UNL     1       0.538  -3.367  -7.948  1.00  0.00     0.155 C 
HETATM   25  N4  UNL     1       1.894  -3.772  -7.959  1.00  0.00    -0.401 N 
BRANCH  25  26
HETATM   26  C15 UNL     1       2.232  -4.956  -7.308  1.00  0.00     0.082 C 
HETATM   27  C16 UNL     1       2.164  -6.241  -8.061  1.00  0.00     0.045 C 
HETATM   28  C17 UNL     1       3.024  -7.255  -7.277  1.00  0.00     0.127 C 
HETATM   29  N5  UNL     1       2.400  -7.460  -6.006  1.00  0.00    -0.351 N 
HETATM   30  C18 UNL     1       1.993  -8.729  -5.576  1.00  0.00     0.230 C 
HETATM   31  C25 UNL     1       2.224  -6.259  -5.191  1.00  0.00     0.127 C 
HETATM   32  O2  UNL     1       1.442  -8.746  -4.406  1.00  0.00    -0.272 OA
HETATM   33  C26 UNL     1       1.495  -5.179  -6.007  1.00  0.00     0.045 C 
BRANCH  30  34
HETATM   34  C19 UNL     1       2.097 -10.016  -6.239  1.00  0.00     0.066 C 
HETATM   35  C20 UNL     1       1.851 -11.137  -5.212  1.00  0.00     0.027 C 
HETATM   36  C21 UNL     1       1.125 -10.275  -7.350  1.00  0.00     0.051 C 
HETATM   37  C22 UNL     1       1.880 -11.087  -8.375  1.00  0.00     0.285 C 
HETATM   38  N6  UNL     1       3.240 -11.145  -7.974  1.00  0.00     0.198 N 
HETATM   39  C24 UNL     1       3.452 -10.325  -6.831  1.00  0.00     0.303 C 
BRANCH  38  40
HETATM   40  C23 UNL     1       4.214 -11.021  -9.013  1.00  0.00     0.603 C 
HETATM   41  F2  UNL     1       5.251 -10.247  -8.504  1.00  0.00    -0.144 F 
HETATM   42  F3  UNL     1       3.698 -10.381 -10.123  1.00  0.00    -0.144 F 
HETATM   43  F4  UNL     1       4.769 -12.192  -9.443  1.00  0.00    -0.144 F 
ENDBRANCH  38  40
ENDBRANCH  30  34
ENDBRANCH  25  26
ENDBRANCH  19  20
ENDBRANCH  18  19
ENDBRANCH  13  18
ENDBRANCH   7  10
ENDBRANCH   2   6
TORSDOF 8
ENDMDL
