MODEL 1
REMARK VINA RESULT: -5.672456901      0.000      0.000
REMARK  7 active torsions:
REMARK  status: ('A' for Active; 'I' for Inactive)
REMARK    1  A    between atoms: C3_3  and  C4_4 
REMARK    2  A    between atoms: C4_4  and  N1_5 
REMARK    3  A    between atoms: C4_4  and  C8_17 
REMARK       I    between atoms: N1_5  and  C5_7 
REMARK    4  A    between atoms: C5_7  and  C6_9 
REMARK    5  A    between atoms: C6_9  and  N2_10 
REMARK    6  A    between atoms: C6_9  and  C7_14 
REMARK    7  A    between atoms: C8_17  and  N4_19 
REMARK       I    between atoms: N4_19  and  C10_21 
ROOT
HETATM    1  N1  UNL     1      -1.626  25.113 -10.351  1.00  0.00    -0.349 N 
ATOM      2  H1  UNL     1      -0.851  24.825 -10.948  1.00  0.00     0.163 HD
HETATM    3  C5  UNL     1      -1.631  24.690  -9.013  1.00  0.00     0.258 C 
HETATM    4  O1  UNL     1      -2.550  25.004  -8.217  1.00  0.00    -0.271 OA
ENDROOT
BRANCH   1   5
HETATM    5  C4  UNL     1      -2.668  25.937 -10.925  1.00  0.00     0.129 C 
BRANCH   5   6
HETATM    6  C3  UNL     1      -2.239  27.351 -10.985  1.00  0.00    -0.004 C 
HETATM    7  C2  UNL     1      -3.106  28.314 -10.787  1.00  0.00    -0.033 C 
HETATM    8  C1  UNL     1      -4.548  28.001 -10.497  1.00  0.00     0.036 C 
ENDBRANCH   5   6
BRANCH   5   9
HETATM    9  C8  UNL     1      -3.111  25.419 -12.276  1.00  0.00     0.108 C 
HETATM   10  C9  UNL     1      -2.462  24.042 -12.455  1.00  0.00     0.034 C 
BRANCH   9  11
HETATM   11  N4  UNL     1      -2.658  26.234 -13.359  1.00  0.00    -0.339 N 
HETATM   12  C10 UNL     1      -3.589  26.806 -14.253  1.00  0.00     0.329 C 
HETATM   13  N5  UNL     1      -3.224  27.617 -15.340  1.00  0.00    -0.040 NA
HETATM   14  O3  UNL     1      -4.821  26.566 -14.049  1.00  0.00    -0.251 OA
ATOM     15  H4  UNL     1      -1.660  26.403 -13.487  1.00  0.00     0.164 HD
ENDBRANCH   9  11
ENDBRANCH   5   9
ENDBRANCH   1   5
BRANCH   3  16
HETATM   16  C6  UNL     1      -0.536  23.847  -8.483  1.00  0.00     0.362 C 
BRANCH  16  17
HETATM   17  N2  UNL     1      -0.596  23.832  -7.034  1.00  0.00    -0.058 N 
ATOM     18  H23 UNL     1       0.097  23.205  -6.625  1.00  0.00     0.275 HD
ATOM     19  H22 UNL     1      -0.263  24.705  -6.625  1.00  0.00     0.275 HD
ATOM     20  H21 UNL     1      -1.545  23.604  -6.737  1.00  0.00     0.275 HD
ENDBRANCH  16  17
BRANCH  16  21
HETATM   21  C7  UNL     1       0.774  24.352  -8.937  1.00  0.00     0.271 C 
HETATM   22  N3  UNL     1       1.017  25.744  -8.927  1.00  0.00    -0.060 NA
HETATM   23  O2  UNL     1       1.664  23.559  -9.327  1.00  0.00    -0.274 OA
ENDBRANCH  16  21
ENDBRANCH   3  16
TORSDOF 7
ENDMDL
MODEL 2
REMARK VINA RESULT: -5.551832317      0.983      1.160
REMARK  7 active torsions:
REMARK  status: ('A' for Active; 'I' for Inactive)
REMARK    1  A    between atoms: C3_3  and  C4_4 
REMARK    2  A    between atoms: C4_4  and  N1_5 
REMARK    3  A    between atoms: C4_4  and  C8_17 
REMARK       I    between atoms: N1_5  and  C5_7 
REMARK    4  A    between atoms: C5_7  and  C6_9 
REMARK    5  A    between atoms: C6_9  and  N2_10 
REMARK    6  A    between atoms: C6_9  and  C7_14 
REMARK    7  A    between atoms: C8_17  and  N4_19 
REMARK       I    between atoms: N4_19  and  C10_21 
ROOT
HETATM    1  N1  UNL     1      -1.510  25.098 -10.263  1.00  0.00    -0.349 N 
ATOM      2  H1  UNL     1      -0.727  24.808 -10.848  1.00  0.00     0.163 HD
HETATM    3  C5  UNL     1      -1.528  24.689  -8.921  1.00  0.00     0.258 C 
HETATM    4  O1  UNL     1      -2.456  25.006  -8.137  1.00  0.00    -0.271 OA
ENDROOT
BRANCH   1   5
HETATM    5  C4  UNL     1      -2.548  25.913 -10.855  1.00  0.00     0.129 C 
BRANCH   5   6
HETATM    6  C3  UNL     1      -2.115  27.325 -10.943  1.00  0.00    -0.004 C 
HETATM    7  C2  UNL     1      -2.983  28.294 -10.783  1.00  0.00    -0.033 C 
HETATM    8  C1  UNL     1      -4.430  27.991 -10.510  1.00  0.00     0.036 C 
ENDBRANCH   5   6
BRANCH   5   9
HETATM    9  C8  UNL     1      -2.989  25.370 -12.196  1.00  0.00     0.108 C 
HETATM   10  C9  UNL     1      -2.292  24.016 -12.376  1.00  0.00     0.034 C 
BRANCH   9  11
HETATM   11  N4  UNL     1      -2.581  26.193 -13.292  1.00  0.00    -0.339 N 
HETATM   12  C10 UNL     1      -3.545  26.730 -14.172  1.00  0.00     0.329 C 
HETATM   13  N5  UNL     1      -3.225  27.547 -15.269  1.00  0.00    -0.040 NA
HETATM   14  O3  UNL     1      -4.765  26.452 -13.946  1.00  0.00    -0.251 OA
ATOM     15  H4  UNL     1      -1.591  26.393 -13.437  1.00  0.00     0.164 HD
ENDBRANCH   9  11
ENDBRANCH   5   9
ENDBRANCH   1   5
BRANCH   3  16
HETATM   16  C6  UNL     1      -0.435  23.853  -8.371  1.00  0.00     0.362 C 
BRANCH  16  17
HETATM   17  N2  UNL     1       0.561  24.708  -7.754  1.00  0.00    -0.058 N 
ATOM     18  H23 UNL     1       1.487  24.578  -8.160  1.00  0.00     0.275 HD
ATOM     19  H22 UNL     1       0.432  25.690  -7.998  1.00  0.00     0.275 HD
ATOM     20  H21 UNL     1       0.557  24.558  -6.745  1.00  0.00     0.275 HD
ENDBRANCH  16  17
BRANCH  16  21
HETATM   21  C7  UNL     1       0.179  23.037  -9.435  1.00  0.00     0.271 C 
HETATM   22  N3  UNL     1      -0.418  21.806  -9.791  1.00  0.00    -0.060 NA
HETATM   23  O2  UNL     1       1.217  23.425 -10.020  1.00  0.00    -0.274 OA
ENDBRANCH  16  21
ENDBRANCH   3  16
TORSDOF 7
ENDMDL
MODEL 3
REMARK VINA RESULT: -5.314464931      1.950      2.575
REMARK  7 active torsions:
REMARK  status: ('A' for Active; 'I' for Inactive)
REMARK    1  A    between atoms: C3_3  and  C4_4 
REMARK    2  A    between atoms: C4_4  and  N1_5 
REMARK    3  A    between atoms: C4_4  and  C8_17 
REMARK       I    between atoms: N1_5  and  C5_7 
REMARK    4  A    between atoms: C5_7  and  C6_9 
REMARK    5  A    between atoms: C6_9  and  N2_10 
REMARK    6  A    between atoms: C6_9  and  C7_14 
REMARK    7  A    between atoms: C8_17  and  N4_19 
REMARK       I    between atoms: N4_19  and  C10_21 
ROOT
HETATM    1  N1  UNL     1      -1.399  24.955 -10.452  1.00  0.00    -0.349 N 
ATOM      2  H1  UNL     1      -0.610  24.558 -10.962  1.00  0.00     0.163 HD
HETATM    3  C5  UNL     1      -1.536  24.651  -9.089  1.00  0.00     0.258 C 
HETATM    4  O1  UNL     1      -2.480  25.102  -8.395  1.00  0.00    -0.271 OA
ENDROOT
BRANCH   1   5
HETATM    5  C4  UNL     1      -2.325  25.803 -11.171  1.00  0.00     0.129 C 
BRANCH   5   6
HETATM    6  C3  UNL     1      -1.980  27.229 -10.979  1.00  0.00    -0.004 C 
HETATM    7  C2  UNL     1      -2.893  28.084 -10.587  1.00  0.00    -0.033 C 
HETATM    8  C1  UNL     1      -4.304  27.634 -10.326  1.00  0.00     0.036 C 
ENDBRANCH   5   6
BRANCH   5   9
HETATM    9  C8  UNL     1      -2.407  25.430 -12.634  1.00  0.00     0.108 C 
HETATM   10  C9  UNL     1      -3.896  25.341 -12.985  1.00  0.00     0.034 C 
BRANCH   9  11
HETATM   11  N4  UNL     1      -1.839  24.148 -12.914  1.00  0.00    -0.339 N 
HETATM   12  C10 UNL     1      -0.474  24.037 -13.258  1.00  0.00     0.329 C 
HETATM   13  N5  UNL     1       0.157  22.816 -13.546  1.00  0.00    -0.040 NA
HETATM   14  O3  UNL     1       0.208  25.109 -13.305  1.00  0.00    -0.251 OA
ATOM     15  H4  UNL     1      -2.420  23.312 -12.864  1.00  0.00     0.164 HD
ENDBRANCH   9  11
ENDBRANCH   5   9
ENDBRANCH   1   5
BRANCH   3  16
HETATM   16  C6  UNL     1      -0.555  23.775  -8.409  1.00  0.00     0.362 C 
BRANCH  16  17
HETATM   17  N2  UNL     1       0.416  24.592  -7.707  1.00  0.00    -0.058 N 
ATOM     18  H23 UNL     1       0.168  24.730  -6.727  1.00  0.00     0.275 HD
ATOM     19  H22 UNL     1       1.301  24.106  -7.566  1.00  0.00     0.275 HD
ATOM     20  H21 UNL     1       0.536  25.476  -8.202  1.00  0.00     0.275 HD
ENDBRANCH  16  17
BRANCH  16  21
HETATM   21  C7  UNL     1       0.122  22.898  -9.384  1.00  0.00     0.271 C 
HETATM   22  N3  UNL     1      -0.535  21.729  -9.831  1.00  0.00    -0.060 NA
HETATM   23  O2  UNL     1       1.264  23.183  -9.813  1.00  0.00    -0.274 OA
ENDBRANCH  16  21
ENDBRANCH   3  16
TORSDOF 7
ENDMDL
MODEL 4
REMARK VINA RESULT: -5.269917257      2.219      5.232
REMARK  7 active torsions:
REMARK  status: ('A' for Active; 'I' for Inactive)
REMARK    1  A    between atoms: C3_3  and  C4_4 
REMARK    2  A    between atoms: C4_4  and  N1_5 
REMARK    3  A    between atoms: C4_4  and  C8_17 
REMARK       I    between atoms: N1_5  and  C5_7 
REMARK    4  A    between atoms: C5_7  and  C6_9 
REMARK    5  A    between atoms: C6_9  and  N2_10 
REMARK    6  A    between atoms: C6_9  and  C7_14 
REMARK    7  A    between atoms: C8_17  and  N4_19 
REMARK       I    between atoms: N4_19  and  C10_21 
ROOT
HETATM    1  N1  UNL     1      -3.365  25.073 -11.509  1.00  0.00    -0.349 N 
ATOM      2  H1  UNL     1      -3.846  24.311 -11.032  1.00  0.00     0.163 HD
HETATM    3  C5  UNL     1      -3.205  24.995 -12.901  1.00  0.00     0.258 C 
HETATM    4  O1  UNL     1      -2.625  25.894 -13.558  1.00  0.00    -0.271 OA
ENDROOT
BRANCH   1   5
HETATM    5  C4  UNL     1      -2.880  26.182 -10.717  1.00  0.00     0.129 C 
BRANCH   5   6
HETATM    6  C3  UNL     1      -4.004  26.883 -10.060  1.00  0.00    -0.004 C 
HETATM    7  C2  UNL     1      -4.359  28.082 -10.456  1.00  0.00    -0.033 C 
HETATM    8  C1  UNL     1      -3.631  28.765 -11.581  1.00  0.00     0.036 C 
ENDBRANCH   5   6
BRANCH   5   9
HETATM    9  C8  UNL     1      -1.826  25.743  -9.725  1.00  0.00     0.108 C 
HETATM   10  C9  UNL     1      -0.684  26.762  -9.814  1.00  0.00     0.034 C 
BRANCH   9  11
HETATM   11  N4  UNL     1      -1.265  24.466 -10.038  1.00  0.00    -0.339 N 
HETATM   12  C10 UNL     1      -0.797  23.625  -9.005  1.00  0.00     0.329 C 
HETATM   13  N5  UNL     1      -0.235  22.358  -9.229  1.00  0.00    -0.040 NA
HETATM   14  O3  UNL     1      -0.898  24.051  -7.811  1.00  0.00    -0.251 OA
ATOM     15  H4  UNL     1      -1.204  24.161 -11.009  1.00  0.00     0.164 HD
ENDBRANCH   9  11
ENDBRANCH   5   9
ENDBRANCH   1   5
BRANCH   3  16
HETATM   16  C6  UNL     1      -3.724  23.832 -13.657  1.00  0.00     0.362 C 
BRANCH  16  17
HETATM   17  N2  UNL     1      -5.002  23.428 -13.103  1.00  0.00    -0.058 N 
ATOM     18  H23 UNL     1      -5.012  23.472 -12.084  1.00  0.00     0.275 HD
ATOM     19  H22 UNL     1      -5.736  24.113 -13.285  1.00  0.00     0.275 HD
ATOM     20  H21 UNL     1      -5.245  22.501 -13.452  1.00  0.00     0.275 HD
ENDBRANCH  16  17
BRANCH  16  21
HETATM   21  C7  UNL     1      -2.766  22.711 -13.606  1.00  0.00     0.271 C 
HETATM   22  N3  UNL     1      -1.946  22.557 -12.466  1.00  0.00    -0.060 NA
HETATM   23  O2  UNL     1      -2.678  21.903 -14.560  1.00  0.00    -0.274 OA
ENDBRANCH  16  21
ENDBRANCH   3  16
TORSDOF 7
ENDMDL
MODEL 5
REMARK VINA RESULT: -5.263853418      1.952      2.326
REMARK  7 active torsions:
REMARK  status: ('A' for Active; 'I' for Inactive)
REMARK    1  A    between atoms: C3_3  and  C4_4 
REMARK    2  A    between atoms: C4_4  and  N1_5 
REMARK    3  A    between atoms: C4_4  and  C8_17 
REMARK       I    between atoms: N1_5  and  C5_7 
REMARK    4  A    between atoms: C5_7  and  C6_9 
REMARK    5  A    between atoms: C6_9  and  N2_10 
REMARK    6  A    between atoms: C6_9  and  C7_14 
REMARK    7  A    between atoms: C8_17  and  N4_19 
REMARK       I    between atoms: N4_19  and  C10_21 
ROOT
HETATM    1  N1  UNL     1      -1.426  24.936 -10.348  1.00  0.00    -0.349 N 
ATOM      2  H1  UNL     1      -0.612  24.565 -10.837  1.00  0.00     0.163 HD
HETATM    3  C5  UNL     1      -1.584  24.634  -8.987  1.00  0.00     0.258 C 
HETATM    4  O1  UNL     1      -2.559  25.054  -8.318  1.00  0.00    -0.271 OA
ENDROOT
BRANCH   1   5
HETATM    5  C4  UNL     1      -2.364  25.749 -11.092  1.00  0.00     0.129 C 
BRANCH   5   6
HETATM    6  C3  UNL     1      -2.000  27.179 -10.999  1.00  0.00    -0.004 C 
HETATM    7  C2  UNL     1      -2.899  28.070 -10.656  1.00  0.00    -0.033 C 
HETATM    8  C1  UNL     1      -4.312  27.656 -10.353  1.00  0.00     0.036 C 
ENDBRANCH   5   6
BRANCH   5   9
HETATM    9  C8  UNL     1      -2.490  25.286 -12.527  1.00  0.00     0.108 C 
HETATM   10  C9  UNL     1      -3.988  25.120 -12.808  1.00  0.00     0.034 C 
BRANCH   9  11
HETATM   11  N4  UNL     1      -1.883  24.013 -12.756  1.00  0.00    -0.339 N 
HETATM   12  C10 UNL     1      -0.737  23.911 -13.574  1.00  0.00     0.329 C 
HETATM   13  N5  UNL     1      -0.083  22.698 -13.847  1.00  0.00    -0.040 NA
HETATM   14  O3  UNL     1      -0.282  24.984 -14.083  1.00  0.00    -0.251 OA
ATOM     15  H4  UNL     1      -2.278  23.175 -12.328  1.00  0.00     0.164 HD
ENDBRANCH   9  11
ENDBRANCH   5   9
ENDBRANCH   1   5
BRANCH   3  16
HETATM   16  C6  UNL     1      -0.589  23.795  -8.280  1.00  0.00     0.362 C 
BRANCH  16  17
HETATM   17  N2  UNL     1      -0.863  23.820  -6.856  1.00  0.00    -0.058 N 
ATOM     18  H23 UNL     1      -0.533  24.679  -6.415  1.00  0.00     0.275 HD
ATOM     19  H22 UNL     1      -1.857  23.927  -6.655  1.00  0.00     0.275 HD
ATOM     20  H21 UNL     1      -0.470  22.986  -6.420  1.00  0.00     0.275 HD
ENDBRANCH  16  17
BRANCH  16  21
HETATM   21  C7  UNL     1       0.780  24.275  -8.548  1.00  0.00     0.271 C 
HETATM   22  N3  UNL     1       1.538  23.660  -9.569  1.00  0.00    -0.060 NA
HETATM   23  O2  UNL     1       1.267  25.217  -7.881  1.00  0.00    -0.274 OA
ENDBRANCH  16  21
ENDBRANCH   3  16
TORSDOF 7
ENDMDL
