MODEL 1
REMARK VINA RESULT: -5.080347146      0.000      0.000
REMARK  8 active torsions:
REMARK  status: ('A' for Active; 'I' for Inactive)
REMARK    1  A    between atoms: C2_2  and  N1_4 
REMARK       I    between atoms: N1_4  and  C4_6 
REMARK    2  A    between atoms: C4_6  and  C5_8 
REMARK    3  A    between atoms: C5_8  and  N2_9 
REMARK    4  A    between atoms: C5_8  and  N4_15 
REMARK    5  A    between atoms: N2_9  and  C6_11 
REMARK    6  A    between atoms: C6_11  and  C7_12 
REMARK       I    between atoms: N4_15  and  C8_17 
REMARK    7  A    between atoms: C8_17  and  C9_19 
REMARK    8  A    between atoms: C9_19  and  N5_21 
ROOT
HETATM    1  C5  UNL     1      -2.700  25.562 -10.719  1.00  0.00     0.274 C 
ENDROOT
BRANCH   1   2
HETATM    2  C4  UNL     1      -2.523  25.675 -12.170  1.00  0.00     0.260 C 
HETATM    3  N1  UNL     1      -3.621  25.833 -13.069  1.00  0.00    -0.354 N 
ATOM      4  H1  UNL     1      -4.565  25.868 -12.682  1.00  0.00     0.162 HD
HETATM    5  O1  UNL     1      -1.380  25.638 -12.696  1.00  0.00    -0.269 OA
BRANCH   3   6
HETATM    6  C2  UNL     1      -3.461  25.944 -14.494  1.00  0.00     0.076 C 
HETATM    7  C1  UNL     1      -3.659  27.414 -14.853  1.00  0.00     0.032 C 
HETATM    8  C3  UNL     1      -4.453  25.146 -15.278  1.00  0.00     0.032 C 
ENDBRANCH   3   6
ENDBRANCH   1   2
BRANCH   1   9
HETATM    9  N2  UNL     1      -3.021  26.748 -10.021  1.00  0.00    -0.386 N 
ATOM     10  H2  UNL     1      -3.511  26.714  -9.127  1.00  0.00     0.156 HD
BRANCH   9  11
HETATM   11  C6  UNL     1      -2.643  27.987 -10.597  1.00  0.00     0.216 C 
BRANCH  11  12
HETATM   12  C7  UNL     1      -3.869  28.734 -10.999  1.00  0.00     0.248 C 
HETATM   13  N3  UNL     1      -5.109  28.046 -11.074  1.00  0.00    -0.061 NA
HETATM   14  O2  UNL     1      -3.783  29.965 -11.266  1.00  0.00    -0.275 OA
ENDBRANCH  11  12
ENDBRANCH   9  11
ENDBRANCH   1   9
BRANCH   1  15
HETATM   15  N4  UNL     1      -1.565  24.906 -10.079  1.00  0.00    -0.330 N 
HETATM   16  C8  UNL     1      -1.542  24.596  -8.695  1.00  0.00     0.249 C 
HETATM   17  O3  UNL     1      -2.524  24.881  -7.944  1.00  0.00    -0.271 OA
ATOM     18  H4  UNL     1      -0.755  24.661 -10.648  1.00  0.00     0.165 HD
BRANCH  16  19
HETATM   19  C9  UNL     1      -0.355  23.929  -8.116  1.00  0.00     0.270 C 
HETATM   20  C10 UNL     1       0.882  24.813  -8.211  1.00  0.00     0.050 C 
BRANCH  19  21
HETATM   21  N5  UNL     1      -0.638  23.566  -6.757  1.00  0.00    -0.067 N 
ATOM     22  H53 UNL     1       0.144  23.082  -6.315  1.00  0.00     0.275 HD
ATOM     23  H52 UNL     1      -0.675  24.375  -6.138  1.00  0.00     0.275 HD
ATOM     24  H51 UNL     1      -1.497  23.018  -6.730  1.00  0.00     0.275 HD
ENDBRANCH  19  21
ENDBRANCH  16  19
ENDBRANCH   1  15
TORSDOF 8
ENDMDL
MODEL 2
REMARK VINA RESULT: -5.066848119      2.166      5.018
REMARK  8 active torsions:
REMARK  status: ('A' for Active; 'I' for Inactive)
REMARK    1  A    between atoms: C2_2  and  N1_4 
REMARK       I    between atoms: N1_4  and  C4_6 
REMARK    2  A    between atoms: C4_6  and  C5_8 
REMARK    3  A    between atoms: C5_8  and  N2_9 
REMARK    4  A    between atoms: C5_8  and  N4_15 
REMARK    5  A    between atoms: N2_9  and  C6_11 
REMARK    6  A    between atoms: C6_11  and  C7_12 
REMARK       I    between atoms: N4_15  and  C8_17 
REMARK    7  A    between atoms: C8_17  and  C9_19 
REMARK    8  A    between atoms: C9_19  and  N5_21 
ROOT
HETATM    1  C5  UNL     1      -1.318  26.129 -10.782  1.00  0.00     0.274 C 
ENDROOT
BRANCH   1   2
HETATM    2  C4  UNL     1      -1.482  25.176 -11.885  1.00  0.00     0.260 C 
HETATM    3  N1  UNL     1      -2.274  23.993 -11.768  1.00  0.00    -0.354 N 
ATOM      4  H1  UNL     1      -2.742  23.807 -10.881  1.00  0.00     0.162 HD
HETATM    5  O1  UNL     1      -0.926  25.360 -12.998  1.00  0.00    -0.269 OA
BRANCH   3   6
HETATM    6  C2  UNL     1      -2.442  23.052 -12.842  1.00  0.00     0.076 C 
HETATM    7  C1  UNL     1      -3.846  23.258 -13.403  1.00  0.00     0.032 C 
HETATM    8  C3  UNL     1      -2.328  21.622 -12.416  1.00  0.00     0.032 C 
ENDBRANCH   3   6
ENDBRANCH   1   2
BRANCH   1   9
HETATM    9  N2  UNL     1      -1.398  25.607  -9.471  1.00  0.00    -0.386 N 
ATOM     10  H2  UNL     1      -2.294  25.539  -8.988  1.00  0.00     0.156 HD
BRANCH   9  11
HETATM   11  C6  UNL     1      -0.200  25.179  -8.846  1.00  0.00     0.216 C 
BRANCH  11  12
HETATM   12  C7  UNL     1      -0.349  23.756  -8.425  1.00  0.00     0.248 C 
HETATM   13  N3  UNL     1      -0.400  22.741  -9.415  1.00  0.00    -0.061 NA
HETATM   14  O2  UNL     1      -0.427  23.481  -7.195  1.00  0.00    -0.275 OA
ENDBRANCH  11  12
ENDBRANCH   9  11
ENDBRANCH   1   9
BRANCH   1  15
HETATM   15  N4  UNL     1      -2.212  27.274 -10.911  1.00  0.00    -0.330 N 
HETATM   16  C8  UNL     1      -3.609  27.181 -10.692  1.00  0.00     0.249 C 
HETATM   17  O3  UNL     1      -4.150  26.079 -10.369  1.00  0.00    -0.271 OA
ATOM     18  H4  UNL     1      -1.816  28.178 -11.169  1.00  0.00     0.165 HD
BRANCH  16  19
HETATM   19  C9  UNL     1      -4.454  28.387 -10.841  1.00  0.00     0.270 C 
HETATM   20  C10 UNL     1      -3.626  29.600 -11.245  1.00  0.00     0.050 C 
BRANCH  19  21
HETATM   21  N5  UNL     1      -5.492  28.118 -11.795  1.00  0.00    -0.067 N 
ATOM     22  H53 UNL     1      -5.345  28.611 -12.676  1.00  0.00     0.275 HD
ATOM     23  H52 UNL     1      -5.451  27.165 -12.154  1.00  0.00     0.275 HD
ATOM     24  H51 UNL     1      -6.395  28.336 -11.375  1.00  0.00     0.275 HD
ENDBRANCH  19  21
ENDBRANCH  16  19
ENDBRANCH   1  15
TORSDOF 8
ENDMDL
MODEL 3
REMARK VINA RESULT: -5.015148781      2.757      4.539
REMARK  8 active torsions:
REMARK  status: ('A' for Active; 'I' for Inactive)
REMARK    1  A    between atoms: C2_2  and  N1_4 
REMARK       I    between atoms: N1_4  and  C4_6 
REMARK    2  A    between atoms: C4_6  and  C5_8 
REMARK    3  A    between atoms: C5_8  and  N2_9 
REMARK    4  A    between atoms: C5_8  and  N4_15 
REMARK    5  A    between atoms: N2_9  and  C6_11 
REMARK    6  A    between atoms: C6_11  and  C7_12 
REMARK       I    between atoms: N4_15  and  C8_17 
REMARK    7  A    between atoms: C8_17  and  C9_19 
REMARK    8  A    between atoms: C9_19  and  N5_21 
ROOT
HETATM    1  C5  UNL     1      -1.676  24.471  -9.391  1.00  0.00     0.274 C 
ENDROOT
BRANCH   1   2
HETATM    2  C4  UNL     1      -2.547  25.604  -9.720  1.00  0.00     0.260 C 
HETATM    3  N1  UNL     1      -2.547  26.227 -11.005  1.00  0.00    -0.354 N 
ATOM      4  H1  UNL     1      -1.914  25.866 -11.719  1.00  0.00     0.162 HD
HETATM    5  O1  UNL     1      -3.345  26.085  -8.873  1.00  0.00    -0.269 OA
BRANCH   3   6
HETATM    6  C2  UNL     1      -3.396  27.338 -11.339  1.00  0.00     0.076 C 
HETATM    7  C1  UNL     1      -3.508  27.374 -12.860  1.00  0.00     0.032 C 
HETATM    8  C3  UNL     1      -2.863  28.662 -10.891  1.00  0.00     0.032 C 
ENDBRANCH   3   6
ENDBRANCH   1   2
BRANCH   1   9
HETATM    9  N2  UNL     1      -0.347  24.776  -9.021  1.00  0.00    -0.386 N 
ATOM     10  H2  UNL     1       0.129  24.245  -8.291  1.00  0.00     0.156 HD
BRANCH   9  11
HETATM   11  C6  UNL     1       0.309  25.839  -9.691  1.00  0.00     0.216 C 
BRANCH  11  12
HETATM   12  C7  UNL     1       1.083  25.289 -10.841  1.00  0.00     0.248 C 
HETATM   13  N3  UNL     1       0.423  25.056 -12.076  1.00  0.00    -0.061 NA
HETATM   14  O2  UNL     1       2.312  25.039 -10.695  1.00  0.00    -0.275 OA
ENDBRANCH  11  12
ENDBRANCH   9  11
ENDBRANCH   1   9
BRANCH   1  15
HETATM   15  N4  UNL     1      -1.675  23.458 -10.441  1.00  0.00    -0.330 N 
HETATM   16  C8  UNL     1      -0.954  22.243 -10.329  1.00  0.00     0.249 C 
HETATM   17  O3  UNL     1      -0.267  21.981  -9.294  1.00  0.00    -0.271 OA
ATOM     18  H4  UNL     1      -2.214  23.631 -11.289  1.00  0.00     0.165 HD
BRANCH  16  19
HETATM   19  C9  UNL     1      -1.000  21.262 -11.436  1.00  0.00     0.270 C 
HETATM   20  C10 UNL     1      -2.220  20.356 -11.325  1.00  0.00     0.050 C 
BRANCH  19  21
HETATM   21  N5  UNL     1      -0.979  21.964 -12.687  1.00  0.00    -0.067 N 
ATOM     22  H53 UNL     1      -1.854  21.864 -13.202  1.00  0.00     0.275 HD
ATOM     23  H52 UNL     1      -0.999  22.976 -12.565  1.00  0.00     0.275 HD
ATOM     24  H51 UNL     1      -0.172  21.655 -13.229  1.00  0.00     0.275 HD
ENDBRANCH  19  21
ENDBRANCH  16  19
ENDBRANCH   1  15
TORSDOF 8
ENDMDL
MODEL 4
REMARK VINA RESULT: -4.996635968      3.181      5.112
REMARK  8 active torsions:
REMARK  status: ('A' for Active; 'I' for Inactive)
REMARK    1  A    between atoms: C2_2  and  N1_4 
REMARK       I    between atoms: N1_4  and  C4_6 
REMARK    2  A    between atoms: C4_6  and  C5_8 
REMARK    3  A    between atoms: C5_8  and  N2_9 
REMARK    4  A    between atoms: C5_8  and  N4_15 
REMARK    5  A    between atoms: N2_9  and  C6_11 
REMARK    6  A    between atoms: C6_11  and  C7_12 
REMARK       I    between atoms: N4_15  and  C8_17 
REMARK    7  A    between atoms: C8_17  and  C9_19 
REMARK    8  A    between atoms: C9_19  and  N5_21 
ROOT
HETATM    1  C5  UNL     1      -1.031  23.723  -9.825  1.00  0.00     0.274 C 
ENDROOT
BRANCH   1   2
HETATM    2  C4  UNL     1      -1.851  24.889  -9.482  1.00  0.00     0.260 C 
HETATM    3  N1  UNL     1      -2.084  25.962 -10.396  1.00  0.00    -0.354 N 
ATOM      4  H1  UNL     1      -1.661  25.911 -11.323  1.00  0.00     0.162 HD
HETATM    5  O1  UNL     1      -2.395  24.999  -8.352  1.00  0.00    -0.269 OA
BRANCH   3   6
HETATM    6  C2  UNL     1      -2.886  27.110 -10.071  1.00  0.00     0.076 C 
HETATM    7  C1  UNL     1      -4.268  26.876 -10.674  1.00  0.00     0.032 C 
HETATM    8  C3  UNL     1      -2.358  28.394 -10.629  1.00  0.00     0.032 C 
ENDBRANCH   3   6
ENDBRANCH   1   2
BRANCH   1   9
HETATM    9  N2  UNL     1       0.203  23.978 -10.465  1.00  0.00    -0.386 N 
ATOM     10  H2  UNL     1       0.311  23.835 -11.470  1.00  0.00     0.156 HD
BRANCH   9  11
HETATM   11  C6  UNL     1       1.286  24.437  -9.675  1.00  0.00     0.216 C 
BRANCH  11  12
HETATM   12  C7  UNL     1       1.619  25.837 -10.066  1.00  0.00     0.248 C 
HETATM   13  N3  UNL     1       2.708  26.073 -10.945  1.00  0.00    -0.061 NA
HETATM   14  O2  UNL     1       0.926  26.788  -9.607  1.00  0.00    -0.275 OA
ENDBRANCH  11  12
ENDBRANCH   9  11
ENDBRANCH   1   9
BRANCH   1  15
HETATM   15  N4  UNL     1      -1.783  22.729 -10.582  1.00  0.00    -0.330 N 
HETATM   16  C8  UNL     1      -1.346  21.388 -10.726  1.00  0.00     0.249 C 
HETATM   17  O3  UNL     1      -0.265  20.990 -10.192  1.00  0.00    -0.271 OA
ATOM     18  H4  UNL     1      -2.657  23.009 -11.027  1.00  0.00     0.165 HD
BRANCH  16  19
HETATM   19  C9  UNL     1      -2.162  20.434 -11.509  1.00  0.00     0.270 C 
HETATM   20  C10 UNL     1      -2.770  19.359 -10.618  1.00  0.00     0.050 C 
BRANCH  19  21
HETATM   21  N5  UNL     1      -3.174  21.158 -12.224  1.00  0.00    -0.067 N 
ATOM     22  H53 UNL     1      -3.852  21.594 -11.600  1.00  0.00     0.275 HD
ATOM     23  H52 UNL     1      -2.811  22.006 -12.657  1.00  0.00     0.275 HD
ATOM     24  H51 UNL     1      -3.614  20.535 -12.901  1.00  0.00     0.275 HD
ENDBRANCH  19  21
ENDBRANCH  16  19
ENDBRANCH   1  15
TORSDOF 8
ENDMDL
MODEL 5
REMARK VINA RESULT: -4.972319582      3.607      6.379
REMARK  8 active torsions:
REMARK  status: ('A' for Active; 'I' for Inactive)
REMARK    1  A    between atoms: C2_2  and  N1_4 
REMARK       I    between atoms: N1_4  and  C4_6 
REMARK    2  A    between atoms: C4_6  and  C5_8 
REMARK    3  A    between atoms: C5_8  and  N2_9 
REMARK    4  A    between atoms: C5_8  and  N4_15 
REMARK    5  A    between atoms: N2_9  and  C6_11 
REMARK    6  A    between atoms: C6_11  and  C7_12 
REMARK       I    between atoms: N4_15  and  C8_17 
REMARK    7  A    between atoms: C8_17  and  C9_19 
REMARK    8  A    between atoms: C9_19  and  N5_21 
ROOT
HETATM    1  C5  UNL     1       0.975  25.580 -10.018  1.00  0.00     0.274 C 
ENDROOT
BRANCH   1   2
HETATM    2  C4  UNL     1       2.128  26.471 -10.183  1.00  0.00     0.260 C 
HETATM    3  N1  UNL     1       3.180  26.206 -11.111  1.00  0.00    -0.354 N 
ATOM      4  H1  UNL     1       3.123  25.361 -11.681  1.00  0.00     0.162 HD
HETATM    5  O1  UNL     1       2.245  27.524  -9.503  1.00  0.00    -0.269 OA
BRANCH   3   6
HETATM    6  C2  UNL     1       4.316  27.071 -11.281  1.00  0.00     0.076 C 
HETATM    7  C1  UNL     1       4.254  27.617 -12.704  1.00  0.00     0.032 C 
HETATM    8  C3  UNL     1       5.632  26.380 -11.115  1.00  0.00     0.032 C 
ENDBRANCH   3   6
ENDBRANCH   1   2
BRANCH   1   9
HETATM    9  N2  UNL     1       0.953  24.413 -10.815  1.00  0.00    -0.386 N 
ATOM     10  H2  UNL     1       0.643  24.447 -11.786  1.00  0.00     0.156 HD
BRANCH   9  11
HETATM   11  C6  UNL     1       1.373  23.193 -10.228  1.00  0.00     0.216 C 
BRANCH  11  12
HETATM   12  C7  UNL     1       0.391  22.123 -10.566  1.00  0.00     0.248 C 
HETATM   13  N3  UNL     1       0.321  21.640 -11.898  1.00  0.00    -0.061 NA
HETATM   14  O2  UNL     1      -0.362  21.668  -9.660  1.00  0.00    -0.275 OA
ENDBRANCH  11  12
ENDBRANCH   9  11
ENDBRANCH   1   9
BRANCH   1  15
HETATM   15  N4  UNL     1      -0.291  26.293 -10.154  1.00  0.00    -0.330 N 
HETATM   16  C8  UNL     1      -1.503  25.808  -9.603  1.00  0.00     0.249 C 
HETATM   17  O3  UNL     1      -1.538  24.715  -8.957  1.00  0.00    -0.271 OA
ATOM     18  H4  UNL     1      -0.304  27.175 -10.666  1.00  0.00     0.165 HD
BRANCH  16  19
HETATM   19  C9  UNL     1      -2.749  26.586  -9.780  1.00  0.00     0.270 C 
HETATM   20  C10 UNL     1      -2.492  27.883 -10.535  1.00  0.00     0.050 C 
BRANCH  19  21
HETATM   21  N5  UNL     1      -3.720  25.770 -10.453  1.00  0.00    -0.067 N 
ATOM     22  H53 UNL     1      -4.667  26.136 -10.356  1.00  0.00     0.275 HD
ATOM     23  H52 UNL     1      -3.644  25.835 -11.468  1.00  0.00     0.275 HD
ATOM     24  H51 UNL     1      -3.638  24.811 -10.119  1.00  0.00     0.275 HD
ENDBRANCH  19  21
ENDBRANCH  16  19
ENDBRANCH   1  15
TORSDOF 8
ENDMDL
