MODEL 1
REMARK VINA RESULT: -4.627155690      0.000      0.000
REMARK  4 active torsions:
REMARK  status: ('A' for Active; 'I' for Inactive)
REMARK       I    between atoms: C1_2  and  N1_3 
REMARK    1  A    between atoms: C1_2  and  C7_10 
REMARK    2  A    between atoms: N1_3  and  C2_5 
REMARK    3  A    between atoms: C2_5  and  C3_6 
REMARK    4  A    between atoms: C3_6  and  C4_7 
ROOT
HETATM    1  O1  UNL     1      33.828 150.472 336.197  1.00  0.00    -0.273 OA
HETATM    2  C1  UNL     1      32.903 151.109 335.668  1.00  0.00     0.221 C 
HETATM    3  N1  UNL     1      32.765 152.491 335.945  1.00  0.00    -0.361 N 
ATOM      4  H1  UNL     1      31.995 152.989 335.498  1.00  0.00     0.162 HD
ENDROOT
BRANCH   2   5
HETATM    5  C7  UNL     1      31.961 150.463 334.771  1.00  0.00     0.080 C 
HETATM    6  C8  UNL     1      30.573 151.086 334.965  1.00  0.00     0.017 C 
HETATM    7  C9  UNL     1      29.839 150.445 333.787  1.00  0.00     0.038 C 
HETATM    8  C10 UNL     1      30.840 150.728 332.660  1.00  0.00     0.171 C 
HETATM    9  F1  UNL     1      30.616 152.048 332.252  1.00  0.00    -0.249 F 
HETATM   10  C11 UNL     1      32.203 150.693 333.321  1.00  0.00     0.051 C 
ENDBRANCH   2   5
BRANCH   3  11
HETATM   11  C2  UNL     1      33.630 153.242 336.810  1.00  0.00     0.123 C 
BRANCH  11  12
HETATM   12  C3  UNL     1      32.973 153.808 338.026  1.00  0.00     0.024 C 
BRANCH  12  13
HETATM   13  C4  UNL     1      31.753 154.604 337.567  1.00  0.00    -0.013 A 
HETATM   14  C5  UNL     1      31.982 155.846 336.781  1.00  0.00     0.005 A 
HETATM   15  C6  UNL     1      31.624 155.963 338.235  1.00  0.00     0.005 A 
ENDBRANCH  12  13
ENDBRANCH  11  12
ENDBRANCH   3  11
TORSDOF 4
ENDMDL
MODEL 2
REMARK VINA RESULT: -4.393769224      2.126      2.795
REMARK  4 active torsions:
REMARK  status: ('A' for Active; 'I' for Inactive)
REMARK       I    between atoms: C1_2  and  N1_3 
REMARK    1  A    between atoms: C1_2  and  C7_10 
REMARK    2  A    between atoms: N1_3  and  C2_5 
REMARK    3  A    between atoms: C2_5  and  C3_6 
REMARK    4  A    between atoms: C3_6  and  C4_7 
ROOT
HETATM    1  O1  UNL     1      32.917 153.554 335.368  1.00  0.00    -0.273 OA
HETATM    2  C1  UNL     1      31.882 153.725 334.703  1.00  0.00     0.221 C 
HETATM    3  N1  UNL     1      31.461 155.042 334.398  1.00  0.00    -0.361 N 
ATOM      4  H1  UNL     1      30.606 155.151 333.852  1.00  0.00     0.162 HD
ENDROOT
BRANCH   2   5
HETATM    5  C7  UNL     1      31.095 152.597 334.233  1.00  0.00     0.080 C 
HETATM    6  C8  UNL     1      31.987 151.678 333.389  1.00  0.00     0.017 C 
HETATM    7  C9  UNL     1      31.044 150.487 333.225  1.00  0.00     0.038 C 
HETATM    8  C10 UNL     1      30.609 150.285 334.681  1.00  0.00     0.171 C 
HETATM    9  F1  UNL     1      31.630 149.558 335.303  1.00  0.00    -0.249 F 
HETATM   10  C11 UNL     1      30.614 151.671 335.294  1.00  0.00     0.051 C 
ENDBRANCH   2   5
BRANCH   3  11
HETATM   11  C2  UNL     1      32.151 156.235 334.802  1.00  0.00     0.123 C 
BRANCH  11  12
HETATM   12  C3  UNL     1      31.546 156.952 335.963  1.00  0.00     0.024 C 
BRANCH  12  13
HETATM   13  C4  UNL     1      32.316 156.542 337.216  1.00  0.00    -0.013 A 
HETATM   14  C5  UNL     1      31.722 155.496 338.092  1.00  0.00     0.005 A 
HETATM   15  C6  UNL     1      31.627 156.936 338.512  1.00  0.00     0.005 A 
ENDBRANCH  12  13
ENDBRANCH  11  12
ENDBRANCH   3  11
TORSDOF 4
ENDMDL
MODEL 3
REMARK VINA RESULT: -4.379320768      2.413      2.857
REMARK  4 active torsions:
REMARK  status: ('A' for Active; 'I' for Inactive)
REMARK       I    between atoms: C1_2  and  N1_3 
REMARK    1  A    between atoms: C1_2  and  C7_10 
REMARK    2  A    between atoms: N1_3  and  C2_5 
REMARK    3  A    between atoms: C2_5  and  C3_6 
REMARK    4  A    between atoms: C3_6  and  C4_7 
ROOT
HETATM    1  O1  UNL     1      30.578 154.234 332.911  1.00  0.00    -0.273 OA
HETATM    2  C1  UNL     1      31.194 153.807 333.901  1.00  0.00     0.221 C 
HETATM    3  N1  UNL     1      31.599 154.712 334.912  1.00  0.00    -0.361 N 
ATOM      4  H1  UNL     1      32.106 154.332 335.712  1.00  0.00     0.162 HD
ENDROOT
BRANCH   2   5
HETATM    5  C7  UNL     1      31.507 152.394 334.040  1.00  0.00     0.080 C 
HETATM    6  C8  UNL     1      30.684 151.807 335.192  1.00  0.00     0.017 C 
HETATM    7  C9  UNL     1      30.984 150.322 334.989  1.00  0.00     0.038 C 
HETATM    8  C10 UNL     1      30.709 150.195 333.486  1.00  0.00     0.171 C 
HETATM    9  F1  UNL     1      29.323 150.069 333.345  1.00  0.00    -0.249 F 
HETATM   10  C11 UNL     1      31.095 151.536 332.897  1.00  0.00     0.051 C 
ENDBRANCH   2   5
BRANCH   3  11
HETATM   11  C2  UNL     1      31.349 156.125 334.892  1.00  0.00     0.123 C 
BRANCH  11  12
HETATM   12  C3  UNL     1      32.010 156.900 335.983  1.00  0.00     0.024 C 
BRANCH  12  13
HETATM   13  C4  UNL     1      31.862 156.101 337.276  1.00  0.00    -0.013 A 
HETATM   14  C5  UNL     1      31.556 156.846 338.528  1.00  0.00     0.005 A 
HETATM   15  C6  UNL     1      32.962 156.373 338.290  1.00  0.00     0.005 A 
ENDBRANCH  12  13
ENDBRANCH  11  12
ENDBRANCH   3  11
TORSDOF 4
ENDMDL
MODEL 4
REMARK VINA RESULT: -4.368177272      1.639      2.037
REMARK  4 active torsions:
REMARK  status: ('A' for Active; 'I' for Inactive)
REMARK       I    between atoms: C1_2  and  N1_3 
REMARK    1  A    between atoms: C1_2  and  C7_10 
REMARK    2  A    between atoms: N1_3  and  C2_5 
REMARK    3  A    between atoms: C2_5  and  C3_6 
REMARK    4  A    between atoms: C3_6  and  C4_7 
ROOT
HETATM    1  O1  UNL     1      34.351 153.311 335.284  1.00  0.00    -0.273 OA
HETATM    2  C1  UNL     1      33.202 152.985 335.624  1.00  0.00     0.221 C 
HETATM    3  N1  UNL     1      32.804 153.145 336.973  1.00  0.00    -0.361 N 
ATOM      4  H1  UNL     1      31.855 152.866 337.223  1.00  0.00     0.162 HD
ENDROOT
BRANCH   2   5
HETATM    5  C7  UNL     1      32.259 152.442 334.660  1.00  0.00     0.080 C 
HETATM    6  C8  UNL     1      32.782 151.095 334.148  1.00  0.00     0.017 C 
HETATM    7  C9  UNL     1      31.553 150.622 333.373  1.00  0.00     0.038 C 
HETATM    8  C10 UNL     1      30.463 150.860 334.424  1.00  0.00     0.171 C 
HETATM    9  F1  UNL     1      30.501 149.764 335.291  1.00  0.00    -0.249 F 
HETATM   10  C11 UNL     1      30.930 152.067 335.213  1.00  0.00     0.051 C 
ENDBRANCH   2   5
BRANCH   3  11
HETATM   11  C2  UNL     1      33.640 153.670 338.015  1.00  0.00     0.123 C 
BRANCH  11  12
HETATM   12  C3  UNL     1      33.468 155.128 338.289  1.00  0.00     0.024 C 
BRANCH  12  13
HETATM   13  C4  UNL     1      32.021 155.495 337.967  1.00  0.00    -0.013 A 
HETATM   14  C5  UNL     1      31.778 156.616 337.019  1.00  0.00     0.005 A 
HETATM   15  C6  UNL     1      31.606 156.859 338.491  1.00  0.00     0.005 A 
ENDBRANCH  12  13
ENDBRANCH  11  12
ENDBRANCH   3  11
TORSDOF 4
ENDMDL
MODEL 5
REMARK VINA RESULT: -4.339474026      2.431      5.740
REMARK  4 active torsions:
REMARK  status: ('A' for Active; 'I' for Inactive)
REMARK       I    between atoms: C1_2  and  N1_3 
REMARK    1  A    between atoms: C1_2  and  C7_10 
REMARK    2  A    between atoms: N1_3  and  C2_5 
REMARK    3  A    between atoms: C2_5  and  C3_6 
REMARK    4  A    between atoms: C3_6  and  C4_7 
ROOT
HETATM    1  O1  UNL     1      33.511 152.457 337.137  1.00  0.00    -0.273 OA
HETATM    2  C1  UNL     1      32.990 153.561 336.908  1.00  0.00     0.221 C 
HETATM    3  N1  UNL     1      32.486 153.836 335.614  1.00  0.00    -0.361 N 
ATOM      4  H1  UNL     1      32.066 154.752 335.454  1.00  0.00     0.162 HD
ENDROOT
BRANCH   2   5
HETATM    5  C7  UNL     1      32.890 154.575 337.944  1.00  0.00     0.080 C 
HETATM    6  C8  UNL     1      33.801 155.754 337.583  1.00  0.00     0.017 C 
HETATM    7  C9  UNL     1      33.352 156.757 338.646  1.00  0.00     0.038 C 
HETATM    8  C10 UNL     1      31.831 156.667 338.476  1.00  0.00     0.171 C 
HETATM    9  F1  UNL     1      31.504 157.478 337.384  1.00  0.00    -0.249 F 
HETATM   10  C11 UNL     1      31.562 155.235 338.061  1.00  0.00     0.051 C 
ENDBRANCH   2   5
BRANCH   3  11
HETATM   11  C2  UNL     1      32.524 152.919 334.509  1.00  0.00     0.123 C 
BRANCH  11  12
HETATM   12  C3  UNL     1      31.189 152.530 333.965  1.00  0.00     0.024 C 
BRANCH  12  13
HETATM   13  C4  UNL     1      30.607 151.457 334.883  1.00  0.00    -0.013 A 
HETATM   14  C5  UNL     1      31.354 150.178 335.028  1.00  0.00     0.005 A 
HETATM   15  C6  UNL     1      30.138 150.213 334.147  1.00  0.00     0.005 A 
ENDBRANCH  12  13
ENDBRANCH  11  12
ENDBRANCH   3  11
TORSDOF 4
ENDMDL
