MODEL 1
REMARK VINA RESULT: -4.573843864      0.000      0.000
REMARK  4 active torsions:
REMARK  status: ('A' for Active; 'I' for Inactive)
REMARK    1  A    between atoms: C1_2  and  C2_3 
REMARK       I    between atoms: C1_2  and  N1_10 
REMARK    2  A    between atoms: C2_3  and  C3_4 
REMARK    3  A    between atoms: C3_4  and  C4_5 
REMARK    4  A    between atoms: N1_10  and  C9_12 
ROOT
HETATM    1  O1  UNL     1      33.983 149.769 336.874  1.00  0.00    -0.274 OA
HETATM    2  C1  UNL     1      33.794 150.977 336.640  1.00  0.00     0.217 C 
HETATM    3  N1  UNL     1      32.822 151.323 335.635  1.00  0.00    -0.354 N 
ATOM      4  H1  UNL     1      32.631 152.298 335.406  1.00  0.00     0.163 HD
ENDROOT
BRANCH   2   5
HETATM    5  C2  UNL     1      34.538 152.020 337.363  1.00  0.00     0.103 C 
BRANCH   5   6
HETATM    6  C3  UNL     1      34.095 153.376 336.908  1.00  0.00     0.014 C 
BRANCH   6   7
HETATM    7  C4  UNL     1      33.265 154.017 337.985  1.00  0.00    -0.014 C 
HETATM    8  C5  UNL     1      31.913 154.390 337.401  1.00  0.00     0.004 C 
HETATM    9  C6  UNL     1      31.542 155.583 338.259  1.00  0.00     0.000 C 
HETATM   10  C7  UNL     1      32.841 156.348 338.312  1.00  0.00     0.000 C 
HETATM   11  C8  UNL     1      33.944 155.340 338.302  1.00  0.00     0.004 C 
ENDBRANCH   6   7
ENDBRANCH   5   6
ENDBRANCH   2   5
BRANCH   3  12
HETATM   12  C9  UNL     1      32.129 150.256 334.964  1.00  0.00     0.121 A 
HETATM   13  C10 UNL     1      31.489 150.503 333.648  1.00  0.00     0.067 A 
HETATM   14  C11 UNL     1      30.634 150.480 334.878  1.00  0.00     0.195 A 
HETATM   15  F1  UNL     1      30.100 151.658 335.359  1.00  0.00    -0.247 F 
ENDBRANCH   3  12
TORSDOF 4
ENDMDL
MODEL 2
REMARK VINA RESULT: -4.526801354      2.847      3.253
REMARK  4 active torsions:
REMARK  status: ('A' for Active; 'I' for Inactive)
REMARK    1  A    between atoms: C1_2  and  C2_3 
REMARK       I    between atoms: C1_2  and  N1_10 
REMARK    2  A    between atoms: C2_3  and  C3_4 
REMARK    3  A    between atoms: C3_4  and  C4_5 
REMARK    4  A    between atoms: N1_10  and  C9_12 
ROOT
HETATM    1  O1  UNL     1      31.690 153.864 332.405  1.00  0.00    -0.274 OA
HETATM    2  C1  UNL     1      31.324 153.771 333.592  1.00  0.00     0.217 C 
HETATM    3  N1  UNL     1      30.793 152.509 334.035  1.00  0.00    -0.354 N 
ATOM      4  H1  UNL     1      30.479 152.381 334.997  1.00  0.00     0.163 HD
ENDROOT
BRANCH   2   5
HETATM    5  C2  UNL     1      31.429 154.913 334.514  1.00  0.00     0.103 C 
BRANCH   5   6
HETATM    6  C3  UNL     1      31.623 154.424 335.916  1.00  0.00     0.014 C 
BRANCH   6   7
HETATM    7  C4  UNL     1      32.333 155.479 336.719  1.00  0.00    -0.014 C 
HETATM    8  C5  UNL     1      31.686 155.564 338.091  1.00  0.00     0.004 C 
HETATM    9  C6  UNL     1      31.943 157.016 338.445  1.00  0.00     0.000 C 
HETATM   10  C7  UNL     1      31.613 157.718 337.152  1.00  0.00     0.000 C 
HETATM   11  C8  UNL     1      32.014 156.803 336.041  1.00  0.00     0.004 C 
ENDBRANCH   6   7
ENDBRANCH   5   6
ENDBRANCH   2   5
BRANCH   3  12
HETATM   12  C9  UNL     1      30.717 151.432 333.084  1.00  0.00     0.121 A 
HETATM   13  C10 UNL     1      29.456 150.665 332.934  1.00  0.00     0.067 A 
HETATM   14  C11 UNL     1      30.575 150.072 333.735  1.00  0.00     0.195 A 
HETATM   15  F1  UNL     1      30.463 149.991 335.107  1.00  0.00    -0.247 F 
ENDBRANCH   3  12
TORSDOF 4
ENDMDL
MODEL 3
REMARK VINA RESULT: -4.500420507      1.286      1.745
REMARK  4 active torsions:
REMARK  status: ('A' for Active; 'I' for Inactive)
REMARK    1  A    between atoms: C1_2  and  C2_3 
REMARK       I    between atoms: C1_2  and  N1_10 
REMARK    2  A    between atoms: C2_3  and  C3_4 
REMARK    3  A    between atoms: C3_4  and  C4_5 
REMARK    4  A    between atoms: N1_10  and  C9_12 
ROOT
HETATM    1  O1  UNL     1      34.146 151.617 337.066  1.00  0.00    -0.274 OA
HETATM    2  C1  UNL     1      33.406 152.524 336.640  1.00  0.00     0.217 C 
HETATM    3  N1  UNL     1      32.423 152.178 335.647  1.00  0.00    -0.354 N 
ATOM      4  H1  UNL     1      31.793 152.883 335.265  1.00  0.00     0.163 HD
ENDROOT
BRANCH   2   5
HETATM    5  C2  UNL     1      33.532 153.905 337.131  1.00  0.00     0.103 C 
BRANCH   5   6
HETATM    6  C3  UNL     1      32.411 154.217 338.074  1.00  0.00     0.014 C 
BRANCH   6   7
HETATM    7  C4  UNL     1      31.551 155.301 337.485  1.00  0.00    -0.014 C 
HETATM    8  C5  UNL     1      32.164 155.747 336.168  1.00  0.00     0.004 C 
HETATM    9  C6  UNL     1      31.702 157.189 336.104  1.00  0.00     0.000 C 
HETATM   10  C7  UNL     1      31.943 157.659 337.517  1.00  0.00     0.000 C 
HETATM   11  C8  UNL     1      31.687 156.494 338.416  1.00  0.00     0.004 C 
ENDBRANCH   6   7
ENDBRANCH   5   6
ENDBRANCH   2   5
BRANCH   3  12
HETATM   12  C9  UNL     1      32.352 150.809 335.208  1.00  0.00     0.121 A 
HETATM   13  C10 UNL     1      31.969 150.501 333.808  1.00  0.00     0.067 A 
HETATM   14  C11 UNL     1      30.942 150.359 334.890  1.00  0.00     0.195 A 
HETATM   15  F1  UNL     1      29.909 151.270 334.973  1.00  0.00    -0.247 F 
ENDBRANCH   3  12
TORSDOF 4
ENDMDL
MODEL 4
REMARK VINA RESULT: -4.487742665      2.339      2.733
REMARK  4 active torsions:
REMARK  status: ('A' for Active; 'I' for Inactive)
REMARK    1  A    between atoms: C1_2  and  C2_3 
REMARK       I    between atoms: C1_2  and  N1_10 
REMARK    2  A    between atoms: C2_3  and  C3_4 
REMARK    3  A    between atoms: C3_4  and  C4_5 
REMARK    4  A    between atoms: N1_10  and  C9_12 
ROOT
HETATM    1  O1  UNL     1      32.232 153.835 333.401  1.00  0.00    -0.274 OA
HETATM    2  C1  UNL     1      31.630 153.617 334.470  1.00  0.00     0.217 C 
HETATM    3  N1  UNL     1      30.835 152.421 334.562  1.00  0.00    -0.354 N 
ATOM      4  H1  UNL     1      30.322 152.197 335.414  1.00  0.00     0.163 HD
ENDROOT
BRANCH   2   5
HETATM    5  C2  UNL     1      31.726 154.551 335.603  1.00  0.00     0.103 C 
BRANCH   5   6
HETATM    6  C3  UNL     1      31.650 153.799 336.895  1.00  0.00     0.014 C 
BRANCH   6   7
HETATM    7  C4  UNL     1      31.873 154.749 338.039  1.00  0.00    -0.014 C 
HETATM    8  C5  UNL     1      31.731 156.171 337.525  1.00  0.00     0.004 C 
HETATM    9  C6  UNL     1      32.649 156.918 338.473  1.00  0.00     0.000 C 
HETATM   10  C7  UNL     1      33.847 156.003 338.535  1.00  0.00     0.000 C 
HETATM   11  C8  UNL     1      33.337 154.604 338.422  1.00  0.00     0.004 C 
ENDBRANCH   6   7
ENDBRANCH   5   6
ENDBRANCH   2   5
BRANCH   3  12
HETATM   12  C9  UNL     1      30.783 151.550 333.418  1.00  0.00     0.121 A 
HETATM   13  C10 UNL     1      29.692 150.551 333.299  1.00  0.00     0.067 A 
HETATM   14  C11 UNL     1      31.043 150.099 333.763  1.00  0.00     0.195 A 
HETATM   15  F1  UNL     1      31.226 149.743 335.083  1.00  0.00    -0.247 F 
ENDBRANCH   3  12
TORSDOF 4
ENDMDL
MODEL 5
REMARK VINA RESULT: -4.413833206      1.098      1.362
REMARK  4 active torsions:
REMARK  status: ('A' for Active; 'I' for Inactive)
REMARK    1  A    between atoms: C1_2  and  C2_3 
REMARK       I    between atoms: C1_2  and  N1_10 
REMARK    2  A    between atoms: C2_3  and  C3_4 
REMARK    3  A    between atoms: C3_4  and  C4_5 
REMARK    4  A    between atoms: N1_10  and  C9_12 
ROOT
HETATM    1  O1  UNL     1      34.078 150.876 335.645  1.00  0.00    -0.274 OA
HETATM    2  C1  UNL     1      33.174 151.715 335.821  1.00  0.00     0.217 C 
HETATM    3  N1  UNL     1      31.981 151.594 335.025  1.00  0.00    -0.354 N 
ATOM      4  H1  UNL     1      31.212 152.255 335.131  1.00  0.00     0.163 HD
ENDROOT
BRANCH   2   5
HETATM    5  C2  UNL     1      33.319 152.796 336.809  1.00  0.00     0.103 C 
BRANCH   5   6
HETATM    6  C3  UNL     1      32.144 153.721 336.732  1.00  0.00     0.014 C 
BRANCH   6   7
HETATM    7  C4  UNL     1      32.125 154.606 337.948  1.00  0.00    -0.014 C 
HETATM    8  C5  UNL     1      31.731 156.010 337.523  1.00  0.00     0.004 C 
HETATM    9  C6  UNL     1      32.442 156.843 338.570  1.00  0.00     0.000 C 
HETATM   10  C7  UNL     1      33.792 156.174 338.641  1.00  0.00     0.000 C 
HETATM   11  C8  UNL     1      33.571 154.715 338.406  1.00  0.00     0.004 C 
ENDBRANCH   6   7
ENDBRANCH   5   6
ENDBRANCH   2   5
BRANCH   3  12
HETATM   12  C9  UNL     1      31.902 150.515 334.077  1.00  0.00     0.121 A 
HETATM   13  C10 UNL     1      31.413 150.774 332.701  1.00  0.00     0.067 A 
HETATM   14  C11 UNL     1      30.480 150.158 333.699  1.00  0.00     0.195 A 
HETATM   15  F1  UNL     1      29.440 150.905 334.210  1.00  0.00    -0.247 F 
ENDBRANCH   3  12
TORSDOF 4
ENDMDL
