MODEL 1
REMARK VINA RESULT: -4.396528273      0.000      0.000
REMARK  4 active torsions:
REMARK  status: ('A' for Active; 'I' for Inactive)
REMARK    1  A    between atoms: C1_2  and  C2_3 
REMARK       I    between atoms: C1_2  and  N1_7 
REMARK    2  A    between atoms: C2_3  and  C3_4 
REMARK    3  A    between atoms: N1_7  and  C6_9 
REMARK    4  A    between atoms: C6_9  and  C7_10 
ROOT
HETATM    1  O1  UNL     1      31.255 154.827 334.486  1.00  0.00    -0.274 OA
HETATM    2  C1  UNL     1      31.681 153.669 334.664  1.00  0.00     0.217 C 
HETATM    3  N1  UNL     1      32.759 153.471 335.549  1.00  0.00    -0.361 N 
ATOM      4  H1  UNL     1      33.116 152.528 335.702  1.00  0.00     0.162 HD
ENDROOT
BRANCH   3   5
HETATM    5  C6  UNL     1      33.364 154.579 336.242  1.00  0.00     0.127 C 
BRANCH   5   6
HETATM    6  C7  UNL     1      33.227 154.501 337.726  1.00  0.00     0.008 C 
HETATM    7  C8  UNL     1      31.744 154.710 338.051  1.00  0.00     0.007 C 
HETATM    8  C9  UNL     1      31.636 156.222 338.079  1.00  0.00     0.005 C 
HETATM    9  C10 UNL     1      32.914 156.663 338.764  1.00  0.00    -0.010 A 
HETATM   10  C11 UNL     1      34.063 156.955 337.886  1.00  0.00     0.010 A 
HETATM   11  C12 UNL     1      33.946 155.586 338.461  1.00  0.00    -0.004 A 
ENDBRANCH   5   6
ENDBRANCH   3   5
BRANCH   2  12
HETATM   12  C2  UNL     1      31.068 152.540 333.959  1.00  0.00     0.107 C 
BRANCH  12  13
HETATM   13  C3  UNL     1      30.596 151.441 334.849  1.00  0.00    -0.006 A 
HETATM   14  C4  UNL     1      30.133 150.198 334.100  1.00  0.00     0.005 A 
HETATM   15  C5  UNL     1      31.304 150.167 335.004  1.00  0.00     0.005 A 
ENDBRANCH  12  13
ENDBRANCH   2  12
TORSDOF 4
ENDMDL
MODEL 2
REMARK VINA RESULT: -4.385753806      0.743      1.221
REMARK  4 active torsions:
REMARK  status: ('A' for Active; 'I' for Inactive)
REMARK    1  A    between atoms: C1_2  and  C2_3 
REMARK       I    between atoms: C1_2  and  N1_7 
REMARK    2  A    between atoms: C2_3  and  C3_4 
REMARK    3  A    between atoms: N1_7  and  C6_9 
REMARK    4  A    between atoms: C6_9  and  C7_10 
ROOT
HETATM    1  O1  UNL     1      31.151 154.756 333.673  1.00  0.00    -0.274 OA
HETATM    2  C1  UNL     1      31.297 153.713 334.340  1.00  0.00     0.217 C 
HETATM    3  N1  UNL     1      31.648 153.821 335.701  1.00  0.00    -0.361 N 
ATOM      4  H1  UNL     1      31.770 152.974 336.256  1.00  0.00     0.162 HD
ENDROOT
BRANCH   3   5
HETATM    5  C6  UNL     1      31.837 155.107 336.320  1.00  0.00     0.127 C 
BRANCH   5   6
HETATM    6  C7  UNL     1      31.863 155.054 337.810  1.00  0.00     0.008 C 
HETATM    7  C8  UNL     1      31.678 156.490 338.313  1.00  0.00     0.007 C 
HETATM    8  C9  UNL     1      33.095 157.027 338.266  1.00  0.00     0.005 C 
HETATM    9  C10 UNL     1      33.939 155.865 338.751  1.00  0.00    -0.010 A 
HETATM   10  C11 UNL     1      34.456 154.952 337.715  1.00  0.00     0.010 A 
HETATM   11  C12 UNL     1      33.170 154.605 338.380  1.00  0.00    -0.004 A 
ENDBRANCH   5   6
ENDBRANCH   3   5
BRANCH   2  12
HETATM   12  C2  UNL     1      31.106 152.402 333.714  1.00  0.00     0.107 C 
BRANCH  12  13
HETATM   13  C3  UNL     1      30.480 151.381 334.600  1.00  0.00    -0.006 A 
HETATM   14  C4  UNL     1      30.114 150.086 333.885  1.00  0.00     0.005 A 
HETATM   15  C5  UNL     1      31.130 150.117 334.960  1.00  0.00     0.005 A 
ENDBRANCH  12  13
ENDBRANCH   2  12
TORSDOF 4
ENDMDL
MODEL 3
REMARK VINA RESULT: -4.310091595      1.824      2.060
REMARK  4 active torsions:
REMARK  status: ('A' for Active; 'I' for Inactive)
REMARK    1  A    between atoms: C1_2  and  C2_3 
REMARK       I    between atoms: C1_2  and  N1_7 
REMARK    2  A    between atoms: C2_3  and  C3_4 
REMARK    3  A    between atoms: N1_7  and  C6_9 
REMARK    4  A    between atoms: C6_9  and  C7_10 
ROOT
HETATM    1  O1  UNL     1      33.858 150.585 336.275  1.00  0.00    -0.274 OA
HETATM    2  C1  UNL     1      32.819 151.084 335.803  1.00  0.00     0.217 C 
HETATM    3  N1  UNL     1      32.604 152.469 335.948  1.00  0.00    -0.361 N 
ATOM      4  H1  UNL     1      31.756 152.888 335.566  1.00  0.00     0.162 HD
ENDROOT
BRANCH   3   5
HETATM    5  C6  UNL     1      33.562 153.302 336.628  1.00  0.00     0.127 C 
BRANCH   5   6
HETATM    6  C7  UNL     1      33.140 153.697 338.003  1.00  0.00     0.008 C 
HETATM    7  C8  UNL     1      31.715 154.250 337.892  1.00  0.00     0.007 C 
HETATM    8  C9  UNL     1      31.965 155.695 337.509  1.00  0.00     0.005 C 
HETATM    9  C10 UNL     1      33.162 156.091 338.350  1.00  0.00    -0.010 A 
HETATM   10  C11 UNL     1      34.489 155.900 337.735  1.00  0.00     0.010 A 
HETATM   11  C12 UNL     1      33.947 154.809 338.592  1.00  0.00    -0.004 A 
ENDBRANCH   5   6
ENDBRANCH   3   5
BRANCH   2  12
HETATM   12  C2  UNL     1      31.841 150.239 335.112  1.00  0.00     0.107 C 
BRANCH  12  13
HETATM   13  C3  UNL     1      30.826 150.991 334.322  1.00  0.00    -0.006 A 
HETATM   14  C4  UNL     1      30.960 150.810 332.814  1.00  0.00     0.005 A 
HETATM   15  C5  UNL     1      29.762 150.344 333.548  1.00  0.00     0.005 A 
ENDBRANCH  12  13
ENDBRANCH   2  12
TORSDOF 4
ENDMDL
MODEL 4
REMARK VINA RESULT: -4.306001213      1.544      5.902
REMARK  4 active torsions:
REMARK  status: ('A' for Active; 'I' for Inactive)
REMARK    1  A    between atoms: C1_2  and  C2_3 
REMARK       I    between atoms: C1_2  and  N1_7 
REMARK    2  A    between atoms: C2_3  and  C3_4 
REMARK    3  A    between atoms: N1_7  and  C6_9 
REMARK    4  A    between atoms: C6_9  and  C7_10 
ROOT
HETATM    1  O1  UNL     1      33.500 152.722 337.199  1.00  0.00    -0.274 OA
HETATM    2  C1  UNL     1      32.794 153.734 337.021  1.00  0.00     0.217 C 
HETATM    3  N1  UNL     1      32.204 153.936 335.757  1.00  0.00    -0.361 N 
ATOM      4  H1  UNL     1      31.625 154.761 335.600  1.00  0.00     0.162 HD
ENDROOT
BRANCH   3   5
HETATM    5  C6  UNL     1      32.406 152.997 334.684  1.00  0.00     0.127 C 
BRANCH   5   6
HETATM    6  C7  UNL     1      31.136 152.471 334.105  1.00  0.00     0.008 C 
HETATM    7  C8  UNL     1      30.482 151.595 335.179  1.00  0.00     0.007 C 
HETATM    8  C9  UNL     1      31.178 150.265 334.969  1.00  0.00     0.005 C 
HETATM    9  C10 UNL     1      31.280 150.144 333.461  1.00  0.00    -0.010 A 
HETATM   10  C11 UNL     1      32.513 150.667 332.843  1.00  0.00     0.010 A 
HETATM   11  C12 UNL     1      31.331 151.569 332.929  1.00  0.00    -0.004 A 
ENDBRANCH   5   6
ENDBRANCH   3   5
BRANCH   2  12
HETATM   12  C2  UNL     1      32.587 154.692 338.110  1.00  0.00     0.107 C 
BRANCH  12  13
HETATM   13  C3  UNL     1      31.616 155.779 337.798  1.00  0.00    -0.006 A 
HETATM   14  C4  UNL     1      31.650 156.937 338.789  1.00  0.00     0.005 A 
HETATM   15  C5  UNL     1      32.018 157.121 337.367  1.00  0.00     0.005 A 
ENDBRANCH  12  13
ENDBRANCH   2  12
TORSDOF 4
ENDMDL
MODEL 5
REMARK VINA RESULT: -4.276865527      1.523      2.143
REMARK  4 active torsions:
REMARK  status: ('A' for Active; 'I' for Inactive)
REMARK    1  A    between atoms: C1_2  and  C2_3 
REMARK       I    between atoms: C1_2  and  N1_7 
REMARK    2  A    between atoms: C2_3  and  C3_4 
REMARK    3  A    between atoms: N1_7  and  C6_9 
REMARK    4  A    between atoms: C6_9  and  C7_10 
ROOT
HETATM    1  O1  UNL     1      33.128 151.697 335.402  1.00  0.00    -0.274 OA
HETATM    2  C1  UNL     1      31.882 151.713 335.372  1.00  0.00     0.217 C 
HETATM    3  N1  UNL     1      31.209 152.879 335.788  1.00  0.00    -0.361 N 
ATOM      4  H1  UNL     1      30.189 152.903 335.767  1.00  0.00     0.162 HD
ENDROOT
BRANCH   3   5
HETATM    5  C6  UNL     1      31.936 154.036 336.241  1.00  0.00     0.127 C 
BRANCH   5   6
HETATM    6  C7  UNL     1      31.862 154.247 337.715  1.00  0.00     0.008 C 
HETATM    7  C8  UNL     1      31.777 155.760 337.947  1.00  0.00     0.007 C 
HETATM    8  C9  UNL     1      33.237 156.167 337.921  1.00  0.00     0.005 C 
HETATM    9  C10 UNL     1      33.938 155.047 338.664  1.00  0.00    -0.010 A 
HETATM   10  C11 UNL     1      34.436 153.926 337.845  1.00  0.00     0.010 A 
HETATM   11  C12 UNL     1      33.083 153.806 338.456  1.00  0.00    -0.004 A 
ENDBRANCH   5   6
ENDBRANCH   3   5
BRANCH   2  12
HETATM   12  C2  UNL     1      31.139 150.537 334.912  1.00  0.00     0.107 C 
BRANCH  12  13
HETATM   13  C3  UNL     1      30.983 150.445 333.433  1.00  0.00    -0.006 A 
HETATM   14  C4  UNL     1      29.533 150.383 332.969  1.00  0.00     0.005 A 
HETATM   15  C5  UNL     1      30.413 151.518 332.613  1.00  0.00     0.005 A 
ENDBRANCH  12  13
ENDBRANCH   2  12
TORSDOF 4
ENDMDL
