MODEL 1
REMARK VINA RESULT: -4.439919871      0.000      0.000
REMARK  4 active torsions:
REMARK  status: ('A' for Active; 'I' for Inactive)
REMARK    1  A    between atoms: C1_2  and  C2_3 
REMARK       I    between atoms: C1_2  and  N1_10 
REMARK    2  A    between atoms: C2_3  and  C3_4 
REMARK    3  A    between atoms: N1_10  and  C8_11 
REMARK    4  A    between atoms: C8_11  and  C9_12 
ROOT
HETATM    1  O1  UNL     1      34.433 150.310 337.005  1.00  0.00    -0.258 OA
HETATM    2  C1  UNL     1      33.834 151.352 336.596  1.00  0.00     0.286 C 
HETATM    3  N1  UNL     1      33.629 152.547 337.242  1.00  0.00    -0.415 NA
ENDROOT
BRANCH   2   4
HETATM    4  C2  UNL     1      33.254 151.293 335.174  1.00  0.00     0.123 C 
BRANCH   4   5
HETATM    5  C3  UNL     1      31.764 151.534 335.256  1.00  0.00    -0.002 C 
HETATM    6  C4  UNL     1      31.320 152.587 334.289  1.00  0.00     0.008 C 
HETATM    7  C5  UNL     1      30.511 151.905 333.223  1.00  0.00     0.037 C 
HETATM    8  C6  UNL     1      30.847 150.441 333.361  1.00  0.00     0.170 C 
HETATM    9  F1  UNL     1      31.941 150.210 332.536  1.00  0.00    -0.249 F 
HETATM   10  C7  UNL     1      31.100 150.226 334.809  1.00  0.00     0.042 C 
ENDBRANCH   4   5
ENDBRANCH   2   4
BRANCH   3  11
HETATM   11  C8  UNL     1      33.428 153.714 337.872  1.00  0.00     0.226 C 
BRANCH  11  12
HETATM   12  C9  UNL     1      32.005 154.249 337.669  1.00  0.00     0.016 A 
HETATM   13  C10 UNL     1      31.679 155.615 338.149  1.00  0.00     0.007 A 
HETATM   14  C11 UNL     1      31.935 155.421 336.711  1.00  0.00     0.007 A 
ENDBRANCH  11  12
ENDBRANCH   3  11
TORSDOF 4
ENDMDL
MODEL 2
REMARK VINA RESULT: -4.403750057      2.326      4.792
REMARK  4 active torsions:
REMARK  status: ('A' for Active; 'I' for Inactive)
REMARK    1  A    between atoms: C1_2  and  C2_3 
REMARK       I    between atoms: C1_2  and  N1_10 
REMARK    2  A    between atoms: C2_3  and  C3_4 
REMARK    3  A    between atoms: N1_10  and  C8_11 
REMARK    4  A    between atoms: C8_11  and  C9_12 
ROOT
HETATM    1  O1  UNL     1      34.526 151.760 337.303  1.00  0.00    -0.258 OA
HETATM    2  C1  UNL     1      33.607 151.965 336.453  1.00  0.00     0.286 C 
HETATM    3  N1  UNL     1      32.770 151.063 335.841  1.00  0.00    -0.415 NA
ENDROOT
BRANCH   2   4
HETATM    4  C2  UNL     1      33.371 153.427 336.039  1.00  0.00     0.123 C 
BRANCH   4   5
HETATM    5  C3  UNL     1      31.988 153.834 336.492  1.00  0.00    -0.002 C 
HETATM    6  C4  UNL     1      31.979 154.253 337.930  1.00  0.00     0.008 C 
HETATM    7  C5  UNL     1      31.736 155.736 337.963  1.00  0.00     0.037 C 
HETATM    8  C6  UNL     1      32.023 156.205 336.558  1.00  0.00     0.170 C 
HETATM    9  F1  UNL     1      33.373 156.528 336.521  1.00  0.00    -0.249 F 
HETATM   10  C7  UNL     1      31.625 155.080 335.675  1.00  0.00     0.042 C 
ENDBRANCH   4   5
ENDBRANCH   2   4
BRANCH   3  11
HETATM   11  C8  UNL     1      31.953 150.182 335.244  1.00  0.00     0.226 C 
BRANCH  11  12
HETATM   12  C9  UNL     1      30.610 150.808 334.850  1.00  0.00     0.016 A 
HETATM   13  C10 UNL     1      30.561 151.716 333.676  1.00  0.00     0.007 A 
HETATM   14  C11 UNL     1      30.094 150.328 333.508  1.00  0.00     0.007 A 
ENDBRANCH  11  12
ENDBRANCH   3  11
TORSDOF 4
ENDMDL
MODEL 3
REMARK VINA RESULT: -4.314327370      1.178      1.389
REMARK  4 active torsions:
REMARK  status: ('A' for Active; 'I' for Inactive)
REMARK    1  A    between atoms: C1_2  and  C2_3 
REMARK       I    between atoms: C1_2  and  N1_10 
REMARK    2  A    between atoms: C2_3  and  C3_4 
REMARK    3  A    between atoms: N1_10  and  C8_11 
REMARK    4  A    between atoms: C8_11  and  C9_12 
ROOT
HETATM    1  O1  UNL     1      35.453 151.410 336.487  1.00  0.00    -0.258 OA
HETATM    2  C1  UNL     1      34.275 151.814 336.725  1.00  0.00     0.286 C 
HETATM    3  N1  UNL     1      33.858 152.886 337.478  1.00  0.00    -0.415 NA
ENDROOT
BRANCH   2   4
HETATM    4  C2  UNL     1      33.133 151.010 336.084  1.00  0.00     0.123 C 
BRANCH   4   5
HETATM    5  C3  UNL     1      32.610 151.786 334.897  1.00  0.00    -0.002 C 
HETATM    6  C4  UNL     1      32.668 150.975 333.639  1.00  0.00     0.008 C 
HETATM    7  C5  UNL     1      31.253 150.655 333.248  1.00  0.00     0.037 C 
HETATM    8  C6  UNL     1      30.439 150.923 334.489  1.00  0.00     0.170 C 
HETATM    9  F1  UNL     1      30.406 149.730 335.201  1.00  0.00    -0.249 F 
HETATM   10  C7  UNL     1      31.126 152.044 335.180  1.00  0.00     0.042 C 
ENDBRANCH   4   5
ENDBRANCH   2   4
BRANCH   3  11
HETATM   11  C8  UNL     1      33.451 153.932 338.212  1.00  0.00     0.226 C 
BRANCH  11  12
HETATM   12  C9  UNL     1      32.017 154.358 337.875  1.00  0.00     0.016 A 
HETATM   13  C10 UNL     1      31.587 155.741 338.200  1.00  0.00     0.007 A 
HETATM   14  C11 UNL     1      31.945 155.430 336.805  1.00  0.00     0.007 A 
ENDBRANCH  11  12
ENDBRANCH   3  11
TORSDOF 4
ENDMDL
MODEL 4
REMARK VINA RESULT: -4.301081780      2.533      4.876
REMARK  4 active torsions:
REMARK  status: ('A' for Active; 'I' for Inactive)
REMARK    1  A    between atoms: C1_2  and  C2_3 
REMARK       I    between atoms: C1_2  and  N1_10 
REMARK    2  A    between atoms: C2_3  and  C3_4 
REMARK    3  A    between atoms: N1_10  and  C8_11 
REMARK    4  A    between atoms: C8_11  and  C9_12 
ROOT
HETATM    1  O1  UNL     1      35.544 150.916 335.392  1.00  0.00    -0.258 OA
HETATM    2  C1  UNL     1      34.309 151.208 335.410  1.00  0.00     0.286 C 
HETATM    3  N1  UNL     1      33.342 150.955 334.467  1.00  0.00    -0.415 NA
ENDROOT
BRANCH   2   4
HETATM    4  C2  UNL     1      33.798 151.944 336.659  1.00  0.00     0.123 C 
BRANCH   4   5
HETATM    5  C3  UNL     1      33.374 153.337 336.252  1.00  0.00    -0.002 C 
HETATM    6  C4  UNL     1      31.937 153.595 336.584  1.00  0.00     0.008 C 
HETATM    7  C5  UNL     1      31.909 154.598 337.702  1.00  0.00     0.037 C 
HETATM    8  C6  UNL     1      33.308 154.585 338.268  1.00  0.00     0.170 C 
HETATM    9  F1  UNL     1      33.317 153.621 339.268  1.00  0.00    -0.249 F 
HETATM   10  C7  UNL     1      34.199 154.299 337.115  1.00  0.00     0.042 C 
ENDBRANCH   4   5
ENDBRANCH   2   4
BRANCH   3  11
HETATM   11  C8  UNL     1      32.397 150.708 333.547  1.00  0.00     0.226 C 
BRANCH  11  12
HETATM   12  C9  UNL     1      31.119 150.129 334.166  1.00  0.00     0.016 A 
HETATM   13  C10 UNL     1      30.111 151.062 334.730  1.00  0.00     0.007 A 
HETATM   14  C11 UNL     1      29.863 150.486 333.396  1.00  0.00     0.007 A 
ENDBRANCH  11  12
ENDBRANCH   3  11
TORSDOF 4
ENDMDL
MODEL 5
REMARK VINA RESULT: -4.275279265      1.040      1.347
REMARK  4 active torsions:
REMARK  status: ('A' for Active; 'I' for Inactive)
REMARK    1  A    between atoms: C1_2  and  C2_3 
REMARK       I    between atoms: C1_2  and  N1_10 
REMARK    2  A    between atoms: C2_3  and  C3_4 
REMARK    3  A    between atoms: N1_10  and  C8_11 
REMARK    4  A    between atoms: C8_11  and  C9_12 
ROOT
HETATM    1  O1  UNL     1      34.032 150.642 336.440  1.00  0.00    -0.258 OA
HETATM    2  C1  UNL     1      33.415 151.737 336.264  1.00  0.00     0.286 C 
HETATM    3  N1  UNL     1      33.306 152.819 337.104  1.00  0.00    -0.415 NA
ENDROOT
BRANCH   2   4
HETATM    4  C2  UNL     1      32.683 151.902 334.922  1.00  0.00     0.123 C 
BRANCH   4   5
HETATM    5  C3  UNL     1      32.181 150.546 334.482  1.00  0.00    -0.002 C 
HETATM    6  C4  UNL     1      30.773 150.306 334.933  1.00  0.00     0.008 C 
HETATM    7  C5  UNL     1      29.903 150.322 333.708  1.00  0.00     0.037 C 
HETATM    8  C6  UNL     1      30.747 150.976 332.643  1.00  0.00     0.170 C 
HETATM    9  F1  UNL     1      30.489 152.339 332.721  1.00  0.00    -0.249 F 
HETATM   10  C7  UNL     1      32.146 150.585 332.950  1.00  0.00     0.042 C 
ENDBRANCH   4   5
ENDBRANCH   2   4
BRANCH   3  11
HETATM   11  C8  UNL     1      33.200 153.875 337.924  1.00  0.00     0.226 C 
BRANCH  11  12
HETATM   12  C9  UNL     1      31.846 154.584 337.789  1.00  0.00     0.016 A 
HETATM   13  C10 UNL     1      31.738 156.004 338.207  1.00  0.00     0.007 A 
HETATM   14  C11 UNL     1      31.854 155.705 336.769  1.00  0.00     0.007 A 
ENDBRANCH  11  12
ENDBRANCH   3  11
TORSDOF 4
ENDMDL
