MODEL 1
REMARK VINA RESULT: -4.393372894      0.000      0.000
REMARK  4 active torsions:
REMARK  status: ('A' for Active; 'I' for Inactive)
REMARK    1  A    between atoms: C1_2  and  C2_4 
REMARK    2  A    between atoms: C2_4  and  C3_5 
REMARK    3  A    between atoms: C2_4  and  C7_9 
REMARK    4  A    between atoms: C3_5  and  C4_6 
ROOT
HETATM    1  C7  UNL     1      33.699 152.993 336.142  1.00  0.00     0.057 C 
HETATM    2  C8  UNL     1      34.328 153.004 337.555  1.00  0.00     0.044 C 
HETATM    3  C9  UNL     1      35.098 151.713 337.448  1.00  0.00     0.189 C 
HETATM    4  C10 UNL     1      34.144 150.715 336.851  1.00  0.00     0.066 C 
HETATM    5  C11 UNL     1      34.232 151.680 335.686  1.00  0.00     0.197 C 
HETATM    6  N1  UNL     1      35.647 151.818 336.084  1.00  0.00    -0.066 N 
ATOM      7  H11 UNL     1      36.384 151.205 335.735  1.00  0.00     0.278 HD
ATOM      8  H12 UNL     1      36.236 152.594 335.781  1.00  0.00     0.278 HD
ENDROOT
BRANCH   1   9
HETATM    9  C2  UNL     1      32.189 153.057 336.260  1.00  0.00     0.025 C 
BRANCH   9  10
HETATM   10  C1  UNL     1      31.776 154.292 336.935  1.00  0.00     0.328 C 
HETATM   11  O1  UNL     1      31.793 155.360 336.355  1.00  0.00    -0.255 OA
HETATM   12  F1  UNL     1      31.362 154.302 338.226  1.00  0.00    -0.159 F 
ENDBRANCH   9  10
BRANCH   9  13
HETATM   13  C3  UNL     1      31.448 152.624 335.081  1.00  0.00    -0.008 C 
BRANCH  13  14
HETATM   14  C4  UNL     1      30.539 151.489 335.053  1.00  0.00     0.009 A 
HETATM   15  C5  UNL     1      30.944 150.063 335.068  1.00  0.00     0.009 A 
HETATM   16  C6  UNL     1      30.152 150.671 333.886  1.00  0.00     0.009 A 
ENDBRANCH  13  14
ENDBRANCH   9  13
ENDBRANCH   1   9
TORSDOF 4
ENDMDL
MODEL 2
REMARK VINA RESULT: -4.234747662      2.691      4.420
REMARK  4 active torsions:
REMARK  status: ('A' for Active; 'I' for Inactive)
REMARK    1  A    between atoms: C1_2  and  C2_4 
REMARK    2  A    between atoms: C2_4  and  C3_5 
REMARK    3  A    between atoms: C2_4  and  C7_9 
REMARK    4  A    between atoms: C3_5  and  C4_6 
ROOT
HETATM    1  C7  UNL     1      32.839 150.976 335.051  1.00  0.00     0.057 C 
HETATM    2  C8  UNL     1      31.942 149.836 335.589  1.00  0.00     0.044 C 
HETATM    3  C9  UNL     1      30.666 150.233 334.892  1.00  0.00     0.189 C 
HETATM    4  C10 UNL     1      30.528 151.716 335.101  1.00  0.00     0.066 C 
HETATM    5  C11 UNL     1      31.801 151.712 334.279  1.00  0.00     0.197 C 
HETATM    6  N1  UNL     1      31.168 150.592 333.554  1.00  0.00    -0.066 N 
ATOM      7  H11 UNL     1      30.556 150.728 332.750  1.00  0.00     0.278 HD
ATOM      8  H12 UNL     1      31.693 149.945 332.966  1.00  0.00     0.278 HD
ENDROOT
BRANCH   1   9
HETATM    9  C2  UNL     1      33.429 151.748 336.215  1.00  0.00     0.025 C 
BRANCH   9  10
HETATM   10  C1  UNL     1      34.617 151.064 336.738  1.00  0.00     0.328 C 
HETATM   11  O1  UNL     1      35.327 150.397 336.013  1.00  0.00    -0.255 OA
HETATM   12  F1  UNL     1      34.974 151.141 338.043  1.00  0.00    -0.159 F 
ENDBRANCH   9  10
BRANCH   9  13
HETATM   13  C3  UNL     1      33.471 153.197 336.051  1.00  0.00    -0.008 C 
BRANCH  13  14
HETATM   14  C4  UNL     1      33.093 154.151 337.081  1.00  0.00     0.009 A 
HETATM   15  C5  UNL     1      33.028 153.865 338.535  1.00  0.00     0.009 A 
HETATM   16  C6  UNL     1      31.777 154.300 337.734  1.00  0.00     0.009 A 
ENDBRANCH  13  14
ENDBRANCH   9  13
ENDBRANCH   1   9
TORSDOF 4
ENDMDL
MODEL 3
REMARK VINA RESULT: -4.152290283      3.038      4.560
REMARK  4 active torsions:
REMARK  status: ('A' for Active; 'I' for Inactive)
REMARK    1  A    between atoms: C1_2  and  C2_4 
REMARK    2  A    between atoms: C2_4  and  C3_5 
REMARK    3  A    between atoms: C2_4  and  C7_9 
REMARK    4  A    between atoms: C3_5  and  C4_6 
ROOT
HETATM    1  C7  UNL     1      34.551 153.461 338.902  1.00  0.00     0.057 C 
HETATM    2  C8  UNL     1      35.983 153.446 338.316  1.00  0.00     0.044 C 
HETATM    3  C9  UNL     1      36.568 154.538 339.174  1.00  0.00     0.189 C 
HETATM    4  C10 UNL     1      35.559 155.654 339.162  1.00  0.00     0.066 C 
HETATM    5  C11 UNL     1      34.726 154.593 339.853  1.00  0.00     0.197 C 
HETATM    6  N1  UNL     1      35.999 154.204 340.493  1.00  0.00    -0.066 N 
ATOM      7  H11 UNL     1      36.333 154.621 341.362  1.00  0.00     0.278 HD
ATOM      8  H12 UNL     1      36.140 153.301 340.945  1.00  0.00     0.278 HD
ENDROOT
BRANCH   1   9
HETATM    9  C2  UNL     1      33.553 153.717 337.790  1.00  0.00     0.025 C 
BRANCH   9  10
HETATM   10  C1  UNL     1      33.612 152.649 336.786  1.00  0.00     0.328 C 
HETATM   11  O1  UNL     1      33.515 152.896 335.601  1.00  0.00    -0.255 OA
HETATM   12  F1  UNL     1      33.775 151.348 337.130  1.00  0.00    -0.159 F 
ENDBRANCH   9  10
BRANCH   9  13
HETATM   13  C3  UNL     1      32.245 154.201 338.219  1.00  0.00    -0.008 C 
BRANCH  13  14
HETATM   14  C4  UNL     1      31.658 155.463 337.798  1.00  0.00     0.009 A 
HETATM   15  C5  UNL     1      32.379 156.557 337.104  1.00  0.00     0.009 A 
HETATM   16  C6  UNL     1      31.725 156.765 338.491  1.00  0.00     0.009 A 
ENDBRANCH  13  14
ENDBRANCH   9  13
ENDBRANCH   1   9
TORSDOF 4
ENDMDL
MODEL 4
REMARK VINA RESULT: -4.134366307      2.464      3.331
REMARK  4 active torsions:
REMARK  status: ('A' for Active; 'I' for Inactive)
REMARK    1  A    between atoms: C1_2  and  C2_4 
REMARK    2  A    between atoms: C2_4  and  C3_5 
REMARK    3  A    between atoms: C2_4  and  C7_9 
REMARK    4  A    between atoms: C3_5  and  C4_6 
ROOT
HETATM    1  C7  UNL     1      33.886 155.337 337.945  1.00  0.00     0.057 C 
HETATM    2  C8  UNL     1      34.424 156.144 339.150  1.00  0.00     0.044 C 
HETATM    3  C9  UNL     1      35.367 155.101 339.691  1.00  0.00     0.189 C 
HETATM    4  C10 UNL     1      34.594 153.810 339.694  1.00  0.00     0.066 C 
HETATM    5  C11 UNL     1      34.618 154.066 338.200  1.00  0.00     0.197 C 
HETATM    6  N1  UNL     1      35.976 154.590 338.450  1.00  0.00    -0.066 N 
ATOM      7  H11 UNL     1      36.808 154.001 338.442  1.00  0.00     0.278 HD
ATOM      8  H12 UNL     1      36.470 155.188 337.787  1.00  0.00     0.278 HD
ENDROOT
BRANCH   1   9
HETATM    9  C2  UNL     1      32.377 155.228 338.041  1.00  0.00     0.025 C 
BRANCH   9  10
HETATM   10  C1  UNL     1      31.766 156.561 338.084  1.00  0.00     0.328 C 
HETATM   11  O1  UNL     1      31.732 157.268 337.096  1.00  0.00    -0.255 OA
HETATM   12  F1  UNL     1      31.217 157.065 339.217  1.00  0.00    -0.159 F 
ENDBRANCH   9  10
BRANCH   9  13
HETATM   13  C3  UNL     1      31.765 154.206 337.200  1.00  0.00    -0.008 C 
BRANCH  13  14
HETATM   14  C4  UNL     1      32.074 154.007 335.793  1.00  0.00     0.009 A 
HETATM   15  C5  UNL     1      31.427 154.717 334.663  1.00  0.00     0.009 A 
HETATM   16  C6  UNL     1      31.338 153.179 334.816  1.00  0.00     0.009 A 
ENDBRANCH  13  14
ENDBRANCH   9  13
ENDBRANCH   1   9
TORSDOF 4
ENDMDL
MODEL 5
REMARK VINA RESULT: -4.046627663      3.074      5.283
REMARK  4 active torsions:
REMARK  status: ('A' for Active; 'I' for Inactive)
REMARK    1  A    between atoms: C1_2  and  C2_4 
REMARK    2  A    between atoms: C2_4  and  C3_5 
REMARK    3  A    between atoms: C2_4  and  C7_9 
REMARK    4  A    between atoms: C3_5  and  C4_6 
ROOT
HETATM    1  C7  UNL     1      33.059 155.758 337.230  1.00  0.00     0.057 C 
HETATM    2  C8  UNL     1      31.972 156.431 336.360  1.00  0.00     0.044 C 
HETATM    3  C9  UNL     1      31.687 157.607 337.260  1.00  0.00     0.189 C 
HETATM    4  C10 UNL     1      31.563 157.040 338.648  1.00  0.00     0.066 C 
HETATM    5  C11 UNL     1      33.016 156.697 338.384  1.00  0.00     0.197 C 
HETATM    6  N1  UNL     1      33.050 157.991 337.671  1.00  0.00    -0.066 N 
ATOM      7  H11 UNL     1      33.260 158.874 338.135  1.00  0.00     0.278 HD
ATOM      8  H12 UNL     1      33.782 158.238 337.005  1.00  0.00     0.278 HD
ENDROOT
BRANCH   1   9
HETATM    9  C2  UNL     1      32.639 154.338 337.554  1.00  0.00     0.025 C 
BRANCH   9  10
HETATM   10  C1  UNL     1      32.398 153.577 336.323  1.00  0.00     0.328 C 
HETATM   11  O1  UNL     1      33.312 153.290 335.575  1.00  0.00    -0.255 OA
HETATM   12  F1  UNL     1      31.159 153.164 335.964  1.00  0.00    -0.159 F 
ENDBRANCH   9  10
BRANCH   9  13
HETATM   13  C3  UNL     1      33.375 153.698 338.639  1.00  0.00    -0.008 C 
BRANCH  13  14
HETATM   14  C4  UNL     1      34.824 153.587 338.696  1.00  0.00     0.009 A 
HETATM   15  C5  UNL     1      35.589 152.317 338.702  1.00  0.00     0.009 A 
HETATM   16  C6  UNL     1      35.662 153.317 339.882  1.00  0.00     0.009 A 
ENDBRANCH  13  14
ENDBRANCH   9  13
ENDBRANCH   1   9
TORSDOF 4
ENDMDL
