MODEL 1
REMARK VINA RESULT: -7.581608066      0.000      0.000
REMARK  6 active torsions:
REMARK  status: ('A' for Active; 'I' for Inactive)
REMARK    1  A    between atoms: C3_3  and  C4_4 
REMARK    2  A    between atoms: C4_4  and  O1_5 
REMARK    3  A    between atoms: C4_4  and  N1_7 
REMARK    4  A    between atoms: N1_7  and  N2_9 
REMARK    5  A    between atoms: N4_14  and  N5_15 
REMARK    6  A    between atoms: C7_20  and  C8_21 
ROOT
HETATM    1  C1  UNL     1      22.936   3.974  -4.558  1.00  0.00     0.050 C 
HETATM    2  C2  UNL     1      22.479   5.266  -3.958  1.00  0.00    -0.023 A 
HETATM    3  C3  UNL     1      22.129   5.246  -2.629  1.00  0.00     0.066 A 
HETATM    4  C5  UNL     1      21.861   6.513  -2.082  1.00  0.00     0.156 A 
HETATM    5  N3  UNL     1      21.490   6.595  -0.694  1.00  0.00    -0.080 NA
HETATM    6  N4  UNL     1      21.933   7.650  -2.791  1.00  0.00    -0.211 N 
HETATM    7  C6  UNL     1      22.265   7.652  -4.076  1.00  0.00     0.283 A 
HETATM    8  O2  UNL     1      22.339   8.714  -4.770  1.00  0.00    -0.265 OA
HETATM    9  C7  UNL     1      22.551   6.428  -4.700  1.00  0.00     0.106 A 
ENDROOT
BRANCH   3  10
HETATM   10  C4  UNL     1      21.998   4.092  -1.812  1.00  0.00     0.168 C 
BRANCH  10  11
HETATM   11  O1  UNL     1      20.744   3.818  -1.479  1.00  0.00    -0.344 OA
ATOM     12  H1  UNL     1      20.318   3.212  -2.073  1.00  0.00     0.219 HD
ENDBRANCH  10  11
BRANCH  10  13
HETATM   13  N1  UNL     1      22.875   3.170  -1.278  1.00  0.00    -0.286 N 
ATOM     14  H1  UNL     1      23.730   3.464  -0.806  1.00  0.00     0.188 HD
BRANCH  13  15
HETATM   15  N2  UNL     1      22.536   1.779  -1.413  1.00  0.00    -0.343 N 
ATOM     16  H22 UNL     1      22.383   1.373  -2.337  1.00  0.00     0.176 HD
ATOM     17  H21 UNL     1      22.460   1.229  -0.558  1.00  0.00     0.176 HD
ENDBRANCH  13  15
ENDBRANCH  10  13
ENDBRANCH   3  10
BRANCH   9  18
HETATM   18  C8  UNL     1      22.810   6.455  -6.129  1.00  0.00     0.271 C 
HETATM   19  N6  UNL     1      21.704   6.281  -7.058  1.00  0.00    -0.057 NA
HETATM   20  O3  UNL     1      23.916   6.619  -6.642  1.00  0.00    -0.271 OA
ENDBRANCH   9  18
BRANCH   6  21
HETATM   21  N5  UNL     1      21.649   8.877  -2.162  1.00  0.00    -0.334 N 
ATOM     22  H52 UNL     1      21.682   8.926  -1.144  1.00  0.00     0.177 HD
ATOM     23  H51 UNL     1      21.416   9.691  -2.731  1.00  0.00     0.177 HD
ENDBRANCH   6  21
TORSDOF 6
ENDMDL
MODEL 2
REMARK VINA RESULT: -7.188025519      1.822      3.272
REMARK  6 active torsions:
REMARK  status: ('A' for Active; 'I' for Inactive)
REMARK    1  A    between atoms: C3_3  and  C4_4 
REMARK    2  A    between atoms: C4_4  and  O1_5 
REMARK    3  A    between atoms: C4_4  and  N1_7 
REMARK    4  A    between atoms: N1_7  and  N2_9 
REMARK    5  A    between atoms: N4_14  and  N5_15 
REMARK    6  A    between atoms: C7_20  and  C8_21 
ROOT
HETATM    1  C1  UNL     1      21.881   7.002  -2.928  1.00  0.00     0.050 C 
HETATM    2  C2  UNL     1      22.529   6.088  -3.918  1.00  0.00    -0.023 A 
HETATM    3  C3  UNL     1      22.556   4.750  -3.607  1.00  0.00     0.066 A 
HETATM    4  C5  UNL     1      23.033   3.925  -4.641  1.00  0.00     0.156 A 
HETATM    5  N3  UNL     1      23.095   2.506  -4.410  1.00  0.00    -0.080 NA
HETATM    6  N4  UNL     1      23.436   4.396  -5.831  1.00  0.00    -0.211 N 
HETATM    7  C6  UNL     1      23.410   5.693  -6.114  1.00  0.00     0.283 A 
HETATM    8  O2  UNL     1      23.787   6.164  -7.232  1.00  0.00    -0.265 OA
HETATM    9  C7  UNL     1      22.946   6.586  -5.137  1.00  0.00     0.106 A 
ENDROOT
BRANCH   3  10
HETATM   10  C4  UNL     1      22.180   4.168  -2.367  1.00  0.00     0.168 C 
BRANCH  10  11
HETATM   11  O1  UNL     1      20.895   4.321  -2.078  1.00  0.00    -0.344 OA
ATOM     12  H1  UNL     1      20.454   3.507  -1.868  1.00  0.00     0.219 HD
ENDBRANCH  10  11
BRANCH  10  13
HETATM   13  N1  UNL     1      22.840   3.465  -1.380  1.00  0.00    -0.286 N 
ATOM     14  H1  UNL     1      23.418   3.941  -0.688  1.00  0.00     0.188 HD
BRANCH  13  15
HETATM   15  N2  UNL     1      22.681   2.036  -1.366  1.00  0.00    -0.343 N 
ATOM     16  H22 UNL     1      22.039   1.582  -2.017  1.00  0.00     0.176 HD
ATOM     17  H21 UNL     1      23.230   1.509  -0.687  1.00  0.00     0.176 HD
ENDBRANCH  13  15
ENDBRANCH  10  13
ENDBRANCH   3  10
BRANCH   9  18
HETATM   18  C8  UNL     1      23.028   8.004  -5.441  1.00  0.00     0.271 C 
HETATM   19  N6  UNL     1      21.896   8.667  -6.070  1.00  0.00    -0.057 NA
HETATM   20  O3  UNL     1      24.001   8.720  -5.207  1.00  0.00    -0.271 OA
ENDBRANCH   9  18
BRANCH   6  21
HETATM   21  N5  UNL     1      23.899   3.496  -6.810  1.00  0.00    -0.334 N 
ATOM     22  H52 UNL     1      24.305   2.610  -6.510  1.00  0.00     0.177 HD
ATOM     23  H51 UNL     1      23.820   3.745  -7.796  1.00  0.00     0.177 HD
ENDBRANCH   6  21
TORSDOF 6
ENDMDL
MODEL 3
REMARK VINA RESULT: -6.895336351      1.475      3.623
REMARK  6 active torsions:
REMARK  status: ('A' for Active; 'I' for Inactive)
REMARK    1  A    between atoms: C3_3  and  C4_4 
REMARK    2  A    between atoms: C4_4  and  O1_5 
REMARK    3  A    between atoms: C4_4  and  N1_7 
REMARK    4  A    between atoms: N1_7  and  N2_9 
REMARK    5  A    between atoms: N4_14  and  N5_15 
REMARK    6  A    between atoms: C7_20  and  C8_21 
ROOT
HETATM    1  C1  UNL     1      21.677   7.277  -4.378  1.00  0.00     0.050 C 
HETATM    2  C2  UNL     1      22.256   5.923  -4.121  1.00  0.00    -0.023 A 
HETATM    3  C3  UNL     1      22.203   5.457  -2.829  1.00  0.00     0.066 A 
HETATM    4  C5  UNL     1      22.616   4.121  -2.678  1.00  0.00     0.156 A 
HETATM    5  N3  UNL     1      22.591   3.542  -1.361  1.00  0.00    -0.080 NA
HETATM    6  N4  UNL     1      23.034   3.360  -3.702  1.00  0.00    -0.211 N 
HETATM    7  C6  UNL     1      23.086   3.828  -4.944  1.00  0.00     0.283 A 
HETATM    8  O2  UNL     1      23.479   3.129  -5.930  1.00  0.00    -0.265 OA
HETATM    9  C7  UNL     1      22.689   5.152  -5.182  1.00  0.00     0.106 A 
ENDROOT
BRANCH   3  10
HETATM   10  C4  UNL     1      21.805   6.197  -1.685  1.00  0.00     0.168 C 
BRANCH  10  11
HETATM   11  O1  UNL     1      20.946   5.551  -0.908  1.00  0.00    -0.344 OA
ATOM     12  H1  UNL     1      21.317   4.787  -0.484  1.00  0.00     0.219 HD
ENDBRANCH  10  11
BRANCH  10  13
HETATM   13  N1  UNL     1      22.109   7.442  -1.174  1.00  0.00    -0.286 N 
ATOM     14  H1  UNL     1      22.767   8.062  -1.648  1.00  0.00     0.188 HD
BRANCH  13  15
HETATM   15  N2  UNL     1      21.464   7.832   0.050  1.00  0.00    -0.343 N 
ATOM     16  H22 UNL     1      20.956   7.144   0.606  1.00  0.00     0.176 HD
ATOM     17  H21 UNL     1      21.538   8.811   0.329  1.00  0.00     0.176 HD
ENDBRANCH  13  15
ENDBRANCH  10  13
ENDBRANCH   3  10
BRANCH   9  18
HETATM   18  C8  UNL     1      22.857   5.663  -6.532  1.00  0.00     0.271 C 
HETATM   19  N6  UNL     1      21.753   5.565  -7.474  1.00  0.00    -0.057 NA
HETATM   20  O3  UNL     1      23.881   6.189  -6.964  1.00  0.00    -0.271 OA
ENDBRANCH   9  18
BRANCH   6  21
HETATM   21  N5  UNL     1      23.429   2.031  -3.460  1.00  0.00    -0.334 N 
ATOM     22  H52 UNL     1      24.205   1.857  -2.822  1.00  0.00     0.177 HD
ATOM     23  H51 UNL     1      22.935   1.268  -3.924  1.00  0.00     0.177 HD
ENDBRANCH   6  21
TORSDOF 6
ENDMDL
MODEL 4
REMARK VINA RESULT: -6.850720095      2.367      3.116
REMARK  6 active torsions:
REMARK  status: ('A' for Active; 'I' for Inactive)
REMARK    1  A    between atoms: C3_3  and  C4_4 
REMARK    2  A    between atoms: C4_4  and  O1_5 
REMARK    3  A    between atoms: C4_4  and  N1_7 
REMARK    4  A    between atoms: N1_7  and  N2_9 
REMARK    5  A    between atoms: N4_14  and  N5_15 
REMARK    6  A    between atoms: C7_20  and  C8_21 
ROOT
HETATM    1  C1  UNL     1      24.141   3.664  -6.647  1.00  0.00     0.050 C 
HETATM    2  C2  UNL     1      23.413   4.027  -5.391  1.00  0.00    -0.023 A 
HETATM    3  C3  UNL     1      23.374   3.079  -4.398  1.00  0.00     0.066 A 
HETATM    4  C5  UNL     1      22.817   3.531  -3.188  1.00  0.00     0.156 A 
HETATM    5  N3  UNL     1      22.736   2.610  -2.086  1.00  0.00    -0.080 NA
HETATM    6  N4  UNL     1      22.356   4.779  -3.012  1.00  0.00    -0.211 N 
HETATM    7  C6  UNL     1      22.395   5.682  -3.984  1.00  0.00     0.283 A 
HETATM    8  O2  UNL     1      21.963   6.869  -3.844  1.00  0.00    -0.265 OA
HETATM    9  C7  UNL     1      22.937   5.312  -5.225  1.00  0.00     0.106 A 
ENDROOT
BRANCH   3  10
HETATM   10  C4  UNL     1      23.808   1.731  -4.504  1.00  0.00     0.168 C 
BRANCH  10  11
HETATM   11  O1  UNL     1      22.866   0.903  -4.932  1.00  0.00    -0.344 OA
ATOM     12  H1  UNL     1      23.168   0.294  -5.595  1.00  0.00     0.219 HD
ENDBRANCH  10  11
BRANCH  10  13
HETATM   13  N1  UNL     1      24.996   1.068  -4.273  1.00  0.00    -0.286 N 
ATOM     14  H1  UNL     1      25.720   1.470  -3.677  1.00  0.00     0.188 HD
BRANCH  13  15
HETATM   15  N2  UNL     1      25.175  -0.211  -4.905  1.00  0.00    -0.343 N 
ATOM     16  H22 UNL     1      24.689  -0.428  -5.775  1.00  0.00     0.176 HD
ATOM     17  H21 UNL     1      25.799  -0.877  -4.449  1.00  0.00     0.176 HD
ENDBRANCH  13  15
ENDBRANCH  10  13
ENDBRANCH   3  10
BRANCH   9  18
HETATM   18  C8  UNL     1      22.870   6.291  -6.297  1.00  0.00     0.271 C 
HETATM   19  N6  UNL     1      21.674   6.366  -7.121  1.00  0.00    -0.057 NA
HETATM   20  O3  UNL     1      23.762   7.090  -6.578  1.00  0.00    -0.271 OA
ENDBRANCH   9  18
BRANCH   6  21
HETATM   21  N5  UNL     1      21.815   5.147  -1.766  1.00  0.00    -0.334 N 
ATOM     22  H52 UNL     1      22.387   5.696  -1.124  1.00  0.00     0.177 HD
ATOM     23  H51 UNL     1      20.865   4.859  -1.526  1.00  0.00     0.177 HD
ENDBRANCH   6  21
TORSDOF 6
ENDMDL
MODEL 5
REMARK VINA RESULT: -6.780202923      2.090      3.484
REMARK  6 active torsions:
REMARK  status: ('A' for Active; 'I' for Inactive)
REMARK    1  A    between atoms: C3_3  and  C4_4 
REMARK    2  A    between atoms: C4_4  and  O1_5 
REMARK    3  A    between atoms: C4_4  and  N1_7 
REMARK    4  A    between atoms: N1_7  and  N2_9 
REMARK    5  A    between atoms: N4_14  and  N5_15 
REMARK    6  A    between atoms: C7_20  and  C8_21 
ROOT
HETATM    1  C1  UNL     1      21.559   8.170  -3.782  1.00  0.00     0.050 C 
HETATM    2  C2  UNL     1      22.315   7.070  -4.456  1.00  0.00    -0.023 A 
HETATM    3  C3  UNL     1      22.300   5.839  -3.845  1.00  0.00     0.066 A 
HETATM    4  C5  UNL     1      22.892   4.811  -4.600  1.00  0.00     0.156 A 
HETATM    5  N3  UNL     1      22.921   3.484  -4.045  1.00  0.00    -0.080 NA
HETATM    6  N4  UNL     1      23.431   5.007  -5.813  1.00  0.00    -0.211 N 
HETATM    7  C6  UNL     1      23.443   6.204  -6.388  1.00  0.00     0.283 A 
HETATM    8  O2  UNL     1      23.948   6.416  -7.534  1.00  0.00    -0.265 OA
HETATM    9  C7  UNL     1      22.871   7.285  -5.701  1.00  0.00     0.106 A 
ENDROOT
BRANCH   3  10
HETATM   10  C4  UNL     1      21.782   5.547  -2.556  1.00  0.00     0.168 C 
BRANCH  10  11
HETATM   11  O1  UNL     1      22.346   6.252  -1.585  1.00  0.00    -0.344 OA
ATOM     12  H1  UNL     1      21.749   6.854  -1.157  1.00  0.00     0.219 HD
ENDBRANCH  10  11
BRANCH  10  13
HETATM   13  N1  UNL     1      20.812   4.697  -2.064  1.00  0.00    -0.286 N 
ATOM     14  H1  UNL     1      19.820   4.885  -2.209  1.00  0.00     0.188 HD
BRANCH  13  15
HETATM   15  N2  UNL     1      21.254   3.536  -1.339  1.00  0.00    -0.343 N 
ATOM     16  H22 UNL     1      21.708   3.638  -0.432  1.00  0.00     0.176 HD
ATOM     17  H21 UNL     1      21.093   2.625  -1.769  1.00  0.00     0.176 HD
ENDBRANCH  13  15
ENDBRANCH  10  13
ENDBRANCH   3  10
BRANCH   9  18
HETATM   18  C8  UNL     1      22.994   8.598  -6.311  1.00  0.00     0.271 C 
HETATM   19  N6  UNL     1      24.165   9.412  -6.026  1.00  0.00    -0.057 NA
HETATM   20  O3  UNL     1      22.169   9.100  -7.074  1.00  0.00    -0.271 OA
ENDBRANCH   9  18
BRANCH   6  21
HETATM   21  N5  UNL     1      24.001   3.919  -6.501  1.00  0.00    -0.334 N 
ATOM     22  H52 UNL     1      24.070   3.019  -6.026  1.00  0.00     0.177 HD
ATOM     23  H51 UNL     1      24.334   4.047  -7.457  1.00  0.00     0.177 HD
ENDBRANCH   6  21
TORSDOF 6
ENDMDL
