MODEL 1
REMARK VINA RESULT: -6.988243394      0.000      0.000
REMARK  3 active torsions:
REMARK  status: ('A' for Active; 'I' for Inactive)
REMARK    1  A    between atoms: N1_3  and  C3_5 
REMARK    2  A    between atoms: C5_10  and  C6_11 
REMARK       I    between atoms: C6_11  and  N4_13 
REMARK    3  A    between atoms: N4_13  and  N5_15 
REMARK       I    between atoms: N5_15  and  C7_17 
ROOT
HETATM    1  C3  UNL     1      22.519   5.900  -3.668  1.00  0.00     0.142 A 
HETATM    2  C4  UNL     1      22.589   7.273  -3.839  1.00  0.00     0.150 A 
HETATM    3  N2  UNL     1      22.220   8.069  -2.724  1.00  0.00    -0.080 NA
HETATM    4  N3  UNL     1      22.988   7.814  -5.012  1.00  0.00    -0.324 N 
ATOM      5  H3  UNL     1      23.030   8.828  -5.109  1.00  0.00     0.169 HD
HETATM    6  C5  UNL     1      23.332   7.034  -6.051  1.00  0.00     0.180 A 
HETATM    7  N7  UNL     1      23.271   5.700  -5.901  1.00  0.00    -0.303 N 
ATOM      8  H7  UNL     1      23.530   5.103  -6.687  1.00  0.00     0.171 HD
HETATM    9  C8  UNL     1      22.876   5.124  -4.745  1.00  0.00     0.277 A 
HETATM   10  O3  UNL     1      22.834   3.871  -4.653  1.00  0.00    -0.266 OA
ENDROOT
BRANCH   6  11
HETATM   11  C6  UNL     1      23.763   7.645  -7.310  1.00  0.00     0.304 C 
HETATM   12  O1  UNL     1      24.543   7.057  -8.104  1.00  0.00    -0.263 OA
HETATM   13  N4  UNL     1      23.291   8.937  -7.658  1.00  0.00    -0.260 N 
ATOM     14  H4  UNL     1      22.657   9.423  -7.023  1.00  0.00     0.190 HD
BRANCH  13  15
HETATM   15  N5  UNL     1      23.673   9.559  -8.845  1.00  0.00    -0.251 N 
HETATM   16  C7  UNL     1      24.837  10.332  -8.980  1.00  0.00     0.347 C 
HETATM   17  N6  UNL     1      25.176  10.942 -10.216  1.00  0.00    -0.038 NA
HETATM   18  O2  UNL     1      25.616  10.502  -7.994  1.00  0.00    -0.249 OA
ATOM     19  H5  UNL     1      23.073   9.446  -9.662  1.00  0.00     0.191 HD
ENDBRANCH  13  15
ENDBRANCH   6  11
BRANCH   1  20
HETATM   20  N1  UNL     1      22.103   5.327  -2.449  1.00  0.00    -0.363 N 
HETATM   21  C2  UNL     1      20.909   4.988  -2.164  1.00  0.00     0.057 C 
HETATM   22  C1  UNL     1      20.675   4.392  -0.804  1.00  0.00     0.054 C 
ATOM     23  H1  UNL     1      22.816   5.172  -1.737  1.00  0.00     0.165 HD
ENDBRANCH   1  20
TORSDOF 3
ENDMDL
MODEL 2
REMARK VINA RESULT: -6.934684568      1.220      1.904
REMARK  3 active torsions:
REMARK  status: ('A' for Active; 'I' for Inactive)
REMARK    1  A    between atoms: N1_3  and  C3_5 
REMARK    2  A    between atoms: C5_10  and  C6_11 
REMARK       I    between atoms: C6_11  and  N4_13 
REMARK    3  A    between atoms: N4_13  and  N5_15 
REMARK       I    between atoms: N5_15  and  C7_17 
ROOT
HETATM    1  C3  UNL     1      22.567   5.921  -3.706  1.00  0.00     0.142 A 
HETATM    2  C4  UNL     1      22.976   5.158  -4.788  1.00  0.00     0.150 A 
HETATM    3  N2  UNL     1      22.949   3.750  -4.615  1.00  0.00    -0.080 NA
HETATM    4  N3  UNL     1      23.376   5.736  -5.942  1.00  0.00    -0.324 N 
ATOM      5  H3  UNL     1      23.672   5.150  -6.722  1.00  0.00     0.169 HD
HETATM    6  C5  UNL     1      23.390   7.074  -6.076  1.00  0.00     0.180 A 
HETATM    7  N7  UNL     1      22.997   7.828  -5.037  1.00  0.00    -0.303 N 
ATOM      8  H7  UNL     1      23.005   8.843  -5.133  1.00  0.00     0.171 HD
HETATM    9  C8  UNL     1      22.590   7.286  -3.868  1.00  0.00     0.277 A 
HETATM   10  O3  UNL     1      22.231   8.033  -2.923  1.00  0.00    -0.266 OA
ENDROOT
BRANCH   6  11
HETATM   11  C6  UNL     1      23.828   7.676  -7.337  1.00  0.00     0.304 C 
HETATM   12  O1  UNL     1      24.641   7.099  -8.105  1.00  0.00    -0.263 OA
HETATM   13  N4  UNL     1      23.325   8.948  -7.717  1.00  0.00    -0.260 N 
ATOM     14  H4  UNL     1      22.665   9.425  -7.103  1.00  0.00     0.190 HD
BRANCH  13  15
HETATM   15  N5  UNL     1      23.713   9.560  -8.906  1.00  0.00    -0.251 N 
HETATM   16  C7  UNL     1      24.866  10.350  -9.037  1.00  0.00     0.347 C 
HETATM   17  N6  UNL     1      25.212  10.949 -10.276  1.00  0.00    -0.038 NA
HETATM   18  O2  UNL     1      25.630  10.543  -8.043  1.00  0.00    -0.249 OA
ATOM     19  H5  UNL     1      23.125   9.428  -9.730  1.00  0.00     0.191 HD
ENDBRANCH  13  15
ENDBRANCH   6  11
BRANCH   1  20
HETATM   20  N1  UNL     1      22.148   5.326  -2.498  1.00  0.00    -0.363 N 
HETATM   21  C2  UNL     1      20.940   5.091  -2.174  1.00  0.00     0.057 C 
HETATM   22  C1  UNL     1      20.706   4.447  -0.835  1.00  0.00     0.054 C 
ATOM     23  H1  UNL     1      22.872   5.063  -1.830  1.00  0.00     0.165 HD
ENDBRANCH   1  20
TORSDOF 3
ENDMDL
MODEL 3
REMARK VINA RESULT: -6.753878856      1.862      2.454
REMARK  3 active torsions:
REMARK  status: ('A' for Active; 'I' for Inactive)
REMARK    1  A    between atoms: N1_3  and  C3_5 
REMARK    2  A    between atoms: C5_10  and  C6_11 
REMARK       I    between atoms: C6_11  and  N4_13 
REMARK    3  A    between atoms: N4_13  and  N5_15 
REMARK       I    between atoms: N5_15  and  C7_17 
ROOT
HETATM    1  C3  UNL     1      22.402   5.416  -3.896  1.00  0.00     0.142 A 
HETATM    2  C4  UNL     1      22.956   5.278  -5.159  1.00  0.00     0.150 A 
HETATM    3  N2  UNL     1      23.137   3.951  -5.627  1.00  0.00    -0.080 NA
HETATM    4  N3  UNL     1      23.300   6.357  -5.896  1.00  0.00    -0.324 N 
ATOM      5  H3  UNL     1      23.706   6.224  -6.822  1.00  0.00     0.169 HD
HETATM    6  C5  UNL     1      23.116   7.602  -5.425  1.00  0.00     0.180 A 
HETATM    7  N7  UNL     1      22.580   7.754  -4.203  1.00  0.00    -0.303 N 
ATOM      8  H7  UNL     1      22.437   8.697  -3.841  1.00  0.00     0.171 HD
HETATM    9  C8  UNL     1      22.223   6.700  -3.438  1.00  0.00     0.277 A 
HETATM   10  O3  UNL     1      21.725   6.893  -2.300  1.00  0.00    -0.266 OA
ENDROOT
BRANCH   6  11
HETATM   11  C6  UNL     1      23.497   8.755  -6.244  1.00  0.00     0.304 C 
HETATM   12  O1  UNL     1      22.842   9.829  -6.230  1.00  0.00    -0.263 OA
HETATM   13  N4  UNL     1      24.639   8.671  -7.082  1.00  0.00    -0.260 N 
ATOM     14  H4  UNL     1      25.179   7.806  -7.101  1.00  0.00     0.190 HD
BRANCH  13  15
HETATM   15  N5  UNL     1      25.040   9.741  -7.879  1.00  0.00    -0.251 N 
HETATM   16  C7  UNL     1      24.657   9.901  -9.220  1.00  0.00     0.347 C 
HETATM   17  N6  UNL     1      25.098  11.013  -9.983  1.00  0.00    -0.038 NA
HETATM   18  O2  UNL     1      23.904   9.049  -9.780  1.00  0.00    -0.249 OA
ATOM     19  H5  UNL     1      25.647  10.449  -7.464  1.00  0.00     0.191 HD
ENDBRANCH  13  15
ENDBRANCH   6  11
BRANCH   1  20
HETATM   20  N1  UNL     1      22.040   4.296  -3.121  1.00  0.00    -0.363 N 
HETATM   21  C2  UNL     1      22.830   3.630  -2.377  1.00  0.00     0.057 C 
HETATM   22  C1  UNL     1      22.242   2.465  -1.630  1.00  0.00     0.054 C 
ATOM     23  H1  UNL     1      21.067   3.995  -3.159  1.00  0.00     0.165 HD
ENDBRANCH   1  20
TORSDOF 3
ENDMDL
MODEL 4
REMARK VINA RESULT: -6.695631842      2.257      6.947
REMARK  3 active torsions:
REMARK  status: ('A' for Active; 'I' for Inactive)
REMARK    1  A    between atoms: N1_3  and  C3_5 
REMARK    2  A    between atoms: C5_10  and  C6_11 
REMARK       I    between atoms: C6_11  and  N4_13 
REMARK    3  A    between atoms: N4_13  and  N5_15 
REMARK       I    between atoms: N5_15  and  C7_17 
ROOT
HETATM    1  C3  UNL     1      22.917   8.662  -7.936  1.00  0.00     0.142 A 
HETATM    2  C4  UNL     1      22.961   9.058  -6.608  1.00  0.00     0.150 A 
HETATM    3  N2  UNL     1      23.631  10.278  -6.335  1.00  0.00    -0.080 NA
HETATM    4  N3  UNL     1      22.393   8.312  -5.635  1.00  0.00    -0.324 N 
ATOM      5  H3  UNL     1      22.441   8.628  -4.667  1.00  0.00     0.169 HD
HETATM    6  C5  UNL     1      21.764   7.160  -5.926  1.00  0.00     0.180 A 
HETATM    7  N7  UNL     1      21.712   6.762  -7.207  1.00  0.00    -0.303 N 
ATOM      8  H7  UNL     1      21.236   5.888  -7.434  1.00  0.00     0.171 HD
HETATM    9  C8  UNL     1      22.268   7.481  -8.207  1.00  0.00     0.277 A 
HETATM   10  O3  UNL     1      22.194   7.067  -9.391  1.00  0.00    -0.266 OA
ENDROOT
BRANCH   6  11
HETATM   11  C6  UNL     1      21.156   6.370  -4.853  1.00  0.00     0.304 C 
HETATM   12  O1  UNL     1      19.914   6.362  -4.653  1.00  0.00    -0.263 OA
HETATM   13  N4  UNL     1      21.982   5.586  -4.007  1.00  0.00    -0.260 N 
ATOM     14  H4  UNL     1      22.991   5.584  -4.159  1.00  0.00     0.190 HD
BRANCH  13  15
HETATM   15  N5  UNL     1      21.449   4.819  -2.973  1.00  0.00    -0.251 N 
HETATM   16  C7  UNL     1      21.359   5.259  -1.643  1.00  0.00     0.347 C 
HETATM   17  N6  UNL     1      20.805   4.433  -0.630  1.00  0.00    -0.038 NA
HETATM   18  O2  UNL     1      21.772   6.413  -1.317  1.00  0.00    -0.249 OA
ATOM     19  H5  UNL     1      21.105   3.885  -3.195  1.00  0.00     0.191 HD
ENDBRANCH  13  15
ENDBRANCH   6  11
BRANCH   1  20
HETATM   20  N1  UNL     1      23.508   9.434  -8.957  1.00  0.00    -0.363 N 
HETATM   21  C2  UNL     1      24.647   9.213  -9.481  1.00  0.00     0.057 C 
HETATM   22  C1  UNL     1      25.096  10.158 -10.560  1.00  0.00     0.054 C 
ATOM     23  H1  UNL     1      22.979  10.233  -9.305  1.00  0.00     0.165 HD
ENDBRANCH   1  20
TORSDOF 3
ENDMDL
MODEL 5
REMARK VINA RESULT: -6.676714317      2.162      7.169
REMARK  3 active torsions:
REMARK  status: ('A' for Active; 'I' for Inactive)
REMARK    1  A    between atoms: N1_3  and  C3_5 
REMARK    2  A    between atoms: C5_10  and  C6_11 
REMARK       I    between atoms: C6_11  and  N4_13 
REMARK    3  A    between atoms: N4_13  and  N5_15 
REMARK       I    between atoms: N5_15  and  C7_17 
ROOT
HETATM    1  C3  UNL     1      22.898   8.718  -7.903  1.00  0.00     0.142 A 
HETATM    2  C4  UNL     1      22.253   7.517  -8.150  1.00  0.00     0.150 A 
HETATM    3  N2  UNL     1      22.209   7.090  -9.502  1.00  0.00    -0.080 NA
HETATM    4  N3  UNL     1      21.699   6.800  -7.148  1.00  0.00    -0.324 N 
ATOM      5  H3  UNL     1      21.230   5.920  -7.359  1.00  0.00     0.169 HD
HETATM    6  C5  UNL     1      21.756   7.231  -5.876  1.00  0.00     0.180 A 
HETATM    7  N7  UNL     1      22.378   8.393  -5.619  1.00  0.00    -0.303 N 
ATOM      8  H7  UNL     1      22.426   8.725  -4.656  1.00  0.00     0.171 HD
HETATM    9  C8  UNL     1      22.944   9.137  -6.595  1.00  0.00     0.277 A 
HETATM   10  O3  UNL     1      23.515  10.219  -6.305  1.00  0.00    -0.266 OA
ENDROOT
BRANCH   6  11
HETATM   11  C6  UNL     1      21.149   6.435  -4.808  1.00  0.00     0.304 C 
HETATM   12  O1  UNL     1      19.907   6.429  -4.604  1.00  0.00    -0.263 OA
HETATM   13  N4  UNL     1      21.975   5.641  -3.970  1.00  0.00    -0.260 N 
ATOM     14  H4  UNL     1      22.983   5.636  -4.126  1.00  0.00     0.190 HD
BRANCH  13  15
HETATM   15  N5  UNL     1      21.442   4.868  -2.941  1.00  0.00    -0.251 N 
HETATM   16  C7  UNL     1      21.335   5.307  -1.612  1.00  0.00     0.347 C 
HETATM   17  N6  UNL     1      20.782   4.474  -0.604  1.00  0.00    -0.038 NA
HETATM   18  O2  UNL     1      21.730   6.466  -1.282  1.00  0.00    -0.249 OA
ATOM     19  H5  UNL     1      21.112   3.929  -3.166  1.00  0.00     0.191 HD
ENDBRANCH  13  15
ENDBRANCH   6  11
BRANCH   1  20
HETATM   20  N1  UNL     1      23.478   9.473  -8.943  1.00  0.00    -0.363 N 
HETATM   21  C2  UNL     1      24.668   9.336  -9.377  1.00  0.00     0.057 C 
HETATM   22  C1  UNL     1      25.094  10.244 -10.496  1.00  0.00     0.054 C 
ATOM     23  H1  UNL     1      22.899  10.187  -9.383  1.00  0.00     0.165 HD
ENDBRANCH   1  20
TORSDOF 3
ENDMDL
