MODEL 1
REMARK VINA RESULT: -7.904748098      0.000      0.000
REMARK  2 active torsions:
REMARK  status: ('A' for Active; 'I' for Inactive)
REMARK       I    between atoms: N5_10  and  C4_12 
REMARK       I    between atoms: C4_12  and  N6_13 
REMARK       I    between atoms: C4_12  and  N7_17 
REMARK    1  A    between atoms: C5_21  and  C6_22 
REMARK    2  A    between atoms: C7_25  and  O2_26 
ROOT
HETATM    1  C1  UNL     1      22.310   3.378  -1.861  1.00  0.00     0.175 C 
HETATM    2  N1  UNL     1      22.192   4.782  -2.137  1.00  0.00    -0.274 N 
HETATM    3  N2  UNL     1      21.849   5.770  -1.315  1.00  0.00    -0.018 NA
HETATM    4  N3  UNL     1      21.852   6.935  -1.938  1.00  0.00    -0.267 N 
ATOM      5  H3  UNL     1      21.624   7.839  -1.524  1.00  0.00     0.186 HD
HETATM    6  C2  UNL     1      22.213   6.712  -3.232  1.00  0.00     0.151 A 
HETATM    7  N4  UNL     1      22.380   7.509  -4.300  1.00  0.00    -0.325 N 
ATOM      8  H4  UNL     1      22.217   8.511  -4.193  1.00  0.00     0.169 HD
HETATM    9  C3  UNL     1      22.744   7.050  -5.482  1.00  0.00     0.124 A 
HETATM   10  N5  UNL     1      22.917   7.759  -6.527  1.00  0.00    -0.326 N 
ATOM     11  H5  UNL     1      23.200   7.263  -7.372  1.00  0.00     0.164 HD
HETATM   12  C4  UNL     1      22.757   9.166  -6.641  1.00  0.00     0.481 C 
HETATM   13  N6  UNL     1      22.247   9.440  -7.994  1.00  0.00    -0.033 N 
ATOM     14  H61 UNL     1      22.133  10.449  -8.075  1.00  0.00     0.278 HD
ATOM     15  H62 UNL     1      21.395   8.923  -8.211  1.00  0.00     0.278 HD
ATOM     16  H63 UNL     1      22.833   9.043  -8.729  1.00  0.00     0.278 HD
HETATM   17  N7  UNL     1      24.102   9.762  -6.620  1.00  0.00    -0.033 N 
ATOM     18  H71 UNL     1      23.988  10.772  -6.702  1.00  0.00     0.278 HD
ATOM     19  H72 UNL     1      24.722   9.372  -7.330  1.00  0.00     0.278 HD
ATOM     20  H73 UNL     1      24.647   9.488  -5.804  1.00  0.00     0.278 HD
HETATM   21  C5  UNL     1      22.967   5.661  -5.621  1.00  0.00     0.108 A 
HETATM   22  C7  UNL     1      22.815   4.786  -4.571  1.00  0.00     0.116 A 
HETATM   23  C8  UNL     1      22.419   5.365  -3.330  1.00  0.00     0.128 A 
ENDROOT
BRANCH  21  24
HETATM   24  C6  UNL     1      23.367   5.178  -6.927  1.00  0.00     0.271 C 
HETATM   25  N8  UNL     1      22.590   5.316  -8.072  1.00  0.00    -0.057 NA
HETATM   26  O1  UNL     1      24.496   4.588  -7.055  1.00  0.00    -0.271 OA
ENDBRANCH  21  24
BRANCH  22  27
HETATM   27  O2  UNL     1      22.997   3.442  -4.576  1.00  0.00    -0.357 OA
ATOM     28  H2  UNL     1      23.109   2.867  -3.828  1.00  0.00     0.217 HD
ENDBRANCH  22  27
TORSDOF 2
ENDMDL
MODEL 2
REMARK VINA RESULT: -7.854003688      2.181      3.466
REMARK  2 active torsions:
REMARK  status: ('A' for Active; 'I' for Inactive)
REMARK       I    between atoms: N5_10  and  C4_12 
REMARK       I    between atoms: C4_12  and  N6_13 
REMARK       I    between atoms: C4_12  and  N7_17 
REMARK    1  A    between atoms: C5_21  and  C6_22 
REMARK    2  A    between atoms: C7_25  and  O2_26 
ROOT
HETATM    1  C1  UNL     1      21.390   6.805  -0.859  1.00  0.00     0.175 C 
HETATM    2  N1  UNL     1      21.825   5.817  -1.805  1.00  0.00    -0.274 N 
HETATM    3  N2  UNL     1      21.890   4.496  -1.664  1.00  0.00    -0.018 NA
HETATM    4  N3  UNL     1      22.344   3.918  -2.761  1.00  0.00    -0.267 N 
ATOM      5  H3  UNL     1      22.484   2.917  -2.901  1.00  0.00     0.186 HD
HETATM    6  C2  UNL     1      22.593   4.899  -3.673  1.00  0.00     0.151 A 
HETATM    7  N4  UNL     1      23.056   4.898  -4.934  1.00  0.00    -0.325 N 
ATOM      8  H4  UNL     1      23.294   4.006  -5.367  1.00  0.00     0.169 HD
HETATM    9  C3  UNL     1      23.215   6.004  -5.635  1.00  0.00     0.124 A 
HETATM   10  N5  UNL     1      23.649   6.063  -6.832  1.00  0.00    -0.326 N 
ATOM     11  H5  UNL     1      23.719   6.993  -7.247  1.00  0.00     0.164 HD
HETATM   12  C4  UNL     1      24.046   4.972  -7.651  1.00  0.00     0.481 C 
HETATM   13  N6  UNL     1      25.156   5.441  -8.495  1.00  0.00    -0.033 N 
ATOM     14  H61 UNL     1      25.441   4.658  -9.083  1.00  0.00     0.278 HD
ATOM     15  H62 UNL     1      25.927   5.837  -7.957  1.00  0.00     0.278 HD
ATOM     16  H63 UNL     1      24.925   6.279  -9.029  1.00  0.00     0.278 HD
HETATM   17  N7  UNL     1      22.946   4.708  -8.592  1.00  0.00    -0.033 N 
ATOM     18  H71 UNL     1      23.231   3.925  -9.180  1.00  0.00     0.278 HD
ATOM     19  H72 UNL     1      22.674   5.532  -9.129  1.00  0.00     0.278 HD
ATOM     20  H73 UNL     1      22.053   4.553  -8.127  1.00  0.00     0.278 HD
HETATM   21  C5  UNL     1      22.882   7.236  -5.026  1.00  0.00     0.108 A 
HETATM   22  C7  UNL     1      22.403   7.312  -3.740  1.00  0.00     0.116 A 
HETATM   23  C8  UNL     1      22.261   6.070  -3.054  1.00  0.00     0.128 A 
ENDROOT
BRANCH  21  24
HETATM   24  C6  UNL     1      23.064   8.439  -5.813  1.00  0.00     0.271 C 
HETATM   25  N8  UNL     1      24.211   9.225  -5.769  1.00  0.00    -0.057 NA
HETATM   26  O1  UNL     1      22.129   8.816  -6.602  1.00  0.00    -0.271 OA
ENDBRANCH  21  24
BRANCH  22  27
HETATM   27  O2  UNL     1      22.050   8.424  -3.048  1.00  0.00    -0.357 OA
ATOM     28  H2  UNL     1      22.321   8.676  -2.173  1.00  0.00     0.217 HD
ENDBRANCH  22  27
TORSDOF 2
ENDMDL
MODEL 3
REMARK VINA RESULT: -7.714500592      2.300      3.390
REMARK  2 active torsions:
REMARK  status: ('A' for Active; 'I' for Inactive)
REMARK       I    between atoms: N5_10  and  C4_12 
REMARK       I    between atoms: C4_12  and  N6_13 
REMARK       I    between atoms: C4_12  and  N7_17 
REMARK    1  A    between atoms: C5_21  and  C6_22 
REMARK    2  A    between atoms: C7_25  and  O2_26 
ROOT
HETATM    1  C1  UNL     1      22.632   2.443  -1.949  1.00  0.00     0.175 C 
HETATM    2  N1  UNL     1      22.951   2.773  -3.309  1.00  0.00    -0.274 N 
HETATM    3  N2  UNL     1      23.372   1.975  -4.287  1.00  0.00    -0.018 NA
HETATM    4  N3  UNL     1      23.561   2.647  -5.408  1.00  0.00    -0.267 N 
ATOM      5  H3  UNL     1      23.880   2.260  -6.296  1.00  0.00     0.186 HD
HETATM    6  C2  UNL     1      23.251   3.952  -5.165  1.00  0.00     0.151 A 
HETATM    7  N4  UNL     1      23.255   5.063  -5.920  1.00  0.00    -0.325 N 
ATOM      8  H4  UNL     1      23.542   4.989  -6.897  1.00  0.00     0.169 HD
HETATM    9  C3  UNL     1      22.904   6.244  -5.451  1.00  0.00     0.124 A 
HETATM   10  N5  UNL     1      22.889   7.329  -6.120  1.00  0.00    -0.326 N 
ATOM     11  H5  UNL     1      22.594   8.169  -5.621  1.00  0.00     0.164 HD
HETATM   12  C4  UNL     1      23.240   7.495  -7.487  1.00  0.00     0.481 C 
HETATM   13  N6  UNL     1      23.862   8.821  -7.621  1.00  0.00    -0.033 N 
ATOM     14  H61 UNL     1      24.114   8.940  -8.601  1.00  0.00     0.278 HD
ATOM     15  H62 UNL     1      24.649   8.959  -6.988  1.00  0.00     0.278 HD
ATOM     16  H63 UNL     1      23.274   9.575  -7.265  1.00  0.00     0.278 HD
HETATM   17  N7  UNL     1      21.987   7.589  -8.252  1.00  0.00    -0.033 N 
ATOM     18  H71 UNL     1      22.239   7.708  -9.233  1.00  0.00     0.278 HD
ATOM     19  H72 UNL     1      21.364   8.321  -7.908  1.00  0.00     0.278 HD
ATOM     20  H73 UNL     1      21.363   6.799  -8.094  1.00  0.00     0.278 HD
HETATM   21  C5  UNL     1      22.509   6.336  -4.097  1.00  0.00     0.108 A 
HETATM   22  C7  UNL     1      22.480   5.241  -3.266  1.00  0.00     0.116 A 
HETATM   23  C8  UNL     1      22.875   4.003  -3.853  1.00  0.00     0.128 A 
ENDROOT
BRANCH  21  24
HETATM   24  C6  UNL     1      22.127   7.643  -3.601  1.00  0.00     0.271 C 
HETATM   25  N8  UNL     1      21.213   8.474  -4.239  1.00  0.00    -0.057 NA
HETATM   26  O1  UNL     1      22.650   8.075  -2.515  1.00  0.00    -0.271 OA
ENDBRANCH  21  24
BRANCH  22  27
HETATM   27  O2  UNL     1      22.123   5.198  -1.958  1.00  0.00    -0.357 OA
ATOM     28  H2  UNL     1      22.693   5.157  -1.199  1.00  0.00     0.217 HD
ENDBRANCH  22  27
TORSDOF 2
ENDMDL
MODEL 4
REMARK VINA RESULT: -7.438230771      2.031      3.743
REMARK  2 active torsions:
REMARK  status: ('A' for Active; 'I' for Inactive)
REMARK       I    between atoms: N5_10  and  C4_12 
REMARK       I    between atoms: C4_12  and  N6_13 
REMARK       I    between atoms: C4_12  and  N7_17 
REMARK    1  A    between atoms: C5_21  and  C6_22 
REMARK    2  A    between atoms: C7_25  and  O2_26 
ROOT
HETATM    1  C1  UNL     1      23.437   2.060  -4.601  1.00  0.00     0.175 C 
HETATM    2  N1  UNL     1      23.777   3.004  -5.627  1.00  0.00    -0.274 N 
HETATM    3  N2  UNL     1      24.474   2.811  -6.744  1.00  0.00    -0.018 NA
HETATM    4  N3  UNL     1      24.579   3.928  -7.443  1.00  0.00    -0.267 N 
ATOM      5  H3  UNL     1      25.064   4.036  -8.333  1.00  0.00     0.186 HD
HETATM    6  C2  UNL     1      23.924   4.907  -6.759  1.00  0.00     0.151 A 
HETATM    7  N4  UNL     1      23.708   6.213  -6.988  1.00  0.00    -0.325 N 
ATOM      8  H4  UNL     1      24.088   6.630  -7.838  1.00  0.00     0.169 HD
HETATM    9  C3  UNL     1      23.026   6.978  -6.158  1.00  0.00     0.124 A 
HETATM   10  N5  UNL     1      22.790   8.220  -6.324  1.00  0.00    -0.326 N 
ATOM     11  H5  UNL     1      22.247   8.682  -5.595  1.00  0.00     0.164 HD
HETATM   12  C4  UNL     1      23.205   9.030  -7.416  1.00  0.00     0.481 C 
HETATM   13  N6  UNL     1      23.473  10.375  -6.885  1.00  0.00    -0.033 N 
ATOM     14  H61 UNL     1      23.770  10.956  -7.668  1.00  0.00     0.278 HD
ATOM     15  H62 UNL     1      24.140  10.374  -6.114  1.00  0.00     0.278 HD
ATOM     16  H63 UNL     1      22.682  10.768  -6.374  1.00  0.00     0.278 HD
HETATM   17  N7  UNL     1      22.041   9.201  -8.300  1.00  0.00    -0.033 N 
ATOM     18  H71 UNL     1      22.338   9.782  -9.083  1.00  0.00     0.278 HD
ATOM     19  H72 UNL     1      21.223   9.572  -7.815  1.00  0.00     0.278 HD
ATOM     20  H73 UNL     1      21.630   8.316  -8.593  1.00  0.00     0.278 HD
HETATM   21  C5  UNL     1      22.503   6.392  -4.982  1.00  0.00     0.108 A 
HETATM   22  C7  UNL     1      22.685   5.062  -4.684  1.00  0.00     0.116 A 
HETATM   23  C8  UNL     1      23.435   4.307  -5.634  1.00  0.00     0.128 A 
ENDROOT
BRANCH  21  24
HETATM   24  C6  UNL     1      21.757   7.249  -4.085  1.00  0.00     0.271 C 
HETATM   25  N8  UNL     1      22.342   8.010  -3.078  1.00  0.00    -0.057 NA
HETATM   26  O1  UNL     1      20.485   7.326  -4.209  1.00  0.00    -0.271 OA
ENDBRANCH  21  24
BRANCH  22  27
HETATM   27  O2  UNL     1      22.239   4.384  -3.597  1.00  0.00    -0.357 OA
ATOM     28  H2  UNL     1      22.186   4.693  -2.700  1.00  0.00     0.217 HD
ENDBRANCH  22  27
TORSDOF 2
ENDMDL
MODEL 5
REMARK VINA RESULT: -7.388446024      2.302      3.406
REMARK  2 active torsions:
REMARK  status: ('A' for Active; 'I' for Inactive)
REMARK       I    between atoms: N5_10  and  C4_12 
REMARK       I    between atoms: C4_12  and  N6_13 
REMARK       I    between atoms: C4_12  and  N7_17 
REMARK    1  A    between atoms: C5_21  and  C6_22 
REMARK    2  A    between atoms: C7_25  and  O2_26 
ROOT
HETATM    1  C1  UNL     1      22.639   2.898  -2.032  1.00  0.00     0.175 C 
HETATM    2  N1  UNL     1      22.984   2.933  -3.425  1.00  0.00    -0.274 N 
HETATM    3  N2  UNL     1      23.368   1.935  -4.217  1.00  0.00    -0.018 NA
HETATM    4  N3  UNL     1      23.600   2.360  -5.446  1.00  0.00    -0.267 N 
ATOM      5  H3  UNL     1      23.903   1.787  -6.233  1.00  0.00     0.186 HD
HETATM    6  C2  UNL     1      23.360   3.701  -5.473  1.00  0.00     0.151 A 
HETATM    7  N4  UNL     1      23.430   4.637  -6.433  1.00  0.00    -0.325 N 
ATOM      8  H4  UNL     1      23.719   4.355  -7.371  1.00  0.00     0.169 HD
HETATM    9  C3  UNL     1      23.141   5.905  -6.214  1.00  0.00     0.124 A 
HETATM   10  N5  UNL     1      23.190   6.834  -7.086  1.00  0.00    -0.326 N 
ATOM     11  H5  UNL     1      22.937   7.770  -6.769  1.00  0.00     0.164 HD
HETATM   12  C4  UNL     1      23.558   6.705  -8.452  1.00  0.00     0.481 C 
HETATM   13  N6  UNL     1      24.252   7.944  -8.836  1.00  0.00    -0.033 N 
ATOM     14  H61 UNL     1      24.516   7.852  -9.816  1.00  0.00     0.278 HD
ATOM     15  H62 UNL     1      25.042   8.164  -8.230  1.00  0.00     0.278 HD
ATOM     16  H63 UNL     1      23.704   8.783  -8.648  1.00  0.00     0.278 HD
HETATM   17  N7  UNL     1      22.317   6.710  -9.242  1.00  0.00    -0.033 N 
ATOM     18  H71 UNL     1      22.581   6.618 -10.223  1.00  0.00     0.278 HD
ATOM     19  H72 UNL     1      21.733   7.527  -9.062  1.00  0.00     0.278 HD
ATOM     20  H73 UNL     1      21.650   6.002  -8.941  1.00  0.00     0.278 HD
HETATM   21  C5  UNL     1      22.742   6.286  -4.912  1.00  0.00     0.108 A 
HETATM   22  C7  UNL     1      22.649   5.381  -3.881  1.00  0.00     0.116 A 
HETATM   23  C8  UNL     1      22.979   4.032  -4.204  1.00  0.00     0.128 A 
ENDROOT
BRANCH  21  24
HETATM   24  C6  UNL     1      22.429   7.683  -4.693  1.00  0.00     0.271 C 
HETATM   25  N8  UNL     1      21.182   8.140  -4.281  1.00  0.00    -0.057 NA
HETATM   26  O1  UNL     1      23.340   8.563  -4.883  1.00  0.00    -0.271 OA
ENDBRANCH  21  24
BRANCH  22  27
HETATM   27  O2  UNL     1      22.281   5.619  -2.597  1.00  0.00    -0.357 OA
ATOM     28  H2  UNL     1      21.767   6.345  -2.263  1.00  0.00     0.217 HD
ENDBRANCH  22  27
TORSDOF 2
ENDMDL
