MODEL 1
REMARK VINA RESULT: -6.681278303      0.000      0.000
REMARK  6 active torsions:
REMARK  status: ('A' for Active; 'I' for Inactive)
REMARK    1  A    between atoms: C2_2  and  N1_3 
REMARK    2  A    between atoms: N1_3  and  C3_5 
REMARK    3  A    between atoms: C5_10  and  N4_11 
REMARK    4  A    between atoms: N4_11  and  N5_13 
REMARK    5  A    between atoms: N6_16  and  N7_17 
REMARK       I    between atoms: N7_17  and  C6_19 
REMARK    6  A    between atoms: C6_19  and  C7_21 
ROOT
HETATM    1  C3  UNL     1      23.341   3.539  -4.897  1.00  0.00     0.735 A 
HETATM    2  N2  UNL     1      23.401   2.230  -4.660  1.00  0.00    -0.112 N 
HETATM    3  C4  UNL     1      23.767   1.155  -5.594  1.00  0.00     0.198 C 
HETATM    4  N3  UNL     1      23.064   2.053  -3.402  1.00  0.00    -0.112 N 
ATOM      5  H3  UNL     1      23.021   1.147  -2.936  1.00  0.00     0.206 HD
HETATM    6  C5  UNL     1      22.785   3.227  -2.813  1.00  0.00     0.748 A 
HETATM    7  N6  UNL     1      22.945   4.181  -3.710  1.00  0.00     0.097 N 
ENDROOT
BRANCH   7   8
HETATM    8  N7  UNL     1      22.796   5.551  -3.655  1.00  0.00    -0.224 N 
HETATM    9  C6  UNL     1      21.653   6.329  -3.458  1.00  0.00     0.338 C 
HETATM   10  O1  UNL     1      20.488   5.951  -3.284  1.00  0.00    -0.259 OA
ATOM     11  H7  UNL     1      23.658   6.080  -3.779  1.00  0.00     0.192 HD
BRANCH   9  12
HETATM   12  C7  UNL     1      21.812   7.816  -3.448  1.00  0.00     0.271 C 
HETATM   13  O2  UNL     1      21.663   8.472  -4.501  1.00  0.00    -0.640 OA
HETATM   14  O3  UNL     1      22.122   8.484  -2.280  1.00  0.00    -0.640 OA
ENDBRANCH   9  12
ENDBRANCH   7   8
BRANCH   1  15
HETATM   15  N1  UNL     1      23.586   4.141  -5.973  1.00  0.00    -0.202 N 
ATOM     16  H1  UNL     1      24.557   4.003  -6.254  1.00  0.00     0.183 HD
BRANCH  15  17
HETATM   17  C2  UNL     1      22.920   4.933  -6.882  1.00  0.00     0.074 C 
HETATM   18  C1  UNL     1      23.472   6.346  -7.032  1.00  0.00     0.055 C 
ENDBRANCH  15  17
ENDBRANCH   1  15
BRANCH   6  19
HETATM   19  N4  UNL     1      22.421   3.367  -1.568  1.00  0.00    -0.135 N 
ATOM     20  H4  UNL     1      23.116   3.235  -0.833  1.00  0.00     0.205 HD
BRANCH  19  21
HETATM   21  N5  UNL     1      21.116   3.690  -1.211  1.00  0.00    -0.331 N 
ATOM     22  H52 UNL     1      20.458   3.915  -1.957  1.00  0.00     0.177 HD
ATOM     23  H51 UNL     1      20.809   3.707  -0.238  1.00  0.00     0.177 HD
ENDBRANCH  19  21
ENDBRANCH   6  19
TORSDOF 6
ENDMDL
MODEL 2
REMARK VINA RESULT: -6.423071234      1.915      3.866
REMARK  6 active torsions:
REMARK  status: ('A' for Active; 'I' for Inactive)
REMARK    1  A    between atoms: C2_2  and  N1_3 
REMARK    2  A    between atoms: N1_3  and  C3_5 
REMARK    3  A    between atoms: C5_10  and  N4_11 
REMARK    4  A    between atoms: N4_11  and  N5_13 
REMARK    5  A    between atoms: N6_16  and  N7_17 
REMARK       I    between atoms: N7_17  and  C6_19 
REMARK    6  A    between atoms: C6_19  and  C7_21 
ROOT
HETATM    1  C3  UNL     1      23.015   4.598  -5.181  1.00  0.00     0.735 A 
HETATM    2  N2  UNL     1      23.522   4.884  -6.378  1.00  0.00    -0.112 N 
HETATM    3  C4  UNL     1      23.981   3.949  -7.416  1.00  0.00     0.198 C 
HETATM    4  N3  UNL     1      23.544   6.195  -6.481  1.00  0.00    -0.112 N 
ATOM      5  H3  UNL     1      23.883   6.706  -7.296  1.00  0.00     0.206 HD
HETATM    6  C5  UNL     1      23.059   6.768  -5.368  1.00  0.00     0.748 A 
HETATM    7  N6  UNL     1      22.717   5.809  -4.530  1.00  0.00     0.097 N 
ENDROOT
BRANCH   7   8
HETATM    8  N7  UNL     1      22.177   5.823  -3.262  1.00  0.00    -0.224 N 
HETATM    9  C6  UNL     1      22.150   6.836  -2.301  1.00  0.00     0.338 C 
HETATM   10  O1  UNL     1      22.620   7.978  -2.377  1.00  0.00    -0.259 OA
ATOM     11  H7  UNL     1      21.723   4.954  -2.981  1.00  0.00     0.192 HD
BRANCH   9  12
HETATM   12  C7  UNL     1      21.477   6.547  -0.997  1.00  0.00     0.271 C 
HETATM   13  O2  UNL     1      21.035   5.404  -0.756  1.00  0.00    -0.640 OA
HETATM   14  O3  UNL     1      21.335   7.536  -0.043  1.00  0.00    -0.640 OA
ENDBRANCH   9  12
ENDBRANCH   7   8
BRANCH   1  15
HETATM   15  N1  UNL     1      22.819   3.463  -4.677  1.00  0.00    -0.202 N 
ATOM     16  H1  UNL     1      21.913   3.090  -4.962  1.00  0.00     0.183 HD
BRANCH  15  17
HETATM   17  C2  UNL     1      23.475   2.578  -3.850  1.00  0.00     0.074 C 
HETATM   18  C1  UNL     1      22.997   2.571  -2.403  1.00  0.00     0.055 C 
ENDBRANCH  15  17
ENDBRANCH   1  15
BRANCH   6  19
HETATM   19  N4  UNL     1      22.956   8.055  -5.179  1.00  0.00    -0.135 N 
ATOM     20  H4  UNL     1      23.780   8.578  -4.883  1.00  0.00     0.205 HD
BRANCH  19  21
HETATM   21  N5  UNL     1      21.758   8.736  -5.368  1.00  0.00    -0.331 N 
ATOM     22  H52 UNL     1      21.015   8.262  -5.881  1.00  0.00     0.177 HD
ATOM     23  H51 UNL     1      21.610   9.681  -5.013  1.00  0.00     0.177 HD
ENDBRANCH  19  21
ENDBRANCH   6  19
TORSDOF 6
ENDMDL
MODEL 3
REMARK VINA RESULT: -6.407148949      1.766      2.555
REMARK  6 active torsions:
REMARK  status: ('A' for Active; 'I' for Inactive)
REMARK    1  A    between atoms: C2_2  and  N1_3 
REMARK    2  A    between atoms: N1_3  and  C3_5 
REMARK    3  A    between atoms: C5_10  and  N4_11 
REMARK    4  A    between atoms: N4_11  and  N5_13 
REMARK    5  A    between atoms: N6_16  and  N7_17 
REMARK       I    between atoms: N7_17  and  C6_19 
REMARK    6  A    between atoms: C6_19  and  C7_21 
ROOT
HETATM    1  C3  UNL     1      23.097   5.774  -5.641  1.00  0.00     0.735 A 
HETATM    2  N2  UNL     1      23.331   4.660  -6.329  1.00  0.00    -0.112 N 
HETATM    3  C4  UNL     1      23.655   4.527  -7.758  1.00  0.00     0.198 C 
HETATM    4  N3  UNL     1      23.220   3.657  -5.486  1.00  0.00    -0.112 N 
ATOM      5  H3  UNL     1      23.348   2.676  -5.732  1.00  0.00     0.206 HD
HETATM    6  C5  UNL     1      22.916   4.102  -4.255  1.00  0.00     0.748 A 
HETATM    7  N6  UNL     1      22.830   5.417  -4.307  1.00  0.00     0.097 N 
ENDROOT
BRANCH   7   8
HETATM    8  N7  UNL     1      22.548   6.374  -3.355  1.00  0.00    -0.224 N 
HETATM    9  C6  UNL     1      22.050   6.239  -2.057  1.00  0.00     0.338 C 
HETATM   10  O1  UNL     1      21.742   5.202  -1.457  1.00  0.00    -0.259 OA
ATOM     11  H7  UNL     1      22.732   7.334  -3.645  1.00  0.00     0.192 HD
BRANCH   9  12
HETATM   12  C7  UNL     1      21.847   7.484  -1.252  1.00  0.00     0.271 C 
HETATM   13  O2  UNL     1      22.117   8.601  -1.741  1.00  0.00    -0.640 OA
HETATM   14  O3  UNL     1      21.359   7.417   0.038  1.00  0.00    -0.640 OA
ENDBRANCH   9  12
ENDBRANCH   7   8
BRANCH   1  15
HETATM   15  N1  UNL     1      23.102   6.959  -6.063  1.00  0.00    -0.202 N 
ATOM     16  H1  UNL     1      24.005   7.401  -5.896  1.00  0.00     0.183 HD
BRANCH  15  17
HETATM   17  C2  UNL     1      22.237   7.830  -6.687  1.00  0.00     0.074 C 
HETATM   18  C1  UNL     1      22.615   9.303  -6.578  1.00  0.00     0.055 C 
ENDBRANCH  15  17
ENDBRANCH   1  15
BRANCH   6  19
HETATM   19  N4  UNL     1      22.744   3.340  -3.211  1.00  0.00    -0.135 N 
ATOM     20  H4  UNL     1      22.215   3.701  -2.418  1.00  0.00     0.205 HD
BRANCH  19  21
HETATM   21  N5  UNL     1      23.259   2.049  -3.145  1.00  0.00    -0.331 N 
ATOM     22  H52 UNL     1      23.523   1.595  -4.019  1.00  0.00     0.177 HD
ATOM     23  H51 UNL     1      23.377   1.557  -2.259  1.00  0.00     0.177 HD
ENDBRANCH  19  21
ENDBRANCH   6  19
TORSDOF 6
ENDMDL
MODEL 4
REMARK VINA RESULT: -6.385352126      3.124      5.143
REMARK  6 active torsions:
REMARK  status: ('A' for Active; 'I' for Inactive)
REMARK    1  A    between atoms: C2_2  and  N1_3 
REMARK    2  A    between atoms: N1_3  and  C3_5 
REMARK    3  A    between atoms: C5_10  and  N4_11 
REMARK    4  A    between atoms: N4_11  and  N5_13 
REMARK    5  A    between atoms: N6_16  and  N7_17 
REMARK       I    between atoms: N7_17  and  C6_19 
REMARK    6  A    between atoms: C6_19  and  C7_21 
ROOT
HETATM    1  C3  UNL     1      23.411   7.086  -7.064  1.00  0.00     0.735 A 
HETATM    2  N2  UNL     1      23.363   7.528  -8.318  1.00  0.00    -0.112 N 
HETATM    3  C4  UNL     1      23.728   6.809  -9.548  1.00  0.00     0.198 C 
HETATM    4  N3  UNL     1      22.916   8.764  -8.272  1.00  0.00    -0.112 N 
ATOM      5  H3  UNL     1      22.774   9.359  -9.087  1.00  0.00     0.206 HD
HETATM    6  C5  UNL     1      22.672   9.135  -7.005  1.00  0.00     0.748 A 
HETATM    7  N6  UNL     1      22.967   8.118  -6.218  1.00  0.00     0.097 N 
ENDROOT
BRANCH   7   8
HETATM    8  N7  UNL     1      22.911   7.946  -4.851  1.00  0.00    -0.224 N 
HETATM    9  C6  UNL     1      21.841   7.591  -4.028  1.00  0.00     0.338 C 
HETATM   10  O1  UNL     1      20.672   7.347  -4.352  1.00  0.00    -0.259 OA
ATOM     11  H7  UNL     1      23.793   8.103  -4.363  1.00  0.00     0.192 HD
BRANCH   9  12
HETATM   12  C7  UNL     1      22.094   7.480  -2.558  1.00  0.00     0.271 C 
HETATM   13  O2  UNL     1      22.212   8.510  -1.860  1.00  0.00    -0.640 OA
HETATM   14  O3  UNL     1      22.201   6.244  -1.952  1.00  0.00    -0.640 OA
ENDBRANCH   9  12
ENDBRANCH   7   8
BRANCH   1  15
HETATM   15  N1  UNL     1      23.780   5.954  -6.657  1.00  0.00    -0.202 N 
ATOM     16  H1  UNL     1      24.763   5.969  -6.384  1.00  0.00     0.183 HD
BRANCH  15  17
HETATM   17  C2  UNL     1      23.239   4.701  -6.475  1.00  0.00     0.074 C 
HETATM   18  C1  UNL     1      23.023   4.297  -5.022  1.00  0.00     0.055 C 
ENDBRANCH  15  17
ENDBRANCH   1  15
BRANCH   6  19
HETATM   19  N4  UNL     1      22.221  10.305  -6.647  1.00  0.00    -0.135 N 
ATOM     20  H4  UNL     1      21.214  10.465  -6.637  1.00  0.00     0.205 HD
BRANCH  19  21
HETATM   21  N5  UNL     1      23.071  11.343  -6.277  1.00  0.00    -0.331 N 
ATOM     22  H52 UNL     1      23.781  11.151  -5.571  1.00  0.00     0.177 HD
ATOM     23  H51 UNL     1      23.000  12.274  -6.689  1.00  0.00     0.177 HD
ENDBRANCH  19  21
ENDBRANCH   6  19
TORSDOF 6
ENDMDL
MODEL 5
REMARK VINA RESULT: -6.231035419      2.953      4.901
REMARK  6 active torsions:
REMARK  status: ('A' for Active; 'I' for Inactive)
REMARK    1  A    between atoms: C2_2  and  N1_3 
REMARK    2  A    between atoms: N1_3  and  C3_5 
REMARK    3  A    between atoms: C5_10  and  N4_11 
REMARK    4  A    between atoms: N4_11  and  N5_13 
REMARK    5  A    between atoms: N6_16  and  N7_17 
REMARK       I    between atoms: N7_17  and  C6_19 
REMARK    6  A    between atoms: C6_19  and  C7_21 
ROOT
HETATM    1  C3  UNL     1      22.235   6.526  -6.709  1.00  0.00     0.735 A 
HETATM    2  N2  UNL     1      22.156   6.822  -8.004  1.00  0.00    -0.112 N 
HETATM    3  C4  UNL     1      22.035   5.896  -9.141  1.00  0.00     0.198 C 
HETATM    4  N3  UNL     1      22.205   8.132  -8.102  1.00  0.00    -0.112 N 
ATOM      5  H3  UNL     1      22.165   8.649  -8.980  1.00  0.00     0.206 HD
HETATM    6  C5  UNL     1      22.316   8.696  -6.889  1.00  0.00     0.748 A 
HETATM    7  N6  UNL     1      22.338   7.731  -5.990  1.00  0.00     0.097 N 
ENDROOT
BRANCH   7   8
HETATM    8  N7  UNL     1      22.438   7.735  -4.615  1.00  0.00    -0.224 N 
HETATM    9  C6  UNL     1      21.573   7.224  -3.645  1.00  0.00     0.338 C 
HETATM   10  O1  UNL     1      20.496   6.639  -3.809  1.00  0.00    -0.259 OA
ATOM     11  H7  UNL     1      23.277   8.182  -4.248  1.00  0.00     0.192 HD
BRANCH   9  12
HETATM   12  C7  UNL     1      21.961   7.382  -2.209  1.00  0.00     0.271 C 
HETATM   13  O2  UNL     1      22.309   8.498  -1.770  1.00  0.00    -0.640 OA
HETATM   14  O3  UNL     1      21.939   6.301  -1.349  1.00  0.00    -0.640 OA
ENDBRANCH   9  12
ENDBRANCH   7   8
BRANCH   1  15
HETATM   15  N1  UNL     1      22.223   5.388  -6.175  1.00  0.00    -0.202 N 
ATOM     16  H1  UNL     1      21.268   5.082  -5.990  1.00  0.00     0.183 HD
BRANCH  15  17
HETATM   17  C2  UNL     1      23.131   4.435  -5.767  1.00  0.00     0.074 C 
HETATM   18  C1  UNL     1      22.925   3.913  -4.350  1.00  0.00     0.055 C 
ENDBRANCH  15  17
ENDBRANCH   1  15
BRANCH   6  19
HETATM   19  N4  UNL     1      22.387   9.980  -6.670  1.00  0.00    -0.135 N 
ATOM     20  H4  UNL     1      21.560  10.469  -6.325  1.00  0.00     0.205 HD
BRANCH  19  21
HETATM   21  N5  UNL     1      23.554  10.704  -6.890  1.00  0.00    -0.331 N 
ATOM     22  H52 UNL     1      24.378  10.196  -7.211  1.00  0.00     0.177 HD
ATOM     23  H51 UNL     1      23.603  11.713  -6.741  1.00  0.00     0.177 HD
ENDBRANCH  19  21
ENDBRANCH   6  19
TORSDOF 6
ENDMDL
