MODEL 1
REMARK VINA RESULT: -7.277112304      0.000      0.000
REMARK  8 active torsions:
REMARK  status: ('A' for Active; 'I' for Inactive)
REMARK    1  A    between atoms: C2_2  and  N1_3 
REMARK    2  A    between atoms: C3_8  and  C4_9 
REMARK    3  A    between atoms: C4_9  and  O3_11 
REMARK    4  A    between atoms: O3_11  and  C5_12 
REMARK    5  A    between atoms: C5_12  and  C6_13 
REMARK    6  A    between atoms: C7_14  and  N2_15 
REMARK    7  A    between atoms: C8_18  and  N3_19 
REMARK    8  A    between atoms: C10_24  and  N4_25 
ROOT
HETATM    1  C1  UNL     1      24.911   9.799  -7.069  1.00  0.00     0.080 C 
HETATM    2  C2  UNL     1      23.500   9.280  -6.784  1.00  0.00     0.249 C 
HETATM    3  O1  UNL     1      23.550   8.598  -5.593  1.00  0.00    -0.335 OA
HETATM    4  C3  UNL     1      22.268   8.135  -5.310  1.00  0.00     0.254 C 
HETATM    5  C8  UNL     1      22.028   6.964  -6.273  1.00  0.00     0.224 C 
HETATM    6  C9  UNL     1      21.893   7.549  -7.642  1.00  0.00     0.073 C 
HETATM    7  C10 UNL     1      23.118   8.394  -7.924  1.00  0.00     0.247 C 
ENDROOT
BRANCH   4   8
HETATM    8  C4  UNL     1      22.144   7.734  -3.909  1.00  0.00     0.291 C 
HETATM    9  O2  UNL     1      21.795   8.630  -3.072  1.00  0.00    -0.262 OA
BRANCH   8  10
HETATM   10  O3  UNL     1      22.384   6.453  -3.462  1.00  0.00    -0.307 OA
BRANCH  10  11
HETATM   11  C5  UNL     1      21.722   6.009  -2.300  1.00  0.00     0.274 C 
BRANCH  11  12
HETATM   12  C6  UNL     1      22.114   4.626  -2.036  1.00  0.00    -0.057 C 
HETATM   13  C7  UNL     1      22.431   3.479  -1.802  1.00  0.00     0.005 C 
BRANCH  13  14
HETATM   14  N2  UNL     1      22.813   2.152  -1.539  1.00  0.00    -0.359 N 
ATOM     15  H22 UNL     1      22.067   2.811  -1.764  1.00  0.00     0.166 HD
ATOM     16  H21 UNL     1      23.102   1.193  -1.347  1.00  0.00     0.166 HD
ENDBRANCH  13  14
ENDBRANCH  11  12
ENDBRANCH  10  11
ENDBRANCH   8  10
ENDBRANCH   4   8
BRANCH   5  17
HETATM   17  N3  UNL     1      20.900   6.246  -5.804  1.00  0.00    -0.072 N 
ATOM     18  H33 UNL     1      21.105   5.676  -4.984  1.00  0.00     0.274 HD
ATOM     19  H32 UNL     1      20.196   6.848  -5.377  1.00  0.00     0.274 HD
ATOM     20  H31 UNL     1      20.535   5.700  -6.584  1.00  0.00     0.274 HD
ENDBRANCH   5  17
BRANCH   2  21
HETATM   21  N1  UNL     1      22.602  10.404  -6.622  1.00  0.00    -0.045 N 
ATOM     22  H13 UNL     1      21.974  10.516  -7.419  1.00  0.00     0.278 HD
ATOM     23  H12 UNL     1      21.895  10.236  -5.906  1.00  0.00     0.278 HD
ATOM     24  H11 UNL     1      23.147  11.246  -6.437  1.00  0.00     0.278 HD
ENDBRANCH   2  21
BRANCH   7  25
HETATM   25  N4  UNL     1      22.961   9.178  -9.130  1.00  0.00    -0.070 N 
ATOM     26  H43 UNL     1      22.856   8.589  -9.957  1.00  0.00     0.274 HD
ATOM     27  H42 UNL     1      22.057   9.648  -9.166  1.00  0.00     0.274 HD
ATOM     28  H41 UNL     1      23.736   9.834  -9.225  1.00  0.00     0.274 HD
ENDBRANCH   7  25
TORSDOF 8
ENDMDL
MODEL 2
REMARK VINA RESULT: -6.887575446      1.676      1.872
REMARK  8 active torsions:
REMARK  status: ('A' for Active; 'I' for Inactive)
REMARK    1  A    between atoms: C2_2  and  N1_3 
REMARK    2  A    between atoms: C3_8  and  C4_9 
REMARK    3  A    between atoms: C4_9  and  O3_11 
REMARK    4  A    between atoms: O3_11  and  C5_12 
REMARK    5  A    between atoms: C5_12  and  C6_13 
REMARK    6  A    between atoms: C7_14  and  N2_15 
REMARK    7  A    between atoms: C8_18  and  N3_19 
REMARK    8  A    between atoms: C10_24  and  N4_25 
ROOT
HETATM    1  C1  UNL     1      24.601   9.714  -6.549  1.00  0.00     0.080 C 
HETATM    2  C2  UNL     1      23.329   9.009  -7.023  1.00  0.00     0.249 C 
HETATM    3  O1  UNL     1      23.181   7.880  -6.257  1.00  0.00    -0.335 OA
HETATM    4  C3  UNL     1      22.016   7.235  -6.663  1.00  0.00     0.254 C 
HETATM    5  C8  UNL     1      22.348   6.592  -8.017  1.00  0.00     0.224 C 
HETATM    6  C9  UNL     1      22.491   7.708  -9.002  1.00  0.00     0.073 C 
HETATM    7  C10 UNL     1      23.515   8.688  -8.469  1.00  0.00     0.247 C 
ENDROOT
BRANCH   4   8
HETATM    8  C4  UNL     1      21.580   6.249  -5.674  1.00  0.00     0.291 C 
HETATM    9  O2  UNL     1      20.353   5.905  -5.691  1.00  0.00    -0.262 OA
BRANCH   8  10
HETATM   10  O3  UNL     1      22.424   5.686  -4.742  1.00  0.00    -0.307 OA
BRANCH  10  11
HETATM   11  C5  UNL     1      22.918   4.388  -4.977  1.00  0.00     0.274 C 
BRANCH  11  12
HETATM   12  C6  UNL     1      22.895   3.642  -3.719  1.00  0.00    -0.057 C 
HETATM   13  C7  UNL     1      22.872   3.038  -2.668  1.00  0.00     0.005 C 
BRANCH  13  14
HETATM   14  N2  UNL     1      22.858   2.328  -1.455  1.00  0.00    -0.359 N 
ATOM     15  H22 UNL     1      22.654   2.340  -2.455  1.00  0.00     0.166 HD
ATOM     16  H21 UNL     1      22.852   1.822  -0.570  1.00  0.00     0.166 HD
ENDBRANCH  13  14
ENDBRANCH  11  12
ENDBRANCH  10  11
ENDBRANCH   8  10
ENDBRANCH   4   8
BRANCH   5  17
HETATM   17  N3  UNL     1      21.329   5.651  -8.307  1.00  0.00    -0.072 N 
ATOM     18  H33 UNL     1      20.402   6.073  -8.358  1.00  0.00     0.274 HD
ATOM     19  H32 UNL     1      21.372   5.303  -9.265  1.00  0.00     0.274 HD
ATOM     20  H31 UNL     1      21.388   4.907  -7.612  1.00  0.00     0.274 HD
ENDBRANCH   5  17
BRANCH   2  21
HETATM   21  N1  UNL     1      22.189   9.869  -6.782  1.00  0.00    -0.045 N 
ATOM     22  H13 UNL     1      22.189  10.257  -5.839  1.00  0.00     0.278 HD
ATOM     23  H12 UNL     1      22.250  10.747  -7.299  1.00  0.00     0.278 HD
ATOM     24  H11 UNL     1      21.332   9.357  -6.990  1.00  0.00     0.278 HD
ENDBRANCH   2  21
BRANCH   7  25
HETATM   25  N4  UNL     1      23.545   9.907  -9.249  1.00  0.00    -0.070 N 
ATOM     26  H43 UNL     1      23.742  10.725  -8.671  1.00  0.00     0.274 HD
ATOM     27  H42 UNL     1      24.364   9.953  -9.855  1.00  0.00     0.274 HD
ATOM     28  H41 UNL     1      22.677  10.009  -9.773  1.00  0.00     0.274 HD
ENDBRANCH   7  25
TORSDOF 8
ENDMDL
MODEL 3
REMARK VINA RESULT: -6.866032005      1.201      1.338
REMARK  8 active torsions:
REMARK  status: ('A' for Active; 'I' for Inactive)
REMARK    1  A    between atoms: C2_2  and  N1_3 
REMARK    2  A    between atoms: C3_8  and  C4_9 
REMARK    3  A    between atoms: C4_9  and  O3_11 
REMARK    4  A    between atoms: O3_11  and  C5_12 
REMARK    5  A    between atoms: C5_12  and  C6_13 
REMARK    6  A    between atoms: C7_14  and  N2_15 
REMARK    7  A    between atoms: C8_18  and  N3_19 
REMARK    8  A    between atoms: C10_24  and  N4_25 
ROOT
HETATM    1  C1  UNL     1      24.577  10.149  -7.302  1.00  0.00     0.080 C 
HETATM    2  C2  UNL     1      23.522   9.063  -7.083  1.00  0.00     0.249 C 
HETATM    3  O1  UNL     1      23.342   8.938  -5.728  1.00  0.00    -0.335 OA
HETATM    4  C3  UNL     1      22.370   7.965  -5.512  1.00  0.00     0.254 C 
HETATM    5  C8  UNL     1      23.053   6.623  -5.812  1.00  0.00     0.224 C 
HETATM    6  C9  UNL     1      23.276   6.571  -7.289  1.00  0.00     0.073 C 
HETATM    7  C10 UNL     1      24.046   7.809  -7.700  1.00  0.00     0.247 C 
ENDROOT
BRANCH   4   8
HETATM    8  C4  UNL     1      21.848   8.028  -4.147  1.00  0.00     0.291 C 
HETATM    9  O2  UNL     1      20.590   8.180  -4.008  1.00  0.00    -0.262 OA
BRANCH   8  10
HETATM   10  O3  UNL     1      22.642   7.932  -3.026  1.00  0.00    -0.307 OA
BRANCH  10  11
HETATM   11  C5  UNL     1      22.037   7.602  -1.797  1.00  0.00     0.274 C 
BRANCH  11  12
HETATM   12  C6  UNL     1      21.874   6.151  -1.728  1.00  0.00    -0.057 C 
HETATM   13  C7  UNL     1      21.722   4.949  -1.668  1.00  0.00     0.005 C 
BRANCH  13  14
HETATM   14  N2  UNL     1      21.563   3.554  -1.592  1.00  0.00    -0.359 N 
ATOM     15  H22 UNL     1      22.000   4.353  -2.052  1.00  0.00     0.166 HD
ATOM     16  H21 UNL     1      21.439   2.544  -1.527  1.00  0.00     0.166 HD
ENDBRANCH  13  14
ENDBRANCH  11  12
ENDBRANCH  10  11
ENDBRANCH   8  10
ENDBRANCH   4   8
BRANCH   5  17
HETATM   17  N3  UNL     1      22.231   5.596  -5.284  1.00  0.00    -0.072 N 
ATOM     18  H33 UNL     1      21.752   5.060  -6.008  1.00  0.00     0.274 HD
ATOM     19  H32 UNL     1      22.767   4.828  -4.880  1.00  0.00     0.274 HD
ATOM     20  H31 UNL     1      21.589   6.026  -4.619  1.00  0.00     0.274 HD
ENDBRANCH   5  17
BRANCH   2  21
HETATM   21  N1  UNL     1      22.268   9.492  -7.666  1.00  0.00    -0.045 N 
ATOM     22  H13 UNL     1      21.735  10.094  -7.038  1.00  0.00     0.278 HD
ATOM     23  H12 UNL     1      22.402  10.161  -8.425  1.00  0.00     0.278 HD
ATOM     24  H11 UNL     1      21.737   8.673  -7.961  1.00  0.00     0.278 HD
ENDBRANCH   2  21
BRANCH   7  25
HETATM   25  N4  UNL     1      24.104   7.950  -9.139  1.00  0.00    -0.070 N 
ATOM     26  H43 UNL     1      23.184   7.856  -9.570  1.00  0.00     0.274 HD
ATOM     27  H42 UNL     1      24.304   8.909  -9.421  1.00  0.00     0.274 HD
ATOM     28  H41 UNL     1      24.778   7.290  -9.529  1.00  0.00     0.274 HD
ENDBRANCH   7  25
TORSDOF 8
ENDMDL
MODEL 4
REMARK VINA RESULT: -6.855187728      1.307      1.521
REMARK  8 active torsions:
REMARK  status: ('A' for Active; 'I' for Inactive)
REMARK    1  A    between atoms: C2_2  and  N1_3 
REMARK    2  A    between atoms: C3_8  and  C4_9 
REMARK    3  A    between atoms: C4_9  and  O3_11 
REMARK    4  A    between atoms: O3_11  and  C5_12 
REMARK    5  A    between atoms: C5_12  and  C6_13 
REMARK    6  A    between atoms: C7_14  and  N2_15 
REMARK    7  A    between atoms: C8_18  and  N3_19 
REMARK    8  A    between atoms: C10_24  and  N4_25 
ROOT
HETATM    1  C1  UNL     1      24.566   8.451  -8.045  1.00  0.00     0.080 C 
HETATM    2  C2  UNL     1      23.159   8.127  -7.541  1.00  0.00     0.249 C 
HETATM    3  O1  UNL     1      23.212   8.111  -6.169  1.00  0.00    -0.335 OA
HETATM    4  C3  UNL     1      21.932   7.835  -5.694  1.00  0.00     0.254 C 
HETATM    5  C8  UNL     1      21.702   6.341  -5.966  1.00  0.00     0.224 C 
HETATM    6  C9  UNL     1      21.565   6.187  -7.446  1.00  0.00     0.073 C 
HETATM    7  C10 UNL     1      22.784   6.796  -8.106  1.00  0.00     0.247 C 
ENDROOT
BRANCH   4   8
HETATM    8  C4  UNL     1      21.809   8.165  -4.274  1.00  0.00     0.291 C 
HETATM    9  O2  UNL     1      20.821   8.889  -3.925  1.00  0.00    -0.262 OA
BRANCH   8  10
HETATM   10  O3  UNL     1      22.700   7.734  -3.315  1.00  0.00    -0.307 OA
BRANCH  10  11
HETATM   11  C5  UNL     1      22.248   7.599  -1.988  1.00  0.00     0.274 C 
BRANCH  11  12
HETATM   12  C6  UNL     1      21.828   6.215  -1.773  1.00  0.00    -0.057 C 
HETATM   13  C7  UNL     1      21.464   5.073  -1.589  1.00  0.00     0.005 C 
BRANCH  13  14
HETATM   14  N2  UNL     1      21.059   3.745  -1.372  1.00  0.00    -0.359 N 
ATOM     15  H22 UNL     1      21.598   4.550  -1.052  1.00  0.00     0.166 HD
ATOM     16  H21 UNL     1      20.758   2.781  -1.225  1.00  0.00     0.166 HD
ENDBRANCH  13  14
ENDBRANCH  11  12
ENDBRANCH  10  11
ENDBRANCH   8  10
ENDBRANCH   4   8
BRANCH   5  17
HETATM   17  N3  UNL     1      20.578   5.935  -5.205  1.00  0.00    -0.072 N 
ATOM     18  H33 UNL     1      20.800   5.207  -4.526  1.00  0.00     0.274 HD
ATOM     19  H32 UNL     1      20.269   6.647  -4.542  1.00  0.00     0.274 HD
ATOM     20  H31 UNL     1      19.846   5.657  -5.858  1.00  0.00     0.274 HD
ENDBRANCH   5  17
BRANCH   2  21
HETATM   21  N1  UNL     1      22.253   9.182  -7.945  1.00  0.00    -0.045 N 
ATOM     22  H13 UNL     1      21.817   9.644  -7.147  1.00  0.00     0.278 HD
ATOM     23  H12 UNL     1      22.745   9.990  -8.327  1.00  0.00     0.278 HD
ATOM     24  H11 UNL     1      21.565   8.804  -8.596  1.00  0.00     0.278 HD
ENDBRANCH   2  21
BRANCH   7  25
HETATM   25  N4  UNL     1      22.624   6.893  -9.541  1.00  0.00    -0.070 N 
ATOM     26  H43 UNL     1      21.859   7.518  -9.799  1.00  0.00     0.274 HD
ATOM     27  H42 UNL     1      23.389   7.408  -9.977  1.00  0.00     0.274 HD
ATOM     28  H41 UNL     1      22.511   5.963  -9.945  1.00  0.00     0.274 HD
ENDBRANCH   7  25
TORSDOF 8
ENDMDL
MODEL 5
REMARK VINA RESULT: -6.699538722      1.364      1.371
REMARK  8 active torsions:
REMARK  status: ('A' for Active; 'I' for Inactive)
REMARK    1  A    between atoms: C2_2  and  N1_3 
REMARK    2  A    between atoms: C3_8  and  C4_9 
REMARK    3  A    between atoms: C4_9  and  O3_11 
REMARK    4  A    between atoms: O3_11  and  C5_12 
REMARK    5  A    between atoms: C5_12  and  C6_13 
REMARK    6  A    between atoms: C7_14  and  N2_15 
REMARK    7  A    between atoms: C8_18  and  N3_19 
REMARK    8  A    between atoms: C10_24  and  N4_25 
ROOT
HETATM    1  C1  UNL     1      24.635  10.018  -6.542  1.00  0.00     0.080 C 
HETATM    2  C2  UNL     1      23.280   9.317  -6.656  1.00  0.00     0.249 C 
HETATM    3  O1  UNL     1      23.122   8.552  -5.528  1.00  0.00    -0.335 OA
HETATM    4  C3  UNL     1      21.884   7.920  -5.608  1.00  0.00     0.254 C 
HETATM    5  C8  UNL     1      22.051   6.811  -6.656  1.00  0.00     0.224 C 
HETATM    6  C9  UNL     1      22.184   7.486  -7.983  1.00  0.00     0.073 C 
HETATM    7  C10 UNL     1      23.317   8.488  -7.898  1.00  0.00     0.247 C 
ENDROOT
BRANCH   4   8
HETATM    8  C4  UNL     1      21.469   7.395  -4.307  1.00  0.00     0.291 C 
HETATM    9  O2  UNL     1      20.224   7.188  -4.129  1.00  0.00    -0.262 OA
BRANCH   8  10
HETATM   10  O3  UNL     1      22.350   7.119  -3.284  1.00  0.00    -0.307 OA
BRANCH  10  11
HETATM   11  C5  UNL     1      22.225   5.894  -2.599  1.00  0.00     0.274 C 
BRANCH  11  12
HETATM   12  C6  UNL     1      22.641   4.813  -3.491  1.00  0.00    -0.057 C 
HETATM   13  C7  UNL     1      22.976   3.923  -4.244  1.00  0.00     0.005 C 
BRANCH  13  14
HETATM   14  N2  UNL     1      23.365   2.880  -5.102  1.00  0.00    -0.359 N 
ATOM     15  H22 UNL     1      23.624   3.545  -4.373  1.00  0.00     0.166 HD
ATOM     16  H21 UNL     1      23.636   2.123  -5.729  1.00  0.00     0.166 HD
ENDBRANCH  13  14
ENDBRANCH  11  12
ENDBRANCH  10  11
ENDBRANCH   8  10
ENDBRANCH   4   8
BRANCH   5  17
HETATM   17  N3  UNL     1      20.947   5.931  -6.529  1.00  0.00    -0.072 N 
ATOM     18  H33 UNL     1      20.209   6.303  -5.931  1.00  0.00     0.274 HD
ATOM     19  H32 UNL     1      20.401   5.854  -7.387  1.00  0.00     0.274 HD
ATOM     20  H31 UNL     1      21.304   5.032  -6.204  1.00  0.00     0.274 HD
ENDBRANCH   5  17
BRANCH   2  21
HETATM   21  N1  UNL     1      22.228  10.312  -6.677  1.00  0.00    -0.045 N 
ATOM     22  H13 UNL     1      22.234  10.899  -5.843  1.00  0.00     0.278 HD
ATOM     23  H12 UNL     1      22.400  11.042  -7.369  1.00  0.00     0.278 HD
ATOM     24  H11 UNL     1      21.331   9.849  -6.818  1.00  0.00     0.278 HD
ENDBRANCH   2  21
BRANCH   7  25
HETATM   25  N4  UNL     1      23.363   9.344  -9.064  1.00  0.00    -0.070 N 
ATOM     26  H43 UNL     1      23.130  10.311  -8.839  1.00  0.00     0.274 HD
ATOM     27  H42 UNL     1      24.318   9.493  -9.391  1.00  0.00     0.274 HD
ATOM     28  H41 UNL     1      22.764   8.967  -9.799  1.00  0.00     0.274 HD
ENDBRANCH   7  25
TORSDOF 8
ENDMDL
