MODEL 1
REMARK VINA RESULT: -8.123602836      0.000      0.000
REMARK  3 active torsions:
REMARK  status: ('A' for Active; 'I' for Inactive)
REMARK    1  A    between atoms: C3_4  and  C4_5 
REMARK    2  A    between atoms: C4_5  and  N2_6 
REMARK       I    between atoms: N2_6  and  C5_8 
REMARK       I    between atoms: C5_8  and  N3_10 
REMARK       I    between atoms: N3_10  and  C6_12 
REMARK       I    between atoms: C6_12  and  N5_16 
REMARK       I    between atoms: N5_16  and  C7_18 
REMARK       I    between atoms: C7_18  and  N6_20 
REMARK    3  A    between atoms: N6_20  and  N7_22 
ROOT
HETATM    1  N2  UNL     1      23.181   7.666  -5.694  1.00  0.00    -0.337 N 
ATOM      2  H2  UNL     1      23.580   6.859  -6.172  1.00  0.00     0.164 HD
HETATM    3  C5  UNL     1      22.505   7.485  -4.472  1.00  0.00     0.334 C 
HETATM    4  O1  UNL     1      21.908   8.309  -3.793  1.00  0.00    -0.246 OA
HETATM    5  N3  UNL     1      22.558   6.060  -3.952  1.00  0.00    -0.141 N 
ATOM      6  H3  UNL     1      23.024   5.294  -4.438  1.00  0.00     0.189 HD
HETATM    7  C6  UNL     1      21.916   5.922  -2.769  1.00  0.00     0.683 C 
HETATM    8  N4  UNL     1      21.357   5.794  -1.738  1.00  0.00    -0.234 N 
ATOM      9  H41 UNL     1      20.873   5.691  -0.847  1.00  0.00     0.174 HD
ATOM     10  H42 UNL     1      21.120   6.785  -1.795  1.00  0.00     0.174 HD
HETATM   11  N5  UNL     1      22.321   4.226  -2.673  1.00  0.00    -0.140 N 
ATOM     12  H5  UNL     1      22.110   3.718  -1.815  1.00  0.00     0.189 HD
HETATM   13  C7  UNL     1      22.873   3.599  -3.638  1.00  0.00     0.352 C 
HETATM   14  O2  UNL     1      23.218   3.846  -4.807  1.00  0.00    -0.245 OA
HETATM   15  N6  UNL     1      23.218   2.153  -3.321  1.00  0.00    -0.258 N 
ATOM     16  H6  UNL     1      23.104   1.752  -2.390  1.00  0.00     0.191 HD
ENDROOT
BRANCH   1  17
HETATM   17  C4  UNL     1      23.316   8.959  -6.274  1.00  0.00     0.184 C 
BRANCH  17  18
HETATM   18  C3  UNL     1      23.213   9.101  -7.722  1.00  0.00     0.062 A 
HETATM   19  C2  UNL     1      22.284   8.446  -8.489  1.00  0.00     0.139 A 
HETATM   20  N1  UNL     1      22.492   8.883  -9.751  1.00  0.00    -0.291 N 
HETATM   21  C1  UNL     1      21.699   8.438 -10.917  1.00  0.00     0.178 C 
HETATM   22  N9  UNL     1      23.481   9.739  -9.749  1.00  0.00    -0.241 N 
HETATM   23  N8  UNL     1      23.939   9.890  -8.511  1.00  0.00    -0.287 N 
ATOM     24  H9  UNL     1      23.845  10.218 -10.572  1.00  0.00     0.208 HD
ATOM     25  H8  UNL     1      24.705  10.497  -8.219  1.00  0.00     0.188 HD
ENDBRANCH  17  18
ENDBRANCH   1  17
BRANCH  15  26
HETATM   26  N7  UNL     1      23.691   1.435  -4.377  1.00  0.00    -0.341 N 
ATOM     27  H72 UNL     1      24.683   1.424  -4.617  1.00  0.00     0.177 HD
ATOM     28  H71 UNL     1      22.981   0.918  -4.896  1.00  0.00     0.177 HD
ENDBRANCH  15  26
TORSDOF 3
ENDMDL
MODEL 2
REMARK VINA RESULT: -7.944597033      1.911      6.960
REMARK  3 active torsions:
REMARK  status: ('A' for Active; 'I' for Inactive)
REMARK    1  A    between atoms: C3_4  and  C4_5 
REMARK    2  A    between atoms: C4_5  and  N2_6 
REMARK       I    between atoms: N2_6  and  C5_8 
REMARK       I    between atoms: C5_8  and  N3_10 
REMARK       I    between atoms: N3_10  and  C6_12 
REMARK       I    between atoms: C6_12  and  N5_16 
REMARK       I    between atoms: N5_16  and  C7_18 
REMARK       I    between atoms: C7_18  and  N6_20 
REMARK    3  A    between atoms: N6_20  and  N7_22 
ROOT
HETATM    1  N2  UNL     1      22.189   6.095  -5.088  1.00  0.00    -0.337 N 
ATOM      2  H2  UNL     1      21.831   5.600  -5.905  1.00  0.00     0.164 HD
HETATM    3  C5  UNL     1      22.551   7.452  -5.204  1.00  0.00     0.334 C 
HETATM    4  O1  UNL     1      23.056   8.188  -4.368  1.00  0.00    -0.246 OA
HETATM    5  N3  UNL     1      22.244   8.050  -6.565  1.00  0.00    -0.141 N 
ATOM      6  H3  UNL     1      21.828   7.527  -7.336  1.00  0.00     0.189 HD
HETATM    7  C6  UNL     1      22.587   9.357  -6.638  1.00  0.00     0.683 C 
HETATM    8  N4  UNL     1      22.884  10.496  -6.711  1.00  0.00    -0.234 N 
ATOM      9  H41 UNL     1      23.142  11.481  -6.766  1.00  0.00     0.174 HD
ATOM     10  H42 UNL     1      23.222  10.422  -5.751  1.00  0.00     0.174 HD
HETATM   11  N5  UNL     1      22.009   9.482  -8.282  1.00  0.00    -0.140 N 
ATOM     12  H5  UNL     1      21.971  10.402  -8.721  1.00  0.00     0.189 HD
HETATM   13  C7  UNL     1      21.631   8.465  -8.954  1.00  0.00     0.352 C 
HETATM   14  O2  UNL     1      21.584   7.233  -8.793  1.00  0.00    -0.245 OA
HETATM   15  N6  UNL     1      21.085   8.800 -10.332  1.00  0.00    -0.258 N 
ATOM     16  H6  UNL     1      20.947   9.760 -10.650  1.00  0.00     0.191 HD
ENDROOT
BRANCH   1  17
HETATM   17  C4  UNL     1      22.314   5.405  -3.851  1.00  0.00     0.184 C 
BRANCH  17  18
HETATM   18  C3  UNL     1      22.742   4.011  -3.856  1.00  0.00     0.062 A 
HETATM   19  C2  UNL     1      23.268   3.378  -4.952  1.00  0.00     0.139 A 
HETATM   20  N1  UNL     1      23.575   2.131  -4.531  1.00  0.00    -0.291 N 
HETATM   21  C1  UNL     1      24.181   1.096  -5.396  1.00  0.00     0.178 C 
HETATM   22  N9  UNL     1      23.252   2.015  -3.269  1.00  0.00    -0.241 N 
HETATM   23  N8  UNL     1      22.739   3.160  -2.832  1.00  0.00    -0.287 N 
ATOM     24  H9  UNL     1      23.376   1.174  -2.706  1.00  0.00     0.208 HD
ATOM     25  H8  UNL     1      22.405   3.352  -1.887  1.00  0.00     0.188 HD
ENDBRANCH  17  18
ENDBRANCH   1  17
BRANCH  15  26
HETATM   26  N7  UNL     1      20.795   7.720 -11.109  1.00  0.00    -0.341 N 
ATOM     27  H72 UNL     1      21.453   6.948 -11.222  1.00  0.00     0.177 HD
ATOM     28  H71 UNL     1      19.880   7.750 -11.559  1.00  0.00     0.177 HD
ENDBRANCH  15  26
TORSDOF 3
ENDMDL
MODEL 3
REMARK VINA RESULT: -7.936892890      0.858      1.016
REMARK  3 active torsions:
REMARK  status: ('A' for Active; 'I' for Inactive)
REMARK    1  A    between atoms: C3_4  and  C4_5 
REMARK    2  A    between atoms: C4_5  and  N2_6 
REMARK       I    between atoms: N2_6  and  C5_8 
REMARK       I    between atoms: C5_8  and  N3_10 
REMARK       I    between atoms: N3_10  and  C6_12 
REMARK       I    between atoms: C6_12  and  N5_16 
REMARK       I    between atoms: N5_16  and  C7_18 
REMARK       I    between atoms: C7_18  and  N6_20 
REMARK    3  A    between atoms: N6_20  and  N7_22 
ROOT
HETATM    1  N2  UNL     1      23.040   7.647  -5.604  1.00  0.00    -0.337 N 
ATOM      2  H2  UNL     1      23.425   6.837  -6.091  1.00  0.00     0.164 HD
HETATM    3  C5  UNL     1      22.415   7.472  -4.353  1.00  0.00     0.334 C 
HETATM    4  O1  UNL     1      21.841   8.297  -3.657  1.00  0.00    -0.246 OA
HETATM    5  N3  UNL     1      22.498   6.050  -3.825  1.00  0.00    -0.141 N 
ATOM      6  H3  UNL     1      22.949   5.283  -4.324  1.00  0.00     0.189 HD
HETATM    7  C6  UNL     1      21.905   5.919  -2.616  1.00  0.00     0.683 C 
HETATM    8  N4  UNL     1      21.390   5.795  -1.563  1.00  0.00    -0.234 N 
ATOM      9  H41 UNL     1      20.943   5.696  -0.652  1.00  0.00     0.174 HD
ATOM     10  H42 UNL     1      21.144   6.784  -1.617  1.00  0.00     0.174 HD
HETATM   11  N5  UNL     1      22.325   4.226  -2.524  1.00  0.00    -0.140 N 
ATOM     12  H5  UNL     1      22.151   3.723  -1.653  1.00  0.00     0.189 HD
HETATM   13  C7  UNL     1      22.841   3.594  -3.505  1.00  0.00     0.352 C 
HETATM   14  O2  UNL     1      23.136   3.833  -4.688  1.00  0.00    -0.245 OA
HETATM   15  N6  UNL     1      23.207   2.153  -3.191  1.00  0.00    -0.258 N 
ATOM     16  H6  UNL     1      23.134   1.759  -2.253  1.00  0.00     0.191 HD
ENDROOT
BRANCH   1  17
HETATM   17  C4  UNL     1      23.143   8.935  -6.199  1.00  0.00     0.184 C 
BRANCH  17  18
HETATM   18  C3  UNL     1      23.092   9.052  -7.651  1.00  0.00     0.062 A 
HETATM   19  C2  UNL     1      24.158   8.797  -8.475  1.00  0.00     0.139 A 
HETATM   20  N1  UNL     1      23.688   8.972  -9.731  1.00  0.00    -0.291 N 
HETATM   21  C1  UNL     1      24.508   8.791 -10.948  1.00  0.00     0.178 C 
HETATM   22  N9  UNL     1      22.428   9.313  -9.670  1.00  0.00    -0.241 N 
HETATM   23  N8  UNL     1      22.039   9.367  -8.401  1.00  0.00    -0.287 N 
ATOM     24  H9  UNL     1      21.833   9.508 -10.476  1.00  0.00     0.208 HD
ATOM     25  H8  UNL     1      21.106   9.606  -8.064  1.00  0.00     0.188 HD
ENDBRANCH  17  18
ENDBRANCH   1  17
BRANCH  15  26
HETATM   26  N7  UNL     1      23.642   1.429  -4.259  1.00  0.00    -0.341 N 
ATOM     27  H72 UNL     1      23.091   1.350  -5.114  1.00  0.00     0.177 HD
ATOM     28  H71 UNL     1      24.550   0.982  -4.132  1.00  0.00     0.177 HD
ENDBRANCH  15  26
TORSDOF 3
ENDMDL
MODEL 4
REMARK VINA RESULT: -7.782673984      2.086      2.563
REMARK  3 active torsions:
REMARK  status: ('A' for Active; 'I' for Inactive)
REMARK    1  A    between atoms: C3_4  and  C4_5 
REMARK    2  A    between atoms: C4_5  and  N2_6 
REMARK       I    between atoms: N2_6  and  C5_8 
REMARK       I    between atoms: C5_8  and  N3_10 
REMARK       I    between atoms: N3_10  and  C6_12 
REMARK       I    between atoms: C6_12  and  N5_16 
REMARK       I    between atoms: N5_16  and  C7_18 
REMARK       I    between atoms: C7_18  and  N6_20 
REMARK    3  A    between atoms: N6_20  and  N7_22 
ROOT
HETATM    1  N2  UNL     1      22.428   6.427  -4.800  1.00  0.00    -0.337 N 
ATOM      2  H2  UNL     1      22.806   5.954  -5.621  1.00  0.00     0.164 HD
HETATM    3  C5  UNL     1      22.248   5.703  -3.605  1.00  0.00     0.334 C 
HETATM    4  O1  UNL     1      21.752   6.071  -2.549  1.00  0.00    -0.246 OA
HETATM    5  N3  UNL     1      22.767   4.277  -3.672  1.00  0.00    -0.141 N 
ATOM      6  H3  UNL     1      23.195   3.866  -4.501  1.00  0.00     0.189 HD
HETATM    7  C6  UNL     1      22.595   3.616  -2.504  1.00  0.00     0.683 C 
HETATM    8  N4  UNL     1      22.449   3.031  -1.490  1.00  0.00    -0.234 N 
ATOM      9  H41 UNL     1      22.320   2.533  -0.611  1.00  0.00     0.174 HD
ATOM     10  H42 UNL     1      22.005   3.873  -1.122  1.00  0.00     0.174 HD
HETATM   11  N5  UNL     1      23.355   2.175  -3.136  1.00  0.00    -0.140 N 
ATOM     12  H5  UNL     1      23.550   1.403  -2.500  1.00  0.00     0.189 HD
HETATM   13  C7  UNL     1      23.674   2.053  -4.365  1.00  0.00     0.352 C 
HETATM   14  O2  UNL     1      23.553   2.718  -5.409  1.00  0.00    -0.245 OA
HETATM   15  N6  UNL     1      24.398   0.758  -4.692  1.00  0.00    -0.258 N 
ATOM     16  H6  UNL     1      24.685   0.092  -3.975  1.00  0.00     0.191 HD
ENDROOT
BRANCH   1  17
HETATM   17  C4  UNL     1      22.090   7.806  -4.881  1.00  0.00     0.184 C 
BRANCH  17  18
HETATM   18  C3  UNL     1      22.781   8.650  -5.849  1.00  0.00     0.062 A 
HETATM   19  C2  UNL     1      24.089   8.474  -6.218  1.00  0.00     0.139 A 
HETATM   20  N1  UNL     1      24.325   9.419  -7.157  1.00  0.00    -0.291 N 
HETATM   21  C1  UNL     1      25.623   9.591  -7.843  1.00  0.00     0.178 C 
HETATM   22  N9  UNL     1      23.236  10.119  -7.339  1.00  0.00    -0.241 N 
HETATM   23  N8  UNL     1      22.272   9.664  -6.546  1.00  0.00    -0.287 N 
ATOM     24  H9  UNL     1      23.141  10.898  -7.991  1.00  0.00     0.208 HD
ATOM     25  H8  UNL     1      21.320  10.024  -6.483  1.00  0.00     0.188 HD
ENDBRANCH  17  18
ENDBRANCH   1  17
BRANCH  15  26
HETATM   26  N7  UNL     1      24.635   0.555  -6.018  1.00  0.00    -0.341 N 
ATOM     27  H72 UNL     1      23.875   0.392  -6.680  1.00  0.00     0.177 HD
ATOM     28  H71 UNL     1      25.619   0.579  -6.286  1.00  0.00     0.177 HD
ENDBRANCH  15  26
TORSDOF 3
ENDMDL
MODEL 5
REMARK VINA RESULT: -7.702281563      1.895      7.114
REMARK  3 active torsions:
REMARK  status: ('A' for Active; 'I' for Inactive)
REMARK    1  A    between atoms: C3_4  and  C4_5 
REMARK    2  A    between atoms: C4_5  and  N2_6 
REMARK       I    between atoms: N2_6  and  C5_8 
REMARK       I    between atoms: C5_8  and  N3_10 
REMARK       I    between atoms: N3_10  and  C6_12 
REMARK       I    between atoms: C6_12  and  N5_16 
REMARK       I    between atoms: N5_16  and  C7_18 
REMARK       I    between atoms: C7_18  and  N6_20 
REMARK    3  A    between atoms: N6_20  and  N7_22 
ROOT
HETATM    1  N2  UNL     1      22.175   7.692  -5.426  1.00  0.00    -0.337 N 
ATOM      2  H2  UNL     1      21.468   7.232  -5.999  1.00  0.00     0.164 HD
HETATM    3  C5  UNL     1      23.123   8.535  -6.040  1.00  0.00     0.334 C 
HETATM    4  O1  UNL     1      24.077   9.113  -5.539  1.00  0.00    -0.246 OA
HETATM    5  N3  UNL     1      22.885   8.739  -7.525  1.00  0.00    -0.141 N 
ATOM      6  H3  UNL     1      22.123   8.304  -8.045  1.00  0.00     0.189 HD
HETATM    7  C6  UNL     1      23.800   9.567  -8.081  1.00  0.00     0.683 C 
HETATM    8  N4  UNL     1      24.594  10.287  -8.573  1.00  0.00    -0.234 N 
ATOM      9  H41 UNL     1      25.284  10.910  -8.991  1.00  0.00     0.174 HD
ATOM     10  H42 UNL     1      25.036  10.353  -7.656  1.00  0.00     0.174 HD
HETATM   11  N5  UNL     1      23.044   9.453  -9.651  1.00  0.00    -0.140 N 
ATOM     12  H5  UNL     1      23.374  10.060 -10.401  1.00  0.00     0.189 HD
HETATM   13  C7  UNL     1      22.093   8.637  -9.895  1.00  0.00     0.352 C 
HETATM   14  O2  UNL     1      21.483   7.741  -9.287  1.00  0.00    -0.245 OA
HETATM   15  N6  UNL     1      21.520   8.755 -11.298  1.00  0.00    -0.258 N 
ATOM     16  H6  UNL     1      21.808   9.485 -11.950  1.00  0.00     0.191 HD
ENDROOT
BRANCH   1  17
HETATM   17  C4  UNL     1      22.190   7.472  -4.021  1.00  0.00     0.184 C 
BRANCH  17  18
HETATM   18  C3  UNL     1      22.304   6.108  -3.518  1.00  0.00     0.062 A 
HETATM   19  C2  UNL     1      22.778   5.058  -4.261  1.00  0.00     0.139 A 
HETATM   20  N1  UNL     1      22.768   3.996  -3.424  1.00  0.00    -0.291 N 
HETATM   21  C1  UNL     1      23.211   2.640  -3.811  1.00  0.00     0.178 C 
HETATM   22  N9  UNL     1      22.316   4.376  -2.258  1.00  0.00    -0.241 N 
HETATM   23  N8  UNL     1      22.026   5.672  -2.291  1.00  0.00    -0.287 N 
ATOM     24  H9  UNL     1      22.204   3.770  -1.445  1.00  0.00     0.208 HD
ATOM     25  H8  UNL     1      21.658   6.230  -1.520  1.00  0.00     0.188 HD
ENDBRANCH  17  18
ENDBRANCH   1  17
BRANCH  15  26
HETATM   26  N7  UNL     1      20.592   7.811 -11.616  1.00  0.00    -0.341 N 
ATOM     27  H72 UNL     1      20.602   6.883 -11.191  1.00  0.00     0.177 HD
ATOM     28  H71 UNL     1      19.898   8.107 -12.303  1.00  0.00     0.177 HD
ENDBRANCH  15  26
TORSDOF 3
ENDMDL
