MODEL 1
REMARK VINA RESULT: -6.535809612      0.000      0.000
REMARK  1 active torsions:
REMARK  status: ('A' for Active; 'I' for Inactive)
REMARK    1  A    between atoms: C4_4  and  C5_5 
ROOT
HETATM    1  C5  UNL     1      93.142  16.666 131.824  1.00  0.00     0.077 C 
HETATM    2  N1  UNL     1      93.194  17.581 130.916  1.00  0.00    -0.378 N 
ATOM      3  H1  UNL     1      93.410  17.400 129.935  1.00  0.00     0.160 HD
HETATM    4  C6  UNL     1      92.911  18.882 131.449  1.00  0.00     0.140 C 
HETATM    5  C7  UNL     1      93.118  18.695 132.942  1.00  0.00     0.140 C 
HETATM    6  N2  UNL     1      92.817  17.261 133.072  1.00  0.00    -0.378 N 
ATOM      7  H2  UNL     1      92.447  16.788 133.896  1.00  0.00     0.160 HD
ENDROOT
BRANCH   1   8
HETATM    8  C4  UNL     1      93.397  15.223 131.539  1.00  0.00     0.053 C 
HETATM    9  C3  UNL     1      93.085  14.433 132.792  1.00  0.00     0.012 C 
HETATM   10  C2  UNL     1      93.240  12.959 132.583  1.00  0.00     0.001 C 
HETATM   11  C1  UNL     1      92.396  12.467 131.424  1.00  0.00     0.000 C 
HETATM   12  C9  UNL     1      92.818  13.267 130.208  1.00  0.00     0.001 C 
HETATM   13  C8  UNL     1      92.425  14.711 130.470  1.00  0.00     0.012 C 
ENDBRANCH   1   8
TORSDOF 1
ENDMDL
MODEL 2
REMARK VINA RESULT: -6.524230837      1.561      2.012
REMARK  1 active torsions:
REMARK  status: ('A' for Active; 'I' for Inactive)
REMARK    1  A    between atoms: C4_4  and  C5_5 
ROOT
HETATM    1  C5  UNL     1      92.800  15.713 133.521  1.00  0.00     0.077 C 
HETATM    2  N1  UNL     1      92.865  16.983 133.305  1.00  0.00    -0.378 N 
ATOM      3  H1  UNL     1      93.191  17.398 132.431  1.00  0.00     0.160 HD
HETATM    4  C6  UNL     1      92.426  17.742 134.439  1.00  0.00     0.140 C 
HETATM    5  C7  UNL     1      92.500  16.738 135.576  1.00  0.00     0.140 C 
HETATM    6  N2  UNL     1      92.306  15.484 134.832  1.00  0.00    -0.378 N 
ATOM      7  H2  UNL     1      91.897  14.620 135.189  1.00  0.00     0.160 HD
ENDROOT
BRANCH   1   8
HETATM    8  C4  UNL     1      93.199  14.694 132.505  1.00  0.00     0.053 C 
HETATM    9  C3  UNL     1      92.505  13.392 132.845  1.00  0.00     0.012 C 
HETATM   10  C2  UNL     1      92.786  12.323 131.836  1.00  0.00     0.001 C 
HETATM   11  C1  UNL     1      92.418  12.767 130.434  1.00  0.00     0.000 C 
HETATM   12  C9  UNL     1      93.201  14.036 130.159  1.00  0.00     0.001 C 
HETATM   13  C8  UNL     1      92.681  15.093 131.118  1.00  0.00     0.012 C 
ENDBRANCH   1   8
TORSDOF 1
ENDMDL
MODEL 3
REMARK VINA RESULT: -6.466606952      2.439      3.738
REMARK  1 active torsions:
REMARK  status: ('A' for Active; 'I' for Inactive)
REMARK    1  A    between atoms: C4_4  and  C5_5 
ROOT
HETATM    1  C5  UNL     1      92.787  14.009 134.218  1.00  0.00     0.077 C 
HETATM    2  N1  UNL     1      92.589  13.126 135.137  1.00  0.00    -0.378 N 
ATOM      3  H1  UNL     1      92.709  12.122 135.000  1.00  0.00     0.160 HD
HETATM    4  C6  UNL     1      92.181  13.723 136.376  1.00  0.00     0.140 C 
HETATM    5  C7  UNL     1      91.714  15.105 135.954  1.00  0.00     0.140 C 
HETATM    6  N2  UNL     1      92.531  15.302 134.747  1.00  0.00    -0.378 N 
ATOM      7  H2  UNL     1      92.850  16.192 134.364  1.00  0.00     0.160 HD
ENDROOT
BRANCH   1   8
HETATM    8  C4  UNL     1      93.218  13.658 132.833  1.00  0.00     0.053 C 
HETATM    9  C3  UNL     1      92.201  12.697 132.253  1.00  0.00     0.012 C 
HETATM   10  C2  UNL     1      92.509  12.340 130.832  1.00  0.00     0.001 C 
HETATM   11  C1  UNL     1      92.627  13.574 129.960  1.00  0.00     0.000 C 
HETATM   12  C9  UNL     1      93.703  14.444 130.578  1.00  0.00     0.001 C 
HETATM   13  C8  UNL     1      93.182  14.897 131.931  1.00  0.00     0.012 C 
ENDBRANCH   1   8
TORSDOF 1
ENDMDL
MODEL 4
REMARK VINA RESULT: -6.449515511      2.483      3.805
REMARK  1 active torsions:
REMARK  status: ('A' for Active; 'I' for Inactive)
REMARK    1  A    between atoms: C4_4  and  C5_5 
ROOT
HETATM    1  C5  UNL     1      92.608  13.897 134.339  1.00  0.00     0.077 C 
HETATM    2  N1  UNL     1      92.438  15.089 134.803  1.00  0.00    -0.378 N 
ATOM      3  H1  UNL     1      92.633  15.940 134.274  1.00  0.00     0.160 HD
HETATM    4  C6  UNL     1      91.943  15.075 136.148  1.00  0.00     0.140 C 
HETATM    5  C7  UNL     1      92.260  13.666 136.617  1.00  0.00     0.140 C 
HETATM    6  N2  UNL     1      92.242  12.951 135.333  1.00  0.00    -0.378 N 
ATOM      7  H2  UNL     1      92.012  11.968 135.185  1.00  0.00     0.160 HD
ENDROOT
BRANCH   1   8
HETATM    8  C4  UNL     1      93.114  13.625 132.962  1.00  0.00     0.053 C 
HETATM    9  C3  UNL     1      92.145  12.682 132.280  1.00  0.00     0.012 C 
HETATM   10  C2  UNL     1      92.530  12.406 130.861  1.00  0.00     0.001 C 
HETATM   11  C1  UNL     1      92.672  13.687 130.061  1.00  0.00     0.000 C 
HETATM   12  C9  UNL     1      93.700  14.537 130.780  1.00  0.00     0.001 C 
HETATM   13  C8  UNL     1      93.103  14.911 132.126  1.00  0.00     0.012 C 
ENDBRANCH   1   8
TORSDOF 1
ENDMDL
MODEL 5
REMARK VINA RESULT: -6.410205794      2.168      3.802
REMARK  1 active torsions:
REMARK  status: ('A' for Active; 'I' for Inactive)
REMARK    1  A    between atoms: C4_4  and  C5_5 
ROOT
HETATM    1  C5  UNL     1      92.855  14.398 133.715  1.00  0.00     0.077 C 
HETATM    2  N1  UNL     1      92.833  13.194 134.179  1.00  0.00    -0.378 N 
ATOM      3  H1  UNL     1      93.099  12.369 133.641  1.00  0.00     0.160 HD
HETATM    4  C6  UNL     1      92.390  13.154 135.543  1.00  0.00     0.140 C 
HETATM    5  C7  UNL     1      91.699  14.496 135.720  1.00  0.00     0.140 C 
HETATM    6  N2  UNL     1      92.425  15.298 134.725  1.00  0.00    -0.378 N 
ATOM      7  H2  UNL     1      92.588  16.305 134.755  1.00  0.00     0.160 HD
ENDROOT
BRANCH   1   8
HETATM    8  C4  UNL     1      93.277  14.723 132.320  1.00  0.00     0.053 C 
HETATM    9  C3  UNL     1      92.721  13.656 131.400  1.00  0.00     0.012 C 
HETATM   10  C2  UNL     1      93.031  13.935 129.962  1.00  0.00     0.001 C 
HETATM   11  C1  UNL     1      92.539  15.306 129.541  1.00  0.00     0.000 C 
HETATM   12  C9  UNL     1      93.190  16.308 130.472  1.00  0.00     0.001 C 
HETATM   13  C8  UNL     1      92.640  16.041 131.863  1.00  0.00     0.012 C 
ENDBRANCH   1   8
TORSDOF 1
ENDMDL
