MODEL 1
REMARK VINA RESULT: -5.563490276      0.000      0.000
REMARK  2 active torsions:
REMARK  status: ('A' for Active; 'I' for Inactive)
REMARK    1  A    between atoms: C7_10  and  C8_11 
REMARK    2  A    between atoms: C8_11  and  N2_12 
ROOT
HETATM    1  N1  UNL     1      92.347  15.888 134.438  1.00  0.00    -0.384 N 
ATOM      2  H11 UNL     1      91.586  16.513 134.171  1.00  0.00     0.157 HD
ATOM      3  H12 UNL     1      92.733  16.247 135.311  1.00  0.00     0.157 HD
HETATM    4  C1  UNL     1      92.719  14.851 133.769  1.00  0.00     0.112 C 
HETATM    5  C2  UNL     1      93.826  13.941 134.158  1.00  0.00     0.086 C 
HETATM    6  C3  UNL     1      94.341  13.502 132.802  1.00  0.00     0.047 C 
HETATM    7  C4  UNL     1      93.080  13.426 132.002  1.00  0.00     0.074 C 
HETATM    8  C5  UNL     1      92.519  12.060 131.763  1.00  0.00     0.039 C 
HETATM    9  C6  UNL     1      92.216  12.483 130.335  1.00  0.00     0.012 C 
HETATM   10  C7  UNL     1      93.251  13.577 130.506  1.00  0.00     0.046 C 
HETATM   11  O1  UNL     1      92.195  14.364 132.583  1.00  0.00    -0.328 OA
ENDROOT
BRANCH  10  12
HETATM   12  C8  UNL     1      92.818  14.919 129.962  1.00  0.00     0.237 C 
BRANCH  12  13
HETATM   13  N2  UNL     1      93.736  15.317 128.929  1.00  0.00    -0.079 N 
ATOM     14  H23 UNL     1      94.446  15.967 129.267  1.00  0.00     0.274 HD
ATOM     15  H22 UNL     1      94.360  14.560 128.648  1.00  0.00     0.274 HD
ATOM     16  H21 UNL     1      93.205  15.695 128.145  1.00  0.00     0.274 HD
ENDBRANCH  12  13
ENDBRANCH  10  12
TORSDOF 2
ENDMDL
MODEL 2
REMARK VINA RESULT: -5.551598132      1.741      2.126
REMARK  2 active torsions:
REMARK  status: ('A' for Active; 'I' for Inactive)
REMARK    1  A    between atoms: C7_10  and  C8_11 
REMARK    2  A    between atoms: C8_11  and  N2_12 
ROOT
HETATM    1  N1  UNL     1      91.875  13.568 134.745  1.00  0.00    -0.384 N 
ATOM      2  H11 UNL     1      90.976  14.009 134.941  1.00  0.00     0.157 HD
ATOM      3  H12 UNL     1      92.169  13.098 135.601  1.00  0.00     0.157 HD
HETATM    4  C1  UNL     1      92.490  13.619 133.613  1.00  0.00     0.112 C 
HETATM    5  C2  UNL     1      93.797  12.976 133.326  1.00  0.00     0.086 C 
HETATM    6  C3  UNL     1      94.388  13.942 132.317  1.00  0.00     0.047 C 
HETATM    7  C4  UNL     1      93.177  14.368 131.551  1.00  0.00     0.074 C 
HETATM    8  C5  UNL     1      92.979  13.743 130.207  1.00  0.00     0.039 C 
HETATM    9  C6  UNL     1      92.559  15.107 129.684  1.00  0.00     0.012 C 
HETATM   10  C7  UNL     1      93.284  15.715 130.868  1.00  0.00     0.046 C 
HETATM   11  O1  UNL     1      92.090  14.258 132.450  1.00  0.00    -0.328 OA
ENDROOT
BRANCH  10  12
HETATM   12  C8  UNL     1      92.517  16.822 131.552  1.00  0.00     0.237 C 
BRANCH  12  13
HETATM   13  N2  UNL     1      93.430  17.885 131.878  1.00  0.00    -0.079 N 
ATOM     14  H23 UNL     1      93.995  17.676 132.701  1.00  0.00     0.274 HD
ATOM     15  H22 UNL     1      94.190  17.967 131.203  1.00  0.00     0.274 HD
ATOM     16  H21 UNL     1      92.902  18.752 131.978  1.00  0.00     0.274 HD
ENDBRANCH  12  13
ENDBRANCH  10  12
TORSDOF 2
ENDMDL
MODEL 3
REMARK VINA RESULT: -4.948473758      1.965      4.393
REMARK  2 active torsions:
REMARK  status: ('A' for Active; 'I' for Inactive)
REMARK    1  A    between atoms: C7_10  and  C8_11 
REMARK    2  A    between atoms: C8_11  and  N2_12 
ROOT
HETATM    1  N1  UNL     1      92.193  12.157 130.783  1.00  0.00    -0.384 N 
ATOM      2  H11 UNL     1      91.286  11.708 130.910  1.00  0.00     0.157 HD
ATOM      3  H12 UNL     1      92.650  11.689 130.001  1.00  0.00     0.157 HD
HETATM    4  C1  UNL     1      92.639  13.130 131.501  1.00  0.00     0.112 C 
HETATM    5  C2  UNL     1      93.959  13.785 131.316  1.00  0.00     0.086 C 
HETATM    6  C3  UNL     1      94.298  14.177 132.741  1.00  0.00     0.047 C 
HETATM    7  C4  UNL     1      92.955  14.537 133.291  1.00  0.00     0.074 C 
HETATM    8  C5  UNL     1      92.647  15.996 133.409  1.00  0.00     0.039 C 
HETATM    9  C6  UNL     1      92.012  15.708 134.759  1.00  0.00     0.012 C 
HETATM   10  C7  UNL     1      92.818  14.425 134.794  1.00  0.00     0.046 C 
HETATM   11  O1  UNL     1      92.018  13.766 132.564  1.00  0.00    -0.328 OA
ENDROOT
BRANCH  10  12
HETATM   12  C8  UNL     1      92.032  13.221 135.260  1.00  0.00     0.237 C 
BRANCH  12  13
HETATM   13  N2  UNL     1      92.507  12.833 136.561  1.00  0.00    -0.079 N 
ATOM     14  H23 UNL     1      92.000  13.297 137.315  1.00  0.00     0.274 HD
ATOM     15  H22 UNL     1      92.260  11.872 136.795  1.00  0.00     0.274 HD
ATOM     16  H21 UNL     1      93.512  13.000 136.607  1.00  0.00     0.274 HD
ENDBRANCH  12  13
ENDBRANCH  10  12
TORSDOF 2
ENDMDL
MODEL 4
REMARK VINA RESULT: -4.899923024      2.086      3.841
REMARK  2 active torsions:
REMARK  status: ('A' for Active; 'I' for Inactive)
REMARK    1  A    between atoms: C7_10  and  C8_11 
REMARK    2  A    between atoms: C8_11  and  N2_12 
ROOT
HETATM    1  N1  UNL     1      93.055  18.290 131.612  1.00  0.00    -0.384 N 
ATOM      2  H11 UNL     1      93.278  18.871 132.421  1.00  0.00     0.157 HD
ATOM      3  H12 UNL     1      92.747  18.918 130.870  1.00  0.00     0.157 HD
HETATM    4  C1  UNL     1      93.155  17.006 131.578  1.00  0.00     0.112 C 
HETATM    5  C2  UNL     1      92.832  16.160 130.401  1.00  0.00     0.086 C 
HETATM    6  C3  UNL     1      92.339  14.893 131.073  1.00  0.00     0.047 C 
HETATM    7  C4  UNL     1      93.223  14.817 132.276  1.00  0.00     0.074 C 
HETATM    8  C5  UNL     1      94.357  13.842 132.216  1.00  0.00     0.039 C 
HETATM    9  C6  UNL     1      94.050  13.465 133.656  1.00  0.00     0.012 C 
HETATM   10  C7  UNL     1      92.662  14.034 133.444  1.00  0.00     0.046 C 
HETATM   11  O1  UNL     1      93.572  16.152 132.586  1.00  0.00    -0.328 OA
ENDROOT
BRANCH  10  12
HETATM   12  C8  UNL     1      92.170  14.890 134.588  1.00  0.00     0.237 C 
BRANCH  12  13
HETATM   13  N2  UNL     1      91.235  14.126 135.370  1.00  0.00    -0.079 N 
ATOM     14  H23 UNL     1      90.600  13.576 134.791  1.00  0.00     0.274 HD
ATOM     15  H22 UNL     1      91.680  13.352 135.863  1.00  0.00     0.274 HD
ATOM     16  H21 UNL     1      90.740  14.757 135.999  1.00  0.00     0.274 HD
ENDBRANCH  12  13
ENDBRANCH  10  12
TORSDOF 2
ENDMDL
MODEL 5
REMARK VINA RESULT: -4.677636891      0.949      3.819
REMARK  2 active torsions:
REMARK  status: ('A' for Active; 'I' for Inactive)
REMARK    1  A    between atoms: C7_10  and  C8_11 
REMARK    2  A    between atoms: C8_11  and  N2_12 
ROOT
HETATM    1  N1  UNL     1      93.542  15.177 128.961  1.00  0.00    -0.384 N 
ATOM      2  H11 UNL     1      94.038  16.069 128.967  1.00  0.00     0.157 HD
ATOM      3  H12 UNL     1      93.214  15.025 128.008  1.00  0.00     0.157 HD
HETATM    4  C1  UNL     1      93.383  14.417 129.990  1.00  0.00     0.112 C 
HETATM    5  C2  UNL     1      92.662  13.119 129.983  1.00  0.00     0.086 C 
HETATM    6  C3  UNL     1      92.085  13.091 131.385  1.00  0.00     0.047 C 
HETATM    7  C4  UNL     1      93.170  13.746 132.179  1.00  0.00     0.074 C 
HETATM    8  C5  UNL     1      94.055  12.844 132.979  1.00  0.00     0.039 C 
HETATM    9  C6  UNL     1      93.990  13.857 134.110  1.00  0.00     0.012 C 
HETATM   10  C7  UNL     1      92.725  14.395 133.472  1.00  0.00     0.046 C 
HETATM   11  O1  UNL     1      93.828  14.624 131.286  1.00  0.00    -0.328 OA
ENDROOT
BRANCH  10  12
HETATM   12  C8  UNL     1      92.659  15.904 133.421  1.00  0.00     0.237 C 
BRANCH  12  13
HETATM   13  N2  UNL     1      91.852  16.369 134.518  1.00  0.00    -0.079 N 
ATOM     14  H23 UNL     1      91.132  15.698 134.784  1.00  0.00     0.274 HD
ATOM     15  H22 UNL     1      92.364  16.383 135.400  1.00  0.00     0.274 HD
ATOM     16  H21 UNL     1      91.465  17.281 134.277  1.00  0.00     0.274 HD
ENDBRANCH  12  13
ENDBRANCH  10  12
TORSDOF 2
ENDMDL
