MODEL 1
REMARK VINA RESULT: -5.714651151      0.000      0.000
REMARK  2 active torsions:
REMARK  status: ('A' for Active; 'I' for Inactive)
REMARK    1  A    between atoms: C2_2  and  C3_3 
REMARK    2  A    between atoms: C9_12  and  N2_13 
ROOT
HETATM    1  C3  UNL     1      93.090  14.441 132.572  1.00  0.00    -0.010 C 
HETATM    2  C4  UNL     1      94.457  13.755 132.734  1.00  0.00     0.018 C 
HETATM    3  C5  UNL     1      92.325  14.209 133.808  1.00  0.00     0.017 C 
HETATM    4  C6  UNL     1      92.933  13.116 134.701  1.00  0.00     0.012 C 
HETATM    5  C7  UNL     1      92.062  15.367 134.695  1.00  0.00     0.237 C 
HETATM    6  N1  UNL     1      92.765  16.576 134.367  1.00  0.00    -0.073 N 
ATOM      7  H11 UNL     1      93.761  16.533 134.582  1.00  0.00     0.277 HD
ATOM      8  H12 UNL     1      92.534  17.355 134.985  1.00  0.00     0.277 HD
HETATM    9  C8  UNL     1      92.493  16.853 132.970  1.00  0.00     0.265 C 
HETATM   10  C9  UNL     1      93.379  15.873 132.229  1.00  0.00     0.217 C 
ENDROOT
BRANCH  10  11
HETATM   11  N2  UNL     1      93.226  16.176 130.827  1.00  0.00    -0.073 N 
ATOM     12  H23 UNL     1      92.286  15.938 130.508  1.00  0.00     0.274 HD
ATOM     13  H22 UNL     1      93.207  17.185 130.677  1.00  0.00     0.274 HD
ATOM     14  H21 UNL     1      93.929  15.738 130.233  1.00  0.00     0.274 HD
ENDBRANCH  10  11
BRANCH   1  15
HETATM   15  C2  UNL     1      92.487  13.833 131.326  1.00  0.00     0.007 C 
HETATM   16  C1  UNL     1      92.487  12.327 131.332  1.00  0.00     0.006 C 
ENDBRANCH   1  15
TORSDOF 2
ENDMDL
MODEL 2
REMARK VINA RESULT: -5.649514379      1.357      1.798
REMARK  2 active torsions:
REMARK  status: ('A' for Active; 'I' for Inactive)
REMARK    1  A    between atoms: C2_2  and  C3_3 
REMARK    2  A    between atoms: C9_12  and  N2_13 
ROOT
HETATM    1  C3  UNL     1      92.987  14.368 132.441  1.00  0.00    -0.010 C 
HETATM    2  C4  UNL     1      94.394  13.816 132.162  1.00  0.00     0.018 C 
HETATM    3  C5  UNL     1      92.162  13.257 132.942  1.00  0.00     0.017 C 
HETATM    4  C6  UNL     1      92.802  11.878 132.715  1.00  0.00     0.012 C 
HETATM    5  C7  UNL     1      91.738  13.286 134.361  1.00  0.00     0.237 C 
HETATM    6  N1  UNL     1      92.352  14.297 135.176  1.00  0.00    -0.073 N 
ATOM      7  H11 UNL     1      93.331  14.105 135.387  1.00  0.00     0.277 HD
ATOM      8  H12 UNL     1      92.011  14.300 136.137  1.00  0.00     0.277 HD
HETATM    9  C8  UNL     1      92.152  15.562 134.494  1.00  0.00     0.265 C 
HETATM   10  C9  UNL     1      93.170  15.531 133.372  1.00  0.00     0.217 C 
ENDROOT
BRANCH  10  11
HETATM   11  N2  UNL     1      93.087  16.815 132.721  1.00  0.00    -0.073 N 
ATOM     12  H23 UNL     1      92.599  16.735 131.829  1.00  0.00     0.274 HD
ATOM     13  H22 UNL     1      92.439  17.429 133.216  1.00  0.00     0.274 HD
ATOM     14  H21 UNL     1      93.990  17.272 132.597  1.00  0.00     0.274 HD
ENDBRANCH  10  11
BRANCH   1  15
HETATM   15  C2  UNL     1      92.526  14.962 131.128  1.00  0.00     0.007 C 
HETATM   16  C1  UNL     1      93.193  14.348 129.925  1.00  0.00     0.006 C 
ENDBRANCH   1  15
TORSDOF 2
ENDMDL
MODEL 3
REMARK VINA RESULT: -5.580556172      2.088      3.219
REMARK  2 active torsions:
REMARK  status: ('A' for Active; 'I' for Inactive)
REMARK    1  A    between atoms: C2_2  and  C3_3 
REMARK    2  A    between atoms: C9_12  and  N2_13 
ROOT
HETATM    1  C3  UNL     1      92.915  14.631 131.177  1.00  0.00    -0.010 C 
HETATM    2  C4  UNL     1      91.859  15.619 130.656  1.00  0.00     0.018 C 
HETATM    3  C5  UNL     1      93.519  15.217 132.385  1.00  0.00     0.017 C 
HETATM    4  C6  UNL     1      93.196  16.709 132.560  1.00  0.00     0.012 C 
HETATM    5  C7  UNL     1      93.231  14.578 133.690  1.00  0.00     0.237 C 
HETATM    6  N1  UNL     1      92.214  13.564 133.679  1.00  0.00    -0.073 N 
ATOM      7  H11 UNL     1      91.273  13.940 133.563  1.00  0.00     0.277 HD
ATOM      8  H12 UNL     1      92.068  13.130 134.591  1.00  0.00     0.277 HD
HETATM    9  C8  UNL     1      92.581  12.614 132.646  1.00  0.00     0.265 C 
HETATM   10  C9  UNL     1      92.207  13.319 131.358  1.00  0.00     0.217 C 
ENDROOT
BRANCH  10  11
HETATM   11  N2  UNL     1      92.455  12.374 130.298  1.00  0.00    -0.073 N 
ATOM     12  H23 UNL     1      93.407  12.471 129.945  1.00  0.00     0.274 HD
ATOM     13  H22 UNL     1      92.505  11.424 130.667  1.00  0.00     0.274 HD
ATOM     14  H21 UNL     1      91.781  12.427 129.534  1.00  0.00     0.274 HD
ENDBRANCH  10  11
BRANCH   1  15
HETATM   15  C2  UNL     1      93.870  14.425 130.023  1.00  0.00     0.007 C 
HETATM   16  C1  UNL     1      93.615  15.350 128.861  1.00  0.00     0.006 C 
ENDBRANCH   1  15
TORSDOF 2
ENDMDL
MODEL 4
REMARK VINA RESULT: -5.549025124      1.284      1.724
REMARK  2 active torsions:
REMARK  status: ('A' for Active; 'I' for Inactive)
REMARK    1  A    between atoms: C2_2  and  C3_3 
REMARK    2  A    between atoms: C9_12  and  N2_13 
ROOT
HETATM    1  C3  UNL     1      93.149  14.304 132.057  1.00  0.00    -0.010 C 
HETATM    2  C4  UNL     1      94.420  13.716 132.691  1.00  0.00     0.018 C 
HETATM    3  C5  UNL     1      92.482  15.130 133.077  1.00  0.00     0.017 C 
HETATM    4  C6  UNL     1      93.020  14.891 134.496  1.00  0.00     0.012 C 
HETATM    5  C7  UNL     1      92.464  16.599 132.884  1.00  0.00     0.237 C 
HETATM    6  N1  UNL     1      93.288  17.099 131.820  1.00  0.00    -0.073 N 
ATOM      7  H11 UNL     1      94.286  17.057 132.029  1.00  0.00     0.277 HD
ATOM      8  H12 UNL     1      93.225  18.111 131.704  1.00  0.00     0.277 HD
HETATM    9  C8  UNL     1      92.923  16.362 130.625  1.00  0.00     0.265 C 
HETATM   10  C9  UNL     1      93.593  15.017 130.813  1.00  0.00     0.217 C 
ENDROOT
BRANCH  10  11
HETATM   11  N2  UNL     1      93.349  14.276 129.600  1.00  0.00    -0.073 N 
ATOM     12  H23 UNL     1      93.155  13.296 129.810  1.00  0.00     0.274 HD
ATOM     13  H22 UNL     1      92.454  14.542 129.189  1.00  0.00     0.274 HD
ATOM     14  H21 UNL     1      94.097  14.355 128.912  1.00  0.00     0.274 HD
ENDBRANCH  10  11
BRANCH   1  15
HETATM   15  C2  UNL     1      92.352  13.110 131.584  1.00  0.00     0.007 C 
HETATM   16  C1  UNL     1      92.609  11.861 132.386  1.00  0.00     0.006 C 
ENDBRANCH   1  15
TORSDOF 2
ENDMDL
MODEL 5
REMARK VINA RESULT: -5.435700629      1.722      2.899
REMARK  2 active torsions:
REMARK  status: ('A' for Active; 'I' for Inactive)
REMARK    1  A    between atoms: C2_2  and  C3_3 
REMARK    2  A    between atoms: C9_12  and  N2_13 
ROOT
HETATM    1  C3  UNL     1      92.938  14.220 132.099  1.00  0.00    -0.010 C 
HETATM    2  C4  UNL     1      94.276  13.958 132.809  1.00  0.00     0.018 C 
HETATM    3  C5  UNL     1      92.543  15.609 132.388  1.00  0.00     0.017 C 
HETATM    4  C6  UNL     1      93.346  16.240 133.536  1.00  0.00     0.012 C 
HETATM    5  C7  UNL     1      92.570  16.589 131.277  1.00  0.00     0.237 C 
HETATM    6  N1  UNL     1      93.186  16.137 130.061  1.00  0.00    -0.073 N 
ATOM      7  H11 UNL     1      94.201  16.061 130.127  1.00  0.00     0.277 HD
ATOM      8  H12 UNL     1      93.158  16.831 129.314  1.00  0.00     0.277 HD
HETATM    9  C8  UNL     1      92.542  14.887 129.704  1.00  0.00     0.265 C 
HETATM   10  C9  UNL     1      93.158  13.880 130.653  1.00  0.00     0.217 C 
ENDROOT
BRANCH  10  11
HETATM   11  N2  UNL     1      92.627  12.594 130.272  1.00  0.00    -0.073 N 
ATOM     12  H23 UNL     1      92.781  11.908 131.012  1.00  0.00     0.274 HD
ATOM     13  H22 UNL     1      91.607  12.613 130.266  1.00  0.00     0.274 HD
ATOM     14  H21 UNL     1      92.985  12.250 129.382  1.00  0.00     0.274 HD
ENDBRANCH  10  11
BRANCH   1  15
HETATM   15  C2  UNL     1      91.993  13.166 132.630  1.00  0.00     0.007 C 
HETATM   16  C1  UNL     1      92.310  12.729 134.036  1.00  0.00     0.006 C 
ENDBRANCH   1  15
TORSDOF 2
ENDMDL
