MODEL 1
REMARK VINA RESULT: -5.454552655      0.000      0.000
REMARK  2 active torsions:
REMARK  status: ('A' for Active; 'I' for Inactive)
REMARK    1  A    between atoms: N1_1  and  C1_5 
REMARK    2  A    between atoms: C4_8  and  N2_9 
ROOT
HETATM    1  N2  UNL     1      92.926  12.923 134.075  1.00  0.00    -0.386 N 
ATOM      2  H2  UNL     1      93.662  12.216 134.043  1.00  0.00     0.160 HD
HETATM    3  C5  UNL     1      92.469  13.294 135.198  1.00  0.00     0.166 C 
HETATM    4  S1  UNL     1      92.017  13.997 136.567  1.00  0.00    -0.075 SA
ENDROOT
BRANCH   1   5
HETATM    5  C4  UNL     1      92.418  13.486 132.827  1.00  0.00     0.081 C 
HETATM    6  C3  UNL     1      92.745  12.529 131.728  1.00  0.00     0.027 C 
HETATM    7  C2  UNL     1      92.572  13.034 130.355  1.00  0.00     0.035 C 
HETATM    8  C1  UNL     1      92.689  14.492 130.137  1.00  0.00     0.183 C 
HETATM    9  C7  UNL     1      92.665  15.362 131.329  1.00  0.00     0.035 C 
HETATM   10  C6  UNL     1      93.184  14.765 132.585  1.00  0.00     0.027 C 
BRANCH   8  11
HETATM   11  N1  UNL     1      93.877  14.844 129.356  1.00  0.00    -0.075 N 
ATOM     12  H13 UNL     1      94.507  14.047 129.265  1.00  0.00     0.274 HD
ATOM     13  H12 UNL     1      93.644  14.980 128.372  1.00  0.00     0.274 HD
ATOM     14  H11 UNL     1      94.362  15.656 129.735  1.00  0.00     0.274 HD
ENDBRANCH   8  11
ENDBRANCH   1   5
TORSDOF 2
ENDMDL
MODEL 2
REMARK VINA RESULT: -5.401783222      2.465      4.069
REMARK  2 active torsions:
REMARK  status: ('A' for Active; 'I' for Inactive)
REMARK    1  A    between atoms: N1_1  and  C1_5 
REMARK    2  A    between atoms: C4_8  and  N2_9 
ROOT
HETATM    1  N2  UNL     1      93.287  15.598 129.896  1.00  0.00    -0.386 N 
ATOM      2  H2  UNL     1      93.120  15.486 128.895  1.00  0.00     0.160 HD
HETATM    3  C5  UNL     1      93.211  16.751 130.415  1.00  0.00     0.166 C 
HETATM    4  S1  UNL     1      92.890  18.118 131.190  1.00  0.00    -0.075 SA
ENDROOT
BRANCH   1   5
HETATM    5  C4  UNL     1      93.611  14.424 130.703  1.00  0.00     0.081 C 
HETATM    6  C3  UNL     1      92.510  13.430 130.525  1.00  0.00     0.027 C 
HETATM    7  C2  UNL     1      92.500  12.298 131.466  1.00  0.00     0.035 C 
HETATM    8  C1  UNL     1      93.118  12.499 132.794  1.00  0.00     0.183 C 
HETATM    9  C7  UNL     1      93.961  13.696 132.977  1.00  0.00     0.035 C 
HETATM   10  C6  UNL     1      93.613  14.875 132.144  1.00  0.00     0.027 C 
BRANCH   8  11
HETATM   11  N1  UNL     1      92.130  12.484 133.875  1.00  0.00    -0.075 N 
ATOM     12  H13 UNL     1      91.204  12.239 133.525  1.00  0.00     0.274 HD
ATOM     13  H12 UNL     1      92.281  11.694 134.502  1.00  0.00     0.274 HD
ATOM     14  H11 UNL     1      92.108  13.363 134.391  1.00  0.00     0.274 HD
ENDBRANCH   8  11
ENDBRANCH   1   5
TORSDOF 2
ENDMDL
MODEL 3
REMARK VINA RESULT: -5.285313023      2.197      2.821
REMARK  2 active torsions:
REMARK  status: ('A' for Active; 'I' for Inactive)
REMARK    1  A    between atoms: N1_1  and  C1_5 
REMARK    2  A    between atoms: C4_8  and  N2_9 
ROOT
HETATM    1  N2  UNL     1      92.359  17.067 133.113  1.00  0.00    -0.386 N 
ATOM      2  H2  UNL     1      91.748  17.767 132.693  1.00  0.00     0.160 HD
HETATM    3  C5  UNL     1      92.462  17.007 134.375  1.00  0.00     0.166 C 
HETATM    4  S1  UNL     1      92.457  16.700 135.949  1.00  0.00    -0.075 SA
ENDROOT
BRANCH   1   5
HETATM    5  C4  UNL     1      93.100  16.151 132.249  1.00  0.00     0.081 C 
HETATM    6  C3  UNL     1      92.426  16.137 130.915  1.00  0.00     0.027 C 
HETATM    7  C2  UNL     1      92.844  15.070 129.989  1.00  0.00     0.035 C 
HETATM    8  C1  UNL     1      93.375  13.820 130.572  1.00  0.00     0.183 C 
HETATM    9  C7  UNL     1      93.734  13.836 132.003  1.00  0.00     0.035 C 
HETATM   10  C6  UNL     1      92.969  14.776 132.860  1.00  0.00     0.027 C 
BRANCH   8  11
HETATM   11  N1  UNL     1      92.481  12.681 130.352  1.00  0.00    -0.075 N 
ATOM     12  H13 UNL     1      92.607  12.288 129.419  1.00  0.00     0.274 HD
ATOM     13  H12 UNL     1      92.767  11.875 130.908  1.00  0.00     0.274 HD
ATOM     14  H11 UNL     1      91.504  12.918 130.523  1.00  0.00     0.274 HD
ENDBRANCH   8  11
ENDBRANCH   1   5
TORSDOF 2
ENDMDL
MODEL 4
REMARK VINA RESULT: -5.224610357      3.257      4.169
REMARK  2 active torsions:
REMARK  status: ('A' for Active; 'I' for Inactive)
REMARK    1  A    between atoms: N1_1  and  C1_5 
REMARK    2  A    between atoms: C4_8  and  N2_9 
ROOT
HETATM    1  N2  UNL     1      92.811  17.386 132.348  1.00  0.00    -0.386 N 
ATOM      2  H2  UNL     1      92.389  17.438 133.276  1.00  0.00     0.160 HD
HETATM    3  C5  UNL     1      92.829  18.419 131.615  1.00  0.00     0.166 C 
HETATM    4  S1  UNL     1      93.119  19.726 130.731  1.00  0.00    -0.075 SA
ENDROOT
BRANCH   1   5
HETATM    5  C4  UNL     1      93.381  16.122 131.890  1.00  0.00     0.081 C 
HETATM    6  C3  UNL     1      92.610  15.682 130.688  1.00  0.00     0.027 C 
HETATM    7  C2  UNL     1      92.839  14.297 130.242  1.00  0.00     0.035 C 
HETATM    8  C1  UNL     1      93.278  13.311 131.252  1.00  0.00     0.183 C 
HETATM    9  C7  UNL     1      93.746  13.830 132.552  1.00  0.00     0.035 C 
HETATM   10  C6  UNL     1      93.152  15.117 132.994  1.00  0.00     0.027 C 
BRANCH   8  11
HETATM   11  N1  UNL     1      92.253  12.299 131.522  1.00  0.00    -0.075 N 
ATOM     12  H13 UNL     1      91.960  11.834 130.663  1.00  0.00     0.274 HD
ATOM     13  H12 UNL     1      92.647  11.498 132.015  1.00  0.00     0.274 HD
ATOM     14  H11 UNL     1      91.454  12.684 132.025  1.00  0.00     0.274 HD
ENDBRANCH   8  11
ENDBRANCH   1   5
TORSDOF 2
ENDMDL
MODEL 5
REMARK VINA RESULT: -5.156210182      1.022      1.875
REMARK  2 active torsions:
REMARK  status: ('A' for Active; 'I' for Inactive)
REMARK    1  A    between atoms: N1_1  and  C1_5 
REMARK    2  A    between atoms: C4_8  and  N2_9 
ROOT
HETATM    1  N2  UNL     1      92.499  12.588 133.858  1.00  0.00    -0.386 N 
ATOM      2  H2  UNL     1      92.158  11.668 133.574  1.00  0.00     0.160 HD
HETATM    3  C5  UNL     1      92.360  12.958 135.062  1.00  0.00     0.166 C 
HETATM    4  S1  UNL     1      92.453  13.400 136.601  1.00  0.00    -0.075 SA
ENDROOT
BRANCH   1   5
HETATM    5  C4  UNL     1      93.137  13.452 132.868  1.00  0.00     0.081 C 
HETATM    6  C3  UNL     1      92.848  14.869 133.246  1.00  0.00     0.027 C 
HETATM    7  C2  UNL     1      93.160  15.887 132.229  1.00  0.00     0.035 C 
HETATM    8  C1  UNL     1      93.142  15.473 130.810  1.00  0.00     0.183 C 
HETATM    9  C7  UNL     1      93.116  14.025 130.524  1.00  0.00     0.035 C 
HETATM   10  C6  UNL     1      92.464  13.168 131.546  1.00  0.00     0.027 C 
BRANCH   8  11
HETATM   11  N1  UNL     1      92.042  16.091 130.065  1.00  0.00    -0.075 N 
ATOM     12  H13 UNL     1      91.409  16.590 130.689  1.00  0.00     0.274 HD
ATOM     13  H12 UNL     1      92.372  16.877 129.505  1.00  0.00     0.274 HD
ATOM     14  H11 UNL     1      91.538  15.416 129.490  1.00  0.00     0.274 HD
ENDBRANCH   8  11
ENDBRANCH   1   5
TORSDOF 2
ENDMDL
