MODEL 1
REMARK VINA RESULT: -5.163006671      0.000      0.000
REMARK  4 active torsions:
REMARK  status: ('A' for Active; 'I' for Inactive)
REMARK    1  A    between atoms: C2_2  and  N1_3 
REMARK    2  A    between atoms: N1_3  and  C3_5 
REMARK    3  A    between atoms: C9_16  and  N4_17 
REMARK    4  A    between atoms: N4_17  and  C10_19 
ROOT
HETATM    1  C3  UNL     1      16.344  14.830  31.433  1.00  0.00     0.132 A 
HETATM    2  N2  UNL     1      15.153  14.542  30.881  1.00  0.00    -0.339 N 
ATOM      3  H2  UNL     1      14.984  13.611  30.501  1.00  0.00     0.167 HD
HETATM    4  C4  UNL     1      14.164  15.486  30.822  1.00  0.00     0.065 A 
HETATM    5  C5  UNL     1      12.885  15.474  30.330  1.00  0.00     0.118 A 
HETATM    6  N3  UNL     1      12.364  16.686  30.540  1.00  0.00    -0.372 N 
ATOM      7  H3  UNL     1      11.422  16.974  30.276  1.00  0.00     0.164 HD
HETATM    8  C6  UNL     1      13.277  17.476  31.157  1.00  0.00     0.105 A 
HETATM    9  C7  UNL     1      14.448  16.733  31.353  1.00  0.00     0.060 A 
HETATM   10  C8  UNL     1      15.668  17.034  31.920  1.00  0.00     0.215 A 
HETATM   11  O1  UNL     1      15.833  18.210  32.383  1.00  0.00    -0.285 OA
HETATM   12  C9  UNL     1      16.620  16.073  31.960  1.00  0.00     0.124 A 
ENDROOT
BRANCH  12  13
HETATM   13  N4  UNL     1      17.894  16.315  32.528  1.00  0.00    -0.380 N 
ATOM     14  H4  UNL     1      18.659  16.554  31.898  1.00  0.00     0.160 HD
BRANCH  13  15
HETATM   15  C10 UNL     1      18.177  16.245  33.930  1.00  0.00     0.073 C 
HETATM   16  C11 UNL     1      18.547  17.615  34.455  1.00  0.00     0.031 C 
HETATM   17  C12 UNL     1      19.322  15.315  34.256  1.00  0.00     0.031 C 
ENDBRANCH  13  15
ENDBRANCH  12  13
BRANCH   1  18
HETATM   18  N1  UNL     1      17.329  13.815  31.476  1.00  0.00    -0.375 N 
ATOM     19  H1  UNL     1      18.158  13.943  30.896  1.00  0.00     0.161 HD
BRANCH  18  20
HETATM   20  C2  UNL     1      17.257  12.612  32.275  1.00  0.00     0.116 C 
HETATM   21  C1  UNL     1      16.613  12.832  33.625  1.00  0.00     0.026 C 
ENDBRANCH  18  20
ENDBRANCH   1  18
TORSDOF 4
ENDMDL
MODEL 2
REMARK VINA RESULT: -4.777933283      2.361      5.482
REMARK  4 active torsions:
REMARK  status: ('A' for Active; 'I' for Inactive)
REMARK    1  A    between atoms: C2_2  and  N1_3 
REMARK    2  A    between atoms: N1_3  and  C3_5 
REMARK    3  A    between atoms: C9_16  and  N4_17 
REMARK    4  A    between atoms: N4_17  and  C10_19 
ROOT
HETATM    1  C3  UNL     1      13.379  14.402  30.715  1.00  0.00     0.132 A 
HETATM    2  N2  UNL     1      14.662  14.304  31.104  1.00  0.00    -0.339 N 
ATOM      3  H2  UNL     1      15.136  13.402  31.055  1.00  0.00     0.167 HD
HETATM    4  C4  UNL     1      15.338  15.400  31.563  1.00  0.00     0.065 A 
HETATM    5  C5  UNL     1      16.618  15.591  32.016  1.00  0.00     0.118 A 
HETATM    6  N3  UNL     1      16.739  16.881  32.341  1.00  0.00    -0.372 N 
ATOM      7  H3  UNL     1      17.585  17.316  32.710  1.00  0.00     0.164 HD
HETATM    8  C6  UNL     1      15.569  17.524  32.109  1.00  0.00     0.105 A 
HETATM    9  C7  UNL     1      14.645  16.599  31.607  1.00  0.00     0.060 A 
HETATM   10  C8  UNL     1      13.329  16.705  31.210  1.00  0.00     0.215 A 
HETATM   11  O1  UNL     1      12.777  17.852  31.287  1.00  0.00    -0.285 OA
HETATM   12  C9  UNL     1      12.695  15.597  30.761  1.00  0.00     0.124 A 
ENDROOT
BRANCH  12  13
HETATM   13  N4  UNL     1      11.345  15.637  30.338  1.00  0.00    -0.380 N 
ATOM     14  H4  UNL     1      11.153  15.921  29.377  1.00  0.00     0.160 HD
BRANCH  13  15
HETATM   15  C10 UNL     1      10.229  15.304  31.172  1.00  0.00     0.073 C 
HETATM   16  C11 UNL     1       9.060  14.852  30.323  1.00  0.00     0.031 C 
HETATM   17  C12 UNL     1       9.751  16.465  32.011  1.00  0.00     0.031 C 
ENDBRANCH  13  15
ENDBRANCH  12  13
BRANCH   1  18
HETATM   18  N1  UNL     1      12.728  13.239  30.239  1.00  0.00    -0.375 N 
ATOM     19  H1  UNL     1      12.410  13.245  29.270  1.00  0.00     0.161 HD
BRANCH  18  20
HETATM   20  C2  UNL     1      12.478  12.044  31.012  1.00  0.00     0.116 C 
HETATM   21  C1  UNL     1      11.021  11.638  31.026  1.00  0.00     0.026 C 
ENDBRANCH  18  20
ENDBRANCH   1  18
TORSDOF 4
ENDMDL
MODEL 3
REMARK VINA RESULT: -4.618044901      1.628      4.653
REMARK  4 active torsions:
REMARK  status: ('A' for Active; 'I' for Inactive)
REMARK    1  A    between atoms: C2_2  and  N1_3 
REMARK    2  A    between atoms: N1_3  and  C3_5 
REMARK    3  A    between atoms: C9_16  and  N4_17 
REMARK    4  A    between atoms: N4_17  and  C10_19 
ROOT
HETATM    1  C3  UNL     1      15.884  14.424  32.251  1.00  0.00     0.132 A 
HETATM    2  N2  UNL     1      17.116  14.419  32.789  1.00  0.00    -0.339 N 
ATOM      3  H2  UNL     1      17.595  13.533  32.946  1.00  0.00     0.167 HD
HETATM    4  C4  UNL     1      17.735  15.592  33.126  1.00  0.00     0.065 A 
HETATM    5  C5  UNL     1      18.956  15.883  33.676  1.00  0.00     0.118 A 
HETATM    6  N3  UNL     1      19.038  17.211  33.789  1.00  0.00    -0.372 N 
ATOM      7  H3  UNL     1      19.837  17.720  34.168  1.00  0.00     0.164 HD
HETATM    8  C6  UNL     1      17.900  17.781  33.324  1.00  0.00     0.105 A 
HETATM    9  C7  UNL     1      17.039  16.765  32.889  1.00  0.00     0.060 A 
HETATM   10  C8  UNL     1      15.775  16.775  32.339  1.00  0.00     0.215 A 
HETATM   11  O1  UNL     1      15.216  17.907  32.159  1.00  0.00    -0.285 OA
HETATM   12  C9  UNL     1      15.197  15.595  32.018  1.00  0.00     0.124 A 
ENDROOT
BRANCH  12  13
HETATM   13  N4  UNL     1      13.902  15.534  31.450  1.00  0.00    -0.380 N 
ATOM     14  H4  UNL     1      13.169  15.067  31.982  1.00  0.00     0.160 HD
BRANCH  13  15
HETATM   15  C10 UNL     1      13.555  16.086  30.174  1.00  0.00     0.073 C 
HETATM   16  C11 UNL     1      12.331  16.967  30.304  1.00  0.00     0.031 C 
HETATM   17  C12 UNL     1      13.241  15.031  29.140  1.00  0.00     0.031 C 
ENDBRANCH  13  15
ENDBRANCH  12  13
BRANCH   1  18
HETATM   18  N1  UNL     1      15.293  13.184  31.912  1.00  0.00    -0.375 N 
ATOM     19  H1  UNL     1      15.407  12.859  30.952  1.00  0.00     0.161 HD
BRANCH  18  20
HETATM   20  C2  UNL     1      14.541  12.340  32.813  1.00  0.00     0.116 C 
HETATM   21  C1  UNL     1      13.148  12.027  32.312  1.00  0.00     0.026 C 
ENDBRANCH  18  20
ENDBRANCH   1  18
TORSDOF 4
ENDMDL
MODEL 4
REMARK VINA RESULT: -4.603841529      2.934      5.845
REMARK  4 active torsions:
REMARK  status: ('A' for Active; 'I' for Inactive)
REMARK    1  A    between atoms: C2_2  and  N1_3 
REMARK    2  A    between atoms: N1_3  and  C3_5 
REMARK    3  A    between atoms: C9_16  and  N4_17 
REMARK    4  A    between atoms: N4_17  and  C10_19 
ROOT
HETATM    1  C3  UNL     1      13.115  13.852  30.547  1.00  0.00     0.132 A 
HETATM    2  N2  UNL     1      14.366  14.087  30.979  1.00  0.00    -0.339 N 
ATOM      3  H2  UNL     1      15.031  13.317  31.043  1.00  0.00     0.167 HD
HETATM    4  C4  UNL     1      14.756  15.349  31.334  1.00  0.00     0.065 A 
HETATM    5  C5  UNL     1      15.936  15.870  31.798  1.00  0.00     0.118 A 
HETATM    6  N3  UNL     1      15.750  17.180  31.983  1.00  0.00    -0.372 N 
ATOM      7  H3  UNL     1      16.457  17.830  32.325  1.00  0.00     0.164 HD
HETATM    8  C6  UNL     1      14.479  17.514  31.650  1.00  0.00     0.105 A 
HETATM    9  C7  UNL     1      13.812  16.357  31.227  1.00  0.00     0.060 A 
HETATM   10  C8  UNL     1      12.528  16.121  30.785  1.00  0.00     0.215 A 
HETATM   11  O1  UNL     1      11.731  17.114  30.721  1.00  0.00    -0.285 OA
HETATM   12  C9  UNL     1      12.180  14.859  30.442  1.00  0.00     0.124 A 
ENDROOT
BRANCH  12  13
HETATM   13  N4  UNL     1      10.879  14.548  29.981  1.00  0.00    -0.380 N 
ATOM     14  H4  UNL     1      10.714  14.559  28.974  1.00  0.00     0.160 HD
BRANCH  13  15
HETATM   15  C10 UNL     1       9.778  14.219  30.836  1.00  0.00     0.073 C 
HETATM   16  C11 UNL     1       9.138  12.923  30.385  1.00  0.00     0.031 C 
HETATM   17  C12 UNL     1       8.698  15.274  30.841  1.00  0.00     0.031 C 
ENDBRANCH  13  15
ENDBRANCH  12  13
BRANCH   1  18
HETATM   18  N1  UNL     1      12.765  12.530  30.184  1.00  0.00    -0.375 N 
ATOM     19  H1  UNL     1      12.638  12.336  29.190  1.00  0.00     0.161 HD
BRANCH  18  20
HETATM   20  C2  UNL     1      12.575  11.431  31.103  1.00  0.00     0.116 C 
HETATM   21  C1  UNL     1      11.750  10.305  30.522  1.00  0.00     0.026 C 
ENDBRANCH  18  20
ENDBRANCH   1  18
TORSDOF 4
ENDMDL
MODEL 5
REMARK VINA RESULT: -4.553752319      2.092      5.525
REMARK  4 active torsions:
REMARK  status: ('A' for Active; 'I' for Inactive)
REMARK    1  A    between atoms: C2_2  and  N1_3 
REMARK    2  A    between atoms: N1_3  and  C3_5 
REMARK    3  A    between atoms: C9_16  and  N4_17 
REMARK    4  A    between atoms: N4_17  and  C10_19 
ROOT
HETATM    1  C3  UNL     1      14.361  16.413  31.269  1.00  0.00     0.132 A 
HETATM    2  N2  UNL     1      15.146  17.363  31.805  1.00  0.00    -0.339 N 
ATOM      3  H2  UNL     1      14.885  18.345  31.713  1.00  0.00     0.167 HD
HETATM    4  C4  UNL     1      16.292  17.027  32.472  1.00  0.00     0.065 A 
HETATM    5  C5  UNL     1      17.261  17.765  33.103  1.00  0.00     0.118 A 
HETATM    6  N3  UNL     1      18.163  16.908  33.588  1.00  0.00    -0.372 N 
ATOM      7  H3  UNL     1      19.001  17.170  34.107  1.00  0.00     0.164 HD
HETATM    8  C6  UNL     1      17.799  15.638  33.285  1.00  0.00     0.105 A 
HETATM    9  C7  UNL     1      16.597  15.680  32.567  1.00  0.00     0.060 A 
HETATM   10  C8  UNL     1      15.795  14.701  32.019  1.00  0.00     0.215 A 
HETATM   11  O1  UNL     1      16.161  13.488  32.159  1.00  0.00    -0.285 OA
HETATM   12  C9  UNL     1      14.669  15.074  31.367  1.00  0.00     0.124 A 
ENDROOT
BRANCH  12  13
HETATM   13  N4  UNL     1      13.802  14.121  30.782  1.00  0.00    -0.380 N 
ATOM     14  H4  UNL     1      13.919  13.915  29.790  1.00  0.00     0.160 HD
BRANCH  13  15
HETATM   15  C10 UNL     1      12.770  13.427  31.493  1.00  0.00     0.073 C 
HETATM   16  C11 UNL     1      13.020  11.935  31.449  1.00  0.00     0.031 C 
HETATM   17  C12 UNL     1      11.393  13.668  30.920  1.00  0.00     0.031 C 
ENDBRANCH  13  15
ENDBRANCH  12  13
BRANCH   1  18
HETATM   18  N1  UNL     1      13.181  16.814  30.598  1.00  0.00    -0.375 N 
ATOM     19  H1  UNL     1      12.969  16.355  29.712  1.00  0.00     0.161 HD
BRANCH  18  20
HETATM   20  C2  UNL     1      12.254  17.820  31.063  1.00  0.00     0.116 C 
HETATM   21  C1  UNL     1      11.072  17.240  31.809  1.00  0.00     0.026 C 
ENDBRANCH  18  20
ENDBRANCH   1  18
TORSDOF 4
ENDMDL
