MODEL 1
REMARK VINA RESULT: -5.256781570      0.000      0.000
REMARK  5 active torsions:
REMARK  status: ('A' for Active; 'I' for Inactive)
REMARK    1  A    between atoms: C2_2  and  C3_3 
REMARK    2  A    between atoms: C3_3  and  N1_4 
REMARK    3  A    between atoms: N1_4  and  C4_6 
REMARK    4  A    between atoms: C5_7  and  N2_8 
REMARK       I    between atoms: N2_8  and  C6_10 
REMARK    5  A    between atoms: C10_18  and  O1_19 
ROOT
HETATM    1  C4  UNL     1      14.616  15.340  31.180  1.00  0.00     0.089 A 
HETATM    2  C5  UNL     1      15.790  14.979  31.835  1.00  0.00     0.064 A 
HETATM    3  C7  UNL     1      16.549  15.909  32.488  1.00  0.00     0.032 A 
HETATM    4  C8  UNL     1      16.173  17.255  32.522  1.00  0.00     0.005 A 
HETATM    5  C9  UNL     1      15.012  17.587  31.868  1.00  0.00     0.039 A 
HETATM    6  C10 UNL     1      14.228  16.666  31.201  1.00  0.00     0.096 A 
ENDROOT
BRANCH   2   7
HETATM    7  N2  UNL     1      16.185  13.615  31.811  1.00  0.00    -0.329 N 
HETATM    8  C6  UNL     1      17.540  13.265  32.085  1.00  0.00     0.186 C 
HETATM    9  N3  UNL     1      17.773  12.630  33.177  1.00  0.00    -0.373 N 
HETATM   10  N4  UNL     1      18.602  13.588  31.212  1.00  0.00    -0.064 NA
ATOM     11  H32 UNL     1      17.006  12.396  33.807  1.00  0.00     0.158 HD
ATOM     12  H31 UNL     1      18.743  12.380  33.373  1.00  0.00     0.158 HD
ATOM     13  H2  UNL     1      15.502  12.888  31.598  1.00  0.00     0.168 HD
ENDBRANCH   2   7
BRANCH   1  14
HETATM   14  N1  UNL     1      13.841  14.369  30.508  1.00  0.00    -0.382 N 
ATOM     15  H1  UNL     1      14.002  14.186  29.517  1.00  0.00     0.160 HD
BRANCH  14  16
HETATM   16  C3  UNL     1      12.818  13.631  31.220  1.00  0.00     0.146 C 
BRANCH  16  17
HETATM   17  C2  UNL     1      11.452  14.013  30.714  1.00  0.00    -0.018 C 
HETATM   18  C1  UNL     1      10.526  14.420  31.539  1.00  0.00     0.008 C 
ENDBRANCH  16  17
ENDBRANCH  14  16
ENDBRANCH   1  14
BRANCH   6  19
HETATM   19  O1  UNL     1      13.072  17.011  30.554  1.00  0.00    -0.354 OA
HETATM   20  C11 UNL     1      12.064  17.839  31.079  1.00  0.00     0.210 C 
ENDBRANCH   6  19
TORSDOF 5
ENDMDL
MODEL 2
REMARK VINA RESULT: -5.180038835      0.655      1.114
REMARK  5 active torsions:
REMARK  status: ('A' for Active; 'I' for Inactive)
REMARK    1  A    between atoms: C2_2  and  C3_3 
REMARK    2  A    between atoms: C3_3  and  N1_4 
REMARK    3  A    between atoms: N1_4  and  C4_6 
REMARK    4  A    between atoms: C5_7  and  N2_8 
REMARK       I    between atoms: N2_8  and  C6_10 
REMARK    5  A    between atoms: C10_18  and  O1_19 
ROOT
HETATM    1  C4  UNL     1      14.608  15.329  31.150  1.00  0.00     0.089 A 
HETATM    2  C5  UNL     1      15.771  14.960  31.821  1.00  0.00     0.064 A 
HETATM    3  C7  UNL     1      16.519  15.883  32.496  1.00  0.00     0.032 A 
HETATM    4  C8  UNL     1      16.143  17.228  32.538  1.00  0.00     0.005 A 
HETATM    5  C9  UNL     1      14.993  17.568  31.869  1.00  0.00     0.039 A 
HETATM    6  C10 UNL     1      14.220  16.655  31.180  1.00  0.00     0.096 A 
ENDROOT
BRANCH   2   7
HETATM    7  N2  UNL     1      16.166  13.596  31.788  1.00  0.00    -0.329 N 
HETATM    8  C6  UNL     1      17.520  13.244  32.062  1.00  0.00     0.186 C 
HETATM    9  N3  UNL     1      17.752  12.602  33.151  1.00  0.00    -0.373 N 
HETATM   10  N4  UNL     1      18.584  13.574  31.194  1.00  0.00    -0.064 NA
ATOM     11  H32 UNL     1      16.983  12.364  33.778  1.00  0.00     0.158 HD
ATOM     12  H31 UNL     1      18.720  12.350  33.347  1.00  0.00     0.158 HD
ATOM     13  H2  UNL     1      15.483  12.871  31.570  1.00  0.00     0.168 HD
ENDBRANCH   2   7
BRANCH   1  14
HETATM   14  N1  UNL     1      13.843  14.365  30.455  1.00  0.00    -0.382 N 
ATOM     15  H1  UNL     1      14.128  14.067  29.523  1.00  0.00     0.160 HD
BRANCH  14  16
HETATM   16  C3  UNL     1      12.656  13.800  31.063  1.00  0.00     0.146 C 
BRANCH  16  17
HETATM   17  C2  UNL     1      12.668  12.300  30.933  1.00  0.00    -0.018 C 
HETATM   18  C1  UNL     1      13.164  11.554  31.881  1.00  0.00     0.008 C 
ENDBRANCH  16  17
ENDBRANCH  14  16
ENDBRANCH   1  14
BRANCH   6  19
HETATM   19  O1  UNL     1      13.075  17.007  30.517  1.00  0.00    -0.354 OA
HETATM   20  C11 UNL     1      12.019  17.758  31.065  1.00  0.00     0.210 C 
ENDBRANCH   6  19
TORSDOF 5
ENDMDL
MODEL 3
REMARK VINA RESULT: -5.055074683      1.715      2.130
REMARK  5 active torsions:
REMARK  status: ('A' for Active; 'I' for Inactive)
REMARK    1  A    between atoms: C2_2  and  C3_3 
REMARK    2  A    between atoms: C3_3  and  N1_4 
REMARK    3  A    between atoms: N1_4  and  C4_6 
REMARK    4  A    between atoms: C5_7  and  N2_8 
REMARK       I    between atoms: N2_8  and  C6_10 
REMARK    5  A    between atoms: C10_18  and  O1_19 
ROOT
HETATM    1  C4  UNL     1      15.342  14.782  31.892  1.00  0.00     0.089 A 
HETATM    2  C5  UNL     1      16.384  15.356  32.614  1.00  0.00     0.064 A 
HETATM    3  C7  UNL     1      16.482  16.713  32.755  1.00  0.00     0.032 A 
HETATM    4  C8  UNL     1      15.540  17.570  32.180  1.00  0.00     0.005 A 
HETATM    5  C9  UNL     1      14.522  16.981  31.472  1.00  0.00     0.039 A 
HETATM    6  C10 UNL     1      14.400  15.613  31.315  1.00  0.00     0.096 A 
ENDROOT
BRANCH   2   7
HETATM    7  N2  UNL     1      17.350  14.499  33.205  1.00  0.00    -0.329 N 
HETATM    8  C6  UNL     1      18.577  14.240  32.526  1.00  0.00     0.186 C 
HETATM    9  N3  UNL     1      19.649  14.719  33.047  1.00  0.00    -0.373 N 
HETATM   10  N4  UNL     1      18.643  13.491  31.331  1.00  0.00    -0.064 NA
ATOM     11  H32 UNL     1      19.601  15.260  33.910  1.00  0.00     0.158 HD
ATOM     12  H31 UNL     1      20.527  14.534  32.561  1.00  0.00     0.158 HD
ATOM     13  H2  UNL     1      17.167  14.070  34.112  1.00  0.00     0.168 HD
ENDBRANCH   2   7
BRANCH   1  14
HETATM   14  N1  UNL     1      15.252  13.379  31.753  1.00  0.00    -0.382 N 
ATOM     15  H1  UNL     1      15.748  12.911  30.995  1.00  0.00     0.160 HD
BRANCH  14  16
HETATM   16  C3  UNL     1      14.457  12.604  32.684  1.00  0.00     0.146 C 
BRANCH  16  17
HETATM   17  C2  UNL     1      13.785  11.462  31.969  1.00  0.00    -0.018 C 
HETATM   18  C1  UNL     1      12.736  11.671  31.221  1.00  0.00     0.008 C 
ENDBRANCH  16  17
ENDBRANCH  14  16
ENDBRANCH   1  14
BRANCH   6  19
HETATM   19  O1  UNL     1      13.379  15.039  30.608  1.00  0.00    -0.354 OA
HETATM   20  C11 UNL     1      13.216  15.115  29.213  1.00  0.00     0.210 C 
ENDBRANCH   6  19
TORSDOF 5
ENDMDL
MODEL 4
REMARK VINA RESULT: -5.042566799      1.779      4.602
REMARK  5 active torsions:
REMARK  status: ('A' for Active; 'I' for Inactive)
REMARK    1  A    between atoms: C2_2  and  C3_3 
REMARK    2  A    between atoms: C3_3  and  N1_4 
REMARK    3  A    between atoms: N1_4  and  C4_6 
REMARK    4  A    between atoms: C5_7  and  N2_8 
REMARK       I    between atoms: N2_8  and  C6_10 
REMARK    5  A    between atoms: C10_18  and  O1_19 
ROOT
HETATM    1  C4  UNL     1      15.433  15.242  31.363  1.00  0.00     0.089 A 
HETATM    2  C5  UNL     1      14.114  15.076  30.948  1.00  0.00     0.064 A 
HETATM    3  C7  UNL     1      13.237  16.124  30.951  1.00  0.00     0.032 A 
HETATM    4  C8  UNL     1      13.631  17.398  31.368  1.00  0.00     0.005 A 
HETATM    5  C9  UNL     1      14.936  17.537  31.773  1.00  0.00     0.039 A 
HETATM    6  C10 UNL     1      15.843  16.495  31.780  1.00  0.00     0.096 A 
ENDROOT
BRANCH   2   7
HETATM    7  N2  UNL     1      13.698  13.787  30.521  1.00  0.00    -0.329 N 
HETATM    8  C6  UNL     1      12.671  13.102  31.234  1.00  0.00     0.186 C 
HETATM    9  N3  UNL     1      11.546  12.942  30.635  1.00  0.00    -0.373 N 
HETATM   10  N4  UNL     1      12.852  12.609  32.545  1.00  0.00    -0.064 NA
ATOM     11  H32 UNL     1      11.415  13.298  29.688  1.00  0.00     0.158 HD
ATOM     12  H31 UNL     1      10.811  12.452  31.145  1.00  0.00     0.158 HD
ATOM     13  H2  UNL     1      14.132  13.354  29.706  1.00  0.00     0.168 HD
ENDBRANCH   2   7
BRANCH   1  14
HETATM   14  N1  UNL     1      16.331  14.152  31.357  1.00  0.00    -0.382 N 
ATOM     15  H1  UNL     1      16.823  13.903  30.499  1.00  0.00     0.160 HD
BRANCH  14  16
HETATM   16  C3  UNL     1      16.555  13.384  32.565  1.00  0.00     0.146 C 
BRANCH  16  17
HETATM   17  C2  UNL     1      18.026  13.321  32.877  1.00  0.00    -0.018 C 
HETATM   18  C1  UNL     1      18.911  13.695  31.993  1.00  0.00     0.008 C 
ENDBRANCH  16  17
ENDBRANCH  14  16
ENDBRANCH   1  14
BRANCH   6  19
HETATM   19  O1  UNL     1      17.141  16.648  32.185  1.00  0.00    -0.354 OA
HETATM   20  C11 UNL     1      17.559  17.390  33.304  1.00  0.00     0.210 C 
ENDBRANCH   6  19
TORSDOF 5
ENDMDL
MODEL 5
REMARK VINA RESULT: -5.033378637      1.791      2.792
REMARK  5 active torsions:
REMARK  status: ('A' for Active; 'I' for Inactive)
REMARK    1  A    between atoms: C2_2  and  C3_3 
REMARK    2  A    between atoms: C3_3  and  N1_4 
REMARK    3  A    between atoms: N1_4  and  C4_6 
REMARK    4  A    between atoms: C5_7  and  N2_8 
REMARK       I    between atoms: N2_8  and  C6_10 
REMARK    5  A    between atoms: C10_18  and  O1_19 
ROOT
HETATM    1  C4  UNL     1      15.419  14.747  31.877  1.00  0.00     0.089 A 
HETATM    2  C5  UNL     1      16.439  15.342  32.614  1.00  0.00     0.064 A 
HETATM    3  C7  UNL     1      16.503  16.700  32.762  1.00  0.00     0.032 A 
HETATM    4  C8  UNL     1      15.547  17.537  32.181  1.00  0.00     0.005 A 
HETATM    5  C9  UNL     1      14.551  16.927  31.459  1.00  0.00     0.039 A 
HETATM    6  C10 UNL     1      14.464  15.558  31.294  1.00  0.00     0.096 A 
ENDROOT
BRANCH   2   7
HETATM    7  N2  UNL     1      17.418  14.505  33.212  1.00  0.00    -0.329 N 
HETATM    8  C6  UNL     1      18.660  14.282  32.547  1.00  0.00     0.186 C 
HETATM    9  N3  UNL     1      19.713  14.785  33.085  1.00  0.00    -0.373 N 
HETATM   10  N4  UNL     1      18.761  13.543  31.348  1.00  0.00    -0.064 NA
ATOM     11  H32 UNL     1      19.640  15.318  33.951  1.00  0.00     0.158 HD
ATOM     12  H31 UNL     1      20.601  14.624  32.610  1.00  0.00     0.158 HD
ATOM     13  H2  UNL     1      17.234  14.066  34.114  1.00  0.00     0.168 HD
ENDBRANCH   2   7
BRANCH   1  14
HETATM   14  N1  UNL     1      15.365  13.343  31.730  1.00  0.00    -0.382 N 
ATOM     15  H1  UNL     1      15.887  12.889  30.981  1.00  0.00     0.160 HD
BRANCH  14  16
HETATM   16  C3  UNL     1      14.569  12.545  32.641  1.00  0.00     0.146 C 
BRANCH  16  17
HETATM   17  C2  UNL     1      15.365  11.364  33.130  1.00  0.00    -0.018 C 
HETATM   18  C1  UNL     1      16.455  10.995  32.515  1.00  0.00     0.008 C 
ENDBRANCH  16  17
ENDBRANCH  14  16
ENDBRANCH   1  14
BRANCH   6  19
HETATM   19  O1  UNL     1      13.466  14.962  30.571  1.00  0.00    -0.354 OA
HETATM   20  C11 UNL     1      13.220  15.171  29.202  1.00  0.00     0.210 C 
ENDBRANCH   6  19
TORSDOF 5
ENDMDL
