MODEL 1
REMARK VINA RESULT: -5.051033928      0.000      0.000
REMARK  6 active torsions:
REMARK  status: ('A' for Active; 'I' for Inactive)
REMARK    1  A    between atoms: C2_2  and  C3_3 
REMARK    2  A    between atoms: C3_3  and  N1_4 
REMARK    3  A    between atoms: N1_4  and  C4_6 
REMARK    4  A    between atoms: C6_8  and  N2_9 
REMARK    5  A    between atoms: C8_15  and  C9_16 
REMARK       I    between atoms: C9_16  and  N4_18 
REMARK    6  A    between atoms: N4_18  and  C10_20 
ROOT
HETATM    1  C4  UNL     1      17.160  15.336  32.036  1.00  0.00     0.049 A 
HETATM    2  C5  UNL     1      18.325  15.540  32.792  1.00  0.00     0.078 A 
HETATM    3  C6  UNL     1      18.551  16.723  33.455  1.00  0.00     0.100 A 
HETATM    4  N3  UNL     1      17.657  17.717  33.396  1.00  0.00    -0.352 N 
ATOM      5  H3  UNL     1      17.832  18.590  33.892  1.00  0.00     0.166 HD
HETATM    6  C7  UNL     1      16.531  17.563  32.685  1.00  0.00     0.109 A 
HETATM    7  C8  UNL     1      16.264  16.360  31.988  1.00  0.00     0.073 A 
ENDROOT
BRANCH   7   8
HETATM    8  C9  UNL     1      15.070  16.318  31.212  1.00  0.00     0.255 C 
HETATM    9  O1  UNL     1      15.031  15.784  30.085  1.00  0.00    -0.268 OA
HETATM   10  N4  UNL     1      13.847  16.873  31.658  1.00  0.00    -0.353 N 
ATOM     11  H4  UNL     1      13.812  17.323  32.573  1.00  0.00     0.163 HD
BRANCH  10  12
HETATM   12  C10 UNL     1      12.633  16.821  30.847  1.00  0.00     0.076 C 
HETATM   13  C11 UNL     1      11.909  18.156  31.008  1.00  0.00     0.032 C 
HETATM   14  C12 UNL     1      11.743  15.680  31.208  1.00  0.00     0.032 C 
ENDBRANCH  10  12
ENDBRANCH   7   8
BRANCH   1  15
HETATM   15  N1  UNL     1      16.963  14.096  31.465  1.00  0.00    -0.386 N 
ATOM     16  H1  UNL     1      16.906  14.055  30.448  1.00  0.00     0.160 HD
BRANCH  15  17
HETATM   17  C3  UNL     1      16.830  12.834  32.191  1.00  0.00     0.146 C 
BRANCH  17  18
HETATM   18  C2  UNL     1      15.539  12.827  32.928  1.00  0.00    -0.018 C 
HETATM   19  C1  UNL     1      14.336  12.877  32.384  1.00  0.00     0.008 C 
ENDBRANCH  17  18
ENDBRANCH  15  17
ENDBRANCH   1  15
BRANCH   3  20
HETATM   20  N2  UNL     1      19.616  16.924  34.151  1.00  0.00    -0.385 N 
ATOM     21  H22 UNL     1      19.798  16.285  34.925  1.00  0.00     0.157 HD
ATOM     22  H21 UNL     1      20.260  17.688  33.947  1.00  0.00     0.157 HD
ENDBRANCH   3  20
TORSDOF 6
ENDMDL
MODEL 2
REMARK VINA RESULT: -5.043755923      3.024      5.585
REMARK  6 active torsions:
REMARK  status: ('A' for Active; 'I' for Inactive)
REMARK    1  A    between atoms: C2_2  and  C3_3 
REMARK    2  A    between atoms: C3_3  and  N1_4 
REMARK    3  A    between atoms: N1_4  and  C4_6 
REMARK    4  A    between atoms: C6_8  and  N2_9 
REMARK    5  A    between atoms: C8_15  and  C9_16 
REMARK       I    between atoms: C9_16  and  N4_18 
REMARK    6  A    between atoms: N4_18  and  C10_20 
ROOT
HETATM    1  C4  UNL     1      12.910  16.053  31.204  1.00  0.00     0.049 A 
HETATM    2  C5  UNL     1      13.318  14.789  30.749  1.00  0.00     0.078 A 
HETATM    3  C6  UNL     1      12.404  13.832  30.377  1.00  0.00     0.100 A 
HETATM    4  N3  UNL     1      11.091  14.084  30.440  1.00  0.00    -0.352 N 
ATOM      5  H3  UNL     1      10.420  13.369  30.162  1.00  0.00     0.166 HD
HETATM    6  C7  UNL     1      10.659  15.278  30.870  1.00  0.00     0.109 A 
HETATM    7  C8  UNL     1      11.569  16.288  31.262  1.00  0.00     0.073 A 
ENDROOT
BRANCH   7   8
HETATM    8  C9  UNL     1      11.010  17.500  31.762  1.00  0.00     0.255 C 
HETATM    9  O1  UNL     1      11.447  18.619  31.425  1.00  0.00    -0.268 OA
HETATM   10  N4  UNL     1       9.926  17.525  32.670  1.00  0.00    -0.353 N 
ATOM     11  H4  UNL     1       9.522  16.642  32.983  1.00  0.00     0.163 HD
BRANCH  10  12
HETATM   12  C10 UNL     1       9.366  18.777  33.173  1.00  0.00     0.076 C 
HETATM   13  C11 UNL     1       9.562  18.799  34.688  1.00  0.00     0.032 C 
HETATM   14  C12 UNL     1       7.930  18.956  32.814  1.00  0.00     0.032 C 
ENDBRANCH  10  12
ENDBRANCH   7   8
BRANCH   1  15
HETATM   15  N1  UNL     1      13.882  16.990  31.482  1.00  0.00    -0.386 N 
ATOM     16  H1  UNL     1      13.569  17.933  31.709  1.00  0.00     0.160 HD
BRANCH  15  17
HETATM   17  C3  UNL     1      15.324  16.749  31.479  1.00  0.00     0.146 C 
BRANCH  17  18
HETATM   18  C2  UNL     1      15.954  17.535  32.572  1.00  0.00    -0.018 C 
HETATM   19  C1  UNL     1      17.189  17.391  33.018  1.00  0.00     0.008 C 
ENDBRANCH  17  18
ENDBRANCH  15  17
ENDBRANCH   1  15
BRANCH   3  20
HETATM   20  N2  UNL     1      12.764  12.669  29.959  1.00  0.00    -0.385 N 
ATOM     21  H22 UNL     1      13.670  12.597  29.495  1.00  0.00     0.157 HD
ATOM     22  H21 UNL     1      12.177  11.843  30.079  1.00  0.00     0.157 HD
ENDBRANCH   3  20
TORSDOF 6
ENDMDL
MODEL 3
REMARK VINA RESULT: -4.938396756      3.045      5.669
REMARK  6 active torsions:
REMARK  status: ('A' for Active; 'I' for Inactive)
REMARK    1  A    between atoms: C2_2  and  C3_3 
REMARK    2  A    between atoms: C3_3  and  N1_4 
REMARK    3  A    between atoms: N1_4  and  C4_6 
REMARK    4  A    between atoms: C6_8  and  N2_9 
REMARK    5  A    between atoms: C8_15  and  C9_16 
REMARK       I    between atoms: C9_16  and  N4_18 
REMARK    6  A    between atoms: N4_18  and  C10_20 
ROOT
HETATM    1  C4  UNL     1      13.233  15.584  31.160  1.00  0.00     0.049 A 
HETATM    2  C5  UNL     1      13.472  15.480  29.780  1.00  0.00     0.078 A 
HETATM    3  C6  UNL     1      12.451  15.230  28.893  1.00  0.00     0.100 A 
HETATM    4  N3  UNL     1      11.195  15.080  29.327  1.00  0.00    -0.352 N 
ATOM      5  H3  UNL     1      10.444  14.896  28.662  1.00  0.00     0.166 HD
HETATM    6  C7  UNL     1      10.924  15.170  30.636  1.00  0.00     0.109 A 
HETATM    7  C8  UNL     1      11.947  15.425  31.580  1.00  0.00     0.073 A 
ENDROOT
BRANCH   7   8
HETATM    8  C9  UNL     1      11.567  15.442  32.954  1.00  0.00     0.255 C 
HETATM    9  O1  UNL     1      12.314  15.007  33.852  1.00  0.00    -0.268 OA
HETATM   10  N4  UNL     1      10.324  15.951  33.397  1.00  0.00    -0.353 N 
ATOM     11  H4  UNL     1       9.668  16.323  32.710  1.00  0.00     0.163 HD
BRANCH  10  12
HETATM   12  C10 UNL     1       9.950  15.959  34.809  1.00  0.00     0.076 C 
HETATM   13  C11 UNL     1       8.928  14.845  35.027  1.00  0.00     0.032 C 
HETATM   14  C12 UNL     1       9.415  17.276  35.260  1.00  0.00     0.032 C 
ENDBRANCH  10  12
ENDBRANCH   7   8
BRANCH   1  15
HETATM   15  N1  UNL     1      14.290  15.916  31.980  1.00  0.00    -0.386 N 
ATOM     16  H1  UNL     1      14.161  15.784  32.983  1.00  0.00     0.160 HD
BRANCH  15  17
HETATM   17  C3  UNL     1      15.580  16.442  31.538  1.00  0.00     0.146 C 
BRANCH  17  18
HETATM   18  C2  UNL     1      16.056  17.457  32.514  1.00  0.00    -0.018 C 
HETATM   19  C1  UNL     1      17.264  17.516  33.044  1.00  0.00     0.008 C 
ENDBRANCH  17  18
ENDBRANCH  15  17
ENDBRANCH   1  15
BRANCH   3  20
HETATM   20  N2  UNL     1      12.657  15.133  27.626  1.00  0.00    -0.385 N 
ATOM     21  H22 UNL     1      12.096  14.454  27.110  1.00  0.00     0.157 HD
ATOM     22  H21 UNL     1      13.349  15.706  27.144  1.00  0.00     0.157 HD
ENDBRANCH   3  20
TORSDOF 6
ENDMDL
MODEL 4
REMARK VINA RESULT: -4.639322712      2.597      5.603
REMARK  6 active torsions:
REMARK  status: ('A' for Active; 'I' for Inactive)
REMARK    1  A    between atoms: C2_2  and  C3_3 
REMARK    2  A    between atoms: C3_3  and  N1_4 
REMARK    3  A    between atoms: N1_4  and  C4_6 
REMARK    4  A    between atoms: C6_8  and  N2_9 
REMARK    5  A    between atoms: C8_15  and  C9_16 
REMARK       I    between atoms: C9_16  and  N4_18 
REMARK    6  A    between atoms: N4_18  and  C10_20 
ROOT
HETATM    1  C4  UNL     1      14.387  15.465  30.911  1.00  0.00     0.049 A 
HETATM    2  C5  UNL     1      14.023  15.590  29.561  1.00  0.00     0.078 A 
HETATM    3  C6  UNL     1      12.881  15.002  29.070  1.00  0.00     0.100 A 
HETATM    4  N3  UNL     1      12.082  14.292  29.874  1.00  0.00    -0.352 N 
ATOM      5  H3  UNL     1      11.236  13.861  29.501  1.00  0.00     0.166 HD
HETATM    6  C7  UNL     1      12.394  14.148  31.170  1.00  0.00     0.109 A 
HETATM    7  C8  UNL     1      13.561  14.736  31.711  1.00  0.00     0.073 A 
ENDROOT
BRANCH   7   8
HETATM    8  C9  UNL     1      13.837  14.473  33.085  1.00  0.00     0.255 C 
HETATM    9  O1  UNL     1      13.022  14.749  33.988  1.00  0.00    -0.268 OA
HETATM   10  N4  UNL     1      15.046  13.883  33.523  1.00  0.00    -0.353 N 
ATOM     11  H4  UNL     1      15.753  13.632  32.832  1.00  0.00     0.163 HD
BRANCH  10  12
HETATM   12  C10 UNL     1      15.311  13.622  34.936  1.00  0.00     0.076 C 
HETATM   13  C11 UNL     1      16.306  14.674  35.424  1.00  0.00     0.032 C 
HETATM   14  C12 UNL     1      15.822  12.243  35.185  1.00  0.00     0.032 C 
ENDBRANCH  10  12
ENDBRANCH   7   8
BRANCH   1  15
HETATM   15  N1  UNL     1      15.502  16.148  31.350  1.00  0.00    -0.386 N 
ATOM     16  H1  UNL     1      16.412  15.748  31.125  1.00  0.00     0.160 HD
BRANCH  15  17
HETATM   17  C3  UNL     1      15.493  17.396  32.111  1.00  0.00     0.146 C 
BRANCH  17  18
HETATM   18  C2  UNL     1      16.771  17.522  32.860  1.00  0.00    -0.018 C 
HETATM   19  C1  UNL     1      17.832  16.749  32.718  1.00  0.00     0.008 C 
ENDBRANCH  17  18
ENDBRANCH  15  17
ENDBRANCH   1  15
BRANCH   3  20
HETATM   20  N2  UNL     1      12.535  15.109  27.834  1.00  0.00    -0.385 N 
ATOM     21  H22 UNL     1      11.557  14.936  27.603  1.00  0.00     0.157 HD
ATOM     22  H21 UNL     1      13.204  15.356  27.104  1.00  0.00     0.157 HD
ENDBRANCH   3  20
TORSDOF 6
ENDMDL
MODEL 5
REMARK VINA RESULT: -4.603369698      2.262      5.876
REMARK  6 active torsions:
REMARK  status: ('A' for Active; 'I' for Inactive)
REMARK    1  A    between atoms: C2_2  and  C3_3 
REMARK    2  A    between atoms: C3_3  and  N1_4 
REMARK    3  A    between atoms: N1_4  and  C4_6 
REMARK    4  A    between atoms: C6_8  and  N2_9 
REMARK    5  A    between atoms: C8_15  and  C9_16 
REMARK       I    between atoms: C9_16  and  N4_18 
REMARK    6  A    between atoms: N4_18  and  C10_20 
ROOT
HETATM    1  C4  UNL     1      14.488  15.466  30.860  1.00  0.00     0.049 A 
HETATM    2  C5  UNL     1      13.534  15.855  29.906  1.00  0.00     0.078 A 
HETATM    3  C6  UNL     1      12.438  15.073  29.628  1.00  0.00     0.100 A 
HETATM    4  N3  UNL     1      12.251  13.913  30.267  1.00  0.00    -0.352 N 
ATOM      5  H3  UNL     1      11.435  13.340  30.055  1.00  0.00     0.166 HD
HETATM    6  C7  UNL     1      13.138  13.504  31.185  1.00  0.00     0.109 A 
HETATM    7  C8  UNL     1      14.279  14.280  31.497  1.00  0.00     0.073 A 
ENDROOT
BRANCH   7   8
HETATM    8  C9  UNL     1      15.194  13.730  32.442  1.00  0.00     0.255 C 
HETATM    9  O1  UNL     1      15.261  14.144  33.616  1.00  0.00    -0.268 OA
HETATM   10  N4  UNL     1      16.086  12.680  32.120  1.00  0.00    -0.353 N 
ATOM     11  H4  UNL     1      16.079  12.296  31.175  1.00  0.00     0.163 HD
BRANCH  10  12
HETATM   12  C10 UNL     1      17.018  12.129  33.101  1.00  0.00     0.076 C 
HETATM   13  C11 UNL     1      18.384  12.768  32.856  1.00  0.00     0.032 C 
HETATM   14  C12 UNL     1      17.103  10.641  33.049  1.00  0.00     0.032 C 
ENDBRANCH  10  12
ENDBRANCH   7   8
BRANCH   1  15
HETATM   15  N1  UNL     1      15.517  16.338  31.145  1.00  0.00    -0.386 N 
ATOM     16  H1  UNL     1      16.382  16.225  30.617  1.00  0.00     0.160 HD
BRANCH  15  17
HETATM   17  C3  UNL     1      15.477  17.410  32.138  1.00  0.00     0.146 C 
BRANCH  17  18
HETATM   18  C2  UNL     1      16.764  17.438  32.881  1.00  0.00    -0.018 C 
HETATM   19  C1  UNL     1      17.814  16.673  32.642  1.00  0.00     0.008 C 
ENDBRANCH  17  18
ENDBRANCH  15  17
ENDBRANCH   1  15
BRANCH   3  20
HETATM   20  N2  UNL     1      11.557  15.419  28.755  1.00  0.00    -0.385 N 
ATOM     21  H22 UNL     1      10.693  14.876  28.720  1.00  0.00     0.157 HD
ATOM     22  H21 UNL     1      11.703  16.202  28.118  1.00  0.00     0.157 HD
ENDBRANCH   3  20
TORSDOF 6
ENDMDL
