MODEL 1
REMARK VINA RESULT: -7.517734574      0.000      0.000
REMARK  14 active torsions:
REMARK  status: ('A' for Active; 'I' for Inactive)
REMARK    1  A    between atoms: C2_2  and  C3_3 
REMARK    2  A    between atoms: C3_3  and  C4_4 
REMARK    3  A    between atoms: C3_3  and  N1_7 
REMARK    4  A    between atoms: N1_7  and  C5_8 
REMARK    5  A    between atoms: N1_7  and  C10_14 
REMARK    6  A    between atoms: C5_8  and  C6_9 
REMARK    7  A    between atoms: C6_9  and  C7_10 
REMARK    8  A    between atoms: C10_14  and  O3_15 
REMARK    9  A    between atoms: C10_14  and  C11_17 
REMARK   10  A    between atoms: C11_17  and  C12_18 
REMARK   11  A    between atoms: C11_17  and  N3_22 
REMARK   12  A    between atoms: C12_18  and  C13_19 
REMARK   13  A    between atoms: C13_19  and  C14_20 
REMARK       I    between atoms: N3_22  and  C15_24 
REMARK       I    between atoms: C15_24  and  N5_28 
REMARK   14  A    between atoms: N5_28  and  C16_30 
ROOT
HETATM    1  C11 UNL     1    -142.566-171.562 360.403  1.00  0.00     0.077 C 
ENDROOT
BRANCH   1   2
HETATM    2  C10 UNL     1    -143.762-172.288 360.543  1.00  0.00     0.162 C 
BRANCH   2   3
HETATM    3  N1  UNL     1    -145.081-172.138 360.082  1.00  0.00    -0.345 N 
BRANCH   3   4
HETATM    4  C3  UNL     1    -145.452-170.770 359.638  1.00  0.00     0.187 C 
BRANCH   4   5
HETATM    5  C2  UNL     1    -146.029-169.918 360.717  1.00  0.00     0.032 C 
HETATM    6  C1  UNL     1    -145.115-168.858 361.249  1.00  0.00     0.007 C 
ENDBRANCH   4   5
BRANCH   4   7
HETATM    7  C4  UNL     1    -146.326-170.822 358.468  1.00  0.00     0.196 C 
HETATM    8  O1  UNL     1    -147.546-170.584 358.411  1.00  0.00    -0.646 OA
HETATM    9  O2  UNL     1    -145.749-171.183 357.226  1.00  0.00    -0.646 OA
ENDBRANCH   4   7
ENDBRANCH   3   4
BRANCH   3  10
HETATM   10  C5  UNL     1    -146.057-173.155 360.007  1.00  0.00     0.130 C 
BRANCH  10  11
HETATM   11  C6  UNL     1    -146.967-173.325 361.207  1.00  0.00     0.048 C 
BRANCH  11  12
HETATM   12  C7  UNL     1    -148.335-173.771 360.752  1.00  0.00    -0.004 C 
HETATM   13  C8  UNL     1    -149.362-172.960 360.722  1.00  0.00     0.016 C 
HETATM   14  C9  UNL     1    -150.670-173.478 360.262  1.00  0.00     0.064 C 
HETATM   15  N2  UNL     1    -149.272-171.602 361.114  1.00  0.00    -0.108 NA
ENDBRANCH  11  12
ENDBRANCH  10  11
ENDBRANCH   3  10
ENDBRANCH   2   3
BRANCH   2  16
HETATM   16  O3  UNL     1    -143.594-173.388 361.292  1.00  0.00    -0.345 OA
ATOM     17  H3  UNL     1    -142.846-173.326 361.876  1.00  0.00     0.219 HD
ENDBRANCH   2  16
ENDBRANCH   1   2
BRANCH   1  18
HETATM   18  C12 UNL     1    -141.822-171.222 359.199  1.00  0.00     0.063 C 
BRANCH  18  19
HETATM   19  C13 UNL     1    -142.440-171.941 357.996  1.00  0.00     0.017 C 
BRANCH  19  20
HETATM   20  C14 UNL     1    -141.452-172.051 356.886  1.00  0.00     0.085 C 
HETATM   21 BR1  UNL     1    -140.135-170.658 356.914  1.00  0.00    -0.097 Br
ENDBRANCH  19  20
ENDBRANCH  18  19
ENDBRANCH   1  18
BRANCH   1  22
HETATM   22  N3  UNL     1    -142.094-170.999 361.506  1.00  0.00    -0.192 N 
HETATM   23  C15 UNL     1    -140.835-171.180 362.054  1.00  0.00     0.672 C 
HETATM   24  N4  UNL     1    -140.494-172.205 362.772  1.00  0.00    -0.235 N 
HETATM   25  N5  UNL     1    -139.848-170.170 361.834  1.00  0.00    -0.222 N 
ATOM     26  H42 UNL     1    -141.198-172.926 362.929  1.00  0.00     0.174 HD
ATOM     27  H41 UNL     1    -139.566-172.339 363.176  1.00  0.00     0.174 HD
ATOM     28  H5  UNL     1    -140.079-169.193 362.013  1.00  0.00     0.178 HD
ATOM     29  H3  UNL     1    -142.722-170.366 362.001  1.00  0.00     0.184 HD
BRANCH  25  30
HETATM   30  C16 UNL     1    -138.530-170.516 361.361  1.00  0.00     0.099 C 
HETATM   31  C17 UNL     1    -138.291-169.735 360.081  1.00  0.00     0.026 C 
HETATM   32  C18 UNL     1    -136.925-170.024 359.500  1.00  0.00     0.002 C 
HETATM   33  C19 UNL     1    -135.985-170.568 360.574  1.00  0.00     0.000 C 
HETATM   34  C20 UNL     1    -136.212-169.679 361.790  1.00  0.00     0.002 C 
HETATM   35  C21 UNL     1    -137.520-170.144 362.423  1.00  0.00     0.026 C 
ENDBRANCH  25  30
ENDBRANCH   1  22
TORSDOF 14
ENDMDL
MODEL 2
REMARK VINA RESULT: -7.342644266      3.279      5.519
REMARK  14 active torsions:
REMARK  status: ('A' for Active; 'I' for Inactive)
REMARK    1  A    between atoms: C2_2  and  C3_3 
REMARK    2  A    between atoms: C3_3  and  C4_4 
REMARK    3  A    between atoms: C3_3  and  N1_7 
REMARK    4  A    between atoms: N1_7  and  C5_8 
REMARK    5  A    between atoms: N1_7  and  C10_14 
REMARK    6  A    between atoms: C5_8  and  C6_9 
REMARK    7  A    between atoms: C6_9  and  C7_10 
REMARK    8  A    between atoms: C10_14  and  O3_15 
REMARK    9  A    between atoms: C10_14  and  C11_17 
REMARK   10  A    between atoms: C11_17  and  C12_18 
REMARK   11  A    between atoms: C11_17  and  N3_22 
REMARK   12  A    between atoms: C12_18  and  C13_19 
REMARK   13  A    between atoms: C13_19  and  C14_20 
REMARK       I    between atoms: N3_22  and  C15_24 
REMARK       I    between atoms: C15_24  and  N5_28 
REMARK   14  A    between atoms: N5_28  and  C16_30 
ROOT
HETATM    1  C11 UNL     1    -146.948-172.411 360.489  1.00  0.00     0.077 C 
ENDROOT
BRANCH   1   2
HETATM    2  C10 UNL     1    -147.823-173.390 360.990  1.00  0.00     0.162 C 
BRANCH   2   3
HETATM    3  N1  UNL     1    -149.047-173.943 360.575  1.00  0.00    -0.345 N 
BRANCH   3   4
HETATM    4  C3  UNL     1    -148.996-174.739 359.323  1.00  0.00     0.187 C 
BRANCH   4   5
HETATM    5  C2  UNL     1    -150.291-174.793 358.586  1.00  0.00     0.032 C 
HETATM    6  C1  UNL     1    -150.266-175.575 357.310  1.00  0.00     0.007 C 
ENDBRANCH   4   5
BRANCH   4   7
HETATM    7  C4  UNL     1    -148.466-176.078 359.577  1.00  0.00     0.196 C 
HETATM    8  O1  UNL     1    -147.375-176.552 359.214  1.00  0.00    -0.646 OA
HETATM    9  O2  UNL     1    -149.266-176.974 360.326  1.00  0.00    -0.646 OA
ENDBRANCH   4   7
ENDBRANCH   3   4
BRANCH   3  10
HETATM   10  C5  UNL     1    -150.287-173.810 361.237  1.00  0.00     0.130 C 
BRANCH  10  11
HETATM   11  C6  UNL     1    -150.293-174.029 362.737  1.00  0.00     0.048 C 
BRANCH  11  12
HETATM   12  C7  UNL     1    -150.591-175.476 363.041  1.00  0.00    -0.004 C 
HETATM   13  C8  UNL     1    -149.792-176.218 363.764  1.00  0.00     0.016 C 
HETATM   14  C9  UNL     1    -150.158-177.631 364.017  1.00  0.00     0.064 C 
HETATM   15  N2  UNL     1    -148.585-175.723 364.318  1.00  0.00    -0.108 NA
ENDBRANCH  11  12
ENDBRANCH  10  11
ENDBRANCH   3  10
ENDBRANCH   2   3
BRANCH   2  16
HETATM   16  O3  UNL     1    -147.373-173.923 362.136  1.00  0.00    -0.345 OA
ATOM     17  H3  UNL     1    -147.645-173.432 362.903  1.00  0.00     0.219 HD
ENDBRANCH   2  16
ENDBRANCH   1   2
BRANCH   1  18
HETATM   18  C12 UNL     1    -147.055-171.600 359.284  1.00  0.00     0.063 C 
BRANCH  18  19
HETATM   19  C13 UNL     1    -148.289-170.699 359.381  1.00  0.00     0.017 C 
BRANCH  19  20
HETATM   20  C14 UNL     1    -147.951-169.420 360.068  1.00  0.00     0.085 C 
HETATM   21 BR1  UNL     1    -146.220-168.749 359.595  1.00  0.00    -0.097 Br
ENDBRANCH  19  20
ENDBRANCH  18  19
ENDBRANCH   1  18
BRANCH   1  22
HETATM   22  N3  UNL     1    -145.932-172.080 361.273  1.00  0.00    -0.192 N 
HETATM   23  C15 UNL     1    -144.606-172.437 361.102  1.00  0.00     0.672 C 
HETATM   24  N4  UNL     1    -144.113-173.592 361.431  1.00  0.00    -0.235 N 
HETATM   25  N5  UNL     1    -143.710-171.473 360.547  1.00  0.00    -0.222 N 
ATOM     26  H42 UNL     1    -144.752-174.281 361.827  1.00  0.00     0.174 HD
ATOM     27  H41 UNL     1    -143.136-173.856 361.305  1.00  0.00     0.174 HD
ATOM     28  H5  UNL     1    -143.684-170.528 360.932  1.00  0.00     0.178 HD
ATOM     29  H3  UNL     1    -146.150-171.503 362.085  1.00  0.00     0.184 HD
BRANCH  25  30
HETATM   30  C16 UNL     1    -142.841-171.817 359.448  1.00  0.00     0.099 C 
HETATM   31  C17 UNL     1    -143.350-171.079 358.222  1.00  0.00     0.026 C 
HETATM   32  C18 UNL     1    -142.501-171.370 357.005  1.00  0.00     0.002 C 
HETATM   33  C19 UNL     1    -141.116-171.864 357.418  1.00  0.00     0.000 C 
HETATM   34  C20 UNL     1    -140.682-170.935 358.545  1.00  0.00     0.002 C 
HETATM   35  C21 UNL     1    -141.431-171.395 359.792  1.00  0.00     0.026 C 
ENDBRANCH  25  30
ENDBRANCH   1  22
TORSDOF 14
ENDMDL
MODEL 3
REMARK VINA RESULT: -7.336963709      3.846      9.240
REMARK  14 active torsions:
REMARK  status: ('A' for Active; 'I' for Inactive)
REMARK    1  A    between atoms: C2_2  and  C3_3 
REMARK    2  A    between atoms: C3_3  and  C4_4 
REMARK    3  A    between atoms: C3_3  and  N1_7 
REMARK    4  A    between atoms: N1_7  and  C5_8 
REMARK    5  A    between atoms: N1_7  and  C10_14 
REMARK    6  A    between atoms: C5_8  and  C6_9 
REMARK    7  A    between atoms: C6_9  and  C7_10 
REMARK    8  A    between atoms: C10_14  and  O3_15 
REMARK    9  A    between atoms: C10_14  and  C11_17 
REMARK   10  A    between atoms: C11_17  and  C12_18 
REMARK   11  A    between atoms: C11_17  and  N3_22 
REMARK   12  A    between atoms: C12_18  and  C13_19 
REMARK   13  A    between atoms: C13_19  and  C14_20 
REMARK       I    between atoms: N3_22  and  C15_24 
REMARK       I    between atoms: C15_24  and  N5_28 
REMARK   14  A    between atoms: N5_28  and  C16_30 
ROOT
HETATM    1  C11 UNL     1    -147.882-174.279 360.515  1.00  0.00     0.077 C 
ENDROOT
BRANCH   1   2
HETATM    2  C10 UNL     1    -147.014-173.327 359.953  1.00  0.00     0.162 C 
BRANCH   2   3
HETATM    3  N1  UNL     1    -147.143-172.005 359.492  1.00  0.00    -0.345 N 
BRANCH   3   4
HETATM    4  C3  UNL     1    -148.500-171.621 359.025  1.00  0.00     0.187 C 
BRANCH   4   5
HETATM    5  C2  UNL     1    -148.533-171.079 357.637  1.00  0.00     0.032 C 
HETATM    6  C1  UNL     1    -148.938-172.057 356.579  1.00  0.00     0.007 C 
ENDBRANCH   4   5
BRANCH   4   7
HETATM    7  C4  UNL     1    -149.138-170.711 359.974  1.00  0.00     0.196 C 
HETATM    8  O1  UNL     1    -149.568-169.562 359.764  1.00  0.00    -0.646 OA
HETATM    9  O2  UNL     1    -149.306-171.157 361.308  1.00  0.00    -0.646 OA
ENDBRANCH   4   7
ENDBRANCH   3   4
BRANCH   3  10
HETATM   10  C5  UNL     1    -146.117-171.038 359.439  1.00  0.00     0.130 C 
BRANCH  10  11
HETATM   11  C6  UNL     1    -145.632-170.478 360.762  1.00  0.00     0.048 C 
BRANCH  11  12
HETATM   12  C7  UNL     1    -144.127-170.376 360.753  1.00  0.00    -0.004 C 
HETATM   13  C8  UNL     1    -143.356-171.352 361.161  1.00  0.00     0.016 C 
HETATM   14  C9  UNL     1    -141.887-171.171 361.120  1.00  0.00     0.064 C 
HETATM   15  N2  UNL     1    -143.873-172.579 361.643  1.00  0.00    -0.108 NA
ENDBRANCH  11  12
ENDBRANCH  10  11
ENDBRANCH   3  10
ENDBRANCH   2   3
BRANCH   2  16
HETATM   16  O3  UNL     1    -145.763-173.798 359.836  1.00  0.00    -0.345 OA
ATOM     17  H3  UNL     1    -145.481-174.288 360.601  1.00  0.00     0.219 HD
ENDBRANCH   2  16
ENDBRANCH   1   2
BRANCH   1  18
HETATM   18  C12 UNL     1    -148.337-175.552 359.976  1.00  0.00     0.063 C 
BRANCH  18  19
HETATM   19  C13 UNL     1    -149.298-175.300 358.810  1.00  0.00     0.017 C 
BRANCH  19  20
HETATM   20  C14 UNL     1    -149.523-176.553 358.035  1.00  0.00     0.085 C 
HETATM   21 BR1  UNL     1    -148.338-177.971 358.543  1.00  0.00    -0.097 Br
ENDBRANCH  19  20
ENDBRANCH  18  19
ENDBRANCH   1  18
BRANCH   1  22
HETATM   22  N3  UNL     1    -148.258-174.058 361.766  1.00  0.00    -0.192 N 
HETATM   23  C15 UNL     1    -149.430-174.487 362.366  1.00  0.00     0.672 C 
HETATM   24  N4  UNL     1    -150.581-173.906 362.218  1.00  0.00    -0.235 N 
HETATM   25  N5  UNL     1    -149.375-175.633 363.219  1.00  0.00    -0.222 N 
ATOM     26  H42 UNL     1    -150.621-173.089 361.609  1.00  0.00     0.174 HD
ATOM     27  H41 UNL     1    -151.444-174.223 362.659  1.00  0.00     0.174 HD
ATOM     28  H5  UNL     1    -148.666-175.682 363.951  1.00  0.00     0.178 HD
ATOM     29  H3  UNL     1    -147.619-173.516 362.347  1.00  0.00     0.184 HD
BRANCH  25  30
HETATM   30  C16 UNL     1    -150.307-176.721 363.056  1.00  0.00     0.099 C 
HETATM   31  C17 UNL     1    -149.727-177.660 362.013  1.00  0.00     0.026 C 
HETATM   32  C18 UNL     1    -150.632-178.846 361.767  1.00  0.00     0.002 C 
HETATM   33  C19 UNL     1    -151.569-179.066 362.953  1.00  0.00     0.000 C 
HETATM   34  C20 UNL     1    -150.690-178.919 364.188  1.00  0.00     0.002 C 
HETATM   35  C21 UNL     1    -150.474-177.421 364.386  1.00  0.00     0.026 C 
ENDBRANCH  25  30
ENDBRANCH   1  22
TORSDOF 14
ENDMDL
MODEL 4
REMARK VINA RESULT: -7.293685162      2.100      3.901
REMARK  14 active torsions:
REMARK  status: ('A' for Active; 'I' for Inactive)
REMARK    1  A    between atoms: C2_2  and  C3_3 
REMARK    2  A    between atoms: C3_3  and  C4_4 
REMARK    3  A    between atoms: C3_3  and  N1_7 
REMARK    4  A    between atoms: N1_7  and  C5_8 
REMARK    5  A    between atoms: N1_7  and  C10_14 
REMARK    6  A    between atoms: C5_8  and  C6_9 
REMARK    7  A    between atoms: C6_9  and  C7_10 
REMARK    8  A    between atoms: C10_14  and  O3_15 
REMARK    9  A    between atoms: C10_14  and  C11_17 
REMARK   10  A    between atoms: C11_17  and  C12_18 
REMARK   11  A    between atoms: C11_17  and  N3_22 
REMARK   12  A    between atoms: C12_18  and  C13_19 
REMARK   13  A    between atoms: C13_19  and  C14_20 
REMARK       I    between atoms: N3_22  and  C15_24 
REMARK       I    between atoms: C15_24  and  N5_28 
REMARK   14  A    between atoms: N5_28  and  C16_30 
ROOT
HETATM    1  C11 UNL     1    -142.520-171.392 359.841  1.00  0.00     0.077 C 
ENDROOT
BRANCH   1   2
HETATM    2  C10 UNL     1    -143.903-171.373 359.589  1.00  0.00     0.162 C 
BRANCH   2   3
HETATM    3  N1  UNL     1    -144.876-170.372 359.426  1.00  0.00    -0.345 N 
BRANCH   3   4
HETATM    4  C3  UNL     1    -145.656-170.036 360.644  1.00  0.00     0.187 C 
BRANCH   4   5
HETATM    5  C2  UNL     1    -147.123-169.913 360.410  1.00  0.00     0.032 C 
HETATM    6  C1  UNL     1    -147.882-171.203 360.431  1.00  0.00     0.007 C 
ENDBRANCH   4   5
BRANCH   4   7
HETATM    7  C4  UNL     1    -145.114-168.844 361.297  1.00  0.00     0.196 C 
HETATM    8  O1  UNL     1    -145.523-167.673 361.215  1.00  0.00    -0.646 OA
HETATM    9  O2  UNL     1    -143.984-169.006 362.134  1.00  0.00    -0.646 OA
ENDBRANCH   4   7
ENDBRANCH   3   4
BRANCH   3  10
HETATM   10  C5  UNL     1    -145.163-169.677 358.232  1.00  0.00     0.130 C 
BRANCH  10  11
HETATM   11  C6  UNL     1    -145.187-170.489 356.952  1.00  0.00     0.048 C 
BRANCH  11  12
HETATM   12  C7  UNL     1    -144.261-169.870 355.935  1.00  0.00    -0.004 C 
HETATM   13  C8  UNL     1    -143.482-170.588 355.168  1.00  0.00     0.016 C 
HETATM   14  C9  UNL     1    -142.602-169.901 354.195  1.00  0.00     0.064 C 
HETATM   15  N2  UNL     1    -143.446-172.003 355.230  1.00  0.00    -0.108 NA
ENDBRANCH  11  12
ENDBRANCH  10  11
ENDBRANCH   3  10
ENDBRANCH   2   3
BRANCH   2  16
HETATM   16  O3  UNL     1    -144.406-172.612 359.470  1.00  0.00    -0.345 OA
ATOM     17  H3  UNL     1    -144.047-173.086 358.729  1.00  0.00     0.219 HD
ENDBRANCH   2  16
ENDBRANCH   1   2
BRANCH   1  18
HETATM   18  C12 UNL     1    -141.423-171.789 358.970  1.00  0.00     0.063 C 
BRANCH  18  19
HETATM   19  C13 UNL     1    -141.205-170.715 357.900  1.00  0.00     0.017 C 
BRANCH  19  20
HETATM   20  C14 UNL     1    -140.235-171.188 356.872  1.00  0.00     0.085 C 
HETATM   21 BR1  UNL     1    -139.161-169.776 356.149  1.00  0.00    -0.097 Br
ENDBRANCH  19  20
ENDBRANCH  18  19
ENDBRANCH   1  18
BRANCH   1  22
HETATM   22  N3  UNL     1    -142.130-170.865 360.993  1.00  0.00    -0.192 N 
HETATM   23  C15 UNL     1    -140.933-171.100 361.646  1.00  0.00     0.672 C 
HETATM   24  N4  UNL     1    -140.691-172.149 362.371  1.00  0.00    -0.235 N 
HETATM   25  N5  UNL     1    -139.897-170.121 361.537  1.00  0.00    -0.222 N 
ATOM     26  H42 UNL     1    -141.429-172.848 362.449  1.00  0.00     0.174 HD
ATOM     27  H41 UNL     1    -139.808-172.322 362.852  1.00  0.00     0.174 HD
ATOM     28  H5  UNL     1    -140.111-169.140 361.715  1.00  0.00     0.178 HD
ATOM     29  H3  UNL     1    -142.779-170.220 361.444  1.00  0.00     0.184 HD
BRANCH  25  30
HETATM   30  C16 UNL     1    -138.554-170.504 361.176  1.00  0.00     0.099 C 
HETATM   31  C17 UNL     1    -138.207-169.774 359.890  1.00  0.00     0.026 C 
HETATM   32  C18 UNL     1    -136.807-170.105 359.423  1.00  0.00     0.002 C 
HETATM   33  C19 UNL     1    -135.959-170.623 360.583  1.00  0.00     0.000 C 
HETATM   34  C20 UNL     1    -136.259-169.687 361.746  1.00  0.00     0.002 C 
HETATM   35  C21 UNL     1    -137.619-170.108 362.296  1.00  0.00     0.026 C 
ENDBRANCH  25  30
ENDBRANCH   1  22
TORSDOF 14
ENDMDL
MODEL 5
REMARK VINA RESULT: -7.269350590      4.739      7.724
REMARK  14 active torsions:
REMARK  status: ('A' for Active; 'I' for Inactive)
REMARK    1  A    between atoms: C2_2  and  C3_3 
REMARK    2  A    between atoms: C3_3  and  C4_4 
REMARK    3  A    between atoms: C3_3  and  N1_7 
REMARK    4  A    between atoms: N1_7  and  C5_8 
REMARK    5  A    between atoms: N1_7  and  C10_14 
REMARK    6  A    between atoms: C5_8  and  C6_9 
REMARK    7  A    between atoms: C6_9  and  C7_10 
REMARK    8  A    between atoms: C10_14  and  O3_15 
REMARK    9  A    between atoms: C10_14  and  C11_17 
REMARK   10  A    between atoms: C11_17  and  C12_18 
REMARK   11  A    between atoms: C11_17  and  N3_22 
REMARK   12  A    between atoms: C12_18  and  C13_19 
REMARK   13  A    between atoms: C13_19  and  C14_20 
REMARK       I    between atoms: N3_22  and  C15_24 
REMARK       I    between atoms: C15_24  and  N5_28 
REMARK   14  A    between atoms: N5_28  and  C16_30 
ROOT
HETATM    1  C11 UNL     1    -137.840-170.127 361.901  1.00  0.00     0.077 C 
ENDROOT
BRANCH   1   2
HETATM    2  C10 UNL     1    -138.937-169.847 361.066  1.00  0.00     0.162 C 
BRANCH   2   3
HETATM    3  N1  UNL     1    -139.371-170.288 359.805  1.00  0.00    -0.345 N 
BRANCH   3   4
HETATM    4  C3  UNL     1    -140.524-171.223 359.817  1.00  0.00     0.187 C 
BRANCH   4   5
HETATM    5  C2  UNL     1    -141.511-170.984 358.726  1.00  0.00     0.032 C 
HETATM    6  C1  UNL     1    -141.472-171.974 357.603  1.00  0.00     0.007 C 
ENDBRANCH   4   5
BRANCH   4   7
HETATM    7  C4  UNL     1    -141.168-171.238 361.130  1.00  0.00     0.196 C 
HETATM    8  O1  UNL     1    -140.784-171.812 362.165  1.00  0.00    -0.646 OA
HETATM    9  O2  UNL     1    -142.380-170.522 361.281  1.00  0.00    -0.646 OA
ENDBRANCH   4   7
ENDBRANCH   3   4
BRANCH   3  10
HETATM   10  C5  UNL     1    -138.816-169.923 358.559  1.00  0.00     0.130 C 
BRANCH  10  11
HETATM   11  C6  UNL     1    -138.366-168.484 358.403  1.00  0.00     0.048 C 
BRANCH  11  12
HETATM   12  C7  UNL     1    -137.345-168.386 357.297  1.00  0.00    -0.004 C 
HETATM   13  C8  UNL     1    -137.148-167.282 356.621  1.00  0.00     0.016 C 
HETATM   14  C9  UNL     1    -136.125-167.270 355.551  1.00  0.00     0.064 C 
HETATM   15  N2  UNL     1    -137.876-166.094 356.874  1.00  0.00    -0.108 NA
ENDBRANCH  11  12
ENDBRANCH  10  11
ENDBRANCH   3  10
ENDBRANCH   2   3
BRANCH   2  16
HETATM   16  O3  UNL     1    -139.765-168.946 361.616  1.00  0.00    -0.345 OA
ATOM     17  H3  UNL     1    -139.631-168.067 361.278  1.00  0.00     0.219 HD
ENDBRANCH   2  16
ENDBRANCH   1   2
BRANCH   1  18
HETATM   18  C12 UNL     1    -136.420-169.894 361.676  1.00  0.00     0.063 C 
BRANCH  18  19
HETATM   19  C13 UNL     1    -135.943-170.749 360.498  1.00  0.00     0.017 C 
BRANCH  19  20
HETATM   20  C14 UNL     1    -134.802-171.616 360.908  1.00  0.00     0.085 C 
HETATM   21 BR1  UNL     1    -133.561-171.945 359.484  1.00  0.00    -0.097 Br
ENDBRANCH  19  20
ENDBRANCH  18  19
ENDBRANCH   1  18
BRANCH   1  22
HETATM   22  N3  UNL     1    -138.130-170.556 363.120  1.00  0.00    -0.192 N 
HETATM   23  C15 UNL     1    -137.665-171.714 363.721  1.00  0.00     0.672 C 
HETATM   24  N4  UNL     1    -138.149-172.897 363.497  1.00  0.00    -0.235 N 
HETATM   25  N5  UNL     1    -136.596-171.606 364.663  1.00  0.00    -0.222 N 
ATOM     26  H42 UNL     1    -138.912-172.974 362.825  1.00  0.00     0.174 HD
ATOM     27  H41 UNL     1    -137.806-173.750 363.940  1.00  0.00     0.174 HD
ATOM     28  H5  UNL     1    -136.655-170.920 365.416  1.00  0.00     0.178 HD
ATOM     29  H3  UNL     1    -138.760-169.975 363.672  1.00  0.00     0.184 HD
BRANCH  25  30
HETATM   30  C16 UNL     1    -135.434-172.455 364.564  1.00  0.00     0.099 C 
HETATM   31  C17 UNL     1    -134.212-171.556 364.625  1.00  0.00     0.026 C 
HETATM   32  C18 UNL     1    -132.930-172.353 364.531  1.00  0.00     0.002 C 
HETATM   33  C19 UNL     1    -133.168-173.809 364.928  1.00  0.00     0.000 C 
HETATM   34  C20 UNL     1    -134.029-173.744 366.183  1.00  0.00     0.002 C 
HETATM   35  C21 UNL     1    -135.449-173.435 365.714  1.00  0.00     0.026 C 
ENDBRANCH  25  30
ENDBRANCH   1  22
TORSDOF 14
ENDMDL
