MODEL 1
REMARK VINA RESULT: -8.797100627      0.000      0.000
REMARK  6 active torsions:
REMARK  status: ('A' for Active; 'I' for Inactive)
REMARK    1  A    between atoms: C16_17  and  C17_18 
REMARK    2  A    between atoms: C17_18  and  C18_19 
REMARK    3  A    between atoms: C18_19  and  C19_20 
REMARK    4  A    between atoms: C20_21  and  O2_22 
REMARK    5  A    between atoms: C21_25  and  O4_26 
REMARK    6  A    between atoms: C22_28  and  O5_29 
ROOT
HETATM    1  C1  UNL     1       2.021  -4.527   5.987  1.00  0.00     0.015 C 
HETATM    2  C2  UNL     1       3.347  -5.128   6.349  1.00  0.00    -0.043 C 
HETATM    3  C3  UNL     1       3.277  -5.308   7.884  1.00  0.00     0.015 C 
HETATM    4  C4  UNL     1       3.336  -6.551   5.840  1.00  0.00     0.009 C 
HETATM    5  C5  UNL     1       4.704  -6.842   5.310  1.00  0.00     0.002 C 
HETATM    6  C6  UNL     1       4.893  -5.818   4.179  1.00  0.00     0.010 C 
HETATM    7  C7  UNL     1       5.150  -4.454   4.662  1.00  0.00    -0.028 C 
HETATM    8  C8  UNL     1       4.278  -3.502   3.828  1.00  0.00     0.016 C 
HETATM    9  C9  UNL     1       6.528  -3.966   4.824  1.00  0.00     0.060 C 
HETATM   10  C10 UNL     1       6.363  -2.476   5.103  1.00  0.00    -0.007 C 
HETATM   11  C11 UNL     1       5.446  -2.043   5.938  1.00  0.00    -0.015 C 
HETATM   12  C12 UNL     1       4.525  -3.002   6.648  1.00  0.00     0.034 C 
HETATM   13  C13 UNL     1       4.557  -4.372   6.087  1.00  0.00     0.006 C 
HETATM   14  C14 UNL     1       7.323  -1.732   4.304  1.00  0.00     0.160 C 
HETATM   15  O1  UNL     1       7.748  -0.589   4.538  1.00  0.00    -0.292 OA
HETATM   16  C15 UNL     1       7.690  -2.605   3.161  1.00  0.00     0.118 C 
HETATM   17  C16 UNL     1       7.597  -3.965   3.891  1.00  0.00    -0.063 C 
ENDROOT
BRANCH  17  18
HETATM   18  C17 UNL     1       7.939  -5.057   3.010  1.00  0.00     0.005 C 
BRANCH  18  19
HETATM   19  C18 UNL     1       8.357  -6.212   3.469  1.00  0.00     0.020 C 
BRANCH  19  20
HETATM   20  C19 UNL     1       8.240  -7.495   2.805  1.00  0.00     0.060 A 
HETATM   21  C20 UNL     1       7.780  -8.669   3.365  1.00  0.00     0.199 A 
HETATM   22  O3  UNL     1       7.817  -9.628   2.453  1.00  0.00    -0.261 OA
HETATM   23  C21 UNL     1       8.269  -9.182   1.322  1.00  0.00     0.220 A 
HETATM   24  C22 UNL     1       8.547  -7.829   1.513  1.00  0.00     0.139 A 
BRANCH  21  25
HETATM   25  O2  UNL     1       7.346  -8.823   4.677  1.00  0.00    -0.340 OA
ATOM     26  H2  UNL     1       7.905  -8.854   5.444  1.00  0.00     0.220 HD
ENDBRANCH  21  25
BRANCH  23  27
HETATM   27  O4  UNL     1       8.431  -9.923   0.177  1.00  0.00    -0.339 OA
ATOM     28  H4  UNL     1       8.553  -9.571  -0.697  1.00  0.00     0.220 HD
ENDBRANCH  23  27
BRANCH  24  29
HETATM   29  O5  UNL     1       9.045  -7.025   0.525  1.00  0.00    -0.355 OA
ATOM     30  H5  UNL     1       9.322  -7.271  -0.350  1.00  0.00     0.218 HD
ENDBRANCH  24  29
ENDBRANCH  19  20
ENDBRANCH  18  19
ENDBRANCH  17  18
TORSDOF 6
ENDMDL
MODEL 2
REMARK VINA RESULT: -8.578236844      1.045      1.720
REMARK  6 active torsions:
REMARK  status: ('A' for Active; 'I' for Inactive)
REMARK    1  A    between atoms: C16_17  and  C17_18 
REMARK    2  A    between atoms: C17_18  and  C18_19 
REMARK    3  A    between atoms: C18_19  and  C19_20 
REMARK    4  A    between atoms: C20_21  and  O2_22 
REMARK    5  A    between atoms: C21_25  and  O4_26 
REMARK    6  A    between atoms: C22_28  and  O5_29 
ROOT
HETATM    1  C1  UNL     1       2.515  -4.979   5.763  1.00  0.00     0.015 C 
HETATM    2  C2  UNL     1       3.890  -5.575   5.830  1.00  0.00    -0.043 C 
HETATM    3  C3  UNL     1       4.034  -6.035   7.300  1.00  0.00     0.015 C 
HETATM    4  C4  UNL     1       3.839  -6.881   5.070  1.00  0.00     0.009 C 
HETATM    5  C5  UNL     1       5.128  -7.008   4.322  1.00  0.00     0.002 C 
HETATM    6  C6  UNL     1       5.140  -5.788   3.388  1.00  0.00     0.010 C 
HETATM    7  C7  UNL     1       5.433  -4.524   4.079  1.00  0.00    -0.028 C 
HETATM    8  C8  UNL     1       4.436  -3.477   3.558  1.00  0.00     0.016 C 
HETATM    9  C9  UNL     1       6.809  -4.011   4.148  1.00  0.00     0.060 C 
HETATM   10  C10 UNL     1       6.653  -2.607   4.719  1.00  0.00    -0.007 C 
HETATM   11  C11 UNL     1       5.851  -2.375   5.733  1.00  0.00    -0.015 C 
HETATM   12  C12 UNL     1       5.055  -3.488   6.365  1.00  0.00     0.034 C 
HETATM   13  C13 UNL     1       5.038  -4.730   5.559  1.00  0.00     0.006 C 
HETATM   14  C14 UNL     1       7.480  -1.687   3.955  1.00  0.00     0.160 C 
HETATM   15  O1  UNL     1       7.910  -0.587   4.340  1.00  0.00    -0.292 OA
HETATM   16  C15 UNL     1       7.706  -2.320   2.631  1.00  0.00     0.118 C 
HETATM   17  C16 UNL     1       7.741  -3.793   3.101  1.00  0.00    -0.063 C 
ENDROOT
BRANCH  17  18
HETATM   18  C17 UNL     1       7.982  -4.689   1.995  1.00  0.00     0.005 C 
BRANCH  18  19
HETATM   19  C18 UNL     1       8.792  -5.715   2.099  1.00  0.00     0.020 C 
BRANCH  19  20
HETATM   20  C19 UNL     1       8.421  -7.073   2.447  1.00  0.00     0.060 A 
HETATM   21  C20 UNL     1       7.629  -7.922   1.703  1.00  0.00     0.199 A 
HETATM   22  O3  UNL     1       7.512  -9.077   2.341  1.00  0.00    -0.261 OA
HETATM   23  C21 UNL     1       8.170  -9.062   3.460  1.00  0.00     0.220 A 
HETATM   24  C22 UNL     1       8.758  -7.801   3.556  1.00  0.00     0.139 A 
BRANCH  21  25
HETATM   25  O2  UNL     1       7.045  -7.618   0.478  1.00  0.00    -0.340 OA
ATOM     26  H2  UNL     1       6.730  -8.252  -0.156  1.00  0.00     0.220 HD
ENDBRANCH  21  25
BRANCH  23  27
HETATM   27  O4  UNL     1       8.251 -10.101   4.354  1.00  0.00    -0.339 OA
ATOM     28  H4  UNL     1       7.518 -10.503   4.803  1.00  0.00     0.220 HD
ENDBRANCH  23  27
BRANCH  24  29
HETATM   29  O5  UNL     1       9.535  -7.423   4.616  1.00  0.00    -0.355 OA
ATOM     30  H5  UNL     1       9.264  -7.234   5.507  1.00  0.00     0.218 HD
ENDBRANCH  24  29
ENDBRANCH  19  20
ENDBRANCH  18  19
ENDBRANCH  17  18
TORSDOF 6
ENDMDL
MODEL 3
REMARK VINA RESULT: -8.515138153      2.192      6.979
REMARK  6 active torsions:
REMARK  status: ('A' for Active; 'I' for Inactive)
REMARK    1  A    between atoms: C16_17  and  C17_18 
REMARK    2  A    between atoms: C17_18  and  C18_19 
REMARK    3  A    between atoms: C18_19  and  C19_20 
REMARK    4  A    between atoms: C20_21  and  O2_22 
REMARK    5  A    between atoms: C21_25  and  O4_26 
REMARK    6  A    between atoms: C22_28  and  O5_29 
ROOT
HETATM    1  C1  UNL     1       8.723  -4.703  -0.931  1.00  0.00     0.015 C 
HETATM    2  C2  UNL     1       8.729  -4.137   0.459  1.00  0.00    -0.043 C 
HETATM    3  C3  UNL     1      10.129  -3.493   0.600  1.00  0.00     0.015 C 
HETATM    4  C4  UNL     1       7.805  -2.941   0.448  1.00  0.00     0.009 C 
HETATM    5  C5  UNL     1       7.063  -2.943   1.746  1.00  0.00     0.002 C 
HETATM    6  C6  UNL     1       6.296  -4.274   1.736  1.00  0.00     0.010 C 
HETATM    7  C7  UNL     1       7.149  -5.444   1.990  1.00  0.00    -0.028 C 
HETATM    8  C8  UNL     1       6.757  -6.527   0.972  1.00  0.00     0.016 C 
HETATM    9  C9  UNL     1       7.302  -5.976   3.352  1.00  0.00     0.060 C 
HETATM   10  C10 UNL     1       8.050  -7.290   3.156  1.00  0.00    -0.007 C 
HETATM   11  C11 UNL     1       9.074  -7.368   2.338  1.00  0.00    -0.015 C 
HETATM   12  C12 UNL     1       9.546  -6.164   1.565  1.00  0.00     0.034 C 
HETATM   13  C13 UNL     1       8.585  -5.038   1.587  1.00  0.00     0.006 C 
HETATM   14  C14 UNL     1       7.422  -8.321   3.966  1.00  0.00     0.160 C 
HETATM   15  O1  UNL     1       7.953  -9.371   4.364  1.00  0.00    -0.292 OA
HETATM   16  C15 UNL     1       6.030  -7.872   4.220  1.00  0.00     0.118 C 
HETATM   17  C16 UNL     1       6.304  -6.352   4.288  1.00  0.00    -0.063 C 
ENDROOT
BRANCH  17  18
HETATM   18  C17 UNL     1       5.094  -5.614   4.562  1.00  0.00     0.005 C 
BRANCH  18  19
HETATM   19  C18 UNL     1       4.993  -4.807   5.591  1.00  0.00     0.020 C 
BRANCH  19  20
HETATM   20  C19 UNL     1       5.164  -3.367   5.576  1.00  0.00     0.060 A 
HETATM   21  C20 UNL     1       4.183  -2.423   5.799  1.00  0.00     0.199 A 
HETATM   22  O3  UNL     1       4.715  -1.214   5.704  1.00  0.00    -0.261 OA
HETATM   23  C21 UNL     1       5.982  -1.280   5.434  1.00  0.00     0.220 A 
HETATM   24  C22 UNL     1       6.298  -2.636   5.346  1.00  0.00     0.139 A 
BRANCH  21  25
HETATM   25  O2  UNL     1       2.848  -2.695   6.078  1.00  0.00    -0.340 OA
ATOM     26  H2  UNL     1       2.105  -2.190   5.768  1.00  0.00     0.220 HD
ENDBRANCH  21  25
BRANCH  23  27
HETATM   27  O4  UNL     1       6.823  -0.206   5.271  1.00  0.00    -0.339 OA
ATOM     28  H4  UNL     1       7.771  -0.246   5.236  1.00  0.00     0.220 HD
ENDBRANCH  23  27
BRANCH  24  29
HETATM   29  O5  UNL     1       7.559  -3.089   5.072  1.00  0.00    -0.355 OA
ATOM     30  H5  UNL     1       8.118  -2.865   4.337  1.00  0.00     0.218 HD
ENDBRANCH  24  29
ENDBRANCH  19  20
ENDBRANCH  18  19
ENDBRANCH  17  18
TORSDOF 6
ENDMDL
MODEL 4
REMARK VINA RESULT: -8.389498254      3.180      5.194
REMARK  6 active torsions:
REMARK  status: ('A' for Active; 'I' for Inactive)
REMARK    1  A    between atoms: C16_17  and  C17_18 
REMARK    2  A    between atoms: C17_18  and  C18_19 
REMARK    3  A    between atoms: C18_19  and  C19_20 
REMARK    4  A    between atoms: C20_21  and  O2_22 
REMARK    5  A    between atoms: C21_25  and  O4_26 
REMARK    6  A    between atoms: C22_28  and  O5_29 
ROOT
HETATM    1  C1  UNL     1      -0.124  -7.381   7.336  1.00  0.00     0.015 C 
HETATM    2  C2  UNL     1       0.927  -6.608   8.076  1.00  0.00    -0.043 C 
HETATM    3  C3  UNL     1       0.316  -6.384   9.480  1.00  0.00     0.015 C 
HETATM    4  C4  UNL     1       2.064  -7.565   8.350  1.00  0.00     0.009 C 
HETATM    5  C5  UNL     1       3.337  -6.802   8.172  1.00  0.00     0.002 C 
HETATM    6  C6  UNL     1       3.299  -6.346   6.706  1.00  0.00     0.010 C 
HETATM    7  C7  UNL     1       2.364  -5.237   6.462  1.00  0.00    -0.028 C 
HETATM    8  C8  UNL     1       1.580  -5.572   5.183  1.00  0.00     0.016 C 
HETATM    9  C9  UNL     1       2.835  -3.844   6.489  1.00  0.00     0.060 C 
HETATM   10  C10 UNL     1       1.648  -3.042   5.968  1.00  0.00    -0.007 C 
HETATM   11  C11 UNL     1       0.427  -3.296   6.380  1.00  0.00    -0.015 C 
HETATM   12  C12 UNL     1       0.156  -4.389   7.382  1.00  0.00     0.034 C 
HETATM   13  C13 UNL     1       1.308  -5.295   7.589  1.00  0.00     0.006 C 
HETATM   14  C14 UNL     1       2.121  -2.065   5.000  1.00  0.00     0.160 C 
HETATM   15  O1  UNL     1       1.545  -1.016   4.670  1.00  0.00    -0.292 OA
HETATM   16  C15 UNL     1       3.421  -2.569   4.490  1.00  0.00     0.118 C 
HETATM   17  C16 UNL     1       3.914  -3.245   5.791  1.00  0.00    -0.063 C 
ENDROOT
BRANCH  17  18
HETATM   18  C17 UNL     1       5.222  -3.830   5.613  1.00  0.00     0.005 C 
BRANCH  18  19
HETATM   19  C18 UNL     1       6.307  -3.095   5.555  1.00  0.00     0.020 C 
BRANCH  19  20
HETATM   20  C19 UNL     1       6.856  -2.462   4.372  1.00  0.00     0.060 A 
HETATM   21  C20 UNL     1       7.055  -1.110   4.183  1.00  0.00     0.199 A 
HETATM   22  O3  UNL     1       7.573  -0.912   2.981  1.00  0.00    -0.261 OA
HETATM   23  C21 UNL     1       7.736  -2.034   2.349  1.00  0.00     0.220 A 
HETATM   24  C22 UNL     1       7.288  -3.038   3.208  1.00  0.00     0.139 A 
BRANCH  21  25
HETATM   25  O2  UNL     1       6.760  -0.113   5.106  1.00  0.00    -0.340 OA
ATOM     26  H2  UNL     1       6.340   0.716   4.908  1.00  0.00     0.220 HD
ENDBRANCH  21  25
BRANCH  23  27
HETATM   27  O4  UNL     1       8.250  -2.173   1.084  1.00  0.00    -0.339 OA
ATOM     28  H4  UNL     1       8.203  -2.958   0.550  1.00  0.00     0.220 HD
ENDBRANCH  23  27
BRANCH  24  29
HETATM   29  O5  UNL     1       7.308  -4.364   2.874  1.00  0.00    -0.355 OA
ATOM     30  H5  UNL     1       6.628  -5.014   3.002  1.00  0.00     0.218 HD
ENDBRANCH  24  29
ENDBRANCH  19  20
ENDBRANCH  18  19
ENDBRANCH  17  18
TORSDOF 6
ENDMDL
MODEL 5
REMARK VINA RESULT: -8.382216250      3.491      6.609
REMARK  6 active torsions:
REMARK  status: ('A' for Active; 'I' for Inactive)
REMARK    1  A    between atoms: C16_17  and  C17_18 
REMARK    2  A    between atoms: C17_18  and  C18_19 
REMARK    3  A    between atoms: C18_19  and  C19_20 
REMARK    4  A    between atoms: C20_21  and  O2_22 
REMARK    5  A    between atoms: C21_25  and  O4_26 
REMARK    6  A    between atoms: C22_28  and  O5_29 
ROOT
HETATM    1  C1  UNL     1       9.305  -4.965   1.404  1.00  0.00     0.015 C 
HETATM    2  C2  UNL     1       7.850  -4.664   1.194  1.00  0.00    -0.043 C 
HETATM    3  C3  UNL     1       7.783  -4.099  -0.244  1.00  0.00     0.015 C 
HETATM    4  C4  UNL     1       7.141  -5.992   1.070  1.00  0.00     0.009 C 
HETATM    5  C5  UNL     1       5.831  -5.862   1.778  1.00  0.00     0.002 C 
HETATM    6  C6  UNL     1       6.219  -5.541   3.229  1.00  0.00     0.010 C 
HETATM    7  C7  UNL     1       6.687  -4.160   3.418  1.00  0.00    -0.028 C 
HETATM    8  C8  UNL     1       7.943  -4.220   4.302  1.00  0.00     0.016 C 
HETATM    9  C9  UNL     1       5.752  -3.104   3.832  1.00  0.00     0.060 C 
HETATM   10  C10 UNL     1       6.651  -1.912   4.139  1.00  0.00    -0.007 C 
HETATM   11  C11 UNL     1       7.641  -1.589   3.338  1.00  0.00    -0.015 C 
HETATM   12  C12 UNL     1       7.923  -2.385   2.090  1.00  0.00     0.034 C 
HETATM   13  C13 UNL     1       7.206  -3.679   2.043  1.00  0.00     0.006 C 
HETATM   14  C14 UNL     1       6.228  -1.304   5.389  1.00  0.00     0.160 C 
HETATM   15  O1  UNL     1       6.444  -0.136   5.752  1.00  0.00    -0.292 OA
HETATM   16  C15 UNL     1       5.490  -2.352   6.141  1.00  0.00     0.118 C 
HETATM   17  C16 UNL     1       4.856  -3.077   4.932  1.00  0.00    -0.063 C 
ENDROOT
BRANCH  17  18
HETATM   18  C17 UNL     1       4.023  -4.176   5.359  1.00  0.00     0.005 C 
BRANCH  18  19
HETATM   19  C18 UNL     1       4.262  -4.836   6.467  1.00  0.00     0.020 C 
BRANCH  19  20
HETATM   20  C19 UNL     1       3.360  -4.984   7.592  1.00  0.00     0.060 A 
HETATM   21  C20 UNL     1       3.170  -6.124   8.345  1.00  0.00     0.199 A 
HETATM   22  O3  UNL     1       2.270  -5.878   9.285  1.00  0.00    -0.261 OA
HETATM   23  C21 UNL     1       1.843  -4.655   9.216  1.00  0.00     0.220 A 
HETATM   24  C22 UNL     1       2.517  -4.060   8.149  1.00  0.00     0.139 A 
BRANCH  21  25
HETATM   25  O2  UNL     1       3.818  -7.339   8.151  1.00  0.00    -0.340 OA
ATOM     26  H2  UNL     1       4.074  -7.945   8.837  1.00  0.00     0.220 HD
ENDBRANCH  21  25
BRANCH  23  27
HETATM   27  O4  UNL     1       0.908  -4.085  10.046  1.00  0.00    -0.339 OA
ATOM     28  H4  UNL     1       0.398  -3.308   9.853  1.00  0.00     0.220 HD
ENDBRANCH  23  27
BRANCH  24  29
HETATM   29  O5  UNL     1       2.318  -2.760   7.777  1.00  0.00    -0.355 OA
ATOM     30  H5  UNL     1       2.286  -1.987   8.329  1.00  0.00     0.218 HD
ENDBRANCH  24  29
ENDBRANCH  19  20
ENDBRANCH  18  19
ENDBRANCH  17  18
TORSDOF 6
ENDMDL
