MODEL 1
REMARK VINA RESULT: -6.527169087      0.000      0.000
REMARK  6 active torsions:
REMARK  status: ('A' for Active; 'I' for Inactive)
REMARK    1  A    between atoms: C2_2  and  C3_3 
REMARK    2  A    between atoms: C3_3  and  C4_4 
REMARK    3  A    between atoms: C4_4  and  C5_5 
REMARK    4  A    between atoms: C5_5  and  N1_6 
REMARK    5  A    between atoms: N1_6  and  C6_8 
REMARK    6  A    between atoms: C7_11  and  N3_12 
ROOT
HETATM    1  C6  UNL     1      50.124 -45.528  -2.143  1.00  0.00     0.148 A 
HETATM    2  N2  UNL     1      50.810 -45.103  -3.206  1.00  0.00    -0.175 N 
ATOM      3  H2  UNL     1      50.648 -45.555  -4.105  1.00  0.00     0.186 HD
HETATM    4  C7  UNL     1      51.704 -44.104  -3.137  1.00  0.00     0.679 A 
HETATM    5  N4  UNL     1      51.922 -43.507  -1.961  1.00  0.00    -0.168 N 
ATOM      6  H4  UNL     1      52.603 -42.749  -1.915  1.00  0.00     0.186 HD
HETATM    7  C8  UNL     1      51.280 -43.866  -0.836  1.00  0.00     0.195 A 
HETATM    8  O1  UNL     1      51.299 -43.463   0.412  1.00  0.00    -0.278 OA
HETATM    9  C9  UNL     1      50.449 -44.173   1.126  1.00  0.00     0.122 A 
HETATM   10  C10 UNL     1      50.134 -44.078   2.563  1.00  0.00     0.098 C 
HETATM   11  N5  UNL     1      49.854 -45.077   0.295  1.00  0.00    -0.334 N 
ATOM     12  H5  UNL     1      49.149 -45.767   0.556  1.00  0.00     0.168 HD
HETATM   13  C11 UNL     1      50.367 -44.889  -0.922  1.00  0.00     0.131 A 
ENDROOT
BRANCH   1  14
HETATM   14  N1  UNL     1      49.250 -46.494  -2.180  1.00  0.00    -0.374 N 
ATOM     15  H1  UNL     1      49.336 -47.288  -1.546  1.00  0.00     0.161 HD
BRANCH  14  16
HETATM   16  C5  UNL     1      48.157 -46.432  -3.122  1.00  0.00     0.121 C 
BRANCH  16  17
HETATM   17  C4  UNL     1      48.025 -47.776  -3.819  1.00  0.00     0.020 C 
BRANCH  17  18
HETATM   18  C3  UNL     1      48.839 -47.735  -5.094  1.00  0.00     0.001 C 
BRANCH  18  19
HETATM   19  C2  UNL     1      49.938 -48.744  -5.064  1.00  0.00    -0.004 C 
HETATM   20  C1  UNL     1      49.582 -49.999  -4.331  1.00  0.00     0.005 C 
ENDBRANCH  18  19
ENDBRANCH  17  18
ENDBRANCH  16  17
ENDBRANCH  14  16
ENDBRANCH   1  14
BRANCH   4  21
HETATM   21  N3  UNL     1      52.362 -43.712  -4.203  1.00  0.00    -0.234 N 
ATOM     22  H32 UNL     1      51.853 -43.389  -5.026  1.00  0.00     0.174 HD
ATOM     23  H31 UNL     1      53.381 -43.723  -4.225  1.00  0.00     0.174 HD
ENDBRANCH   4  21
TORSDOF 6
ENDMDL
MODEL 2
REMARK VINA RESULT: -6.522088289      6.777      8.459
REMARK  6 active torsions:
REMARK  status: ('A' for Active; 'I' for Inactive)
REMARK    1  A    between atoms: C2_2  and  C3_3 
REMARK    2  A    between atoms: C3_3  and  C4_4 
REMARK    3  A    between atoms: C4_4  and  C5_5 
REMARK    4  A    between atoms: C5_5  and  N1_6 
REMARK    5  A    between atoms: N1_6  and  C6_8 
REMARK    6  A    between atoms: C7_11  and  N3_12 
ROOT
HETATM    1  C6  UNL     1      49.342 -42.317  -9.582  1.00  0.00     0.148 A 
HETATM    2  N2  UNL     1      48.957 -41.101  -9.193  1.00  0.00    -0.175 N 
ATOM      3  H2  UNL     1      49.286 -40.292  -9.719  1.00  0.00     0.186 HD
HETATM    4  C7  UNL     1      48.154 -40.901  -8.135  1.00  0.00     0.679 A 
HETATM    5  N4  UNL     1      47.720 -41.958  -7.441  1.00  0.00    -0.168 N 
ATOM      6  H4  UNL     1      47.110 -41.799  -6.639  1.00  0.00     0.186 HD
HETATM    7  C8  UNL     1      48.055 -43.220  -7.757  1.00  0.00     0.195 A 
HETATM    8  O1  UNL     1      47.780 -44.404  -7.263  1.00  0.00    -0.278 OA
HETATM    9  C9  UNL     1      48.381 -45.337  -7.974  1.00  0.00     0.122 A 
HETATM   10  C10 UNL     1      48.362 -46.800  -7.795  1.00  0.00     0.098 C 
HETATM   11  N5  UNL     1      49.077 -44.722  -8.974  1.00  0.00    -0.334 N 
ATOM     12  H5  UNL     1      49.644 -45.179  -9.687  1.00  0.00     0.168 HD
HETATM   13  C11 UNL     1      48.876 -43.409  -8.842  1.00  0.00     0.131 A 
ENDROOT
BRANCH   1  14
HETATM   14  N1  UNL     1      50.120 -42.542 -10.604  1.00  0.00    -0.374 N 
ATOM     15  H1  UNL     1      49.950 -43.344 -11.211  1.00  0.00     0.161 HD
BRANCH  14  16
HETATM   16  C5  UNL     1      51.222 -41.649 -10.873  1.00  0.00     0.121 C 
BRANCH  16  17
HETATM   17  C4  UNL     1      52.365 -42.440 -11.486  1.00  0.00     0.020 C 
BRANCH  17  18
HETATM   18  C3  UNL     1      52.347 -43.836 -10.905  1.00  0.00     0.001 C 
BRANCH  18  19
HETATM   19  C2  UNL     1      53.168 -43.914  -9.662  1.00  0.00    -0.004 C 
HETATM   20  C1  UNL     1      52.728 -44.989  -8.718  1.00  0.00     0.005 C 
ENDBRANCH  18  19
ENDBRANCH  17  18
ENDBRANCH  16  17
ENDBRANCH  14  16
ENDBRANCH   1  14
BRANCH   4  21
HETATM   21  N3  UNL     1      47.795 -39.689  -7.780  1.00  0.00    -0.234 N 
ATOM     22  H32 UNL     1      46.846 -39.515  -7.448  1.00  0.00     0.174 HD
ATOM     23  H31 UNL     1      48.452 -38.911  -7.830  1.00  0.00     0.174 HD
ENDBRANCH   4  21
TORSDOF 6
ENDMDL
MODEL 3
REMARK VINA RESULT: -6.485685482      5.647      7.663
REMARK  6 active torsions:
REMARK  status: ('A' for Active; 'I' for Inactive)
REMARK    1  A    between atoms: C2_2  and  C3_3 
REMARK    2  A    between atoms: C3_3  and  C4_4 
REMARK    3  A    between atoms: C4_4  and  C5_5 
REMARK    4  A    between atoms: C5_5  and  N1_6 
REMARK    5  A    between atoms: N1_6  and  C6_8 
REMARK    6  A    between atoms: C7_11  and  N3_12 
ROOT
HETATM    1  C6  UNL     1      51.874 -45.315  -8.357  1.00  0.00     0.148 A 
HETATM    2  N2  UNL     1      53.197 -45.147  -8.367  1.00  0.00    -0.175 N 
ATOM      3  H2  UNL     1      53.761 -45.663  -7.692  1.00  0.00     0.186 HD
HETATM    4  C7  UNL     1      53.816 -44.325  -9.230  1.00  0.00     0.679 A 
HETATM    5  N4  UNL     1      53.082 -43.645 -10.117  1.00  0.00    -0.168 N 
ATOM      6  H4  UNL     1      53.557 -43.022 -10.769  1.00  0.00     0.186 HD
HETATM    7  C8  UNL     1      51.744 -43.748 -10.182  1.00  0.00     0.195 A 
HETATM    8  O1  UNL     1      50.808 -43.213 -10.930  1.00  0.00    -0.278 OA
HETATM    9  C9  UNL     1      49.627 -43.672 -10.566  1.00  0.00     0.122 A 
HETATM   10  C10 UNL     1      48.297 -43.355 -11.116  1.00  0.00     0.098 C 
HETATM   11  N5  UNL     1      49.814 -44.544  -9.533  1.00  0.00    -0.334 N 
ATOM     12  H5  UNL     1      49.087 -45.061  -9.038  1.00  0.00     0.168 HD
HETATM   13  C11 UNL     1      51.126 -44.593  -9.294  1.00  0.00     0.131 A 
ENDROOT
BRANCH   1  14
HETATM   14  N1  UNL     1      51.247 -46.106  -7.532  1.00  0.00    -0.374 N 
ATOM     15  H1  UNL     1      50.995 -47.052  -7.821  1.00  0.00     0.161 HD
BRANCH  14  16
HETATM   16  C5  UNL     1      50.911 -45.637  -6.208  1.00  0.00     0.121 C 
BRANCH  16  17
HETATM   17  C4  UNL     1      51.357 -46.669  -5.187  1.00  0.00     0.020 C 
BRANCH  17  18
HETATM   18  C3  UNL     1      50.620 -47.961  -5.459  1.00  0.00     0.001 C 
BRANCH  18  19
HETATM   19  C2  UNL     1      50.290 -48.671  -4.188  1.00  0.00    -0.004 C 
HETATM   20  C1  UNL     1      49.563 -49.963  -4.394  1.00  0.00     0.005 C 
ENDBRANCH  18  19
ENDBRANCH  17  18
ENDBRANCH  16  17
ENDBRANCH  14  16
ENDBRANCH   1  14
BRANCH   4  21
HETATM   21  N3  UNL     1      55.120 -44.184  -9.211  1.00  0.00    -0.234 N 
ATOM     22  H32 UNL     1      55.551 -43.505  -8.583  1.00  0.00     0.174 HD
ATOM     23  H31 UNL     1      55.718 -44.745  -9.817  1.00  0.00     0.174 HD
ENDBRANCH   4  21
TORSDOF 6
ENDMDL
MODEL 4
REMARK VINA RESULT: -6.479111659      2.875      4.557
REMARK  6 active torsions:
REMARK  status: ('A' for Active; 'I' for Inactive)
REMARK    1  A    between atoms: C2_2  and  C3_3 
REMARK    2  A    between atoms: C3_3  and  C4_4 
REMARK    3  A    between atoms: C4_4  and  C5_5 
REMARK    4  A    between atoms: C5_5  and  N1_6 
REMARK    5  A    between atoms: N1_6  and  C6_8 
REMARK    6  A    between atoms: C7_11  and  N3_12 
ROOT
HETATM    1  C6  UNL     1      48.660 -45.692   0.578  1.00  0.00     0.148 A 
HETATM    2  N2  UNL     1      48.260 -45.415   1.819  1.00  0.00    -0.175 N 
ATOM      3  H2  UNL     1      47.479 -45.941   2.211  1.00  0.00     0.186 HD
HETATM    4  C7  UNL     1      48.845 -44.471   2.575  1.00  0.00     0.679 A 
HETATM    5  N4  UNL     1      49.869 -43.777   2.067  1.00  0.00    -0.168 N 
ATOM      6  H4  UNL     1      50.309 -43.061   2.645  1.00  0.00     0.186 HD
HETATM    7  C8  UNL     1      50.342 -43.985   0.827  1.00  0.00     0.195 A 
HETATM    8  O1  UNL     1      51.303 -43.465   0.102  1.00  0.00    -0.278 OA
HETATM    9  C9  UNL     1      51.341 -44.050  -1.079  1.00  0.00     0.122 A 
HETATM   10  C10 UNL     1      52.247 -43.797  -2.213  1.00  0.00     0.098 C 
HETATM   11  N5  UNL     1      50.355 -44.992  -1.113  1.00  0.00    -0.334 N 
ATOM     12  H5  UNL     1      50.135 -45.610  -1.895  1.00  0.00     0.168 HD
HETATM   13  C11 UNL     1      49.734 -44.954   0.067  1.00  0.00     0.131 A 
ENDROOT
BRANCH   1  14
HETATM   14  N1  UNL     1      48.113 -46.603  -0.177  1.00  0.00    -0.374 N 
ATOM     15  H1  UNL     1      48.392 -46.695  -1.154  1.00  0.00     0.161 HD
BRANCH  14  16
HETATM   16  C5  UNL     1      47.110 -47.482   0.377  1.00  0.00     0.121 C 
BRANCH  16  17
HETATM   17  C4  UNL     1      45.818 -47.318  -0.406  1.00  0.00     0.020 C 
BRANCH  17  18
HETATM   18  C3  UNL     1      45.808 -48.329  -1.531  1.00  0.00     0.001 C 
BRANCH  18  19
HETATM   19  C2  UNL     1      44.478 -48.994  -1.646  1.00  0.00    -0.004 C 
HETATM   20  C1  UNL     1      44.533 -50.337  -2.305  1.00  0.00     0.005 C 
ENDBRANCH  18  19
ENDBRANCH  17  18
ENDBRANCH  16  17
ENDBRANCH  14  16
ENDBRANCH   1  14
BRANCH   4  21
HETATM   21  N3  UNL     1      48.424 -44.225   3.793  1.00  0.00    -0.234 N 
ATOM     22  H32 UNL     1      47.425 -44.148   3.982  1.00  0.00     0.174 HD
ATOM     23  H31 UNL     1      49.083 -44.108   4.563  1.00  0.00     0.174 HD
ENDBRANCH   4  21
TORSDOF 6
ENDMDL
MODEL 5
REMARK VINA RESULT: -6.433127082      1.680      2.674
REMARK  6 active torsions:
REMARK  status: ('A' for Active; 'I' for Inactive)
REMARK    1  A    between atoms: C2_2  and  C3_3 
REMARK    2  A    between atoms: C3_3  and  C4_4 
REMARK    3  A    between atoms: C4_4  and  C5_5 
REMARK    4  A    between atoms: C5_5  and  N1_6 
REMARK    5  A    between atoms: N1_6  and  C6_8 
REMARK    6  A    between atoms: C7_11  and  N3_12 
ROOT
HETATM    1  C6  UNL     1      50.201 -45.554  -2.467  1.00  0.00     0.148 A 
HETATM    2  N2  UNL     1      50.770 -45.116  -3.590  1.00  0.00    -0.175 N 
ATOM      3  H2  UNL     1      50.555 -45.591  -4.467  1.00  0.00     0.186 HD
HETATM    4  C7  UNL     1      51.617 -44.074  -3.614  1.00  0.00     0.679 A 
HETATM    5  N4  UNL     1      51.905 -43.447  -2.468  1.00  0.00    -0.168 N 
ATOM      6  H4  UNL     1      52.550 -42.657  -2.492  1.00  0.00     0.186 HD
HETATM    7  C8  UNL     1      51.381 -43.816  -1.288  1.00  0.00     0.195 A 
HETATM    8  O1  UNL     1      51.488 -43.390  -0.051  1.00  0.00    -0.278 OA
HETATM    9  C9  UNL     1      50.738 -44.128   0.743  1.00  0.00     0.122 A 
HETATM   10  C10 UNL     1      50.544 -44.022   2.200  1.00  0.00     0.098 C 
HETATM   11  N5  UNL     1      50.119 -45.074  -0.020  1.00  0.00    -0.334 N 
ATOM     12  H5  UNL     1      49.475 -45.792   0.310  1.00  0.00     0.168 HD
HETATM   13  C11 UNL     1      50.516 -44.883  -1.280  1.00  0.00     0.131 A 
ENDROOT
BRANCH   1  14
HETATM   14  N1  UNL     1      49.375 -46.561  -2.414  1.00  0.00    -0.374 N 
ATOM     15  H1  UNL     1      49.714 -47.490  -2.162  1.00  0.00     0.161 HD
BRANCH  14  16
HETATM   16  C5  UNL     1      47.977 -46.355  -2.715  1.00  0.00     0.121 C 
BRANCH  16  17
HETATM   17  C4  UNL     1      47.134 -47.028  -1.646  1.00  0.00     0.020 C 
BRANCH  17  18
HETATM   18  C3  UNL     1      46.596 -45.961  -0.719  1.00  0.00     0.001 C 
BRANCH  18  19
HETATM   19  C2  UNL     1      46.876 -46.294   0.708  1.00  0.00    -0.004 C 
HETATM   20  C1  UNL     1      47.749 -47.498   0.883  1.00  0.00     0.005 C 
ENDBRANCH  18  19
ENDBRANCH  17  18
ENDBRANCH  16  17
ENDBRANCH  14  16
ENDBRANCH   1  14
BRANCH   4  21
HETATM   21  N3  UNL     1      52.160 -43.670  -4.738  1.00  0.00    -0.234 N 
ATOM     22  H32 UNL     1      51.862 -42.792  -5.162  1.00  0.00     0.174 HD
ATOM     23  H31 UNL     1      52.882 -44.222  -5.201  1.00  0.00     0.174 HD
ENDBRANCH   4  21
TORSDOF 6
ENDMDL
