MODEL 1
REMARK VINA RESULT: -6.264785445      0.000      0.000
REMARK  4 active torsions:
REMARK  status: ('A' for Active; 'I' for Inactive)
REMARK    1  A    between atoms: C2_2  and  C4_4 
REMARK    2  A    between atoms: C2_2  and  N3_14 
REMARK    3  A    between atoms: C4_4  and  C5_5 
REMARK    4  A    between atoms: N3_14  and  C8_16 
ROOT
HETATM    1  C1  UNL     1      49.556 -45.424  -8.217  1.00  0.00     0.038 C 
HETATM    2  C2  UNL     1      50.323 -44.462  -7.349  1.00  0.00     0.024 C 
HETATM    3  C3  UNL     1      51.282 -45.350  -6.551  1.00  0.00     0.038 C 
ENDROOT
BRANCH   2   4
HETATM    4  C4  UNL     1      49.300 -43.841  -6.399  1.00  0.00     0.096 C 
BRANCH   4   5
HETATM    5  C5  UNL     1      48.531 -42.759  -7.008  1.00  0.00     0.074 A 
HETATM    6  C6  UNL     1      47.213 -42.773  -7.400  1.00  0.00     0.124 A 
HETATM    7  N1  UNL     1      46.880 -41.575  -7.919  1.00  0.00    -0.330 N 
HETATM    8  C7  UNL     1      47.995 -40.840  -7.840  1.00  0.00     0.222 A 
ATOM      9  H1  UNL     1      45.974 -41.290  -8.291  1.00  0.00     0.168 HD
HETATM   10  N2  UNL     1      48.052 -39.609  -8.252  1.00  0.00    -0.365 N 
HETATM   11  O1  UNL     1      48.948 -41.539  -7.309  1.00  0.00    -0.283 OA
ATOM     12  H22 UNL     1      47.302 -39.058  -8.671  1.00  0.00     0.159 HD
ATOM     13  H21 UNL     1      48.903 -39.050  -8.192  1.00  0.00     0.159 HD
ENDBRANCH   4   5
ENDBRANCH   2   4
BRANCH   2  14
HETATM   14  N3  UNL     1      50.957 -43.508  -8.129  1.00  0.00    -0.407 N 
ATOM     15  H3  UNL     1      51.421 -42.764  -7.609  1.00  0.00     0.154 HD
BRANCH  14  16
HETATM   16  C8  UNL     1      51.056 -43.411  -9.489  1.00  0.00     0.101 C 
HETATM   17  C9  UNL     1      50.768 -42.060 -10.067  1.00  0.00     0.029 C 
HETATM   18  C10 UNL     1      50.949 -42.056 -11.602  1.00  0.00     0.028 C 
HETATM   19  C11 UNL     1      52.254 -42.668 -11.996  1.00  0.00     0.167 C 
HETATM   20  O2  UNL     1      52.372 -43.908 -11.368  1.00  0.00    -0.389 OA
HETATM   21  C12 UNL     1      52.489 -43.753  -9.993  1.00  0.00     0.192 C 
ENDBRANCH  14  16
ENDBRANCH   2  14
TORSDOF 4
ENDMDL
MODEL 2
REMARK VINA RESULT: -6.239043884      2.280      4.943
REMARK  4 active torsions:
REMARK  status: ('A' for Active; 'I' for Inactive)
REMARK    1  A    between atoms: C2_2  and  C4_4 
REMARK    2  A    between atoms: C2_2  and  N3_14 
REMARK    3  A    between atoms: C4_4  and  C5_5 
REMARK    4  A    between atoms: N3_14  and  C8_16 
ROOT
HETATM    1  C1  UNL     1      52.077 -43.909 -11.793  1.00  0.00     0.038 C 
HETATM    2  C2  UNL     1      52.013 -43.051 -10.557  1.00  0.00     0.024 C 
HETATM    3  C3  UNL     1      52.483 -41.671 -11.027  1.00  0.00     0.038 C 
ENDROOT
BRANCH   2   4
HETATM    4  C4  UNL     1      53.041 -43.630  -9.586  1.00  0.00     0.096 C 
BRANCH   4   5
HETATM    5  C5  UNL     1      52.435 -44.328  -8.455  1.00  0.00     0.074 A 
HETATM    6  C6  UNL     1      52.413 -43.943  -7.136  1.00  0.00     0.124 A 
HETATM    7  N1  UNL     1      51.753 -44.863  -6.404  1.00  0.00    -0.330 N 
HETATM    8  C7  UNL     1      51.378 -45.800  -7.282  1.00  0.00     0.222 A 
ATOM      9  H1  UNL     1      51.577 -44.848  -5.400  1.00  0.00     0.168 HD
HETATM   10  N2  UNL     1      50.707 -46.857  -6.933  1.00  0.00    -0.365 N 
HETATM   11  O1  UNL     1      51.780 -45.478  -8.471  1.00  0.00    -0.283 OA
ATOM     12  H22 UNL     1      50.391 -47.111  -5.997  1.00  0.00     0.159 HD
ATOM     13  H21 UNL     1      50.422 -47.571  -7.602  1.00  0.00     0.159 HD
ENDBRANCH   4   5
ENDBRANCH   2   4
BRANCH   2  14
HETATM   14  N3  UNL     1      50.733 -43.059 -10.028  1.00  0.00    -0.407 N 
ATOM     15  H3  UNL     1      50.296 -43.980  -9.970  1.00  0.00     0.154 HD
BRANCH  14  16
HETATM   16  C8  UNL     1      49.963 -42.025  -9.573  1.00  0.00     0.101 C 
HETATM   17  C9  UNL     1      48.859 -41.586 -10.484  1.00  0.00     0.029 C 
HETATM   18  C10 UNL     1      48.033 -40.443  -9.853  1.00  0.00     0.028 C 
HETATM   19  C11 UNL     1      47.628 -40.775  -8.454  1.00  0.00     0.167 C 
HETATM   20  O2  UNL     1      48.762 -41.174  -7.745  1.00  0.00    -0.389 OA
HETATM   21  C12 UNL     1      49.248 -42.380  -8.236  1.00  0.00     0.192 C 
ENDBRANCH  14  16
ENDBRANCH   2  14
TORSDOF 4
ENDMDL
MODEL 3
REMARK VINA RESULT: -6.149350174      5.493      8.264
REMARK  4 active torsions:
REMARK  status: ('A' for Active; 'I' for Inactive)
REMARK    1  A    between atoms: C2_2  and  C4_4 
REMARK    2  A    between atoms: C2_2  and  N3_14 
REMARK    3  A    between atoms: C4_4  and  C5_5 
REMARK    4  A    between atoms: N3_14  and  C8_16 
ROOT
HETATM    1  C1  UNL     1      48.580 -47.854  -2.369  1.00  0.00     0.038 C 
HETATM    2  C2  UNL     1      48.465 -46.355  -2.450  1.00  0.00     0.024 C 
HETATM    3  C3  UNL     1      47.142 -46.037  -1.749  1.00  0.00     0.038 C 
ENDROOT
BRANCH   2   4
HETATM    4  C4  UNL     1      48.343 -46.020  -3.936  1.00  0.00     0.096 C 
BRANCH   4   5
HETATM    5  C5  UNL     1      49.618 -45.655  -4.550  1.00  0.00     0.074 A 
HETATM    6  C6  UNL     1      50.490 -46.466  -5.237  1.00  0.00     0.124 A 
HETATM    7  N1  UNL     1      51.555 -45.746  -5.645  1.00  0.00    -0.330 N 
HETATM    8  C7  UNL     1      51.323 -44.504  -5.204  1.00  0.00     0.222 A 
ATOM      9  H1  UNL     1      52.361 -46.076  -6.175  1.00  0.00     0.168 HD
HETATM   10  N2  UNL     1      52.148 -43.523  -5.416  1.00  0.00    -0.365 N 
HETATM   11  O1  UNL     1      50.194 -44.464  -4.570  1.00  0.00    -0.283 OA
ATOM     12  H22 UNL     1      53.036 -43.554  -5.916  1.00  0.00     0.159 HD
ATOM     13  H21 UNL     1      51.971 -42.576  -5.079  1.00  0.00     0.159 HD
ENDBRANCH   4   5
ENDBRANCH   2   4
BRANCH   2  14
HETATM   14  N3  UNL     1      49.569 -45.754  -1.867  1.00  0.00    -0.407 N 
ATOM     15  H3  UNL     1      50.459 -45.948  -2.328  1.00  0.00     0.154 HD
BRANCH  14  16
HETATM   16  C8  UNL     1      49.651 -44.943  -0.770  1.00  0.00     0.101 C 
HETATM   17  C9  UNL     1      49.369 -45.598   0.546  1.00  0.00     0.029 C 
HETATM   18  C10 UNL     1      49.530 -44.600   1.715  1.00  0.00     0.028 C 
HETATM   19  C11 UNL     1      50.823 -43.858   1.621  1.00  0.00     0.167 C 
HETATM   20  O2  UNL     1      50.936 -43.322   0.338  1.00  0.00    -0.389 OA
HETATM   21  C12 UNL     1      51.074 -44.332  -0.605  1.00  0.00     0.192 C 
ENDBRANCH  14  16
ENDBRANCH   2  14
TORSDOF 4
ENDMDL
MODEL 4
REMARK VINA RESULT: -6.148570432      2.272      4.522
REMARK  4 active torsions:
REMARK  status: ('A' for Active; 'I' for Inactive)
REMARK    1  A    between atoms: C2_2  and  C4_4 
REMARK    2  A    between atoms: C2_2  and  N3_14 
REMARK    3  A    between atoms: C4_4  and  C5_5 
REMARK    4  A    between atoms: N3_14  and  C8_16 
ROOT
HETATM    1  C1  UNL     1      52.303 -43.408  -8.803  1.00  0.00     0.038 C 
HETATM    2  C2  UNL     1      51.308 -44.255  -8.056  1.00  0.00     0.024 C 
HETATM    3  C3  UNL     1      51.854 -45.681  -8.178  1.00  0.00     0.038 C 
ENDROOT
BRANCH   2   4
HETATM    4  C4  UNL     1      49.995 -44.149  -8.831  1.00  0.00     0.096 C 
BRANCH   4   5
HETATM    5  C5  UNL     1      49.098 -43.122  -8.306  1.00  0.00     0.074 A 
HETATM    6  C6  UNL     1      47.853 -43.290  -7.750  1.00  0.00     0.124 A 
HETATM    7  N1  UNL     1      47.351 -42.091  -7.388  1.00  0.00    -0.330 N 
HETATM    8  C7  UNL     1      48.294 -41.205  -7.727  1.00  0.00     0.222 A 
ATOM      9  H1  UNL     1      46.449 -41.902  -6.951  1.00  0.00     0.168 HD
HETATM   10  N2  UNL     1      48.157 -39.928  -7.524  1.00  0.00    -0.365 N 
HETATM   11  O1  UNL     1      49.304 -41.815  -8.259  1.00  0.00    -0.283 OA
ATOM     12  H22 UNL     1      47.362 -39.447  -7.105  1.00  0.00     0.159 HD
ATOM     13  H21 UNL     1      48.876 -39.253  -7.783  1.00  0.00     0.159 HD
ENDBRANCH   4   5
ENDBRANCH   2   4
BRANCH   2  14
HETATM   14  N3  UNL     1      51.180 -43.811  -6.750  1.00  0.00    -0.407 N 
ATOM     15  H3  UNL     1      50.956 -42.821  -6.651  1.00  0.00     0.154 HD
BRANCH  14  16
HETATM   16  C8  UNL     1      51.310 -44.495  -5.573  1.00  0.00     0.101 C 
HETATM   17  C9  UNL     1      51.729 -43.679  -4.390  1.00  0.00     0.029 C 
HETATM   18  C10 UNL     1      51.804 -44.543  -3.111  1.00  0.00     0.028 C 
HETATM   19  C11 UNL     1      50.564 -45.357  -2.933  1.00  0.00     0.167 C 
HETATM   20  O2  UNL     1      50.307 -46.042  -4.121  1.00  0.00    -0.389 OA
HETATM   21  C12 UNL     1      49.969 -45.155  -5.135  1.00  0.00     0.192 C 
ENDBRANCH  14  16
ENDBRANCH   2  14
TORSDOF 4
ENDMDL
MODEL 5
REMARK VINA RESULT: -6.144200255      3.004      6.155
REMARK  4 active torsions:
REMARK  status: ('A' for Active; 'I' for Inactive)
REMARK    1  A    between atoms: C2_2  and  C4_4 
REMARK    2  A    between atoms: C2_2  and  N3_14 
REMARK    3  A    between atoms: C4_4  and  C5_5 
REMARK    4  A    between atoms: N3_14  and  C8_16 
ROOT
HETATM    1  C1  UNL     1      48.754 -45.506  -6.836  1.00  0.00     0.038 C 
HETATM    2  C2  UNL     1      50.011 -44.771  -7.219  1.00  0.00     0.024 C 
HETATM    3  C3  UNL     1      49.560 -43.320  -7.409  1.00  0.00     0.038 C 
ENDROOT
BRANCH   2   4
HETATM    4  C4  UNL     1      50.443 -45.346  -8.568  1.00  0.00     0.096 C 
BRANCH   4   5
HETATM    5  C5  UNL     1      51.698 -44.783  -9.058  1.00  0.00     0.074 A 
HETATM    6  C6  UNL     1      51.886 -43.924 -10.115  1.00  0.00     0.124 A 
HETATM    7  N1  UNL     1      53.197 -43.638 -10.242  1.00  0.00    -0.330 N 
HETATM    8  C7  UNL     1      53.797 -44.324  -9.262  1.00  0.00     0.222 A 
ATOM      9  H1  UNL     1      53.636 -43.031 -10.934  1.00  0.00     0.168 HD
HETATM   10  N2  UNL     1      55.083 -44.289  -9.072  1.00  0.00    -0.365 N 
HETATM   11  O1  UNL     1      52.916 -44.985  -8.581  1.00  0.00    -0.283 OA
ATOM     12  H22 UNL     1      55.777 -43.769  -9.608  1.00  0.00     0.159 HD
ATOM     13  H21 UNL     1      55.540 -44.812  -8.325  1.00  0.00     0.159 HD
ENDBRANCH   4   5
ENDBRANCH   2   4
BRANCH   2  14
HETATM   14  N3  UNL     1      50.982 -44.936  -6.246  1.00  0.00    -0.407 N 
ATOM     15  H3  UNL     1      51.908 -45.179  -6.597  1.00  0.00     0.154 HD
BRANCH  14  16
HETATM   16  C8  UNL     1      50.891 -44.823  -4.886  1.00  0.00     0.101 C 
HETATM   17  C9  UNL     1      51.394 -45.994  -4.101  1.00  0.00     0.029 C 
HETATM   18  C10 UNL     1      51.281 -45.741  -2.581  1.00  0.00     0.028 C 
HETATM   19  C11 UNL     1      51.855 -44.414  -2.208  1.00  0.00     0.167 C 
HETATM   20  O2  UNL     1      51.296 -43.439  -3.034  1.00  0.00    -0.389 OA
HETATM   21  C12 UNL     1      51.711 -43.613  -4.349  1.00  0.00     0.192 C 
ENDBRANCH  14  16
ENDBRANCH   2  14
TORSDOF 4
ENDMDL
