MODEL 1
REMARK VINA RESULT: -6.404934300      0.000      0.000
REMARK  5 active torsions:
REMARK  status: ('A' for Active; 'I' for Inactive)
REMARK    1  A    between atoms: C2_2  and  C3_3 
REMARK    2  A    between atoms: C3_3  and  N1_4 
REMARK    3  A    between atoms: N1_4  and  C4_5 
REMARK    4  A    between atoms: N1_4  and  C6_7 
REMARK    5  A    between atoms: C7_10  and  N3_11 
ROOT
HETATM    1  C6  UNL     1      50.148 -45.649  -3.046  1.00  0.00     0.129 A 
HETATM    2  N2  UNL     1      50.740 -45.082  -4.111  1.00  0.00    -0.176 N 
ATOM      3  H2  UNL     1      50.561 -45.469  -5.037  1.00  0.00     0.186 HD
HETATM    4  C7  UNL     1      51.559 -44.023  -3.996  1.00  0.00     0.679 A 
HETATM    5  N4  UNL     1      51.795 -43.511  -2.780  1.00  0.00    -0.177 N 
ATOM      6  H4  UNL     1      52.416 -42.706  -2.702  1.00  0.00     0.186 HD
HETATM    7  C8  UNL     1      51.252 -44.006  -1.666  1.00  0.00     0.127 A 
HETATM    8  C9  UNL     1      50.400 -45.112  -1.815  1.00  0.00     0.031 A 
HETATM    9  C10 UNL     1      49.788 -45.683  -0.621  1.00  0.00     0.048 C 
HETATM   10  C11 UNL     1      49.558 -44.573   0.403  1.00  0.00     0.024 C 
HETATM   11  C12 UNL     1      50.872 -43.947   0.810  1.00  0.00     0.121 C 
HETATM   12  N5  UNL     1      51.515 -43.450  -0.387  1.00  0.00    -0.375 N 
ATOM     13  H5  UNL     1      52.177 -42.678  -0.310  1.00  0.00     0.161 HD
ENDROOT
BRANCH   1  14
HETATM   14  N1  UNL     1      49.299 -46.755  -3.207  1.00  0.00    -0.367 N 
BRANCH  14  15
HETATM   15  C3  UNL     1      49.751 -48.132  -3.191  1.00  0.00     0.124 C 
BRANCH  15  16
HETATM   16  C2  UNL     1      49.801 -48.780  -4.531  1.00  0.00     0.015 C 
HETATM   17  C1  UNL     1      49.333 -50.211  -4.370  1.00  0.00     0.006 C 
ENDBRANCH  15  16
ENDBRANCH  14  15
BRANCH  14  18
HETATM   18  C4  UNL     1      47.877 -46.513  -3.390  1.00  0.00     0.120 C 
HETATM   19  C5  UNL     1      46.989 -47.359  -2.545  1.00  0.00     0.026 C 
ENDBRANCH  14  18
ENDBRANCH   1  14
BRANCH   4  20
HETATM   20  N3  UNL     1      52.114 -43.503  -5.047  1.00  0.00    -0.234 N 
ATOM     21  H32 UNL     1      51.993 -42.513  -5.259  1.00  0.00     0.174 HD
ATOM     22  H31 UNL     1      52.678 -44.078  -5.673  1.00  0.00     0.174 HD
ENDBRANCH   4  20
TORSDOF 5
ENDMDL
MODEL 2
REMARK VINA RESULT: -6.383250840      1.285      1.904
REMARK  5 active torsions:
REMARK  status: ('A' for Active; 'I' for Inactive)
REMARK    1  A    between atoms: C2_2  and  C3_3 
REMARK    2  A    between atoms: C3_3  and  N1_4 
REMARK    3  A    between atoms: N1_4  and  C4_5 
REMARK    4  A    between atoms: N1_4  and  C6_7 
REMARK    5  A    between atoms: C7_10  and  N3_11 
ROOT
HETATM    1  C6  UNL     1      49.936 -45.652  -2.159  1.00  0.00     0.129 A 
HETATM    2  N2  UNL     1      50.938 -44.830  -2.510  1.00  0.00    -0.176 N 
ATOM      3  H2  UNL     1      51.301 -44.874  -3.462  1.00  0.00     0.186 HD
HETATM    4  C7  UNL     1      51.479 -43.950  -1.650  1.00  0.00     0.679 A 
HETATM    5  N4  UNL     1      51.003 -43.887  -0.398  1.00  0.00    -0.177 N 
ATOM      6  H4  UNL     1      51.419 -43.216   0.248  1.00  0.00     0.186 HD
HETATM    7  C8  UNL     1      50.011 -44.663   0.041  1.00  0.00     0.127 A 
HETATM    8  C9  UNL     1      49.464 -45.573  -0.878  1.00  0.00     0.031 A 
HETATM    9  C10 UNL     1      48.378 -46.439  -0.436  1.00  0.00     0.048 C 
HETATM   10  C11 UNL     1      47.551 -45.706   0.619  1.00  0.00     0.024 C 
HETATM   11  C12 UNL     1      48.401 -45.378   1.824  1.00  0.00     0.121 C 
HETATM   12  N5  UNL     1      49.523 -44.582   1.371  1.00  0.00    -0.375 N 
ATOM     13  H5  UNL     1      49.975 -43.946   2.027  1.00  0.00     0.161 HD
ENDROOT
BRANCH   1  14
HETATM   14  N1  UNL     1      49.398 -46.558  -3.087  1.00  0.00    -0.367 N 
BRANCH  14  15
HETATM   15  C3  UNL     1      49.654 -47.984  -3.069  1.00  0.00     0.124 C 
BRANCH  15  16
HETATM   16  C2  UNL     1      50.045 -48.556  -4.387  1.00  0.00     0.015 C 
HETATM   17  C1  UNL     1      49.551 -49.987  -4.434  1.00  0.00     0.006 C 
ENDBRANCH  15  16
ENDBRANCH  14  15
BRANCH  14  18
HETATM   18  C4  UNL     1      48.520 -46.043  -4.124  1.00  0.00     0.120 C 
HETATM   19  C5  UNL     1      47.067 -46.243  -3.866  1.00  0.00     0.026 C 
ENDBRANCH  14  18
ENDBRANCH   1  14
BRANCH   4  20
HETATM   20  N3  UNL     1      52.447 -43.172  -2.025  1.00  0.00    -0.234 N 
ATOM     21  H32 UNL     1      52.436 -42.742  -2.949  1.00  0.00     0.174 HD
ATOM     22  H31 UNL     1      53.231 -42.983  -1.399  1.00  0.00     0.174 HD
ENDBRANCH   4  20
TORSDOF 5
ENDMDL
MODEL 3
REMARK VINA RESULT: -6.322637938      4.718      7.096
REMARK  5 active torsions:
REMARK  status: ('A' for Active; 'I' for Inactive)
REMARK    1  A    between atoms: C2_2  and  C3_3 
REMARK    2  A    between atoms: C3_3  and  N1_4 
REMARK    3  A    between atoms: N1_4  and  C4_5 
REMARK    4  A    between atoms: N1_4  and  C6_7 
REMARK    5  A    between atoms: C7_10  and  N3_11 
ROOT
HETATM    1  C6  UNL     1      51.884 -44.391  -7.876  1.00  0.00     0.129 A 
HETATM    2  N2  UNL     1      53.213 -44.516  -8.026  1.00  0.00    -0.176 N 
ATOM      3  H2  UNL     1      53.756 -44.934  -7.271  1.00  0.00     0.186 HD
HETATM    4  C7  UNL     1      53.850 -44.109  -9.137  1.00  0.00     0.679 A 
HETATM    5  N4  UNL     1      53.139 -43.561 -10.132  1.00  0.00    -0.177 N 
ATOM      6  H4  UNL     1      53.630 -43.256 -10.972  1.00  0.00     0.186 HD
HETATM    7  C8  UNL     1      51.816 -43.397 -10.073  1.00  0.00     0.127 A 
HETATM    8  C9  UNL     1      51.176 -43.830  -8.901  1.00  0.00     0.031 A 
HETATM    9  C10 UNL     1      49.730 -43.667  -8.798  1.00  0.00     0.048 C 
HETATM   10  C11 UNL     1      49.113 -43.786 -10.190  1.00  0.00     0.024 C 
HETATM   11  C12 UNL     1      49.639 -42.698 -11.098  1.00  0.00     0.121 C 
HETATM   12  N5  UNL     1      51.081 -42.813 -11.137  1.00  0.00    -0.375 N 
ATOM     13  H5  UNL     1      51.584 -42.463 -11.954  1.00  0.00     0.161 HD
ENDROOT
BRANCH   1  14
HETATM   14  N1  UNL     1      51.255 -44.828  -6.699  1.00  0.00    -0.367 N 
BRANCH  14  15
HETATM   15  C3  UNL     1      50.983 -46.219  -6.394  1.00  0.00     0.124 C 
BRANCH  15  16
HETATM   16  C2  UNL     1      49.575 -46.498  -5.995  1.00  0.00     0.015 C 
HETATM   17  C1  UNL     1      48.823 -46.936  -7.234  1.00  0.00     0.006 C 
ENDBRANCH  15  16
ENDBRANCH  14  15
BRANCH  14  18
HETATM   18  C4  UNL     1      50.860 -43.832  -5.717  1.00  0.00     0.120 C 
HETATM   19  C5  UNL     1      51.731 -43.769  -4.511  1.00  0.00     0.026 C 
ENDBRANCH  14  18
ENDBRANCH   1  14
BRANCH   4  20
HETATM   20  N3  UNL     1      55.136 -44.245  -9.245  1.00  0.00    -0.234 N 
ATOM     21  H32 UNL     1      55.765 -43.664  -8.693  1.00  0.00     0.174 HD
ATOM     22  H31 UNL     1      55.531 -44.935  -9.884  1.00  0.00     0.174 HD
ENDBRANCH   4  20
TORSDOF 5
ENDMDL
MODEL 4
REMARK VINA RESULT: -6.314869156      4.642      7.237
REMARK  5 active torsions:
REMARK  status: ('A' for Active; 'I' for Inactive)
REMARK    1  A    between atoms: C2_2  and  C3_3 
REMARK    2  A    between atoms: C3_3  and  N1_4 
REMARK    3  A    between atoms: N1_4  and  C4_5 
REMARK    4  A    between atoms: N1_4  and  C6_7 
REMARK    5  A    between atoms: C7_10  and  N3_11 
ROOT
HETATM    1  C6  UNL     1      52.015 -44.240  -7.883  1.00  0.00     0.129 A 
HETATM    2  N2  UNL     1      53.323 -44.473  -8.085  1.00  0.00    -0.176 N 
ATOM      3  H2  UNL     1      53.836 -45.026  -7.398  1.00  0.00     0.186 HD
HETATM    4  C7  UNL     1      53.978 -44.003  -9.160  1.00  0.00     0.679 A 
HETATM    5  N4  UNL     1      53.306 -43.277 -10.066  1.00  0.00    -0.177 N 
ATOM      6  H4  UNL     1      53.809 -42.926 -10.879  1.00  0.00     0.186 HD
HETATM    7  C8  UNL     1      52.007 -42.995  -9.950  1.00  0.00     0.127 A 
HETATM    8  C9  UNL     1      51.348 -43.499  -8.817  1.00  0.00     0.031 A 
HETATM    9  C10 UNL     1      49.928 -43.212  -8.654  1.00  0.00     0.048 C 
HETATM   10  C11 UNL     1      49.277 -43.109 -10.033  1.00  0.00     0.024 C 
HETATM   11  C12 UNL     1      49.891 -41.978 -10.825  1.00  0.00     0.121 C 
HETATM   12  N5  UNL     1      51.314 -42.224 -10.919  1.00  0.00    -0.375 N 
ATOM     13  H5  UNL     1      51.834 -41.832 -11.705  1.00  0.00     0.161 HD
ENDROOT
BRANCH   1  14
HETATM   14  N1  UNL     1      51.368 -44.748  -6.746  1.00  0.00    -0.367 N 
BRANCH  14  15
HETATM   15  C3  UNL     1      51.023 -43.951  -5.585  1.00  0.00     0.124 C 
BRANCH  15  16
HETATM   16  C2  UNL     1      51.232 -44.639  -4.281  1.00  0.00     0.015 C 
HETATM   17  C1  UNL     1      51.925 -43.666  -3.351  1.00  0.00     0.006 C 
ENDBRANCH  15  16
ENDBRANCH  14  15
BRANCH  14  18
HETATM   18  C4  UNL     1      51.007 -46.156  -6.729  1.00  0.00     0.120 C 
HETATM   19  C5  UNL     1      49.592 -46.439  -7.095  1.00  0.00     0.026 C 
ENDBRANCH  14  18
ENDBRANCH   1  14
BRANCH   4  20
HETATM   20  N3  UNL     1      55.241 -44.247  -9.321  1.00  0.00    -0.234 N 
ATOM     21  H32 UNL     1      55.690 -44.081 -10.221  1.00  0.00     0.174 HD
ATOM     22  H31 UNL     1      55.801 -44.609  -8.548  1.00  0.00     0.174 HD
ENDBRANCH   4  20
TORSDOF 5
ENDMDL
MODEL 5
REMARK VINA RESULT: -6.283697246      3.213      5.117
REMARK  5 active torsions:
REMARK  status: ('A' for Active; 'I' for Inactive)
REMARK    1  A    between atoms: C2_2  and  C3_3 
REMARK    2  A    between atoms: C3_3  and  N1_4 
REMARK    3  A    between atoms: N1_4  and  C4_5 
REMARK    4  A    between atoms: N1_4  and  C6_7 
REMARK    5  A    between atoms: C7_10  and  N3_11 
ROOT
HETATM    1  C6  UNL     1      51.098 -45.454  -6.207  1.00  0.00     0.129 A 
HETATM    2  N2  UNL     1      50.977 -46.761  -6.492  1.00  0.00    -0.176 N 
ATOM      3  H2  UNL     1      50.880 -47.046  -7.467  1.00  0.00     0.186 HD
HETATM    4  C7  UNL     1      50.978 -47.707  -5.537  1.00  0.00     0.679 A 
HETATM    5  N4  UNL     1      51.106 -47.337  -4.255  1.00  0.00    -0.177 N 
ATOM      6  H4  UNL     1      51.108 -48.061  -3.537  1.00  0.00     0.186 HD
HETATM    7  C8  UNL     1      51.232 -46.064  -3.876  1.00  0.00     0.127 A 
HETATM    8  C9  UNL     1      51.228 -45.097  -4.895  1.00  0.00     0.031 A 
HETATM    9  C10 UNL     1      51.363 -43.694  -4.521  1.00  0.00     0.048 C 
HETATM   10  C11 UNL     1      52.225 -43.592  -3.264  1.00  0.00     0.024 C 
HETATM   11  C12 UNL     1      51.570 -44.317  -2.111  1.00  0.00     0.121 C 
HETATM   12  N5  UNL     1      51.366 -45.693  -2.513  1.00  0.00    -0.375 N 
ATOM     13  H5  UNL     1      51.315 -46.416  -1.796  1.00  0.00     0.161 HD
ENDROOT
BRANCH   1  14
HETATM   14  N1  UNL     1      51.091 -44.497  -7.234  1.00  0.00    -0.367 N 
BRANCH  14  15
HETATM   15  C3  UNL     1      52.289 -43.948  -7.838  1.00  0.00     0.124 C 
BRANCH  15  16
HETATM   16  C2  UNL     1      53.058 -44.916  -8.669  1.00  0.00     0.015 C 
HETATM   17  C1  UNL     1      54.367 -44.257  -9.052  1.00  0.00     0.006 C 
ENDBRANCH  15  16
ENDBRANCH  14  15
BRANCH  14  18
HETATM   18  C4  UNL     1      49.809 -44.031  -7.735  1.00  0.00     0.120 C 
HETATM   19  C5  UNL     1      49.370 -44.668  -9.007  1.00  0.00     0.026 C 
ENDBRANCH  14  18
ENDBRANCH   1  14
BRANCH   4  20
HETATM   20  N3  UNL     1      50.858 -48.960  -5.851  1.00  0.00    -0.234 N 
ATOM     21  H32 UNL     1      50.501 -49.231  -6.767  1.00  0.00     0.174 HD
ATOM     22  H31 UNL     1      51.119 -49.687  -5.185  1.00  0.00     0.174 HD
ENDBRANCH   4  20
TORSDOF 5
ENDMDL
