MODEL 1
REMARK VINA RESULT: -7.723503703      0.000      0.000
REMARK  21 active torsions:
REMARK  status: ('A' for Active; 'I' for Inactive)
REMARK    1  A    between atoms: C2_2  and  C3_3 
REMARK    2  A    between atoms: C3_3  and  C4_4 
REMARK    3  A    between atoms: C4_4  and  C5_5 
REMARK    4  A    between atoms: C5_5  and  C6_6 
REMARK    5  A    between atoms: C6_6  and  C7_7 
REMARK    6  A    between atoms: C7_7  and  C8_8 
REMARK    7  A    between atoms: C8_8  and  C9_9 
REMARK       I    between atoms: C9_9  and  N1_11 
REMARK    8  A    between atoms: N1_11  and  C10_13 
REMARK    9  A    between atoms: C10_13  and  C11_14 
REMARK   10  A    between atoms: C10_13  and  C12_17 
REMARK   11  A    between atoms: C11_14  and  O2_15 
REMARK   12  A    between atoms: C13_18  and  O3_19 
REMARK   13  A    between atoms: C14_23  and  C15_24 
REMARK   14  A    between atoms: C15_24  and  C16_26 
REMARK   15  A    between atoms: C22_36  and  O6_37 
REMARK   16  A    between atoms: C23_39  and  O7_40 
REMARK   17  A    between atoms: C24_42  and  O8_43 
REMARK   18  A    between atoms: O8_43  and  C25_44 
REMARK   19  A    between atoms: C25_44  and  C27_46 
REMARK   20  A    between atoms: C27_46  and  C28_47 
REMARK   21  A    between atoms: C28_47  and  C29_48 
ROOT
HETATM    1  C12 UNL     1       8.827  26.616   0.524  1.00  0.00     0.053 C 
HETATM    2  C13 UNL     1       8.204  27.749  -0.164  1.00  0.00     0.147 C 
HETATM    3  N2  UNL     1       8.545  28.593  -1.207  1.00  0.00    -0.359 N 
ATOM      4  H2  UNL     1       7.991  28.374  -2.034  1.00  0.00     0.162 HD
HETATM    5  C14 UNL     1       9.440  29.686  -1.482  1.00  0.00     0.155 C 
HETATM    6  C17 UNL     1      10.478  30.049  -0.516  1.00  0.00     0.042 C 
HETATM    7  C18 UNL     1      10.240  31.430   0.113  1.00  0.00     0.105 C 
HETATM    8  C19 UNL     1      11.213  31.697   1.193  1.00  0.00     0.217 C 
HETATM    9  O5  UNL     1      12.362  32.106   0.848  1.00  0.00    -0.274 OA
HETATM   10  N3  UNL     1      10.976  31.536   2.579  1.00  0.00    -0.361 N 
ATOM     11  H3  UNL     1      11.787  31.584   3.196  1.00  0.00     0.162 HD
HETATM   12  C20 UNL     1       9.695  31.312   3.197  1.00  0.00     0.125 C 
HETATM   13  C21 UNL     1       9.570  29.908   3.798  1.00  0.00     0.058 C 
HETATM   14  C22 UNL     1       8.762  28.987   2.868  1.00  0.00     0.179 C 
HETATM   15  C23 UNL     1       9.402  27.666   2.854  1.00  0.00     0.106 C 
HETATM   16  C24 UNL     1       9.026  26.579   1.977  1.00  0.00     0.113 C 
ENDROOT
BRANCH   1  17
HETATM   17  C10 UNL     1       9.743  25.777  -0.331  1.00  0.00     0.148 C 
BRANCH  17  18
HETATM   18  N1  UNL     1      11.113  26.194  -0.007  1.00  0.00    -0.350 N 
HETATM   19  C9  UNL     1      12.048  26.657  -0.964  1.00  0.00     0.218 C 
HETATM   20  O1  UNL     1      11.790  26.750  -2.198  1.00  0.00    -0.274 OA
ATOM     21  H1  UNL     1      11.410  26.147   0.968  1.00  0.00     0.163 HD
BRANCH  19  22
HETATM   22  C8  UNL     1      13.425  27.076  -0.559  1.00  0.00     0.103 C 
BRANCH  22  23
HETATM   23  C7  UNL     1      14.409  26.984  -1.730  1.00  0.00     0.009 C 
BRANCH  23  24
HETATM   24  C6  UNL     1      15.761  27.232  -1.160  1.00  0.00     0.000 C 
BRANCH  24  25
HETATM   25  C5  UNL     1      16.370  28.528  -1.681  1.00  0.00     0.000 C 
BRANCH  25  26
HETATM   26  C4  UNL     1      15.704  28.941  -2.937  1.00  0.00     0.000 C 
BRANCH  26  27
HETATM   27  C3  UNL     1      15.339  30.370  -3.003  1.00  0.00    -0.000 C 
BRANCH  27  28
HETATM   28  C2  UNL     1      14.581  31.014  -1.921  1.00  0.00    -0.005 C 
HETATM   29  C1  UNL     1      15.177  32.225  -1.289  1.00  0.00     0.005 C 
ENDBRANCH  27  28
ENDBRANCH  26  27
ENDBRANCH  25  26
ENDBRANCH  24  25
ENDBRANCH  23  24
ENDBRANCH  22  23
ENDBRANCH  19  22
ENDBRANCH  17  18
BRANCH  17  30
HETATM   30  C11 UNL     1       9.653  24.330  -0.389  1.00  0.00     0.194 C 
BRANCH  30  31
HETATM   31  O2  UNL     1       8.570  23.725   0.231  1.00  0.00    -0.398 OA
ATOM     32  H2  UNL     1       8.301  24.060   1.078  1.00  0.00     0.209 HD
ENDBRANCH  30  31
ENDBRANCH  17  30
ENDBRANCH   1  17
BRANCH   2  33
HETATM   33  O3  UNL     1       7.016  28.045   0.317  1.00  0.00    -0.346 OA
ATOM     34  H3  UNL     1       6.889  28.979   0.432  1.00  0.00     0.219 HD
ENDBRANCH   2  33
BRANCH  16  35
HETATM   35  O8  UNL     1       7.987  25.858   2.651  1.00  0.00    -0.343 OA
BRANCH  35  36
HETATM   36  C25 UNL     1       8.282  25.596   3.988  1.00  0.00     0.125 C 
HETATM   37  C26 UNL     1       8.930  24.222   4.137  1.00  0.00     0.040 C 
BRANCH  36  38
HETATM   38  C27 UNL     1       6.985  25.508   4.719  1.00  0.00     0.032 C 
BRANCH  38  39
HETATM   39  C28 UNL     1       6.030  24.451   4.392  1.00  0.00     0.007 C 
BRANCH  39  40
HETATM   40  C29 UNL     1       5.053  23.948   5.347  1.00  0.00    -0.014 C 
HETATM   41  C30 UNL     1       5.473  22.643   6.038  1.00  0.00     0.004 C 
HETATM   42  C31 UNL     1       4.229  22.191   6.760  1.00  0.00     0.000 C 
HETATM   43  C32 UNL     1       3.098  23.100   6.328  1.00  0.00     0.000 C 
HETATM   44  C33 UNL     1       3.639  23.760   5.025  1.00  0.00     0.004 C 
ENDBRANCH  39  40
ENDBRANCH  38  39
ENDBRANCH  36  38
ENDBRANCH  35  36
ENDBRANCH  16  35
BRANCH  15  45
HETATM   45  O7  UNL     1      10.791  27.887   3.018  1.00  0.00    -0.359 OA
ATOM     46  H7  UNL     1      11.191  27.033   3.130  1.00  0.00     0.217 HD
ENDBRANCH  15  45
BRANCH   5  47
HETATM   47  C15 UNL     1       9.987  29.577  -2.889  1.00  0.00     0.163 C 
HETATM   48  O4  UNL     1       9.391  28.836  -3.642  1.00  0.00    -0.294 OA
BRANCH  47  49
HETATM   49  C16 UNL     1      11.155  30.324  -3.299  1.00  0.00     0.195 C 
HETATM   50 CL1  UNL     1      12.194  29.334  -4.386  1.00  0.00    -0.122 Cl
ENDBRANCH  47  49
ENDBRANCH   5  47
BRANCH  14  51
HETATM   51  O6  UNL     1       7.484  28.992   3.451  1.00  0.00    -0.389 OA
ATOM     52  H6  UNL     1       6.917  29.218   2.723  1.00  0.00     0.210 HD
ENDBRANCH  14  51
TORSDOF 21
ENDMDL
MODEL 2
REMARK VINA RESULT: -7.700300536      3.630      7.852
REMARK  21 active torsions:
REMARK  status: ('A' for Active; 'I' for Inactive)
REMARK    1  A    between atoms: C2_2  and  C3_3 
REMARK    2  A    between atoms: C3_3  and  C4_4 
REMARK    3  A    between atoms: C4_4  and  C5_5 
REMARK    4  A    between atoms: C5_5  and  C6_6 
REMARK    5  A    between atoms: C6_6  and  C7_7 
REMARK    6  A    between atoms: C7_7  and  C8_8 
REMARK    7  A    between atoms: C8_8  and  C9_9 
REMARK       I    between atoms: C9_9  and  N1_11 
REMARK    8  A    between atoms: N1_11  and  C10_13 
REMARK    9  A    between atoms: C10_13  and  C11_14 
REMARK   10  A    between atoms: C10_13  and  C12_17 
REMARK   11  A    between atoms: C11_14  and  O2_15 
REMARK   12  A    between atoms: C13_18  and  O3_19 
REMARK   13  A    between atoms: C14_23  and  C15_24 
REMARK   14  A    between atoms: C15_24  and  C16_26 
REMARK   15  A    between atoms: C22_36  and  O6_37 
REMARK   16  A    between atoms: C23_39  and  O7_40 
REMARK   17  A    between atoms: C24_42  and  O8_43 
REMARK   18  A    between atoms: O8_43  and  C25_44 
REMARK   19  A    between atoms: C25_44  and  C27_46 
REMARK   20  A    between atoms: C27_46  and  C28_47 
REMARK   21  A    between atoms: C28_47  and  C29_48 
ROOT
HETATM    1  C12 UNL     1       8.662  27.096   3.542  1.00  0.00     0.053 C 
HETATM    2  C13 UNL     1      10.032  27.464   3.178  1.00  0.00     0.147 C 
HETATM    3  N2  UNL     1      10.688  28.623   2.801  1.00  0.00    -0.359 N 
ATOM      4  H2  UNL     1      11.286  28.953   3.558  1.00  0.00     0.162 HD
HETATM    5  C14 UNL     1      10.784  29.507   1.669  1.00  0.00     0.155 C 
HETATM    6  C17 UNL     1       9.867  29.358   0.539  1.00  0.00     0.042 C 
HETATM    7  C18 UNL     1      10.582  28.908  -0.745  1.00  0.00     0.105 C 
HETATM    8  C19 UNL     1       9.610  28.616  -1.820  1.00  0.00     0.217 C 
HETATM    9  O5  UNL     1       9.160  29.603  -2.475  1.00  0.00    -0.274 OA
HETATM   10  N3  UNL     1       9.137  27.333  -2.182  1.00  0.00    -0.361 N 
ATOM     11  H3  UNL     1       8.339  27.295  -2.817  1.00  0.00     0.162 HD
HETATM   12  C20 UNL     1       9.679  26.075  -1.738  1.00  0.00     0.125 C 
HETATM   13  C21 UNL     1       8.722  25.318  -0.810  1.00  0.00     0.058 C 
HETATM   14  C22 UNL     1       9.141  25.488   0.661  1.00  0.00     0.179 C 
HETATM   15  C23 UNL     1       7.928  25.674   1.468  1.00  0.00     0.106 C 
HETATM   16  C24 UNL     1       7.921  26.022   2.872  1.00  0.00     0.113 C 
ENDROOT
BRANCH   1  17
HETATM   17  C10 UNL     1       7.864  28.190   4.205  1.00  0.00     0.148 C 
BRANCH  17  18
HETATM   18  N1  UNL     1       8.492  28.431   5.511  1.00  0.00    -0.350 N 
HETATM   19  C9  UNL     1       7.832  29.039   6.608  1.00  0.00     0.218 C 
HETATM   20  O1  UNL     1       6.635  29.441   6.561  1.00  0.00    -0.274 OA
ATOM     21  H1  UNL     1       9.462  28.142   5.636  1.00  0.00     0.163 HD
BRANCH  19  22
HETATM   22  C8  UNL     1       8.532  29.242   7.913  1.00  0.00     0.103 C 
BRANCH  22  23
HETATM   23  C7  UNL     1       7.594  29.839   8.967  1.00  0.00     0.009 C 
BRANCH  23  24
HETATM   24  C6  UNL     1       7.400  28.783   9.999  1.00  0.00     0.000 C 
BRANCH  24  25
HETATM   25  C5  UNL     1       8.657  28.561  10.831  1.00  0.00     0.000 C 
BRANCH  25  26
HETATM   26  C4  UNL     1       8.614  27.231  11.480  1.00  0.00     0.000 C 
BRANCH  26  27
HETATM   27  C3  UNL     1       8.596  27.264  12.957  1.00  0.00    -0.000 C 
BRANCH  27  28
HETATM   28  C2  UNL     1       7.829  28.284  13.686  1.00  0.00    -0.005 C 
HETATM   29  C1  UNL     1       6.435  27.940  14.089  1.00  0.00     0.005 C 
ENDBRANCH  27  28
ENDBRANCH  26  27
ENDBRANCH  25  26
ENDBRANCH  24  25
ENDBRANCH  23  24
ENDBRANCH  22  23
ENDBRANCH  19  22
ENDBRANCH  17  18
BRANCH  17  30
HETATM   30  C11 UNL     1       7.562  29.449   3.548  1.00  0.00     0.194 C 
BRANCH  30  31
HETATM   31  O2  UNL     1       8.236  30.581   3.981  1.00  0.00    -0.398 OA
ATOM     32  H2  UNL     1       7.718  31.302   4.319  1.00  0.00     0.209 HD
ENDBRANCH  30  31
ENDBRANCH  17  30
ENDBRANCH   1  17
BRANCH   2  33
HETATM   33  O3  UNL     1      10.861  26.443   3.224  1.00  0.00    -0.346 OA
ATOM     34  H3  UNL     1      11.622  26.564   2.669  1.00  0.00     0.219 HD
ENDBRANCH   2  33
BRANCH  16  35
HETATM   35  O8  UNL     1       7.982  24.786   3.594  1.00  0.00    -0.343 OA
BRANCH  35  36
HETATM   36  C25 UNL     1       7.371  24.854   4.846  1.00  0.00     0.125 C 
HETATM   37  C26 UNL     1       7.868  23.729   5.749  1.00  0.00     0.040 C 
BRANCH  36  38
HETATM   38  C27 UNL     1       5.917  24.592   4.644  1.00  0.00     0.032 C 
BRANCH  38  39
HETATM   39  C28 UNL     1       5.312  23.372   5.176  1.00  0.00     0.007 C 
BRANCH  39  40
HETATM   40  C29 UNL     1       4.121  23.385   6.013  1.00  0.00    -0.014 C 
HETATM   41  C30 UNL     1       3.964  22.133   6.890  1.00  0.00     0.004 C 
HETATM   42  C31 UNL     1       2.570  22.248   7.452  1.00  0.00     0.000 C 
HETATM   43  C32 UNL     1       1.897  23.416   6.760  1.00  0.00     0.000 C 
HETATM   44  C33 UNL     1       2.779  23.647   5.497  1.00  0.00     0.004 C 
ENDBRANCH  39  40
ENDBRANCH  38  39
ENDBRANCH  36  38
ENDBRANCH  35  36
ENDBRANCH  16  35
BRANCH  15  45
HETATM   45  O7  UNL     1       6.997  26.357   0.649  1.00  0.00    -0.359 OA
ATOM     46  H7  UNL     1       6.569  26.999   1.201  1.00  0.00     0.217 HD
ENDBRANCH  15  45
BRANCH   5  47
HETATM   47  C15 UNL     1      10.890  30.945   2.130  1.00  0.00     0.163 C 
HETATM   48  O4  UNL     1      11.009  31.119   3.325  1.00  0.00    -0.294 OA
BRANCH  47  49
HETATM   49  C16 UNL     1      10.851  32.040   1.186  1.00  0.00     0.195 C 
HETATM   50 CL1  UNL     1      12.380  32.117   0.238  1.00  0.00    -0.122 Cl
ENDBRANCH  47  49
ENDBRANCH   5  47
BRANCH  14  51
HETATM   51  O6  UNL     1       9.826  24.292   0.935  1.00  0.00    -0.389 OA
ATOM     52  H6  UNL     1       9.131  23.644   0.939  1.00  0.00     0.210 HD
ENDBRANCH  14  51
TORSDOF 21
ENDMDL
MODEL 3
REMARK VINA RESULT: -7.624133030      3.431      7.431
REMARK  21 active torsions:
REMARK  status: ('A' for Active; 'I' for Inactive)
REMARK    1  A    between atoms: C2_2  and  C3_3 
REMARK    2  A    between atoms: C3_3  and  C4_4 
REMARK    3  A    between atoms: C4_4  and  C5_5 
REMARK    4  A    between atoms: C5_5  and  C6_6 
REMARK    5  A    between atoms: C6_6  and  C7_7 
REMARK    6  A    between atoms: C7_7  and  C8_8 
REMARK    7  A    between atoms: C8_8  and  C9_9 
REMARK       I    between atoms: C9_9  and  N1_11 
REMARK    8  A    between atoms: N1_11  and  C10_13 
REMARK    9  A    between atoms: C10_13  and  C11_14 
REMARK   10  A    between atoms: C10_13  and  C12_17 
REMARK   11  A    between atoms: C11_14  and  O2_15 
REMARK   12  A    between atoms: C13_18  and  O3_19 
REMARK   13  A    between atoms: C14_23  and  C15_24 
REMARK   14  A    between atoms: C15_24  and  C16_26 
REMARK   15  A    between atoms: C22_36  and  O6_37 
REMARK   16  A    between atoms: C23_39  and  O7_40 
REMARK   17  A    between atoms: C24_42  and  O8_43 
REMARK   18  A    between atoms: O8_43  and  C25_44 
REMARK   19  A    between atoms: C25_44  and  C27_46 
REMARK   20  A    between atoms: C27_46  and  C28_47 
REMARK   21  A    between atoms: C28_47  and  C29_48 
ROOT
HETATM    1  C12 UNL     1       8.691  27.197   3.572  1.00  0.00     0.053 C 
HETATM    2  C13 UNL     1      10.066  27.533   3.195  1.00  0.00     0.147 C 
HETATM    3  N2  UNL     1      10.742  28.673   2.797  1.00  0.00    -0.359 N 
ATOM      4  H2  UNL     1      11.350  29.004   3.546  1.00  0.00     0.162 HD
HETATM    5  C14 UNL     1      10.850  29.536   1.650  1.00  0.00     0.155 C 
HETATM    6  C17 UNL     1       9.924  29.387   0.526  1.00  0.00     0.042 C 
HETATM    7  C18 UNL     1      10.625  28.902  -0.752  1.00  0.00     0.105 C 
HETATM    8  C19 UNL     1       9.642  28.611  -1.818  1.00  0.00     0.217 C 
HETATM    9  O5  UNL     1       9.208  29.596  -2.488  1.00  0.00    -0.274 OA
HETATM   10  N3  UNL     1       9.144  27.332  -2.158  1.00  0.00    -0.361 N 
ATOM     11  H3  UNL     1       8.342  27.299  -2.788  1.00  0.00     0.162 HD
HETATM   12  C20 UNL     1       9.664  26.071  -1.695  1.00  0.00     0.125 C 
HETATM   13  C21 UNL     1       8.698  25.347  -0.751  1.00  0.00     0.058 C 
HETATM   14  C22 UNL     1       9.126  25.534   0.715  1.00  0.00     0.179 C 
HETATM   15  C23 UNL     1       7.921  25.756   1.525  1.00  0.00     0.106 C 
HETATM   16  C24 UNL     1       7.927  26.126   2.922  1.00  0.00     0.113 C 
ENDROOT
BRANCH   1  17
HETATM   17  C10 UNL     1       7.917  28.317   4.220  1.00  0.00     0.148 C 
BRANCH  17  18
HETATM   18  N1  UNL     1       8.486  28.494   5.563  1.00  0.00    -0.350 N 
HETATM   19  C9  UNL     1       7.777  29.047   6.658  1.00  0.00     0.218 C 
HETATM   20  O1  UNL     1       6.582  29.449   6.578  1.00  0.00    -0.274 OA
ATOM     21  H1  UNL     1       9.451  28.200   5.716  1.00  0.00     0.163 HD
BRANCH  19  22
HETATM   22  C8  UNL     1       8.418  29.186   8.001  1.00  0.00     0.103 C 
BRANCH  22  23
HETATM   23  C7  UNL     1       7.531  29.976   8.968  1.00  0.00     0.009 C 
BRANCH  23  24
HETATM   24  C6  UNL     1       7.143  29.028  10.049  1.00  0.00     0.000 C 
BRANCH  24  25
HETATM   25  C5  UNL     1       8.259  28.042  10.369  1.00  0.00     0.000 C 
BRANCH  25  26
HETATM   26  C4  UNL     1       8.464  27.955  11.833  1.00  0.00     0.000 C 
BRANCH  26  27
HETATM   27  C3  UNL     1       9.742  28.517  12.314  1.00  0.00    -0.000 C 
BRANCH  27  28
HETATM   28  C2  UNL     1      10.608  29.308  11.427  1.00  0.00    -0.005 C 
HETATM   29  C1  UNL     1      10.366  30.777  11.361  1.00  0.00     0.005 C 
ENDBRANCH  27  28
ENDBRANCH  26  27
ENDBRANCH  25  26
ENDBRANCH  24  25
ENDBRANCH  23  24
ENDBRANCH  22  23
ENDBRANCH  19  22
ENDBRANCH  17  18
BRANCH  17  30
HETATM   30  C11 UNL     1       7.716  29.604   3.581  1.00  0.00     0.194 C 
BRANCH  30  31
HETATM   31  O2  UNL     1       7.160  29.614   2.311  1.00  0.00    -0.398 OA
ATOM     32  H2  UNL     1       7.361  28.885   1.734  1.00  0.00     0.209 HD
ENDBRANCH  30  31
ENDBRANCH  17  30
ENDBRANCH   1  17
BRANCH   2  33
HETATM   33  O3  UNL     1      10.875  26.498   3.255  1.00  0.00    -0.346 OA
ATOM     34  H3  UNL     1      11.026  26.200   4.144  1.00  0.00     0.219 HD
ENDBRANCH   2  33
BRANCH  16  35
HETATM   35  O8  UNL     1       7.968  24.901   3.665  1.00  0.00    -0.343 OA
BRANCH  35  36
HETATM   36  C25 UNL     1       7.292  24.977   4.881  1.00  0.00     0.125 C 
HETATM   37  C26 UNL     1       7.791  23.902   5.843  1.00  0.00     0.040 C 
BRANCH  36  38
HETATM   38  C27 UNL     1       5.863  24.643   4.616  1.00  0.00     0.032 C 
BRANCH  38  39
HETATM   39  C28 UNL     1       5.283  23.417   5.161  1.00  0.00     0.007 C 
BRANCH  39  40
HETATM   40  C29 UNL     1       4.096  23.413   6.004  1.00  0.00    -0.014 C 
HETATM   41  C30 UNL     1       3.963  22.162   6.885  1.00  0.00     0.004 C 
HETATM   42  C31 UNL     1       2.570  22.258   7.454  1.00  0.00     0.000 C 
HETATM   43  C32 UNL     1       1.876  23.413   6.762  1.00  0.00     0.000 C 
HETATM   44  C33 UNL     1       2.748  23.654   5.494  1.00  0.00     0.004 C 
ENDBRANCH  39  40
ENDBRANCH  38  39
ENDBRANCH  36  38
ENDBRANCH  35  36
ENDBRANCH  16  35
BRANCH  15  45
HETATM   45  O7  UNL     1       6.999  26.442   0.698  1.00  0.00    -0.359 OA
ATOM     46  H7  UNL     1       6.313  25.822   0.483  1.00  0.00     0.217 HD
ENDBRANCH  15  45
BRANCH   5  47
HETATM   47  C15 UNL     1      10.984  30.979   2.087  1.00  0.00     0.163 C 
HETATM   48  O4  UNL     1      11.061  31.174   3.283  1.00  0.00    -0.294 OA
BRANCH  47  49
HETATM   49  C16 UNL     1      11.020  32.055   1.122  1.00  0.00     0.195 C 
HETATM   50 CL1  UNL     1      12.611  32.101   0.279  1.00  0.00    -0.122 Cl
ENDBRANCH  47  49
ENDBRANCH   5  47
BRANCH  14  51
HETATM   51  O6  UNL     1       9.790  24.330   1.006  1.00  0.00    -0.389 OA
ATOM     52  H6  UNL     1      10.597  24.623   1.412  1.00  0.00     0.210 HD
ENDBRANCH  14  51
TORSDOF 21
ENDMDL
MODEL 4
REMARK VINA RESULT: -7.560646837      2.831      7.894
REMARK  21 active torsions:
REMARK  status: ('A' for Active; 'I' for Inactive)
REMARK    1  A    between atoms: C2_2  and  C3_3 
REMARK    2  A    between atoms: C3_3  and  C4_4 
REMARK    3  A    between atoms: C4_4  and  C5_5 
REMARK    4  A    between atoms: C5_5  and  C6_6 
REMARK    5  A    between atoms: C6_6  and  C7_7 
REMARK    6  A    between atoms: C7_7  and  C8_8 
REMARK    7  A    between atoms: C8_8  and  C9_9 
REMARK       I    between atoms: C9_9  and  N1_11 
REMARK    8  A    between atoms: N1_11  and  C10_13 
REMARK    9  A    between atoms: C10_13  and  C11_14 
REMARK   10  A    between atoms: C10_13  and  C12_17 
REMARK   11  A    between atoms: C11_14  and  O2_15 
REMARK   12  A    between atoms: C13_18  and  O3_19 
REMARK   13  A    between atoms: C14_23  and  C15_24 
REMARK   14  A    between atoms: C15_24  and  C16_26 
REMARK   15  A    between atoms: C22_36  and  O6_37 
REMARK   16  A    between atoms: C23_39  and  O7_40 
REMARK   17  A    between atoms: C24_42  and  O8_43 
REMARK   18  A    between atoms: O8_43  and  C25_44 
REMARK   19  A    between atoms: C25_44  and  C27_46 
REMARK   20  A    between atoms: C27_46  and  C28_47 
REMARK   21  A    between atoms: C28_47  and  C29_48 
ROOT
HETATM    1  C12 UNL     1       8.361  27.436   1.800  1.00  0.00     0.053 C 
HETATM    2  C13 UNL     1       7.974  27.612   0.399  1.00  0.00     0.147 C 
HETATM    3  N2  UNL     1       8.293  27.014  -0.808  1.00  0.00    -0.359 N 
ATOM      4  H2  UNL     1       7.515  26.446  -1.139  1.00  0.00     0.162 HD
HETATM    5  C14 UNL     1       9.389  26.950  -1.740  1.00  0.00     0.155 C 
HETATM    6  C17 UNL     1      10.690  27.517  -1.388  1.00  0.00     0.042 C 
HETATM    7  C18 UNL     1      11.055  28.735  -2.250  1.00  0.00     0.105 C 
HETATM    8  C19 UNL     1      12.296  29.377  -1.765  1.00  0.00     0.217 C 
HETATM    9  O5  UNL     1      13.393  28.855  -2.124  1.00  0.00    -0.274 OA
HETATM   10  N3  UNL     1      12.367  30.521  -0.936  1.00  0.00    -0.361 N 
ATOM     11  H3  UNL     1      13.277  30.746  -0.535  1.00  0.00     0.162 HD
HETATM   12  C20 UNL     1      11.272  31.396  -0.608  1.00  0.00     0.125 C 
HETATM   13  C21 UNL     1      10.867  31.303   0.868  1.00  0.00     0.058 C 
HETATM   14  C22 UNL     1       9.611  30.430   1.034  1.00  0.00     0.179 C 
HETATM   15  C23 UNL     1       9.785  29.592   2.228  1.00  0.00     0.106 C 
HETATM   16  C24 UNL     1       8.888  28.530   2.623  1.00  0.00     0.113 C 
ENDROOT
BRANCH   1  17
HETATM   17  C10 UNL     1       8.733  26.026   2.185  1.00  0.00     0.148 C 
BRANCH  17  18
HETATM   18  N1  UNL     1       7.531  25.426   2.779  1.00  0.00    -0.350 N 
HETATM   19  C9  UNL     1       7.531  24.669   3.977  1.00  0.00     0.218 C 
HETATM   20  O1  UNL     1       8.576  24.433   4.647  1.00  0.00    -0.274 OA
ATOM     21  H1  UNL     1       6.641  25.562   2.299  1.00  0.00     0.163 HD
BRANCH  19  22
HETATM   22  C8  UNL     1       6.266  24.097   4.529  1.00  0.00     0.103 C 
BRANCH  22  23
HETATM   23  C7  UNL     1       6.532  23.225   5.760  1.00  0.00     0.009 C 
BRANCH  23  24
HETATM   24  C6  UNL     1       5.221  22.634   6.145  1.00  0.00     0.000 C 
BRANCH  24  25
HETATM   25  C5  UNL     1       4.055  23.338   5.461  1.00  0.00     0.000 C 
BRANCH  25  26
HETATM   26  C4  UNL     1       2.837  23.246   6.297  1.00  0.00     0.000 C 
BRANCH  26  27
HETATM   27  C3  UNL     1       2.907  22.250   7.385  1.00  0.00    -0.000 C 
BRANCH  27  28
HETATM   28  C2  UNL     1       1.728  21.461   7.772  1.00  0.00    -0.005 C 
HETATM   29  C1  UNL     1       0.390  21.981   7.370  1.00  0.00     0.005 C 
ENDBRANCH  27  28
ENDBRANCH  26  27
ENDBRANCH  25  26
ENDBRANCH  24  25
ENDBRANCH  23  24
ENDBRANCH  22  23
ENDBRANCH  19  22
ENDBRANCH  17  18
BRANCH  17  30
HETATM   30  C11 UNL     1       9.358  25.099   1.260  1.00  0.00     0.194 C 
BRANCH  30  31
HETATM   31  O2  UNL     1       8.540  24.194   0.602  1.00  0.00    -0.398 OA
ATOM     32  H2  UNL     1       8.953  23.446   0.184  1.00  0.00     0.209 HD
ENDBRANCH  30  31
ENDBRANCH  17  30
ENDBRANCH   1  17
BRANCH   2  33
HETATM   33  O3  UNL     1       7.091  28.573   0.233  1.00  0.00    -0.346 OA
ATOM     34  H3  UNL     1       7.483  29.380  -0.082  1.00  0.00     0.219 HD
ENDBRANCH   2  33
BRANCH  16  35
HETATM   35  O8  UNL     1       7.874  29.138   3.433  1.00  0.00    -0.343 OA
BRANCH  35  36
HETATM   36  C25 UNL     1       8.185  29.135   4.792  1.00  0.00     0.125 C 
HETATM   37  C26 UNL     1       7.708  27.843   5.450  1.00  0.00     0.040 C 
BRANCH  36  38
HETATM   38  C27 UNL     1       7.393  30.225   5.430  1.00  0.00     0.032 C 
BRANCH  38  39
HETATM   39  C28 UNL     1       7.892  30.883   6.636  1.00  0.00     0.007 C 
BRANCH  39  40
HETATM   40  C29 UNL     1       7.572  30.418   7.978  1.00  0.00    -0.014 C 
HETATM   41  C30 UNL     1       8.630  29.482   8.581  1.00  0.00     0.004 C 
HETATM   42  C31 UNL     1       7.975  28.937   9.824  1.00  0.00     0.000 C 
HETATM   43  C32 UNL     1       6.531  29.394   9.815  1.00  0.00     0.000 C 
HETATM   44  C33 UNL     1       6.291  29.809   8.332  1.00  0.00     0.004 C 
ENDBRANCH  39  40
ENDBRANCH  38  39
ENDBRANCH  36  38
ENDBRANCH  35  36
ENDBRANCH  16  35
BRANCH  15  45
HETATM   45  O7  UNL     1      11.170  29.313   2.327  1.00  0.00    -0.359 OA
ATOM     46  H7  UNL     1      11.258  28.591   2.938  1.00  0.00     0.217 HD
ENDBRANCH  15  45
BRANCH   5  47
HETATM   47  C15 UNL     1       9.513  25.553  -2.311  1.00  0.00     0.163 C 
HETATM   48  O4  UNL     1       8.508  24.873  -2.292  1.00  0.00    -0.294 OA
BRANCH  47  49
HETATM   49  C16 UNL     1      10.767  25.071  -2.846  1.00  0.00     0.195 C 
HETATM   50 CL1  UNL     1      10.690  23.297  -3.146  1.00  0.00    -0.122 Cl
ENDBRANCH  47  49
ENDBRANCH   5  47
BRANCH  14  51
HETATM   51  O6  UNL     1       8.581  31.379   1.154  1.00  0.00    -0.389 OA
ATOM     52  H6  UNL     1       8.126  31.305   0.324  1.00  0.00     0.210 HD
ENDBRANCH  14  51
TORSDOF 21
ENDMDL
MODEL 5
REMARK VINA RESULT: -7.339781618      3.691      8.132
REMARK  21 active torsions:
REMARK  status: ('A' for Active; 'I' for Inactive)
REMARK    1  A    between atoms: C2_2  and  C3_3 
REMARK    2  A    between atoms: C3_3  and  C4_4 
REMARK    3  A    between atoms: C4_4  and  C5_5 
REMARK    4  A    between atoms: C5_5  and  C6_6 
REMARK    5  A    between atoms: C6_6  and  C7_7 
REMARK    6  A    between atoms: C7_7  and  C8_8 
REMARK    7  A    between atoms: C8_8  and  C9_9 
REMARK       I    between atoms: C9_9  and  N1_11 
REMARK    8  A    between atoms: N1_11  and  C10_13 
REMARK    9  A    between atoms: C10_13  and  C11_14 
REMARK   10  A    between atoms: C10_13  and  C12_17 
REMARK   11  A    between atoms: C11_14  and  O2_15 
REMARK   12  A    between atoms: C13_18  and  O3_19 
REMARK   13  A    between atoms: C14_23  and  C15_24 
REMARK   14  A    between atoms: C15_24  and  C16_26 
REMARK   15  A    between atoms: C22_36  and  O6_37 
REMARK   16  A    between atoms: C23_39  and  O7_40 
REMARK   17  A    between atoms: C24_42  and  O8_43 
REMARK   18  A    between atoms: O8_43  and  C25_44 
REMARK   19  A    between atoms: C25_44  and  C27_46 
REMARK   20  A    between atoms: C27_46  and  C28_47 
REMARK   21  A    between atoms: C28_47  and  C29_48 
ROOT
HETATM    1  C12 UNL     1       8.626  27.022   3.603  1.00  0.00     0.053 C 
HETATM    2  C13 UNL     1       9.986  27.412   3.224  1.00  0.00     0.147 C 
HETATM    3  N2  UNL     1      10.617  28.580   2.832  1.00  0.00    -0.359 N 
ATOM      4  H2  UNL     1      11.216  28.927   3.581  1.00  0.00     0.162 HD
HETATM    5  C14 UNL     1      10.687  29.457   1.692  1.00  0.00     0.155 C 
HETATM    6  C17 UNL     1       9.763  29.283   0.572  1.00  0.00     0.042 C 
HETATM    7  C18 UNL     1      10.475  28.835  -0.714  1.00  0.00     0.105 C 
HETATM    8  C19 UNL     1       9.500  28.517  -1.779  1.00  0.00     0.217 C 
HETATM    9  O5  UNL     1       9.026  29.490  -2.437  1.00  0.00    -0.274 OA
HETATM   10  N3  UNL     1       9.048  27.222  -2.127  1.00  0.00    -0.361 N 
ATOM     11  H3  UNL     1       8.245  27.165  -2.754  1.00  0.00     0.162 HD
HETATM   12  C20 UNL     1       9.617  25.979  -1.677  1.00  0.00     0.125 C 
HETATM   13  C21 UNL     1       8.683  25.211  -0.736  1.00  0.00     0.058 C 
HETATM   14  C22 UNL     1       9.110  25.400   0.730  1.00  0.00     0.179 C 
HETATM   15  C23 UNL     1       7.902  25.570   1.546  1.00  0.00     0.106 C 
HETATM   16  C24 UNL     1       7.900  25.929   2.947  1.00  0.00     0.113 C 
ENDROOT
BRANCH   1  17
HETATM   17  C10 UNL     1       7.814  28.106   4.265  1.00  0.00     0.148 C 
BRANCH  17  18
HETATM   18  N1  UNL     1       8.458  28.381   5.555  1.00  0.00    -0.350 N 
HETATM   19  C9  UNL     1       7.809  29.005   6.649  1.00  0.00     0.218 C 
HETATM   20  O1  UNL     1       6.607  29.392   6.612  1.00  0.00    -0.274 OA
ATOM     21  H1  UNL     1       9.434  28.106   5.671  1.00  0.00     0.163 HD
BRANCH  19  22
HETATM   22  C8  UNL     1       8.526  29.244   7.938  1.00  0.00     0.103 C 
BRANCH  22  23
HETATM   23  C7  UNL     1       7.597  29.057   9.142  1.00  0.00     0.009 C 
BRANCH  23  24
HETATM   24  C6  UNL     1       8.464  28.637  10.277  1.00  0.00     0.000 C 
BRANCH  24  25
HETATM   25  C5  UNL     1       7.720  28.677  11.607  1.00  0.00     0.000 C 
BRANCH  25  26
HETATM   26  C4  UNL     1       6.411  29.348  11.444  1.00  0.00     0.000 C 
BRANCH  26  27
HETATM   27  C3  UNL     1       5.458  29.122  12.548  1.00  0.00    -0.000 C 
BRANCH  27  28
HETATM   28  C2  UNL     1       4.053  28.778  12.284  1.00  0.00    -0.005 C 
HETATM   29  C1  UNL     1       3.320  28.018  13.336  1.00  0.00     0.005 C 
ENDBRANCH  27  28
ENDBRANCH  26  27
ENDBRANCH  25  26
ENDBRANCH  24  25
ENDBRANCH  23  24
ENDBRANCH  22  23
ENDBRANCH  19  22
ENDBRANCH  17  18
BRANCH  17  30
HETATM   30  C11 UNL     1       7.469  29.347   3.595  1.00  0.00     0.194 C 
BRANCH  30  31
HETATM   31  O2  UNL     1       8.141  30.497   3.981  1.00  0.00    -0.398 OA
ATOM     32  H2  UNL     1       8.023  30.800   4.874  1.00  0.00     0.209 HD
ENDBRANCH  30  31
ENDBRANCH  17  30
ENDBRANCH   1  17
BRANCH   2  33
HETATM   33  O3  UNL     1      10.834  26.408   3.271  1.00  0.00    -0.346 OA
ATOM     34  H3  UNL     1      11.339  26.391   4.075  1.00  0.00     0.219 HD
ENDBRANCH   2  33
BRANCH  16  35
HETATM   35  O8  UNL     1       7.991  24.700   3.679  1.00  0.00    -0.343 OA
BRANCH  35  36
HETATM   36  C25 UNL     1       7.382  24.764   4.932  1.00  0.00     0.125 C 
HETATM   37  C26 UNL     1       8.079  23.829   5.917  1.00  0.00     0.040 C 
BRANCH  36  38
HETATM   38  C27 UNL     1       5.999  24.227   4.781  1.00  0.00     0.032 C 
BRANCH  38  39
HETATM   39  C28 UNL     1       5.581  23.054   5.545  1.00  0.00     0.007 C 
BRANCH  39  40
HETATM   40  C29 UNL     1       4.183  22.728   5.788  1.00  0.00    -0.014 C 
HETATM   41  C30 UNL     1       3.198  23.780   5.257  1.00  0.00     0.004 C 
HETATM   42  C31 UNL     1       1.870  23.370   5.840  1.00  0.00     0.000 C 
HETATM   43  C32 UNL     1       2.132  22.247   6.822  1.00  0.00     0.000 C 
HETATM   44  C33 UNL     1       3.661  22.360   7.103  1.00  0.00     0.004 C 
ENDBRANCH  39  40
ENDBRANCH  38  39
ENDBRANCH  36  38
ENDBRANCH  35  36
ENDBRANCH  16  35
BRANCH  15  45
HETATM   45  O7  UNL     1       6.951  26.229   0.730  1.00  0.00    -0.359 OA
ATOM     46  H7  UNL     1       6.322  26.631   1.316  1.00  0.00     0.217 HD
ENDBRANCH  15  45
BRANCH   5  47
HETATM   47  C15 UNL     1      10.770  30.900   2.142  1.00  0.00     0.163 C 
HETATM   48  O4  UNL     1      10.977  31.085   3.323  1.00  0.00    -0.294 OA
BRANCH  47  49
HETATM   49  C16 UNL     1      10.609  31.988   1.203  1.00  0.00     0.195 C 
HETATM   50 CL1  UNL     1       9.046  32.838   1.474  1.00  0.00    -0.122 Cl
ENDBRANCH  47  49
ENDBRANCH   5  47
BRANCH  14  51
HETATM   51  O6  UNL     1       9.820  24.220   1.007  1.00  0.00    -0.389 OA
ATOM     52  H6  UNL     1       9.442  23.931   1.829  1.00  0.00     0.210 HD
ENDBRANCH  14  51
TORSDOF 21
ENDMDL
