MODEL 1
REMARK VINA RESULT: -8.311732884      0.000      0.000
REMARK  21 active torsions:
REMARK  status: ('A' for Active; 'I' for Inactive)
REMARK    1  A    between atoms: C4_4  and  N1_5 
REMARK       I    between atoms: N1_5  and  C5_7 
REMARK    2  A    between atoms: C5_7  and  C6_9 
REMARK    3  A    between atoms: C6_9  and  N2_10 
REMARK    4  A    between atoms: N2_10  and  C7_13 
REMARK    5  A    between atoms: C7_13  and  C8_14 
REMARK    6  A    between atoms: C8_14  and  C9_15 
REMARK    7  A    between atoms: C9_15  and  N3_16 
REMARK    8  A    between atoms: N3_16  and  C10_18 
REMARK    9  A    between atoms: C10_18  and  C11_19 
REMARK   10  A    between atoms: C11_19  and  C12_20 
REMARK   11  A    between atoms: C12_20  and  C13_21 
REMARK   12  A    between atoms: C13_21  and  C14_22 
REMARK   13  A    between atoms: C14_22  and  C15_23 
REMARK   14  A    between atoms: C15_23  and  N4_24 
REMARK   15  A    between atoms: N4_24  and  C16_26 
REMARK   16  A    between atoms: C16_26  and  C17_27 
REMARK   17  A    between atoms: C17_27  and  C18_28 
REMARK   18  A    between atoms: C18_28  and  N5_29 
REMARK   19  A    between atoms: N5_29  and  C19_31 
REMARK   20  A    between atoms: C19_31  and  N6_33 
REMARK   21  A    between atoms: N6_33  and  C20_35 
ROOT
HETATM    1  C14 UNL     1       2.557  22.080   6.930  1.00  0.00     0.019 C 
ENDROOT
BRANCH   1   2
HETATM    2  C13 UNL     1       1.077  22.196   7.196  1.00  0.00     0.002 C 
BRANCH   2   3
HETATM    3  C12 UNL     1       0.615  21.132   8.114  1.00  0.00     0.002 C 
BRANCH   3   4
HETATM    4  C11 UNL     1      -0.875  21.133   8.283  1.00  0.00     0.020 C 
BRANCH   4   5
HETATM    5  C10 UNL     1      -1.491  21.797   7.027  1.00  0.00     0.118 C 
BRANCH   5   6
HETATM    6  N3  UNL     1      -2.773  21.300   6.887  1.00  0.00    -0.402 N 
ATOM      7  H3  UNL     1      -3.226  21.467   5.989  1.00  0.00     0.158 HD
BRANCH   6   8
HETATM    8  C9  UNL     1      -3.515  20.602   7.825  1.00  0.00     0.057 C 
BRANCH   8   9
HETATM    9  C8  UNL     1      -4.567  21.297   8.586  1.00  0.00     0.071 C 
BRANCH   9  10
HETATM   10  C7  UNL     1      -5.954  21.032   8.143  1.00  0.00     0.238 C 
BRANCH  10  11
HETATM   11  N2  UNL     1      -6.283  19.600   8.249  1.00  0.00    -0.067 N 
ATOM     12  H22 UNL     1      -5.521  19.090   8.696  1.00  0.00     0.277 HD
ATOM     13  H21 UNL     1      -6.270  19.161   7.329  1.00  0.00     0.277 HD
BRANCH  11  14
HETATM   14  C6  UNL     1      -7.514  19.337   8.910  1.00  0.00     0.335 C 
BRANCH  14  15
HETATM   15  C5  UNL     1      -7.301  18.760  10.251  1.00  0.00     0.248 C 
HETATM   16  N1  UNL     1      -5.970  18.692  10.816  1.00  0.00    -0.310 N 
ATOM     17  H1  UNL     1      -5.218  18.212  10.321  1.00  0.00     0.170 HD
HETATM   18  O1  UNL     1      -8.194  18.293  11.000  1.00  0.00    -0.271 OA
BRANCH  16  19
HETATM   19  C4  UNL     1      -5.755  19.247  11.950  1.00  0.00     0.130 A 
HETATM   20  C3  UNL     1      -6.130  20.467  12.439  1.00  0.00     0.084 A 
HETATM   21  C2  UNL     1      -5.643  20.555  13.743  1.00  0.00     0.076 A 
HETATM   22  C1  UNL     1      -5.827  21.728  14.651  1.00  0.00     0.079 C 
HETATM   23  O2  UNL     1      -5.026  19.434  13.964  1.00  0.00    -0.241 OA
HETATM   24  N9  UNL     1      -5.068  18.643  12.942  1.00  0.00    -0.245 N 
ATOM     25  H9  UNL     1      -4.650  17.714  12.894  1.00  0.00     0.196 HD
ENDBRANCH  16  19
ENDBRANCH  14  15
ENDBRANCH  11  14
ENDBRANCH  10  11
ENDBRANCH   9  10
ENDBRANCH   8   9
ENDBRANCH   6   8
ENDBRANCH   5   6
ENDBRANCH   4   5
ENDBRANCH   3   4
ENDBRANCH   2   3
ENDBRANCH   1   2
BRANCH   1  26
HETATM   26  C15 UNL     1       2.886  22.692   5.607  1.00  0.00     0.113 C 
BRANCH  26  27
HETATM   27  N4  UNL     1       4.013  23.537   5.691  1.00  0.00    -0.421 N 
ATOM     28  H4  UNL     1       3.948  24.548   5.562  1.00  0.00     0.153 HD
BRANCH  27  29
HETATM   29  C16 UNL     1       5.249  22.883   5.968  1.00  0.00     0.115 C 
BRANCH  29  30
HETATM   30  C17 UNL     1       6.366  23.524   5.192  1.00  0.00     0.039 C 
BRANCH  30  31
HETATM   31  C18 UNL     1       5.964  24.652   4.315  1.00  0.00     0.123 C 
BRANCH  31  32
HETATM   32  N5  UNL     1       6.914  25.661   4.029  1.00  0.00    -0.367 N 
ATOM     33  H5  UNL     1       6.834  26.526   4.564  1.00  0.00     0.161 HD
BRANCH  32  34
HETATM   34  C19 UNL     1       7.967  25.600   3.075  1.00  0.00     0.173 C 
HETATM   35  S1  UNL     1       9.517  25.669   3.661  1.00  0.00    -0.041 SA
BRANCH  34  36
HETATM   36  N6  UNL     1       7.839  25.486   1.697  1.00  0.00    -0.318 N 
ATOM     37  H6  UNL     1       7.439  24.600   1.391  1.00  0.00     0.170 HD
BRANCH  36  38
HETATM   38  C20 UNL     1       8.124  26.275   0.750  1.00  0.00     0.128 A 
HETATM   39  N7  UNL     1       7.657  27.557   0.825  1.00  0.00    -0.337 N 
HETATM   40  C21 UNL     1       8.005  28.340  -0.206  1.00  0.00     0.182 A 
ATOM     41  H7  UNL     1       7.089  27.891   1.603  1.00  0.00     0.168 HD
HETATM   42  N8  UNL     1       8.736  27.963  -1.237  1.00  0.00    -0.351 N 
HETATM   43  C22 UNL     1       9.226  26.682  -1.352  1.00  0.00     0.055 A 
ATOM     44  H8  UNL     1       8.945  28.641  -1.971  1.00  0.00     0.166 HD
HETATM   45  C23 UNL     1       9.977  26.183  -2.349  1.00  0.00     0.057 A 
HETATM   46  C25 UNL     1       8.900  25.839  -0.324  1.00  0.00     0.077 A 
HETATM   47  C24 UNL     1      10.356  24.872  -2.256  1.00  0.00     0.054 A 
HETATM   48 BR1  UNL     1      11.430  23.871  -3.511  1.00  0.00    -0.043 Br
HETATM   49  S2  UNL     1       9.655  24.375  -0.787  1.00  0.00    -0.077 SA
ENDBRANCH  36  38
ENDBRANCH  34  36
ENDBRANCH  32  34
ENDBRANCH  31  32
ENDBRANCH  30  31
ENDBRANCH  29  30
ENDBRANCH  27  29
ENDBRANCH  26  27
ENDBRANCH   1  26
TORSDOF 21
ENDMDL
MODEL 2
REMARK VINA RESULT: -8.127422275      2.047      2.276
REMARK  21 active torsions:
REMARK  status: ('A' for Active; 'I' for Inactive)
REMARK    1  A    between atoms: C4_4  and  N1_5 
REMARK       I    between atoms: N1_5  and  C5_7 
REMARK    2  A    between atoms: C5_7  and  C6_9 
REMARK    3  A    between atoms: C6_9  and  N2_10 
REMARK    4  A    between atoms: N2_10  and  C7_13 
REMARK    5  A    between atoms: C7_13  and  C8_14 
REMARK    6  A    between atoms: C8_14  and  C9_15 
REMARK    7  A    between atoms: C9_15  and  N3_16 
REMARK    8  A    between atoms: N3_16  and  C10_18 
REMARK    9  A    between atoms: C10_18  and  C11_19 
REMARK   10  A    between atoms: C11_19  and  C12_20 
REMARK   11  A    between atoms: C12_20  and  C13_21 
REMARK   12  A    between atoms: C13_21  and  C14_22 
REMARK   13  A    between atoms: C14_22  and  C15_23 
REMARK   14  A    between atoms: C15_23  and  N4_24 
REMARK   15  A    between atoms: N4_24  and  C16_26 
REMARK   16  A    between atoms: C16_26  and  C17_27 
REMARK   17  A    between atoms: C17_27  and  C18_28 
REMARK   18  A    between atoms: C18_28  and  N5_29 
REMARK   19  A    between atoms: N5_29  and  C19_31 
REMARK   20  A    between atoms: C19_31  and  N6_33 
REMARK   21  A    between atoms: N6_33  and  C20_35 
ROOT
HETATM    1  C14 UNL     1       2.243  23.118   6.805  1.00  0.00     0.019 C 
ENDROOT
BRANCH   1   2
HETATM    2  C13 UNL     1       0.846  22.573   6.654  1.00  0.00     0.002 C 
BRANCH   2   3
HETATM    3  C12 UNL     1       0.520  21.628   7.744  1.00  0.00     0.002 C 
BRANCH   3   4
HETATM    4  C11 UNL     1      -0.923  21.217   7.731  1.00  0.00     0.020 C 
BRANCH   4   5
HETATM    5  C10 UNL     1      -1.712  22.294   6.946  1.00  0.00     0.118 C 
BRANCH   5   6
HETATM    6  N3  UNL     1      -3.046  22.149   7.278  1.00  0.00    -0.402 N 
ATOM      7  H3  UNL     1      -3.510  21.313   6.922  1.00  0.00     0.158 HD
BRANCH   6   8
HETATM    8  C9  UNL     1      -3.825  23.005   8.037  1.00  0.00     0.057 C 
BRANCH   8   9
HETATM    9  C8  UNL     1      -5.063  22.505   8.659  1.00  0.00     0.071 C 
BRANCH   9  10
HETATM   10  C7  UNL     1      -5.468  21.139   8.260  1.00  0.00     0.238 C 
BRANCH  10  11
HETATM   11  N2  UNL     1      -6.844  20.841   8.695  1.00  0.00    -0.067 N 
ATOM     12  H22 UNL     1      -7.518  21.354   8.127  1.00  0.00     0.277 HD
ATOM     13  H21 UNL     1      -7.029  21.262   9.606  1.00  0.00     0.277 HD
BRANCH  11  14
HETATM   14  C6  UNL     1      -7.158  19.456   8.713  1.00  0.00     0.335 C 
BRANCH  14  15
HETATM   15  C5  UNL     1      -7.147  18.911  10.084  1.00  0.00     0.248 C 
HETATM   16  N1  UNL     1      -5.895  18.690  10.775  1.00  0.00    -0.310 N 
ATOM     17  H1  UNL     1      -5.173  18.095  10.367  1.00  0.00     0.170 HD
HETATM   18  O1  UNL     1      -8.160  18.596  10.757  1.00  0.00    -0.271 OA
BRANCH  16  19
HETATM   19  C4  UNL     1      -5.710  19.257  11.907  1.00  0.00     0.130 A 
HETATM   20  C3  UNL     1      -6.054  20.502  12.357  1.00  0.00     0.084 A 
HETATM   21  C2  UNL     1      -5.627  20.594  13.682  1.00  0.00     0.076 A 
HETATM   22  C1  UNL     1      -5.804  21.791  14.559  1.00  0.00     0.079 C 
HETATM   23  O2  UNL     1      -5.071  19.452  13.951  1.00  0.00    -0.241 OA
HETATM   24  N9  UNL     1      -5.098  18.644  12.943  1.00  0.00    -0.245 N 
ATOM     25  H9  UNL     1      -4.719  17.697  12.931  1.00  0.00     0.196 HD
ENDBRANCH  16  19
ENDBRANCH  14  15
ENDBRANCH  11  14
ENDBRANCH  10  11
ENDBRANCH   9  10
ENDBRANCH   8   9
ENDBRANCH   6   8
ENDBRANCH   5   6
ENDBRANCH   4   5
ENDBRANCH   3   4
ENDBRANCH   2   3
ENDBRANCH   1   2
BRANCH   1  26
HETATM   26  C15 UNL     1       3.169  22.030   7.244  1.00  0.00     0.113 C 
BRANCH  26  27
HETATM   27  N4  UNL     1       4.371  22.041   6.505  1.00  0.00    -0.421 N 
ATOM     28  H4  UNL     1       5.072  21.305   6.594  1.00  0.00     0.153 HD
BRANCH  27  29
HETATM   29  C16 UNL     1       4.540  23.151   5.627  1.00  0.00     0.115 C 
BRANCH  29  30
HETATM   30  C17 UNL     1       5.989  23.545   5.553  1.00  0.00     0.039 C 
BRANCH  30  31
HETATM   31  C18 UNL     1       6.388  24.264   4.317  1.00  0.00     0.123 C 
BRANCH  31  32
HETATM   32  N5  UNL     1       6.613  25.660   4.387  1.00  0.00    -0.367 N 
ATOM     33  H5  UNL     1       5.790  26.247   4.525  1.00  0.00     0.161 HD
BRANCH  32  34
HETATM   34  C19 UNL     1       7.862  26.333   4.286  1.00  0.00     0.173 C 
HETATM   35  S1  UNL     1       8.006  27.777   5.087  1.00  0.00    -0.041 SA
BRANCH  34  36
HETATM   36  N6  UNL     1       8.983  25.908   3.584  1.00  0.00    -0.318 N 
ATOM     37  H6  UNL     1       9.754  25.606   4.179  1.00  0.00     0.170 HD
BRANCH  36  38
HETATM   38  C20 UNL     1       9.228  25.825   2.345  1.00  0.00     0.128 A 
HETATM   39  N7  UNL     1       8.933  24.650   1.714  1.00  0.00    -0.337 N 
HETATM   40  C21 UNL     1       9.209  24.635   0.402  1.00  0.00     0.182 A 
ATOM     41  H7  UNL     1       8.535  23.848   2.202  1.00  0.00     0.168 HD
HETATM   42  N8  UNL     1       9.723  25.641  -0.280  1.00  0.00    -0.351 N 
HETATM   43  C22 UNL     1      10.035  26.841   0.317  1.00  0.00     0.055 A 
ATOM     44  H8  UNL     1       9.894  25.525  -1.280  1.00  0.00     0.166 HD
HETATM   45  C23 UNL     1      10.560  27.930  -0.269  1.00  0.00     0.057 A 
HETATM   46  C25 UNL     1       9.773  26.910   1.658  1.00  0.00     0.077 A 
HETATM   47  C24 UNL     1      10.790  29.022   0.521  1.00  0.00     0.054 A 
HETATM   48 BR1  UNL     1      11.524  30.725  -0.016  1.00  0.00    -0.043 Br
HETATM   49  S2  UNL     1      10.270  28.499   2.056  1.00  0.00    -0.077 SA
ENDBRANCH  36  38
ENDBRANCH  34  36
ENDBRANCH  32  34
ENDBRANCH  31  32
ENDBRANCH  30  31
ENDBRANCH  29  30
ENDBRANCH  27  29
ENDBRANCH  26  27
ENDBRANCH   1  26
TORSDOF 21
ENDMDL
MODEL 3
REMARK VINA RESULT: -8.003002452      7.699     15.850
REMARK  21 active torsions:
REMARK  status: ('A' for Active; 'I' for Inactive)
REMARK    1  A    between atoms: C4_4  and  N1_5 
REMARK       I    between atoms: N1_5  and  C5_7 
REMARK    2  A    between atoms: C5_7  and  C6_9 
REMARK    3  A    between atoms: C6_9  and  N2_10 
REMARK    4  A    between atoms: N2_10  and  C7_13 
REMARK    5  A    between atoms: C7_13  and  C8_14 
REMARK    6  A    between atoms: C8_14  and  C9_15 
REMARK    7  A    between atoms: C9_15  and  N3_16 
REMARK    8  A    between atoms: N3_16  and  C10_18 
REMARK    9  A    between atoms: C10_18  and  C11_19 
REMARK   10  A    between atoms: C11_19  and  C12_20 
REMARK   11  A    between atoms: C12_20  and  C13_21 
REMARK   12  A    between atoms: C13_21  and  C14_22 
REMARK   13  A    between atoms: C14_22  and  C15_23 
REMARK   14  A    between atoms: C15_23  and  N4_24 
REMARK   15  A    between atoms: N4_24  and  C16_26 
REMARK   16  A    between atoms: C16_26  and  C17_27 
REMARK   17  A    between atoms: C17_27  and  C18_28 
REMARK   18  A    between atoms: C18_28  and  N5_29 
REMARK   19  A    between atoms: N5_29  and  C19_31 
REMARK   20  A    between atoms: C19_31  and  N6_33 
REMARK   21  A    between atoms: N6_33  and  C20_35 
ROOT
HETATM    1  C14 UNL     1       4.826  22.795   6.157  1.00  0.00     0.019 C 
ENDROOT
BRANCH   1   2
HETATM    2  C13 UNL     1       4.506  23.869   5.149  1.00  0.00     0.002 C 
BRANCH   2   3
HETATM    3  C12 UNL     1       5.740  24.469   4.598  1.00  0.00     0.002 C 
BRANCH   3   4
HETATM    4  C11 UNL     1       6.968  24.026   5.336  1.00  0.00     0.020 C 
BRANCH   4   5
HETATM    5  C10 UNL     1       7.757  23.071   4.407  1.00  0.00     0.118 C 
BRANCH   5   6
HETATM    6  N3  UNL     1       8.557  23.854   3.597  1.00  0.00    -0.402 N 
ATOM      7  H3  UNL     1       8.393  23.778   2.593  1.00  0.00     0.158 HD
BRANCH   6   8
HETATM    8  C9  UNL     1       9.556  24.729   3.989  1.00  0.00     0.057 C 
BRANCH   8   9
HETATM    9  C8  UNL     1       9.719  26.012   3.283  1.00  0.00     0.071 C 
BRANCH   9  10
HETATM   10  C7  UNL     1       8.473  26.780   3.065  1.00  0.00     0.238 C 
BRANCH  10  11
HETATM   11  N2  UNL     1       8.284  27.097   1.638  1.00  0.00    -0.067 N 
ATOM     12  H22 UNL     1       9.144  27.474   1.239  1.00  0.00     0.277 HD
ATOM     13  H21 UNL     1       7.674  27.906   1.530  1.00  0.00     0.277 HD
BRANCH  11  14
HETATM   14  C6  UNL     1       7.810  26.006   0.861  1.00  0.00     0.335 C 
BRANCH  14  15
HETATM   15  C5  UNL     1       8.708  25.712  -0.272  1.00  0.00     0.248 C 
HETATM   16  N1  UNL     1       9.406  26.783  -0.951  1.00  0.00    -0.310 N 
ATOM     17  H1  UNL     1       8.890  27.562  -1.361  1.00  0.00     0.170 HD
HETATM   18  O1  UNL     1       8.949  24.572  -0.742  1.00  0.00    -0.271 OA
BRANCH  16  19
HETATM   19  C4  UNL     1      10.683  26.734  -1.025  1.00  0.00     0.130 A 
HETATM   20  C3  UNL     1      11.530  26.926  -2.081  1.00  0.00     0.084 A 
HETATM   21  C2  UNL     1      12.830  26.771  -1.600  1.00  0.00     0.076 A 
HETATM   22  C1  UNL     1      14.071  26.898  -2.422  1.00  0.00     0.079 C 
HETATM   23  O2  UNL     1      12.706  26.503  -0.335  1.00  0.00    -0.241 OA
HETATM   24  N9  UNL     1      11.470  26.473   0.040  1.00  0.00    -0.245 N 
ATOM     25  H9  UNL     1      11.141  26.282   0.987  1.00  0.00     0.196 HD
ENDBRANCH  16  19
ENDBRANCH  14  15
ENDBRANCH  11  14
ENDBRANCH  10  11
ENDBRANCH   9  10
ENDBRANCH   8   9
ENDBRANCH   6   8
ENDBRANCH   5   6
ENDBRANCH   4   5
ENDBRANCH   3   4
ENDBRANCH   2   3
ENDBRANCH   1   2
BRANCH   1  26
HETATM   26  C15 UNL     1       3.586  22.037   6.504  1.00  0.00     0.113 C 
BRANCH  26  27
HETATM   27  N4  UNL     1       2.494  22.430   5.701  1.00  0.00    -0.421 N 
ATOM     28  H4  UNL     1       2.588  22.605   4.700  1.00  0.00     0.153 HD
BRANCH  27  29
HETATM   29  C16 UNL     1       1.249  22.565   6.384  1.00  0.00     0.115 C 
BRANCH  29  30
HETATM   30  C17 UNL     1       1.207  21.654   7.580  1.00  0.00     0.039 C 
BRANCH  30  31
HETATM   31  C18 UNL     1      -0.045  20.871   7.736  1.00  0.00     0.123 C 
BRANCH  31  32
HETATM   32  N5  UNL     1      -1.157  21.487   8.359  1.00  0.00    -0.367 N 
ATOM     33  H5  UNL     1      -1.035  21.767   9.332  1.00  0.00     0.161 HD
BRANCH  32  34
HETATM   34  C19 UNL     1      -2.425  21.756   7.774  1.00  0.00     0.173 C 
HETATM   35  S1  UNL     1      -3.625  20.641   8.034  1.00  0.00    -0.041 SA
BRANCH  34  36
HETATM   36  N6  UNL     1      -2.771  22.858   7.004  1.00  0.00    -0.318 N 
ATOM     37  H6  UNL     1      -3.410  22.644   6.238  1.00  0.00     0.170 HD
BRANCH  36  38
HETATM   38  C20 UNL     1      -2.444  24.078   7.073  1.00  0.00     0.128 A 
HETATM   39  N7  UNL     1      -1.513  24.540   6.187  1.00  0.00    -0.337 N 
HETATM   40  C21 UNL     1      -1.221  25.843   6.310  1.00  0.00     0.182 A 
ATOM     41  H7  UNL     1      -1.075  23.942   5.487  1.00  0.00     0.168 HD
HETATM   42  N8  UNL     1      -1.755  26.664   7.195  1.00  0.00    -0.351 N 
HETATM   43  C22 UNL     1      -2.695  26.240   8.105  1.00  0.00     0.055 A 
ATOM     44  H8  UNL     1      -1.462  27.641   7.204  1.00  0.00     0.166 HD
HETATM   45  C23 UNL     1      -3.306  26.976   9.049  1.00  0.00     0.057 A 
HETATM   46  C25 UNL     1      -3.030  24.915   8.023  1.00  0.00     0.077 A 
HETATM   47  C24 UNL     1      -4.216  26.344   9.851  1.00  0.00     0.054 A 
HETATM   48 BR1  UNL     1      -5.256  27.119  11.281  1.00  0.00    -0.043 Br
HETATM   49  S2  UNL     1      -4.191  24.744   9.269  1.00  0.00    -0.077 SA
ENDBRANCH  36  38
ENDBRANCH  34  36
ENDBRANCH  32  34
ENDBRANCH  31  32
ENDBRANCH  30  31
ENDBRANCH  29  30
ENDBRANCH  27  29
ENDBRANCH  26  27
ENDBRANCH   1  26
TORSDOF 21
ENDMDL
MODEL 4
REMARK VINA RESULT: -7.916956014      3.240      5.654
REMARK  21 active torsions:
REMARK  status: ('A' for Active; 'I' for Inactive)
REMARK    1  A    between atoms: C4_4  and  N1_5 
REMARK       I    between atoms: N1_5  and  C5_7 
REMARK    2  A    between atoms: C5_7  and  C6_9 
REMARK    3  A    between atoms: C6_9  and  N2_10 
REMARK    4  A    between atoms: N2_10  and  C7_13 
REMARK    5  A    between atoms: C7_13  and  C8_14 
REMARK    6  A    between atoms: C8_14  and  C9_15 
REMARK    7  A    between atoms: C9_15  and  N3_16 
REMARK    8  A    between atoms: N3_16  and  C10_18 
REMARK    9  A    between atoms: C10_18  and  C11_19 
REMARK   10  A    between atoms: C11_19  and  C12_20 
REMARK   11  A    between atoms: C12_20  and  C13_21 
REMARK   12  A    between atoms: C13_21  and  C14_22 
REMARK   13  A    between atoms: C14_22  and  C15_23 
REMARK   14  A    between atoms: C15_23  and  N4_24 
REMARK   15  A    between atoms: N4_24  and  C16_26 
REMARK   16  A    between atoms: C16_26  and  C17_27 
REMARK   17  A    between atoms: C17_27  and  C18_28 
REMARK   18  A    between atoms: C18_28  and  N5_29 
REMARK   19  A    between atoms: N5_29  and  C19_31 
REMARK   20  A    between atoms: C19_31  and  N6_33 
REMARK   21  A    between atoms: N6_33  and  C20_35 
ROOT
HETATM    1  C14 UNL     1       7.690  23.894   4.319  1.00  0.00     0.019 C 
ENDROOT
BRANCH   1   2
HETATM    2  C13 UNL     1       6.379  23.972   5.060  1.00  0.00     0.002 C 
BRANCH   2   3
HETATM    3  C12 UNL     1       6.183  22.788   5.924  1.00  0.00     0.002 C 
BRANCH   3   4
HETATM    4  C11 UNL     1       4.737  22.546   6.239  1.00  0.00     0.020 C 
BRANCH   4   5
HETATM    5  C10 UNL     1       3.893  23.433   5.290  1.00  0.00     0.118 C 
BRANCH   5   6
HETATM    6  N3  UNL     1       2.563  23.152   5.542  1.00  0.00    -0.402 N 
ATOM      7  H3  UNL     1       2.198  22.294   5.130  1.00  0.00     0.158 HD
BRANCH   6   8
HETATM    8  C9  UNL     1       1.668  23.902   6.287  1.00  0.00     0.057 C 
BRANCH   8   9
HETATM    9  C8  UNL     1       0.244  23.921   5.911  1.00  0.00     0.071 C 
BRANCH   9  10
HETATM   10  C7  UNL     1      -0.696  24.273   6.998  1.00  0.00     0.238 C 
BRANCH  10  11
HETATM   11  N2  UNL     1      -1.741  23.246   7.153  1.00  0.00    -0.067 N 
ATOM     12  H22 UNL     1      -2.558  23.480   6.588  1.00  0.00     0.277 HD
ATOM     13  H21 UNL     1      -2.155  23.295   8.083  1.00  0.00     0.277 HD
BRANCH  11  14
HETATM   14  C6  UNL     1      -1.301  21.925   6.870  1.00  0.00     0.335 C 
BRANCH  14  15
HETATM   15  C5  UNL     1      -2.408  20.953   6.949  1.00  0.00     0.248 C 
HETATM   16  N1  UNL     1      -3.116  20.747   8.195  1.00  0.00    -0.310 N 
ATOM     17  H1  UNL     1      -2.613  20.476   9.040  1.00  0.00     0.170 HD
HETATM   18  O1  UNL     1      -2.829  20.240   6.003  1.00  0.00    -0.271 OA
BRANCH  16  19
HETATM   19  C4  UNL     1      -4.385  20.912   8.214  1.00  0.00     0.130 A 
HETATM   20  C3  UNL     1      -5.168  21.781   8.921  1.00  0.00     0.084 A 
HETATM   21  C2  UNL     1      -6.491  21.544   8.546  1.00  0.00     0.076 A 
HETATM   22  C1  UNL     1      -7.679  22.277   9.078  1.00  0.00     0.079 C 
HETATM   23  O2  UNL     1      -6.440  20.585   7.670  1.00  0.00    -0.241 OA
HETATM   24  N9  UNL     1      -5.230  20.188   7.449  1.00  0.00    -0.245 N 
ATOM     25  H9  UNL     1      -4.957  19.449   6.801  1.00  0.00     0.196 HD
ENDBRANCH  16  19
ENDBRANCH  14  15
ENDBRANCH  11  14
ENDBRANCH  10  11
ENDBRANCH   9  10
ENDBRANCH   8   9
ENDBRANCH   6   8
ENDBRANCH   5   6
ENDBRANCH   4   5
ENDBRANCH   3   4
ENDBRANCH   2   3
ENDBRANCH   1   2
BRANCH   1  26
HETATM   26  C15 UNL     1       7.736  24.942   3.254  1.00  0.00     0.113 C 
BRANCH  26  27
HETATM   27  N4  UNL     1       8.690  24.632   2.261  1.00  0.00    -0.421 N 
ATOM     28  H4  UNL     1       9.470  23.997   2.433  1.00  0.00     0.153 HD
BRANCH  27  29
HETATM   29  C16 UNL     1       8.488  25.267   1.000  1.00  0.00     0.115 C 
BRANCH  29  30
HETATM   30  C17 UNL     1       9.245  24.541  -0.078  1.00  0.00     0.039 C 
BRANCH  30  31
HETATM   31  C18 UNL     1      10.205  25.372  -0.848  1.00  0.00     0.123 C 
BRANCH  31  32
HETATM   32  N5  UNL     1      11.424  25.746  -0.233  1.00  0.00    -0.367 N 
ATOM     33  H5  UNL     1      11.955  24.999   0.214  1.00  0.00     0.161 HD
BRANCH  32  34
HETATM   34  C19 UNL     1      11.987  27.050  -0.172  1.00  0.00     0.173 C 
HETATM   35  S1  UNL     1      13.322  27.337  -1.112  1.00  0.00    -0.041 SA
BRANCH  34  36
HETATM   36  N6  UNL     1      11.538  28.118   0.594  1.00  0.00    -0.318 N 
ATOM     37  H6  UNL     1      12.240  28.841   0.749  1.00  0.00     0.170 HD
BRANCH  36  38
HETATM   38  C20 UNL     1      10.421  28.363   1.136  1.00  0.00     0.128 A 
HETATM   39  N7  UNL     1      10.309  28.166   2.483  1.00  0.00    -0.337 N 
HETATM   40  C21 UNL     1       9.103  28.454   2.993  1.00  0.00     0.182 A 
ATOM     41  H7  UNL     1      11.082  27.826   3.056  1.00  0.00     0.168 HD
HETATM   42  N8  UNL     1       8.069  28.895   2.301  1.00  0.00    -0.351 N 
HETATM   43  C22 UNL     1       8.139  29.106   0.944  1.00  0.00     0.055 A 
ATOM     44  H8  UNL     1       7.192  29.085   2.788  1.00  0.00     0.166 HD
HETATM   45  C23 UNL     1       7.160  29.550   0.136  1.00  0.00     0.057 A 
HETATM   46  C25 UNL     1       9.351  28.827   0.372  1.00  0.00     0.077 A 
HETATM   47  C24 UNL     1       7.453  29.687  -1.192  1.00  0.00     0.054 A 
HETATM   48 BR1  UNL     1       6.276  30.300  -2.595  1.00  0.00    -0.043 Br
HETATM   49  S2  UNL     1       9.080  29.195  -1.278  1.00  0.00    -0.077 SA
ENDBRANCH  36  38
ENDBRANCH  34  36
ENDBRANCH  32  34
ENDBRANCH  31  32
ENDBRANCH  30  31
ENDBRANCH  29  30
ENDBRANCH  27  29
ENDBRANCH  26  27
ENDBRANCH   1  26
TORSDOF 21
ENDMDL
MODEL 5
REMARK VINA RESULT: -7.882386569      4.857      6.778
REMARK  21 active torsions:
REMARK  status: ('A' for Active; 'I' for Inactive)
REMARK    1  A    between atoms: C4_4  and  N1_5 
REMARK       I    between atoms: N1_5  and  C5_7 
REMARK    2  A    between atoms: C5_7  and  C6_9 
REMARK    3  A    between atoms: C6_9  and  N2_10 
REMARK    4  A    between atoms: N2_10  and  C7_13 
REMARK    5  A    between atoms: C7_13  and  C8_14 
REMARK    6  A    between atoms: C8_14  and  C9_15 
REMARK    7  A    between atoms: C9_15  and  N3_16 
REMARK    8  A    between atoms: N3_16  and  C10_18 
REMARK    9  A    between atoms: C10_18  and  C11_19 
REMARK   10  A    between atoms: C11_19  and  C12_20 
REMARK   11  A    between atoms: C12_20  and  C13_21 
REMARK   12  A    between atoms: C13_21  and  C14_22 
REMARK   13  A    between atoms: C14_22  and  C15_23 
REMARK   14  A    between atoms: C15_23  and  N4_24 
REMARK   15  A    between atoms: N4_24  and  C16_26 
REMARK   16  A    between atoms: C16_26  and  C17_27 
REMARK   17  A    between atoms: C17_27  and  C18_28 
REMARK   18  A    between atoms: C18_28  and  N5_29 
REMARK   19  A    between atoms: N5_29  and  C19_31 
REMARK   20  A    between atoms: C19_31  and  N6_33 
REMARK   21  A    between atoms: N6_33  and  C20_35 
ROOT
HETATM    1  C14 UNL     1       3.752  23.920   5.241  1.00  0.00     0.019 C 
ENDROOT
BRANCH   1   2
HETATM    2  C13 UNL     1       4.166  22.503   5.548  1.00  0.00     0.002 C 
BRANCH   2   3
HETATM    3  C12 UNL     1       4.142  22.244   7.003  1.00  0.00     0.002 C 
BRANCH   3   4
HETATM    4  C11 UNL     1       2.874  22.721   7.648  1.00  0.00     0.020 C 
BRANCH   4   5
HETATM    5  C10 UNL     1       1.800  21.624   7.443  1.00  0.00     0.118 C 
BRANCH   5   6
HETATM    6  N3  UNL     1       1.007  21.611   8.575  1.00  0.00    -0.402 N 
ATOM      7  H3  UNL     1       1.489  21.467   9.462  1.00  0.00     0.158 HD
BRANCH   6   8
HETATM    8  C9  UNL     1      -0.367  21.770   8.644  1.00  0.00     0.057 C 
BRANCH   8   9
HETATM    9  C8  UNL     1      -1.238  20.976   7.761  1.00  0.00     0.071 C 
BRANCH   9  10
HETATM   10  C7  UNL     1      -2.272  21.742   7.031  1.00  0.00     0.238 C 
BRANCH  10  11
HETATM   11  N2  UNL     1      -1.682  22.885   6.313  1.00  0.00    -0.067 N 
ATOM     12  H22 UNL     1      -1.776  22.761   5.305  1.00  0.00     0.277 HD
ATOM     13  H21 UNL     1      -0.666  22.872   6.395  1.00  0.00     0.277 HD
BRANCH  11  14
HETATM   14  C6  UNL     1      -2.199  24.147   6.711  1.00  0.00     0.335 C 
BRANCH  14  15
HETATM   15  C5  UNL     1      -1.153  25.188   6.719  1.00  0.00     0.248 C 
HETATM   16  N1  UNL     1      -1.393  26.472   6.097  1.00  0.00    -0.310 N 
ATOM     17  H1  UNL     1      -1.662  26.533   5.114  1.00  0.00     0.170 HD
HETATM   18  O1  UNL     1      -0.011  25.078   7.232  1.00  0.00    -0.271 OA
BRANCH  16  19
HETATM   19  C4  UNL     1      -1.260  27.531   6.803  1.00  0.00     0.130 A 
HETATM   20  C3  UNL     1      -0.229  28.423   6.903  1.00  0.00     0.084 A 
HETATM   21  C2  UNL     1      -0.620  29.407   7.811  1.00  0.00     0.076 A 
HETATM   22  C1  UNL     1       0.211  30.580   8.216  1.00  0.00     0.079 C 
HETATM   23  O2  UNL     1      -1.814  29.072   8.198  1.00  0.00    -0.241 OA
HETATM   24  N9  UNL     1      -2.225  27.984   7.633  1.00  0.00    -0.245 N 
ATOM     25  H9  UNL     1      -3.129  27.539   7.789  1.00  0.00     0.196 HD
ENDBRANCH  16  19
ENDBRANCH  14  15
ENDBRANCH  11  14
ENDBRANCH  10  11
ENDBRANCH   9  10
ENDBRANCH   8   9
ENDBRANCH   6   8
ENDBRANCH   5   6
ENDBRANCH   4   5
ENDBRANCH   3   4
ENDBRANCH   2   3
ENDBRANCH   1   2
BRANCH   1  26
HETATM   26  C15 UNL     1       4.788  24.579   4.388  1.00  0.00     0.113 C 
BRANCH  26  27
HETATM   27  N4  UNL     1       6.071  24.492   4.968  1.00  0.00    -0.421 N 
ATOM     28  H4  UNL     1       6.231  24.648   5.964  1.00  0.00     0.153 HD
BRANCH  27  29
HETATM   29  C16 UNL     1       7.130  24.172   4.068  1.00  0.00     0.115 C 
BRANCH  29  30
HETATM   30  C17 UNL     1       8.463  24.445   4.709  1.00  0.00     0.039 C 
BRANCH  30  31
HETATM   31  C18 UNL     1       9.569  24.746   3.766  1.00  0.00     0.123 C 
BRANCH  31  32
HETATM   32  N5  UNL     1       9.267  24.896   2.391  1.00  0.00    -0.367 N 
ATOM     33  H5  UNL     1       9.159  24.036   1.853  1.00  0.00     0.161 HD
BRANCH  32  34
HETATM   34  C19 UNL     1       9.097  26.116   1.680  1.00  0.00     0.173 C 
HETATM   35  S1  UNL     1       9.853  26.241   0.210  1.00  0.00    -0.041 SA
BRANCH  34  36
HETATM   36  N6  UNL     1       8.361  27.222   2.085  1.00  0.00    -0.318 N 
ATOM     37  H6  UNL     1       7.475  27.332   1.593  1.00  0.00     0.170 HD
BRANCH  36  38
HETATM   38  C20 UNL     1       8.583  28.119   2.950  1.00  0.00     0.128 A 
HETATM   39  N7  UNL     1       8.011  27.972   4.182  1.00  0.00    -0.337 N 
HETATM   40  C21 UNL     1       8.295  28.953   5.051  1.00  0.00     0.182 A 
ATOM     41  H7  UNL     1       7.415  27.180   4.421  1.00  0.00     0.168 HD
HETATM   42  N8  UNL     1       9.058  29.999   4.797  1.00  0.00    -0.351 N 
HETATM   43  C22 UNL     1       9.652  30.185   3.570  1.00  0.00     0.055 A 
ATOM     44  H8  UNL     1       9.212  30.690   5.532  1.00  0.00     0.166 HD
HETATM   45  C23 UNL     1      10.444  31.204   3.194  1.00  0.00     0.057 A 
HETATM   46  C25 UNL     1       9.394  29.211   2.643  1.00  0.00     0.077 A 
HETATM   47  C24 UNL     1      10.930  31.186   1.916  1.00  0.00     0.054 A 
HETATM   48 BR1  UNL     1      12.086  32.489   1.083  1.00  0.00    -0.043 Br
HETATM   49  S2  UNL     1      10.269  29.754   1.276  1.00  0.00    -0.077 SA
ENDBRANCH  36  38
ENDBRANCH  34  36
ENDBRANCH  32  34
ENDBRANCH  31  32
ENDBRANCH  30  31
ENDBRANCH  29  30
ENDBRANCH  27  29
ENDBRANCH  26  27
ENDBRANCH   1  26
TORSDOF 21
ENDMDL
