MODEL 1
REMARK VINA RESULT: -6.237514646      0.000      0.000
REMARK  19 active torsions:
REMARK  status: ('A' for Active; 'I' for Inactive)
REMARK    1  A    between atoms: C2_2  and  C3_3 
REMARK    2  A    between atoms: C3_3  and  C4_4 
REMARK    3  A    between atoms: C4_4  and  C5_5 
REMARK    4  A    between atoms: C5_5  and  N1_6 
REMARK       I    between atoms: N1_6  and  C6_7 
REMARK    5  A    between atoms: C6_7  and  C7_9 
REMARK    6  A    between atoms: C8_10  and  C9_11 
REMARK       I    between atoms: C9_11  and  N2_13 
REMARK    7  A    between atoms: C13_17  and  C14_18 
REMARK    8  A    between atoms: C14_18  and  C15_19 
REMARK    9  A    between atoms: C15_19  and  C16_20 
REMARK   10  A    between atoms: C16_20  and  C17_21 
REMARK   11  A    between atoms: C17_21  and  C18_22 
REMARK   12  A    between atoms: C18_22  and  N3_23 
REMARK   13  A    between atoms: N5_41  and  C31_42 
REMARK   14  A    between atoms: C31_42  and  C32_43 
REMARK   15  A    between atoms: C32_43  and  C33_44 
REMARK   16  A    between atoms: C33_44  and  N6_45 
REMARK   17  A    between atoms: N6_45  and  C34_47 
REMARK   18  A    between atoms: C34_47  and  O4_48 
REMARK   19  A    between atoms: N7_50  and  O5_52 
ROOT
HETATM    1  C7  UNL     1       9.865  27.646  -3.008  1.00  0.00     0.129 C 
HETATM    2  C8  UNL     1      11.119  28.517  -3.246  1.00  0.00     0.232 C 
HETATM    3  N4  UNL     1      11.413  28.150  -4.605  1.00  0.00    -0.374 N 
ATOM      4  H4  UNL     1      10.789  28.380  -5.379  1.00  0.00     0.160 HD
HETATM    5  C21 UNL     1      12.627  27.449  -4.793  1.00  0.00     0.016 C 
HETATM    6  C22 UNL     1      13.566  27.399  -3.693  1.00  0.00    -0.014 A 
HETATM    7  C23 UNL     1      14.311  28.512  -3.277  1.00  0.00     0.016 A 
HETATM    8  C24 UNL     1      15.213  28.548  -2.222  1.00  0.00     0.043 A 
HETATM    9  C25 UNL     1      15.408  27.383  -1.518  1.00  0.00     0.116 A 
HETATM   10  F1  UNL     1      16.279  27.440  -0.492  1.00  0.00    -0.206 F 
HETATM   11  C26 UNL     1      14.680  26.266  -1.905  1.00  0.00     0.043 A 
HETATM   12  C27 UNL     1      13.776  26.287  -2.983  1.00  0.00     0.016 A 
HETATM   13  C28 UNL     1      12.426  26.176  -5.576  1.00  0.00     0.067 C 
HETATM   14  C29 UNL     1      10.963  25.992  -5.970  1.00  0.00     0.109 C 
HETATM   15  C30 UNL     1      10.052  25.781  -4.846  1.00  0.00     0.224 C 
HETATM   16  O3  UNL     1       9.276  24.815  -5.059  1.00  0.00    -0.273 OA
HETATM   17  N5  UNL     1       9.812  26.393  -3.541  1.00  0.00    -0.313 N 
ENDROOT
BRANCH   2  18
HETATM   18  C9  UNL     1      10.721  29.929  -3.254  1.00  0.00     0.248 C 
HETATM   19  O2  UNL     1       9.736  30.208  -4.038  1.00  0.00    -0.271 OA
HETATM   20  N2  UNL     1      11.253  31.045  -2.547  1.00  0.00    -0.350 N 
HETATM   21  C10 UNL     1      10.410  32.085  -1.956  1.00  0.00     0.126 C 
HETATM   22  C20 UNL     1      12.649  31.531  -2.603  1.00  0.00     0.130 C 
HETATM   23  C11 UNL     1      10.832  32.107  -0.504  1.00  0.00     0.020 C 
HETATM   24  C12 UNL     1      12.215  31.818  -0.160  1.00  0.00     0.008 C 
HETATM   25  C13 UNL     1      13.218  31.591  -1.259  1.00  0.00     0.004 C 
BRANCH  25  26
HETATM   26  C14 UNL     1      14.362  32.560  -1.054  1.00  0.00     0.006 C 
BRANCH  26  27
HETATM   27  C15 UNL     1      14.216  33.559   0.060  1.00  0.00     0.000 C 
BRANCH  27  28
HETATM   28  C16 UNL     1      15.496  33.400   0.907  1.00  0.00     0.002 C 
BRANCH  28  29
HETATM   29  C17 UNL     1      15.269  33.731   2.335  1.00  0.00     0.019 C 
BRANCH  29  30
HETATM   30  C18 UNL     1      13.742  33.988   2.528  1.00  0.00     0.113 C 
BRANCH  30  31
HETATM   31  N3  UNL     1      13.268  33.012   3.463  1.00  0.00    -0.425 N 
HETATM   32  C19 UNL     1      11.902  32.713   3.371  1.00  0.00     0.139 C 
ATOM     33  H3  UNL     1      13.880  32.567   4.147  1.00  0.00     0.152 HD
ENDBRANCH  30  31
ENDBRANCH  29  30
ENDBRANCH  28  29
ENDBRANCH  27  28
ENDBRANCH  26  27
ENDBRANCH  25  26
ENDBRANCH   2  18
BRANCH   1  34
HETATM   34  C6  UNL     1       9.338  27.931  -1.650  1.00  0.00     0.340 C 
HETATM   35  N1  UNL     1      10.445  27.921  -0.616  1.00  0.00    -0.383 NA
HETATM   36  O1  UNL     1       8.278  28.109  -1.289  1.00  0.00    -0.250 OA
BRANCH  35  37
HETATM   37  C5  UNL     1      11.357  27.915   0.254  1.00  0.00     0.159 C 
BRANCH  37  38
HETATM   38  C4  UNL     1      10.963  27.987   1.750  1.00  0.00     0.059 C 
BRANCH  38  39
HETATM   39  C3  UNL     1      10.374  29.357   2.044  1.00  0.00     0.006 C 
BRANCH  39  40
HETATM   40  C2  UNL     1       9.854  29.303   3.431  1.00  0.00    -0.004 C 
HETATM   41  C1  UNL     1       9.602  27.912   3.845  1.00  0.00     0.005 C 
ENDBRANCH  39  40
ENDBRANCH  38  39
ENDBRANCH  37  38
ENDBRANCH  35  37
ENDBRANCH   1  34
BRANCH  17  42
HETATM   42  C31 UNL     1       9.237  25.272  -2.775  1.00  0.00     0.134 C 
BRANCH  42  43
HETATM   43  C32 UNL     1      10.426  24.653  -1.985  1.00  0.00     0.040 C 
BRANCH  43  44
HETATM   44  C33 UNL     1       9.874  23.919  -0.827  1.00  0.00     0.125 C 
BRANCH  44  45
HETATM   45  N6  UNL     1       9.961  24.785   0.344  1.00  0.00    -0.355 N 
ATOM     46  H6  UNL     1      10.828  25.205   0.680  1.00  0.00     0.163 HD
BRANCH  45  47
HETATM   47  C34 UNL     1       8.654  24.980   0.979  1.00  0.00     0.237 C 
HETATM   48  N7  UNL     1       8.513  24.591   2.226  1.00  0.00    -0.233 N 
ATOM     49  H7  UNL     1       9.317  24.170   2.691  1.00  0.00     0.198 HD
BRANCH  47  50
HETATM   50  O4  UNL     1       7.628  25.541   0.302  1.00  0.00    -0.331 OA
ATOM     51  H4  UNL     1       6.781  25.666   0.713  1.00  0.00     0.221 HD
ENDBRANCH  47  50
BRANCH  48  52
HETATM   52  O5  UNL     1       7.357  24.715   2.935  1.00  0.00    -0.287 OA
ATOM     53  H5  UNL     1       7.290  25.171   3.766  1.00  0.00     0.244 HD
ENDBRANCH  48  52
ENDBRANCH  45  47
ENDBRANCH  44  45
ENDBRANCH  43  44
ENDBRANCH  42  43
ENDBRANCH  17  42
TORSDOF 19
ENDMDL
MODEL 2
REMARK VINA RESULT: -6.174436187      1.448      1.990
REMARK  19 active torsions:
REMARK  status: ('A' for Active; 'I' for Inactive)
REMARK    1  A    between atoms: C2_2  and  C3_3 
REMARK    2  A    between atoms: C3_3  and  C4_4 
REMARK    3  A    between atoms: C4_4  and  C5_5 
REMARK    4  A    between atoms: C5_5  and  N1_6 
REMARK       I    between atoms: N1_6  and  C6_7 
REMARK    5  A    between atoms: C6_7  and  C7_9 
REMARK    6  A    between atoms: C8_10  and  C9_11 
REMARK       I    between atoms: C9_11  and  N2_13 
REMARK    7  A    between atoms: C13_17  and  C14_18 
REMARK    8  A    between atoms: C14_18  and  C15_19 
REMARK    9  A    between atoms: C15_19  and  C16_20 
REMARK   10  A    between atoms: C16_20  and  C17_21 
REMARK   11  A    between atoms: C17_21  and  C18_22 
REMARK   12  A    between atoms: C18_22  and  N3_23 
REMARK   13  A    between atoms: N5_41  and  C31_42 
REMARK   14  A    between atoms: C31_42  and  C32_43 
REMARK   15  A    between atoms: C32_43  and  C33_44 
REMARK   16  A    between atoms: C33_44  and  N6_45 
REMARK   17  A    between atoms: N6_45  and  C34_47 
REMARK   18  A    between atoms: C34_47  and  O4_48 
REMARK   19  A    between atoms: N7_50  and  O5_52 
ROOT
HETATM    1  C7  UNL     1       9.677  27.787  -2.838  1.00  0.00     0.129 C 
HETATM    2  C8  UNL     1      10.903  28.681  -3.128  1.00  0.00     0.232 C 
HETATM    3  N4  UNL     1      11.135  28.333  -4.503  1.00  0.00    -0.374 N 
ATOM      4  H4  UNL     1      10.470  28.560  -5.243  1.00  0.00     0.160 HD
HETATM    5  C21 UNL     1      12.350  27.655  -4.759  1.00  0.00     0.016 C 
HETATM    6  C22 UNL     1      13.344  27.610  -3.708  1.00  0.00    -0.014 A 
HETATM    7  C23 UNL     1      14.089  28.732  -3.317  1.00  0.00     0.016 A 
HETATM    8  C24 UNL     1      15.042  28.772  -2.307  1.00  0.00     0.043 A 
HETATM    9  C25 UNL     1      15.291  27.604  -1.626  1.00  0.00     0.116 A 
HETATM   10  F1  UNL     1      16.211  27.666  -0.645  1.00  0.00    -0.206 F 
HETATM   11  C26 UNL     1      14.563  26.479  -1.989  1.00  0.00     0.043 A 
HETATM   12  C27 UNL     1      13.606  26.494  -3.020  1.00  0.00     0.016 A 
HETATM   13  C28 UNL     1      12.132  26.386  -5.545  1.00  0.00     0.067 C 
HETATM   14  C29 UNL     1      10.654  26.181  -5.868  1.00  0.00     0.109 C 
HETATM   15  C30 UNL     1       9.804  25.944  -4.703  1.00  0.00     0.224 C 
HETATM   16  O3  UNL     1       9.034  24.967  -4.887  1.00  0.00    -0.273 OA
HETATM   17  N5  UNL     1       9.618  26.538  -3.381  1.00  0.00    -0.313 N 
ENDROOT
BRANCH   2  18
HETATM   18  C9  UNL     1      10.482  30.086  -3.101  1.00  0.00     0.248 C 
HETATM   19  O2  UNL     1      10.147  30.571  -4.248  1.00  0.00    -0.271 OA
HETATM   20  N2  UNL     1      10.395  31.007  -2.019  1.00  0.00    -0.350 N 
HETATM   21  C10 UNL     1       9.289  31.953  -1.868  1.00  0.00     0.126 C 
HETATM   22  C20 UNL     1      11.502  31.415  -1.126  1.00  0.00     0.130 C 
HETATM   23  C11 UNL     1       8.752  31.661  -0.485  1.00  0.00     0.020 C 
HETATM   24  C12 UNL     1       9.668  31.232   0.558  1.00  0.00     0.008 C 
HETATM   25  C13 UNL     1      11.143  31.174   0.269  1.00  0.00     0.004 C 
BRANCH  25  26
HETATM   26  C14 UNL     1      11.856  32.016   1.304  1.00  0.00     0.006 C 
BRANCH  26  27
HETATM   27  C15 UNL     1      11.432  31.838   2.736  1.00  0.00     0.000 C 
BRANCH  27  28
HETATM   28  C16 UNL     1      11.284  33.271   3.288  1.00  0.00     0.002 C 
BRANCH  28  29
HETATM   29  C17 UNL     1      10.425  33.322   4.496  1.00  0.00     0.019 C 
BRANCH  29  30
HETATM   30  C18 UNL     1       9.382  32.167   4.387  1.00  0.00     0.113 C 
BRANCH  30  31
HETATM   31  N3  UNL     1       9.208  31.634   5.705  1.00  0.00    -0.425 N 
HETATM   32  C19 UNL     1       7.977  31.006   5.936  1.00  0.00     0.139 C 
ATOM     33  H3  UNL     1       9.928  31.707   6.424  1.00  0.00     0.152 HD
ENDBRANCH  30  31
ENDBRANCH  29  30
ENDBRANCH  28  29
ENDBRANCH  27  28
ENDBRANCH  26  27
ENDBRANCH  25  26
ENDBRANCH   2  18
BRANCH   1  34
HETATM   34  C6  UNL     1       9.213  28.050  -1.453  1.00  0.00     0.340 C 
HETATM   35  N1  UNL     1      10.341  27.890  -0.454  1.00  0.00    -0.383 NA
HETATM   36  O1  UNL     1       8.183  28.303  -1.052  1.00  0.00    -0.250 OA
BRANCH  35  37
HETATM   37  C5  UNL     1      11.272  27.759   0.386  1.00  0.00     0.159 C 
BRANCH  37  38
HETATM   38  C4  UNL     1      10.907  27.525   1.873  1.00  0.00     0.059 C 
BRANCH  38  39
HETATM   39  C3  UNL     1       9.607  28.249   2.186  1.00  0.00     0.006 C 
BRANCH  39  40
HETATM   40  C2  UNL     1       9.656  28.600   3.625  1.00  0.00    -0.004 C 
HETATM   41  C1  UNL     1       9.183  27.480   4.457  1.00  0.00     0.005 C 
ENDBRANCH  39  40
ENDBRANCH  38  39
ENDBRANCH  37  38
ENDBRANCH  35  37
ENDBRANCH   1  34
BRANCH  17  42
HETATM   42  C31 UNL     1       9.101  25.400  -2.599  1.00  0.00     0.134 C 
BRANCH  42  43
HETATM   43  C32 UNL     1      10.339  24.790  -1.882  1.00  0.00     0.040 C 
BRANCH  43  44
HETATM   44  C33 UNL     1       9.852  23.906  -0.802  1.00  0.00     0.125 C 
BRANCH  44  45
HETATM   45  N6  UNL     1       9.956  24.630   0.460  1.00  0.00    -0.355 N 
ATOM     46  H6  UNL     1      10.839  24.920   0.881  1.00  0.00     0.163 HD
BRANCH  45  47
HETATM   47  C34 UNL     1       8.639  24.892   1.051  1.00  0.00     0.237 C 
HETATM   48  N7  UNL     1       8.445  24.534   2.300  1.00  0.00    -0.233 N 
ATOM     49  H7  UNL     1       9.217  24.090   2.798  1.00  0.00     0.198 HD
BRANCH  47  50
HETATM   50  O4  UNL     1       7.659  25.481   0.332  1.00  0.00    -0.331 OA
ATOM     51  H4  UNL     1       6.798  25.627   0.707  1.00  0.00     0.221 HD
ENDBRANCH  47  50
BRANCH  48  52
HETATM   52  O5  UNL     1       7.274  24.720   2.971  1.00  0.00    -0.287 OA
ATOM     53  H5  UNL     1       6.870  24.062   3.525  1.00  0.00     0.244 HD
ENDBRANCH  48  52
ENDBRANCH  45  47
ENDBRANCH  44  45
ENDBRANCH  43  44
ENDBRANCH  42  43
ENDBRANCH  17  42
TORSDOF 19
ENDMDL
MODEL 3
REMARK VINA RESULT: -6.064861049      4.440      7.935
REMARK  19 active torsions:
REMARK  status: ('A' for Active; 'I' for Inactive)
REMARK    1  A    between atoms: C2_2  and  C3_3 
REMARK    2  A    between atoms: C3_3  and  C4_4 
REMARK    3  A    between atoms: C4_4  and  C5_5 
REMARK    4  A    between atoms: C5_5  and  N1_6 
REMARK       I    between atoms: N1_6  and  C6_7 
REMARK    5  A    between atoms: C6_7  and  C7_9 
REMARK    6  A    between atoms: C8_10  and  C9_11 
REMARK       I    between atoms: C9_11  and  N2_13 
REMARK    7  A    between atoms: C13_17  and  C14_18 
REMARK    8  A    between atoms: C14_18  and  C15_19 
REMARK    9  A    between atoms: C15_19  and  C16_20 
REMARK   10  A    between atoms: C16_20  and  C17_21 
REMARK   11  A    between atoms: C17_21  and  C18_22 
REMARK   12  A    between atoms: C18_22  and  N3_23 
REMARK   13  A    between atoms: N5_41  and  C31_42 
REMARK   14  A    between atoms: C31_42  and  C32_43 
REMARK   15  A    between atoms: C32_43  and  C33_44 
REMARK   16  A    between atoms: C33_44  and  N6_45 
REMARK   17  A    between atoms: N6_45  and  C34_47 
REMARK   18  A    between atoms: C34_47  and  O4_48 
REMARK   19  A    between atoms: N7_50  and  O5_52 
ROOT
HETATM    1  C7  UNL     1       8.552  27.521   2.944  1.00  0.00     0.129 C 
HETATM    2  C8  UNL     1       8.388  28.945   3.520  1.00  0.00     0.232 C 
HETATM    3  N4  UNL     1       7.500  29.503   2.536  1.00  0.00    -0.374 N 
ATOM      4  H4  UNL     1       6.546  29.165   2.409  1.00  0.00     0.160 HD
HETATM    5  C21 UNL     1       8.042  30.552   1.757  1.00  0.00     0.016 C 
HETATM    6  C22 UNL     1       9.296  31.140   2.177  1.00  0.00    -0.014 A 
HETATM    7  C23 UNL     1       9.410  31.962   3.307  1.00  0.00     0.016 A 
HETATM    8  C24 UNL     1      10.578  32.544   3.784  1.00  0.00     0.043 A 
HETATM    9  C25 UNL     1      11.736  32.304   3.082  1.00  0.00     0.116 A 
HETATM   10  F1  UNL     1      12.859  32.868   3.565  1.00  0.00    -0.206 F 
HETATM   11  C26 UNL     1      11.652  31.488   1.962  1.00  0.00     0.043 A 
HETATM   12  C27 UNL     1      10.441  30.922   1.524  1.00  0.00     0.016 A 
HETATM   13  C28 UNL     1       7.866  30.305   0.280  1.00  0.00     0.067 C 
HETATM   14  C29 UNL     1       7.135  28.991   0.021  1.00  0.00     0.109 C 
HETATM   15  C30 UNL     1       7.872  27.794   0.423  1.00  0.00     0.224 C 
HETATM   16  O3  UNL     1       7.855  26.919  -0.479  1.00  0.00    -0.273 OA
HETATM   17  N5  UNL     1       8.627  27.352   1.593  1.00  0.00    -0.313 N 
ENDROOT
BRANCH   2  18
HETATM   18  C9  UNL     1       7.643  28.864   4.781  1.00  0.00     0.248 C 
HETATM   19  O2  UNL     1       6.981  27.770   4.947  1.00  0.00    -0.271 OA
HETATM   20  N2  UNL     1       7.520  29.800   5.846  1.00  0.00    -0.350 N 
HETATM   21  C10 UNL     1       7.533  29.405   7.256  1.00  0.00     0.126 C 
HETATM   22  C20 UNL     1       7.011  31.185   5.740  1.00  0.00     0.130 C 
HETATM   23  C11 UNL     1       8.648  30.236   7.850  1.00  0.00     0.020 C 
HETATM   24  C12 UNL     1       8.902  31.567   7.325  1.00  0.00     0.008 C 
HETATM   25  C13 UNL     1       7.997  32.128   6.263  1.00  0.00     0.004 C 
BRANCH  25  26
HETATM   26  C14 UNL     1       7.463  33.455   6.756  1.00  0.00     0.006 C 
BRANCH  26  27
HETATM   27  C15 UNL     1       5.972  33.573   6.915  1.00  0.00     0.000 C 
BRANCH  27  28
HETATM   28  C16 UNL     1       5.714  33.365   8.422  1.00  0.00     0.002 C 
BRANCH  28  29
HETATM   29  C17 UNL     1       5.070  32.060   8.706  1.00  0.00     0.019 C 
BRANCH  29  30
HETATM   30  C18 UNL     1       5.711  31.484  10.006  1.00  0.00     0.113 C 
BRANCH  30  31
HETATM   31  N3  UNL     1       5.354  30.099  10.072  1.00  0.00    -0.425 N 
HETATM   32  C19 UNL     1       6.240  29.289  10.794  1.00  0.00     0.139 C 
ATOM     33  H3  UNL     1       4.516  29.729   9.625  1.00  0.00     0.152 HD
ENDBRANCH  30  31
ENDBRANCH  29  30
ENDBRANCH  28  29
ENDBRANCH  27  28
ENDBRANCH  26  27
ENDBRANCH  25  26
ENDBRANCH   2  18
BRANCH   1  34
HETATM   34  C6  UNL     1       9.399  26.728   3.870  1.00  0.00     0.340 C 
HETATM   35  N1  UNL     1       8.787  25.372   4.153  1.00  0.00    -0.383 NA
HETATM   36  O1  UNL     1      10.368  26.992   4.397  1.00  0.00    -0.250 OA
BRANCH  35  37
HETATM   37  C5  UNL     1       8.286  24.241   4.396  1.00  0.00     0.159 C 
BRANCH  37  38
HETATM   38  C4  UNL     1       6.792  24.157   4.797  1.00  0.00     0.059 C 
BRANCH  38  39
HETATM   39  C3  UNL     1       6.641  23.180   5.951  1.00  0.00     0.006 C 
BRANCH  39  40
HETATM   40  C2  UNL     1       5.208  22.801   5.997  1.00  0.00    -0.004 C 
HETATM   41  C1  UNL     1       4.390  23.737   5.206  1.00  0.00     0.005 C 
ENDBRANCH  39  40
ENDBRANCH  38  39
ENDBRANCH  37  38
ENDBRANCH  35  37
ENDBRANCH   1  34
BRANCH  17  42
HETATM   42  C31 UNL     1       9.566  26.379   1.007  1.00  0.00     0.134 C 
BRANCH  42  43
HETATM   43  C32 UNL     1      10.722  27.226   0.403  1.00  0.00     0.040 C 
BRANCH  43  44
HETATM   44  C33 UNL     1      11.399  26.409  -0.626  1.00  0.00     0.125 C 
BRANCH  44  45
HETATM   45  N6  UNL     1      10.551  26.381  -1.814  1.00  0.00    -0.355 N 
ATOM     46  H6  UNL     1      10.280  27.211  -2.341  1.00  0.00     0.163 HD
BRANCH  45  47
HETATM   47  C34 UNL     1      10.137  25.017  -2.159  1.00  0.00     0.237 C 
HETATM   48  N7  UNL     1      11.054  24.193  -2.612  1.00  0.00    -0.233 N 
ATOM     49  H7  UNL     1      12.008  24.541  -2.705  1.00  0.00     0.198 HD
BRANCH  47  50
HETATM   50  O4  UNL     1       8.852  24.623  -2.014  1.00  0.00    -0.331 OA
ATOM     51  H4  UNL     1       8.527  23.847  -2.455  1.00  0.00     0.221 HD
ENDBRANCH  47  50
BRANCH  48  52
HETATM   52  O5  UNL     1      10.806  22.901  -2.967  1.00  0.00    -0.287 OA
ATOM     53  H5  UNL     1      11.444  22.200  -2.895  1.00  0.00     0.244 HD
ENDBRANCH  48  52
ENDBRANCH  45  47
ENDBRANCH  44  45
ENDBRANCH  43  44
ENDBRANCH  42  43
ENDBRANCH  17  42
TORSDOF 19
ENDMDL
MODEL 4
REMARK VINA RESULT: -5.956472320      3.293      7.045
REMARK  19 active torsions:
REMARK  status: ('A' for Active; 'I' for Inactive)
REMARK    1  A    between atoms: C2_2  and  C3_3 
REMARK    2  A    between atoms: C3_3  and  C4_4 
REMARK    3  A    between atoms: C4_4  and  C5_5 
REMARK    4  A    between atoms: C5_5  and  N1_6 
REMARK       I    between atoms: N1_6  and  C6_7 
REMARK    5  A    between atoms: C6_7  and  C7_9 
REMARK    6  A    between atoms: C8_10  and  C9_11 
REMARK       I    between atoms: C9_11  and  N2_13 
REMARK    7  A    between atoms: C13_17  and  C14_18 
REMARK    8  A    between atoms: C14_18  and  C15_19 
REMARK    9  A    between atoms: C15_19  and  C16_20 
REMARK   10  A    between atoms: C16_20  and  C17_21 
REMARK   11  A    between atoms: C17_21  and  C18_22 
REMARK   12  A    between atoms: C18_22  and  N3_23 
REMARK   13  A    between atoms: N5_41  and  C31_42 
REMARK   14  A    between atoms: C31_42  and  C32_43 
REMARK   15  A    between atoms: C32_43  and  C33_44 
REMARK   16  A    between atoms: C33_44  and  N6_45 
REMARK   17  A    between atoms: N6_45  and  C34_47 
REMARK   18  A    between atoms: C34_47  and  O4_48 
REMARK   19  A    between atoms: N7_50  and  O5_52 
ROOT
HETATM    1  C7  UNL     1       9.898  27.223  -1.561  1.00  0.00     0.129 C 
HETATM    2  C8  UNL     1       9.203  27.861  -0.337  1.00  0.00     0.232 C 
HETATM    3  N4  UNL     1       8.215  28.659  -1.010  1.00  0.00    -0.374 N 
ATOM      4  H4  UNL     1       7.455  28.245  -1.551  1.00  0.00     0.160 HD
HETATM    5  C21 UNL     1       8.370  30.058  -0.868  1.00  0.00     0.016 C 
HETATM    6  C22 UNL     1       9.305  30.548   0.121  1.00  0.00    -0.014 A 
HETATM    7  C23 UNL     1       9.065  30.467   1.501  1.00  0.00     0.016 A 
HETATM    8  C24 UNL     1       9.920  30.895   2.508  1.00  0.00     0.043 A 
HETATM    9  C25 UNL     1      11.114  31.460   2.127  1.00  0.00     0.116 A 
HETATM   10  F1  UNL     1      11.933  31.859   3.118  1.00  0.00    -0.206 F 
HETATM   11  C26 UNL     1      11.380  31.547   0.768  1.00  0.00     0.043 A 
HETATM   12  C27 UNL     1      10.477  31.096  -0.213  1.00  0.00     0.016 A 
HETATM   13  C28 UNL     1       8.357  30.763  -2.202  1.00  0.00     0.067 C 
HETATM   14  C29 UNL     1       8.166  29.776  -3.349  1.00  0.00     0.109 C 
HETATM   15  C30 UNL     1       9.270  28.836  -3.534  1.00  0.00     0.224 C 
HETATM   16  O3  UNL     1       9.611  28.759  -4.742  1.00  0.00    -0.273 OA
HETATM   17  N5  UNL     1      10.085  27.970  -2.686  1.00  0.00    -0.313 N 
ENDROOT
BRANCH   2  18
HETATM   18  C9  UNL     1       8.487  26.814   0.400  1.00  0.00     0.248 C 
HETATM   19  O2  UNL     1       7.772  26.030  -0.333  1.00  0.00    -0.271 OA
HETATM   20  N2  UNL     1       8.441  26.529   1.795  1.00  0.00    -0.350 N 
HETATM   21  C10 UNL     1       8.469  25.166   2.327  1.00  0.00     0.126 C 
HETATM   22  C20 UNL     1       8.004  27.454   2.863  1.00  0.00     0.130 C 
HETATM   23  C11 UNL     1       9.641  25.178   3.283  1.00  0.00     0.020 C 
HETATM   24  C12 UNL     1       9.952  26.396   4.012  1.00  0.00     0.008 C 
HETATM   25  C13 UNL     1       9.051  27.593   3.872  1.00  0.00     0.004 C 
BRANCH  25  26
HETATM   26  C14 UNL     1       8.601  28.004   5.257  1.00  0.00     0.006 C 
BRANCH  26  27
HETATM   27  C15 UNL     1       7.484  29.008   5.339  1.00  0.00     0.000 C 
BRANCH  27  28
HETATM   28  C16 UNL     1       7.854  29.920   6.527  1.00  0.00     0.002 C 
BRANCH  28  29
HETATM   29  C17 UNL     1       6.977  29.695   7.702  1.00  0.00     0.019 C 
BRANCH  29  30
HETATM   30  C18 UNL     1       7.867  29.164   8.867  1.00  0.00     0.113 C 
BRANCH  30  31
HETATM   31  N3  UNL     1       9.201  29.623   8.619  1.00  0.00    -0.425 N 
HETATM   32  C19 UNL     1       9.917  30.018   9.757  1.00  0.00     0.139 C 
ATOM     33  H3  UNL     1       9.601  29.660   7.682  1.00  0.00     0.152 HD
ENDBRANCH  30  31
ENDBRANCH  29  30
ENDBRANCH  28  29
ENDBRANCH  27  28
ENDBRANCH  26  27
ENDBRANCH  25  26
ENDBRANCH   2  18
BRANCH   1  34
HETATM   34  C6  UNL     1      10.936  26.278  -1.079  1.00  0.00     0.340 C 
HETATM   35  N1  UNL     1      10.670  24.869  -1.570  1.00  0.00    -0.383 NA
HETATM   36  O1  UNL     1      11.831  26.442  -0.403  1.00  0.00    -0.250 OA
BRANCH  35  37
HETATM   37  C5  UNL     1      10.458  23.693  -1.972  1.00  0.00     0.159 C 
BRANCH  37  38
HETATM   38  C4  UNL     1      10.219  23.454  -3.483  1.00  0.00     0.059 C 
BRANCH  38  39
HETATM   39  C3  UNL     1      11.040  24.454  -4.281  1.00  0.00     0.006 C 
BRANCH  39  40
HETATM   40  C2  UNL     1      12.307  23.770  -4.637  1.00  0.00    -0.004 C 
HETATM   41  C1  UNL     1      13.468  24.632  -4.354  1.00  0.00     0.005 C 
ENDBRANCH  39  40
ENDBRANCH  38  39
ENDBRANCH  37  38
ENDBRANCH  35  37
ENDBRANCH   1  34
BRANCH  17  42
HETATM   42  C31 UNL     1      11.338  27.869  -3.457  1.00  0.00     0.134 C 
BRANCH  42  43
HETATM   43  C32 UNL     1      12.263  28.988  -2.898  1.00  0.00     0.040 C 
BRANCH  43  44
HETATM   44  C33 UNL     1      13.665  28.573  -3.115  1.00  0.00     0.125 C 
BRANCH  44  45
HETATM   45  N6  UNL     1      13.946  27.442  -2.237  1.00  0.00    -0.355 N 
ATOM     46  H6  UNL     1      13.310  26.657  -2.097  1.00  0.00     0.163 HD
BRANCH  45  47
HETATM   47  C34 UNL     1      15.251  27.570  -1.580  1.00  0.00     0.237 C 
HETATM   48  N7  UNL     1      15.545  26.714  -0.628  1.00  0.00    -0.233 N 
ATOM     49  H7  UNL     1      14.852  26.005  -0.390  1.00  0.00     0.198 HD
BRANCH  47  50
HETATM   50  O4  UNL     1      16.121  28.538  -1.944  1.00  0.00    -0.331 OA
ATOM     51  H4  UNL     1      17.020  28.328  -2.167  1.00  0.00     0.221 HD
ENDBRANCH  47  50
BRANCH  48  52
HETATM   52  O5  UNL     1      16.720  26.718   0.061  1.00  0.00    -0.287 OA
ATOM     53  H5  UNL     1      17.441  26.125  -0.117  1.00  0.00     0.244 HD
ENDBRANCH  48  52
ENDBRANCH  45  47
ENDBRANCH  44  45
ENDBRANCH  43  44
ENDBRANCH  42  43
ENDBRANCH  17  42
TORSDOF 19
ENDMDL
MODEL 5
REMARK VINA RESULT: -5.937528352      1.771      3.071
REMARK  19 active torsions:
REMARK  status: ('A' for Active; 'I' for Inactive)
REMARK    1  A    between atoms: C2_2  and  C3_3 
REMARK    2  A    between atoms: C3_3  and  C4_4 
REMARK    3  A    between atoms: C4_4  and  C5_5 
REMARK    4  A    between atoms: C5_5  and  N1_6 
REMARK       I    between atoms: N1_6  and  C6_7 
REMARK    5  A    between atoms: C6_7  and  C7_9 
REMARK    6  A    between atoms: C8_10  and  C9_11 
REMARK       I    between atoms: C9_11  and  N2_13 
REMARK    7  A    between atoms: C13_17  and  C14_18 
REMARK    8  A    between atoms: C14_18  and  C15_19 
REMARK    9  A    between atoms: C15_19  and  C16_20 
REMARK   10  A    between atoms: C16_20  and  C17_21 
REMARK   11  A    between atoms: C17_21  and  C18_22 
REMARK   12  A    between atoms: C18_22  and  N3_23 
REMARK   13  A    between atoms: N5_41  and  C31_42 
REMARK   14  A    between atoms: C31_42  and  C32_43 
REMARK   15  A    between atoms: C32_43  and  C33_44 
REMARK   16  A    between atoms: C33_44  and  N6_45 
REMARK   17  A    between atoms: N6_45  and  C34_47 
REMARK   18  A    between atoms: C34_47  and  O4_48 
REMARK   19  A    between atoms: N7_50  and  O5_52 
ROOT
HETATM    1  C7  UNL     1       9.405  28.505  -1.546  1.00  0.00     0.129 C 
HETATM    2  C8  UNL     1      10.486  28.423  -2.647  1.00  0.00     0.232 C 
HETATM    3  N4  UNL     1      10.250  27.085  -3.116  1.00  0.00    -0.374 N 
ATOM      4  H4  UNL     1       9.384  26.816  -3.585  1.00  0.00     0.160 HD
HETATM    5  C21 UNL     1      11.301  26.168  -2.884  1.00  0.00     0.016 C 
HETATM    6  C22 UNL     1      12.583  26.688  -2.459  1.00  0.00    -0.014 A 
HETATM    7  C23 UNL     1      13.436  27.402  -3.313  1.00  0.00     0.016 A 
HETATM    8  C24 UNL     1      14.667  27.948  -2.973  1.00  0.00     0.043 A 
HETATM    9  C25 UNL     1      15.103  27.771  -1.681  1.00  0.00     0.116 A 
HETATM   10  F1  UNL     1      16.294  28.316  -1.369  1.00  0.00    -0.206 F 
HETATM   11  C26 UNL     1      14.276  27.072  -0.813  1.00  0.00     0.043 A 
HETATM   12  C27 UNL     1      13.035  26.541  -1.210  1.00  0.00     0.016 A 
HETATM   13  C28 UNL     1      10.815  24.914  -2.203  1.00  0.00     0.067 C 
HETATM   14  C29 UNL     1       9.309  24.965  -1.957  1.00  0.00     0.109 C 
HETATM   15  C30 UNL     1       8.881  25.990  -1.007  1.00  0.00     0.224 C 
HETATM   16  O3  UNL     1       8.076  25.526  -0.161  1.00  0.00    -0.273 OA
HETATM   17  N5  UNL     1       9.149  27.408  -0.779  1.00  0.00    -0.313 N 
ENDROOT
BRANCH   2  18
HETATM   18  C9  UNL     1      10.124  29.336  -3.736  1.00  0.00     0.248 C 
HETATM   19  O2  UNL     1       9.073  28.994  -4.400  1.00  0.00    -0.271 OA
HETATM   20  N2  UNL     1      10.750  30.531  -4.190  1.00  0.00    -0.350 N 
HETATM   21  C10 UNL     1       9.995  31.718  -4.596  1.00  0.00     0.126 C 
HETATM   22  C20 UNL     1      12.145  30.663  -4.665  1.00  0.00     0.130 C 
HETATM   23  C11 UNL     1      10.561  32.818  -3.727  1.00  0.00     0.020 C 
HETATM   24  C12 UNL     1      11.964  32.776  -3.347  1.00  0.00     0.008 C 
HETATM   25  C13 UNL     1      12.846  31.690  -3.899  1.00  0.00     0.004 C 
BRANCH  25  26
HETATM   26  C14 UNL     1      14.028  32.347  -4.578  1.00  0.00     0.006 C 
BRANCH  26  27
HETATM   27  C15 UNL     1      15.151  32.810  -3.690  1.00  0.00     0.000 C 
BRANCH  27  28
HETATM   28  C16 UNL     1      15.723  31.520  -3.067  1.00  0.00     0.002 C 
BRANCH  28  29
HETATM   29  C17 UNL     1      15.697  31.554  -1.585  1.00  0.00     0.019 C 
BRANCH  29  30
HETATM   30  C18 UNL     1      15.435  33.028  -1.146  1.00  0.00     0.113 C 
BRANCH  30  31
HETATM   31  N3  UNL     1      16.221  33.261   0.028  1.00  0.00    -0.425 N 
HETATM   32  C19 UNL     1      15.492  33.607   1.174  1.00  0.00     0.139 C 
ATOM     33  H3  UNL     1      17.238  33.182   0.030  1.00  0.00     0.152 HD
ENDBRANCH  30  31
ENDBRANCH  29  30
ENDBRANCH  28  29
ENDBRANCH  27  28
ENDBRANCH  26  27
ENDBRANCH  25  26
ENDBRANCH   2  18
BRANCH   1  34
HETATM   34  C6  UNL     1       9.425  29.869  -0.961  1.00  0.00     0.340 C 
HETATM   35  N1  UNL     1      10.835  30.301  -0.614  1.00  0.00    -0.383 NA
HETATM   36  O1  UNL     1       8.577  30.583  -0.715  1.00  0.00    -0.250 OA
BRANCH  35  37
HETATM   37  C5  UNL     1      12.004  30.671  -0.322  1.00  0.00     0.159 C 
BRANCH  37  38
HETATM   38  C4  UNL     1      12.195  32.007   0.439  1.00  0.00     0.059 C 
BRANCH  38  39
HETATM   39  C3  UNL     1      10.988  32.249   1.330  1.00  0.00     0.006 C 
BRANCH  39  40
HETATM   40  C2  UNL     1      11.333  31.704   2.664  1.00  0.00    -0.004 C 
HETATM   41  C1  UNL     1      10.434  30.595   3.028  1.00  0.00     0.005 C 
ENDBRANCH  39  40
ENDBRANCH  38  39
ENDBRANCH  37  38
ENDBRANCH  35  37
ENDBRANCH   1  34
BRANCH  17  42
HETATM   42  C31 UNL     1       8.894  27.543   0.667  1.00  0.00     0.134 C 
BRANCH  42  43
HETATM   43  C32 UNL     1      10.227  27.147   1.365  1.00  0.00     0.040 C 
BRANCH  43  44
HETATM   44  C33 UNL     1       9.897  26.528   2.665  1.00  0.00     0.125 C 
BRANCH  44  45
HETATM   45  N6  UNL     1       9.670  25.103   2.446  1.00  0.00    -0.355 N 
ATOM     46  H6  UNL     1      10.297  24.501   1.911  1.00  0.00     0.163 HD
BRANCH  45  47
HETATM   47  C34 UNL     1       8.433  24.640   3.084  1.00  0.00     0.237 C 
HETATM   48  N7  UNL     1       7.331  25.315   2.848  1.00  0.00    -0.233 N 
ATOM     49  H7  UNL     1       7.389  26.128   2.236  1.00  0.00     0.198 HD
BRANCH  47  50
HETATM   50  O4  UNL     1       8.430  23.555   3.890  1.00  0.00    -0.331 OA
ATOM     51  H4  UNL     1       7.817  23.484   4.611  1.00  0.00     0.221 HD
ENDBRANCH  47  50
BRANCH  48  52
HETATM   52  O5  UNL     1       6.116  24.994   3.374  1.00  0.00    -0.287 OA
ATOM     53  H5  UNL     1       5.753  25.397   4.154  1.00  0.00     0.244 HD
ENDBRANCH  48  52
ENDBRANCH  45  47
ENDBRANCH  44  45
ENDBRANCH  43  44
ENDBRANCH  42  43
ENDBRANCH  17  42
TORSDOF 19
ENDMDL
