MODEL 1
REMARK VINA RESULT: -8.529482946      0.000      0.000
REMARK  18 active torsions:
REMARK  status: ('A' for Active; 'I' for Inactive)
REMARK       I    between atoms: C2_4  and  N2_5 
REMARK       I    between atoms: C2_4  and  N7_41 
REMARK    1  A    between atoms: N2_5  and  C3_7 
REMARK    2  A    between atoms: C3_7  and  C4_8 
REMARK    3  A    between atoms: C4_8  and  C5_9 
REMARK    4  A    between atoms: C5_9  and  C6_10 
REMARK    5  A    between atoms: C6_10  and  C7_11 
REMARK    6  A    between atoms: C7_11  and  C8_12 
REMARK    7  A    between atoms: C8_12  and  N3_13 
REMARK    8  A    between atoms: N3_13  and  C9_14 
REMARK       I    between atoms: N3_13  and  C11_17 
REMARK    9  A    between atoms: C9_14  and  C10_15 
REMARK   10  A    between atoms: C11_17  and  C12_19 
REMARK   11  A    between atoms: C12_19  and  N4_20 
REMARK       I    between atoms: N4_20  and  C14_22 
REMARK   12  A    between atoms: C14_22  and  C15_24 
REMARK   13  A    between atoms: C18_27  and  N5_28 
REMARK       I    between atoms: N5_28  and  C19_30 
REMARK   14  A    between atoms: C19_30  and  C20_32 
REMARK   15  A    between atoms: C20_32  and  C21_33 
REMARK   16  A    between atoms: N7_41  and  C25_43 
REMARK   17  A    between atoms: C25_43  and  C26_44 
REMARK   18  A    between atoms: C28_47  and  N8_48 
ROOT
HETATM    1  N3  UNL     1       8.851  26.740   2.452  1.00  0.00    -0.350 N 
HETATM    2  C11 UNL     1       8.616  25.330   2.711  1.00  0.00     0.237 C 
HETATM    3  O1  UNL     1       8.108  24.664   1.781  1.00  0.00    -0.272 OA
ENDROOT
BRANCH   1   4
HETATM    4  C8  UNL     1       8.494  27.275   1.174  1.00  0.00     0.126 C 
BRANCH   4   5
HETATM    5  C7  UNL     1       9.535  27.706   0.238  1.00  0.00     0.020 C 
BRANCH   5   6
HETATM    6  C6  UNL     1      10.906  27.178   0.338  1.00  0.00     0.002 C 
BRANCH   6   7
HETATM    7  C5  UNL     1      11.977  28.184  -0.029  1.00  0.00     0.002 C 
BRANCH   7   8
HETATM    8  C4  UNL     1      11.385  29.170  -1.041  1.00  0.00     0.020 C 
BRANCH   8   9
HETATM    9  C3  UNL     1      11.680  28.616  -2.410  1.00  0.00     0.138 C 
BRANCH   9  10
HETATM   10  N2  UNL     1      13.056  28.211  -2.478  1.00  0.00    -0.227 N 
HETATM   11  C2  UNL     1      13.563  27.024  -3.052  1.00  0.00     0.669 C 
HETATM   12  N1  UNL     1      14.544  26.459  -2.394  1.00  0.00    -0.231 N 
HETATM   13  N7  UNL     1      13.090  26.434  -4.255  1.00  0.00    -0.221 N 
HETATM   14  C1  UNL     1      15.066  27.014  -1.171  1.00  0.00     0.165 C 
ATOM     15  H1  UNL     1      14.952  25.598  -2.759  1.00  0.00     0.177 HD
ATOM     16  H7  UNL     1      13.129  26.978  -5.117  1.00  0.00     0.178 HD
ATOM     17  H2  UNL     1      13.740  28.849  -2.070  1.00  0.00     0.177 HD
BRANCH  13  18
HETATM   18  C25 UNL     1      12.557  25.088  -4.303  1.00  0.00     0.195 C 
BRANCH  18  19
HETATM   19  C26 UNL     1      11.306  24.989  -3.442  1.00  0.00     0.036 A 
HETATM   20  C27 UNL     1      10.156  25.602  -3.870  1.00  0.00     0.080 A 
HETATM   21  S2  UNL     1       9.062  25.224  -2.616  1.00  0.00    -0.064 SA
HETATM   22  C28 UNL     1      10.118  24.319  -1.630  1.00  0.00     0.142 A 
HETATM   23  N9  UNL     1      11.261  24.348  -2.310  1.00  0.00    -0.339 N 
ATOM     24  H9  UNL     1      12.090  23.876  -1.949  1.00  0.00     0.168 HD
BRANCH  22  25
HETATM   25  N8  UNL     1       9.889  23.724  -0.477  1.00  0.00    -0.380 N 
ATOM     26  H82 UNL     1       9.386  22.850  -0.321  1.00  0.00     0.158 HD
ATOM     27  H81 UNL     1      10.157  24.007   0.466  1.00  0.00     0.158 HD
ENDBRANCH  22  25
ENDBRANCH  18  19
ENDBRANCH  13  18
ENDBRANCH   9  10
ENDBRANCH   8   9
ENDBRANCH   7   8
ENDBRANCH   6   7
ENDBRANCH   5   6
ENDBRANCH   4   5
ENDBRANCH   1   4
BRANCH   1  28
HETATM   28  C9  UNL     1       9.320  27.503   3.556  1.00  0.00     0.141 C 
BRANCH  28  29
HETATM   29  C10 UNL     1       8.989  28.944   3.644  1.00  0.00     0.134 C 
HETATM   30 CL1  UNL     1      10.361  29.889   2.950  1.00  0.00    -0.129 Cl
ENDBRANCH  28  29
ENDBRANCH   1  28
BRANCH   2  31
HETATM   31  C12 UNL     1       8.934  24.664   3.980  1.00  0.00     0.228 C 
BRANCH  31  32
HETATM   32  N4  UNL     1       7.787  23.837   4.423  1.00  0.00    -0.343 N 
HETATM   33  C13 UNL     1       7.906  22.404   4.336  1.00  0.00     0.153 C 
HETATM   34  C14 UNL     1       6.673  24.534   4.890  1.00  0.00     0.260 C 
HETATM   35  O2  UNL     1       6.611  25.793   4.950  1.00  0.00    -0.267 OA
BRANCH  34  36
HETATM   36  C15 UNL     1       5.476  23.800   5.351  1.00  0.00     0.074 A 
HETATM   37  C16 UNL     1       5.430  22.788   6.275  1.00  0.00     0.027 A 
HETATM   38  C17 UNL     1       4.234  22.257   6.555  1.00  0.00     0.039 A 
HETATM   39  C18 UNL     1       3.136  22.742   5.915  1.00  0.00     0.077 A 
HETATM   40  S1  UNL     1       3.845  23.972   4.905  1.00  0.00    -0.067 SA
BRANCH  39  41
HETATM   41  N5  UNL     1       1.758  22.404   5.981  1.00  0.00    -0.321 N 
HETATM   42  C19 UNL     1       1.127  21.894   7.100  1.00  0.00     0.222 C 
HETATM   43  O3  UNL     1       1.726  21.682   8.166  1.00  0.00    -0.273 OA
ATOM     44  H5  UNL     1       1.195  22.548   5.144  1.00  0.00     0.169 HD
BRANCH  42  45
HETATM   45  C20 UNL     1      -0.317  21.579   7.052  1.00  0.00     0.109 C 
BRANCH  45  46
HETATM   46  C21 UNL     1      -1.190  22.397   7.931  1.00  0.00     0.021 C 
HETATM   47  C22 UNL     1      -2.659  22.129   7.825  1.00  0.00     0.034 C 
HETATM   48  C23 UNL     1      -3.251  23.526   7.815  1.00  0.00     0.232 C 
HETATM   49  N6  UNL     1      -2.239  24.364   8.443  1.00  0.00    -0.075 N 
HETATM   50  C24 UNL     1      -1.012  23.891   7.789  1.00  0.00     0.237 C 
ATOM     51  H62 UNL     1      -2.406  25.368   8.378  1.00  0.00     0.277 HD
ATOM     52  H61 UNL     1      -2.226  24.337   9.463  1.00  0.00     0.277 HD
ENDBRANCH  45  46
ENDBRANCH  42  45
ENDBRANCH  39  41
ENDBRANCH  34  36
ENDBRANCH  31  32
ENDBRANCH   2  31
TORSDOF 18
ENDMDL
MODEL 2
REMARK VINA RESULT: -8.433271241      1.817      2.418
REMARK  18 active torsions:
REMARK  status: ('A' for Active; 'I' for Inactive)
REMARK       I    between atoms: C2_4  and  N2_5 
REMARK       I    between atoms: C2_4  and  N7_41 
REMARK    1  A    between atoms: N2_5  and  C3_7 
REMARK    2  A    between atoms: C3_7  and  C4_8 
REMARK    3  A    between atoms: C4_8  and  C5_9 
REMARK    4  A    between atoms: C5_9  and  C6_10 
REMARK    5  A    between atoms: C6_10  and  C7_11 
REMARK    6  A    between atoms: C7_11  and  C8_12 
REMARK    7  A    between atoms: C8_12  and  N3_13 
REMARK    8  A    between atoms: N3_13  and  C9_14 
REMARK       I    between atoms: N3_13  and  C11_17 
REMARK    9  A    between atoms: C9_14  and  C10_15 
REMARK   10  A    between atoms: C11_17  and  C12_19 
REMARK   11  A    between atoms: C12_19  and  N4_20 
REMARK       I    between atoms: N4_20  and  C14_22 
REMARK   12  A    between atoms: C14_22  and  C15_24 
REMARK   13  A    between atoms: C18_27  and  N5_28 
REMARK       I    between atoms: N5_28  and  C19_30 
REMARK   14  A    between atoms: C19_30  and  C20_32 
REMARK   15  A    between atoms: C20_32  and  C21_33 
REMARK   16  A    between atoms: N7_41  and  C25_43 
REMARK   17  A    between atoms: C25_43  and  C26_44 
REMARK   18  A    between atoms: C28_47  and  N8_48 
ROOT
HETATM    1  N3  UNL     1       9.592  29.208   2.465  1.00  0.00    -0.350 N 
HETATM    2  C11 UNL     1       9.453  27.787   2.733  1.00  0.00     0.237 C 
HETATM    3  O1  UNL     1       9.139  27.060   1.763  1.00  0.00    -0.272 OA
ENDROOT
BRANCH   1   4
HETATM    4  C8  UNL     1       9.368  29.685   1.135  1.00  0.00     0.126 C 
BRANCH   4   5
HETATM    5  C7  UNL     1      10.458  29.688   0.158  1.00  0.00     0.020 C 
BRANCH   5   6
HETATM    6  C6  UNL     1      10.932  30.947  -0.442  1.00  0.00     0.002 C 
BRANCH   6   7
HETATM    7  C5  UNL     1      12.416  31.189  -0.265  1.00  0.00     0.002 C 
BRANCH   7   8
HETATM    8  C4  UNL     1      12.984  31.694  -1.596  1.00  0.00     0.020 C 
BRANCH   8   9
HETATM    9  C3  UNL     1      12.637  30.660  -2.635  1.00  0.00     0.138 C 
BRANCH   9  10
HETATM   10  N2  UNL     1      13.777  29.822  -2.879  1.00  0.00    -0.227 N 
HETATM   11  C2  UNL     1      13.999  28.524  -2.367  1.00  0.00     0.669 C 
HETATM   12  N1  UNL     1      15.232  28.266  -2.009  1.00  0.00    -0.231 N 
HETATM   13  N7  UNL     1      13.002  27.521  -2.231  1.00  0.00    -0.221 N 
HETATM   14  C1  UNL     1      16.284  29.244  -2.129  1.00  0.00     0.165 C 
ATOM     15  H1  UNL     1      15.454  27.345  -1.632  1.00  0.00     0.177 HD
ATOM     16  H7  UNL     1      12.500  27.210  -3.062  1.00  0.00     0.178 HD
ATOM     17  H2  UNL     1      14.503  30.205  -3.484  1.00  0.00     0.177 HD
BRANCH  13  18
HETATM   18  C25 UNL     1      12.672  26.923  -0.953  1.00  0.00     0.195 C 
BRANCH  18  19
HETATM   19  C26 UNL     1      11.507  25.956  -1.110  1.00  0.00     0.036 A 
HETATM   20  C27 UNL     1      11.168  25.526  -2.368  1.00  0.00     0.080 A 
HETATM   21  S2  UNL     1       9.850  24.491  -2.048  1.00  0.00    -0.064 SA
HETATM   22  C28 UNL     1       9.806  24.665  -0.352  1.00  0.00     0.142 A 
HETATM   23  N9  UNL     1      10.805  25.508  -0.110  1.00  0.00    -0.339 N 
ATOM     24  H9  UNL     1      11.018  25.799   0.844  1.00  0.00     0.168 HD
BRANCH  22  25
HETATM   25  N8  UNL     1       8.996  24.112   0.529  1.00  0.00    -0.380 N 
ATOM     26  H82 UNL     1       8.341  24.587   1.151  1.00  0.00     0.158 HD
ATOM     27  H81 UNL     1       8.863  23.128   0.764  1.00  0.00     0.158 HD
ENDBRANCH  22  25
ENDBRANCH  18  19
ENDBRANCH  13  18
ENDBRANCH   9  10
ENDBRANCH   8   9
ENDBRANCH   7   8
ENDBRANCH   6   7
ENDBRANCH   5   6
ENDBRANCH   4   5
ENDBRANCH   1   4
BRANCH   1  28
HETATM   28  C9  UNL     1       9.835  30.031   3.599  1.00  0.00     0.141 C 
BRANCH  28  29
HETATM   29  C10 UNL     1       9.830  31.505   3.448  1.00  0.00     0.134 C 
HETATM   30 CL1  UNL     1      11.522  32.053   3.135  1.00  0.00    -0.129 Cl
ENDBRANCH  28  29
ENDBRANCH   1  28
BRANCH   2  31
HETATM   31  C12 UNL     1       9.652  27.177   4.052  1.00  0.00     0.228 C 
BRANCH  31  32
HETATM   32  N4  UNL     1       8.387  26.569   4.529  1.00  0.00    -0.343 N 
HETATM   33  C13 UNL     1       7.420  27.423   5.169  1.00  0.00     0.153 C 
HETATM   34  C14 UNL     1       8.247  25.199   4.312  1.00  0.00     0.260 C 
HETATM   35  O2  UNL     1       9.120  24.487   3.745  1.00  0.00    -0.267 OA
BRANCH  34  36
HETATM   36  C15 UNL     1       7.023  24.499   4.755  1.00  0.00     0.074 A 
HETATM   37  C16 UNL     1       6.930  23.515   5.705  1.00  0.00     0.027 A 
HETATM   38  C17 UNL     1       5.716  23.012   5.961  1.00  0.00     0.039 A 
HETATM   39  C18 UNL     1       4.648  23.498   5.274  1.00  0.00     0.077 A 
HETATM   40  S1  UNL     1       5.410  24.687   4.253  1.00  0.00    -0.067 SA
BRANCH  39  41
HETATM   41  N5  UNL     1       3.262  23.185   5.306  1.00  0.00    -0.321 N 
HETATM   42  C19 UNL     1       2.491  23.152   6.452  1.00  0.00     0.222 C 
HETATM   43  O3  UNL     1       2.954  23.397   7.577  1.00  0.00    -0.273 OA
ATOM     44  H5  UNL     1       2.805  22.971   4.421  1.00  0.00     0.169 HD
BRANCH  42  45
HETATM   45  C20 UNL     1       1.054  22.815   6.364  1.00  0.00     0.109 C 
BRANCH  45  46
HETATM   46  C21 UNL     1       0.123  23.748   7.046  1.00  0.00     0.021 C 
HETATM   47  C22 UNL     1      -1.094  23.127   7.658  1.00  0.00     0.034 C 
HETATM   48  C23 UNL     1      -2.195  24.090   7.257  1.00  0.00     0.232 C 
HETATM   49  N6  UNL     1      -1.511  25.348   6.989  1.00  0.00    -0.075 N 
HETATM   50  C24 UNL     1      -0.361  24.897   6.193  1.00  0.00     0.237 C 
ATOM     51  H62 UNL     1      -2.085  26.069   6.552  1.00  0.00     0.277 HD
ATOM     52  H61 UNL     1      -1.279  25.899   7.815  1.00  0.00     0.277 HD
ENDBRANCH  45  46
ENDBRANCH  42  45
ENDBRANCH  39  41
ENDBRANCH  34  36
ENDBRANCH  31  32
ENDBRANCH   2  31
TORSDOF 18
ENDMDL
MODEL 3
REMARK VINA RESULT: -8.150378419      4.549      8.167
REMARK  18 active torsions:
REMARK  status: ('A' for Active; 'I' for Inactive)
REMARK       I    between atoms: C2_4  and  N2_5 
REMARK       I    between atoms: C2_4  and  N7_41 
REMARK    1  A    between atoms: N2_5  and  C3_7 
REMARK    2  A    between atoms: C3_7  and  C4_8 
REMARK    3  A    between atoms: C4_8  and  C5_9 
REMARK    4  A    between atoms: C5_9  and  C6_10 
REMARK    5  A    between atoms: C6_10  and  C7_11 
REMARK    6  A    between atoms: C7_11  and  C8_12 
REMARK    7  A    between atoms: C8_12  and  N3_13 
REMARK    8  A    between atoms: N3_13  and  C9_14 
REMARK       I    between atoms: N3_13  and  C11_17 
REMARK    9  A    between atoms: C9_14  and  C10_15 
REMARK   10  A    between atoms: C11_17  and  C12_19 
REMARK   11  A    between atoms: C12_19  and  N4_20 
REMARK       I    between atoms: N4_20  and  C14_22 
REMARK   12  A    between atoms: C14_22  and  C15_24 
REMARK   13  A    between atoms: C18_27  and  N5_28 
REMARK       I    between atoms: N5_28  and  C19_30 
REMARK   14  A    between atoms: C19_30  and  C20_32 
REMARK   15  A    between atoms: C20_32  and  C21_33 
REMARK   16  A    between atoms: N7_41  and  C25_43 
REMARK   17  A    between atoms: C25_43  and  C26_44 
REMARK   18  A    between atoms: C28_47  and  N8_48 
ROOT
HETATM    1  N3  UNL     1       8.802  26.654   3.816  1.00  0.00    -0.350 N 
HETATM    2  C11 UNL     1       7.613  26.000   4.334  1.00  0.00     0.237 C 
HETATM    3  O1  UNL     1       7.071  26.528   5.331  1.00  0.00    -0.272 OA
ENDROOT
BRANCH   1   4
HETATM    4  C8  UNL     1       9.275  27.840   4.462  1.00  0.00     0.126 C 
BRANCH   4   5
HETATM    5  C7  UNL     1       8.776  29.153   4.051  1.00  0.00     0.020 C 
BRANCH   5   6
HETATM    6  C6  UNL     1       8.848  30.308   4.963  1.00  0.00     0.002 C 
BRANCH   6   7
HETATM    7  C5  UNL     1       7.518  30.684   5.581  1.00  0.00     0.002 C 
BRANCH   7   8
HETATM    8  C4  UNL     1       7.576  32.161   5.987  1.00  0.00     0.020 C 
BRANCH   8   9
HETATM    9  C3  UNL     1       9.031  32.502   6.173  1.00  0.00     0.138 C 
BRANCH   9  10
HETATM   10  N2  UNL     1       9.261  32.902   7.532  1.00  0.00    -0.227 N 
HETATM   11  C2  UNL     1       9.165  32.087   8.683  1.00  0.00     0.669 C 
HETATM   12  N1  UNL     1       8.632  32.662   9.732  1.00  0.00    -0.231 N 
HETATM   13  N7  UNL     1       9.601  30.737   8.764  1.00  0.00    -0.221 N 
HETATM   14  C1  UNL     1       8.177  34.029   9.709  1.00  0.00     0.165 C 
ATOM     15  H1  UNL     1       8.536  32.124  10.594  1.00  0.00     0.177 HD
ATOM     16  H7  UNL     1      10.581  30.526   8.581  1.00  0.00     0.178 HD
ATOM     17  H2  UNL     1       9.521  33.877   7.683  1.00  0.00     0.177 HD
BRANCH  13  18
HETATM   18  C25 UNL     1       8.703  29.651   9.098  1.00  0.00     0.195 C 
BRANCH  18  19
HETATM   19  C26 UNL     1       9.121  29.010  10.414  1.00  0.00     0.036 A 
HETATM   20  C27 UNL     1      10.198  29.525  11.089  1.00  0.00     0.080 A 
HETATM   21  S2  UNL     1      10.277  28.511  12.459  1.00  0.00    -0.064 SA
HETATM   22  C28 UNL     1       8.952  27.501  12.097  1.00  0.00     0.142 A 
HETATM   23  N9  UNL     1       8.510  27.990  10.942  1.00  0.00    -0.339 N 
ATOM     24  H9  UNL     1       7.704  27.571  10.477  1.00  0.00     0.168 HD
BRANCH  22  25
HETATM   25  N8  UNL     1       8.462  26.482  12.774  1.00  0.00    -0.380 N 
ATOM     26  H82 UNL     1       8.752  25.505  12.718  1.00  0.00     0.158 HD
ATOM     27  H81 UNL     1       7.714  26.461  13.468  1.00  0.00     0.158 HD
ENDBRANCH  22  25
ENDBRANCH  18  19
ENDBRANCH  13  18
ENDBRANCH   9  10
ENDBRANCH   8   9
ENDBRANCH   7   8
ENDBRANCH   6   7
ENDBRANCH   5   6
ENDBRANCH   4   5
ENDBRANCH   1   4
BRANCH   1  28
HETATM   28  C9  UNL     1       9.469  25.978   2.758  1.00  0.00     0.141 C 
BRANCH  28  29
HETATM   29  C10 UNL     1       9.510  26.589   1.409  1.00  0.00     0.134 C 
HETATM   30 CL1  UNL     1      11.078  27.465   1.225  1.00  0.00    -0.129 Cl
ENDBRANCH  28  29
ENDBRANCH   1  28
BRANCH   2  31
HETATM   31  C12 UNL     1       7.033  24.779   3.764  1.00  0.00     0.228 C 
BRANCH  31  32
HETATM   32  N4  UNL     1       6.297  24.028   4.808  1.00  0.00    -0.343 N 
HETATM   33  C13 UNL     1       7.059  23.284   5.778  1.00  0.00     0.153 C 
HETATM   34  C14 UNL     1       4.906  24.110   4.755  1.00  0.00     0.260 C 
HETATM   35  O2  UNL     1       4.277  24.775   3.887  1.00  0.00    -0.267 OA
BRANCH  34  36
HETATM   36  C15 UNL     1       4.081  23.393   5.750  1.00  0.00     0.074 A 
HETATM   37  C16 UNL     1       4.491  22.408   6.610  1.00  0.00     0.027 A 
HETATM   38  C17 UNL     1       3.579  21.888   7.440  1.00  0.00     0.039 A 
HETATM   39  C18 UNL     1       2.304  22.360   7.390  1.00  0.00     0.077 A 
HETATM   40  S1  UNL     1       2.433  23.559   6.131  1.00  0.00    -0.067 SA
BRANCH  39  41
HETATM   41  N5  UNL     1       1.128  22.029   8.114  1.00  0.00    -0.321 N 
HETATM   42  C19 UNL     1      -0.128  21.896   7.554  1.00  0.00     0.222 C 
HETATM   43  O3  UNL     1      -0.340  22.059   6.343  1.00  0.00    -0.273 OA
ATOM     44  H5  UNL     1       1.218  21.878   9.118  1.00  0.00     0.169 HD
BRANCH  42  45
HETATM   45  C20 UNL     1      -1.283  21.546   8.409  1.00  0.00     0.109 C 
BRANCH  45  46
HETATM   46  C21 UNL     1      -2.624  21.801   7.827  1.00  0.00     0.021 C 
HETATM   47  C22 UNL     1      -3.176  23.177   8.034  1.00  0.00     0.034 C 
HETATM   48  C23 UNL     1      -4.621  22.902   8.407  1.00  0.00     0.232 C 
HETATM   49  N6  UNL     1      -4.901  21.579   7.866  1.00  0.00    -0.075 N 
HETATM   50  C24 UNL     1      -3.700  20.834   8.265  1.00  0.00     0.237 C 
ATOM     51  H62 UNL     1      -5.785  21.168   8.163  1.00  0.00     0.277 HD
ATOM     52  H61 UNL     1      -5.115  21.556   6.869  1.00  0.00     0.277 HD
ENDBRANCH  45  46
ENDBRANCH  42  45
ENDBRANCH  39  41
ENDBRANCH  34  36
ENDBRANCH  31  32
ENDBRANCH   2  31
TORSDOF 18
ENDMDL
MODEL 4
REMARK VINA RESULT: -8.095015431      4.104      6.911
REMARK  18 active torsions:
REMARK  status: ('A' for Active; 'I' for Inactive)
REMARK       I    between atoms: C2_4  and  N2_5 
REMARK       I    between atoms: C2_4  and  N7_41 
REMARK    1  A    between atoms: N2_5  and  C3_7 
REMARK    2  A    between atoms: C3_7  and  C4_8 
REMARK    3  A    between atoms: C4_8  and  C5_9 
REMARK    4  A    between atoms: C5_9  and  C6_10 
REMARK    5  A    between atoms: C6_10  and  C7_11 
REMARK    6  A    between atoms: C7_11  and  C8_12 
REMARK    7  A    between atoms: C8_12  and  N3_13 
REMARK    8  A    between atoms: N3_13  and  C9_14 
REMARK       I    between atoms: N3_13  and  C11_17 
REMARK    9  A    between atoms: C9_14  and  C10_15 
REMARK   10  A    between atoms: C11_17  and  C12_19 
REMARK   11  A    between atoms: C12_19  and  N4_20 
REMARK       I    between atoms: N4_20  and  C14_22 
REMARK   12  A    between atoms: C14_22  and  C15_24 
REMARK   13  A    between atoms: C18_27  and  N5_28 
REMARK       I    between atoms: N5_28  and  C19_30 
REMARK   14  A    between atoms: C19_30  and  C20_32 
REMARK   15  A    between atoms: C20_32  and  C21_33 
REMARK   16  A    between atoms: N7_41  and  C25_43 
REMARK   17  A    between atoms: C25_43  and  C26_44 
REMARK   18  A    between atoms: C28_47  and  N8_48 
ROOT
HETATM    1  N3  UNL     1       8.306  26.005   3.354  1.00  0.00    -0.350 N 
HETATM    2  C11 UNL     1       7.584  25.448   4.485  1.00  0.00     0.237 C 
HETATM    3  O1  UNL     1       7.269  26.245   5.398  1.00  0.00    -0.272 OA
ENDROOT
BRANCH   1   4
HETATM    4  C8  UNL     1       8.611  27.402   3.350  1.00  0.00     0.126 C 
BRANCH   4   5
HETATM    5  C7  UNL     1       9.997  27.855   3.222  1.00  0.00     0.020 C 
BRANCH   5   6
HETATM    6  C6  UNL     1      10.383  28.824   2.182  1.00  0.00     0.002 C 
BRANCH   6   7
HETATM    7  C5  UNL     1       9.225  29.301   1.330  1.00  0.00     0.002 C 
BRANCH   7   8
HETATM    8  C4  UNL     1       9.022  30.798   1.589  1.00  0.00     0.020 C 
BRANCH   8   9
HETATM    9  C3  UNL     1       7.849  30.920   2.526  1.00  0.00     0.138 C 
BRANCH   9  10
HETATM   10  N2  UNL     1       8.195  31.788   3.617  1.00  0.00    -0.227 N 
HETATM   11  C2  UNL     1       8.140  31.481   4.994  1.00  0.00     0.669 C 
HETATM   12  N1  UNL     1       7.712  32.448   5.767  1.00  0.00    -0.231 N 
HETATM   13  N7  UNL     1       8.511  30.235   5.567  1.00  0.00    -0.221 N 
HETATM   14  C1  UNL     1       7.326  33.734   5.242  1.00  0.00     0.165 C 
ATOM     15  H1  UNL     1       7.650  32.287   6.773  1.00  0.00     0.177 HD
ATOM     16  H7  UNL     1       9.465  29.898   5.434  1.00  0.00     0.178 HD
ATOM     17  H2  UNL     1       8.514  32.726   3.370  1.00  0.00     0.177 HD
BRANCH  13  18
HETATM   18  C25 UNL     1       7.586  29.426   6.333  1.00  0.00     0.195 C 
BRANCH  18  19
HETATM   19  C26 UNL     1       7.901  29.532   7.819  1.00  0.00     0.036 A 
HETATM   20  C27 UNL     1       6.868  29.483   8.720  1.00  0.00     0.080 A 
HETATM   21  S2  UNL     1       7.687  29.635  10.209  1.00  0.00    -0.064 SA
HETATM   22  C28 UNL     1       9.278  29.753   9.606  1.00  0.00     0.142 A 
HETATM   23  N9  UNL     1       9.106  29.669   8.289  1.00  0.00    -0.339 N 
ATOM     24  H9  UNL     1       9.907  29.711   7.659  1.00  0.00     0.168 HD
BRANCH  22  25
HETATM   25  N8  UNL     1      10.416  29.891  10.256  1.00  0.00    -0.380 N 
ATOM     26  H82 UNL     1      10.636  30.577  10.978  1.00  0.00     0.158 HD
ATOM     27  H81 UNL     1      11.282  29.359  10.171  1.00  0.00     0.158 HD
ENDBRANCH  22  25
ENDBRANCH  18  19
ENDBRANCH  13  18
ENDBRANCH   9  10
ENDBRANCH   8   9
ENDBRANCH   7   8
ENDBRANCH   6   7
ENDBRANCH   5   6
ENDBRANCH   4   5
ENDBRANCH   1   4
BRANCH   1  28
HETATM   28  C9  UNL     1       8.755  25.067   2.385  1.00  0.00     0.141 C 
BRANCH  28  29
HETATM   29  C10 UNL     1       8.456  25.295   0.952  1.00  0.00     0.134 C 
HETATM   30 CL1  UNL     1       9.974  25.821   0.128  1.00  0.00    -0.129 Cl
ENDBRANCH  28  29
ENDBRANCH   1  28
BRANCH   2  31
HETATM   31  C12 UNL     1       7.217  24.033   4.610  1.00  0.00     0.228 C 
BRANCH  31  32
HETATM   32  N4  UNL     1       5.772  23.906   4.917  1.00  0.00    -0.343 N 
HETATM   33  C13 UNL     1       4.844  24.726   4.182  1.00  0.00     0.153 C 
HETATM   34  C14 UNL     1       5.436  22.987   5.910  1.00  0.00     0.260 C 
HETATM   35  O2  UNL     1       6.283  22.286   6.530  1.00  0.00    -0.267 OA
BRANCH  34  36
HETATM   36  C15 UNL     1       4.022  22.789   6.292  1.00  0.00     0.074 A 
HETATM   37  C16 UNL     1       3.544  22.057   7.347  1.00  0.00     0.027 A 
HETATM   38  C17 UNL     1       2.218  22.010   7.520  1.00  0.00     0.039 A 
HETATM   39  C18 UNL     1       1.420  22.685   6.650  1.00  0.00     0.077 A 
HETATM   40  S1  UNL     1       2.601  23.387   5.578  1.00  0.00    -0.067 SA
BRANCH  39  41
HETATM   41  N5  UNL     1       0.010  22.832   6.556  1.00  0.00    -0.321 N 
HETATM   42  C19 UNL     1      -0.909  21.913   7.024  1.00  0.00     0.222 C 
HETATM   43  O3  UNL     1      -0.573  20.855   7.578  1.00  0.00    -0.273 OA
ATOM     44  H5  UNL     1      -0.349  23.677   6.112  1.00  0.00     0.169 HD
BRANCH  42  45
HETATM   45  C20 UNL     1      -2.356  22.175   6.871  1.00  0.00     0.109 C 
BRANCH  45  46
HETATM   46  C21 UNL     1      -3.220  21.730   7.994  1.00  0.00     0.021 C 
HETATM   47  C22 UNL     1      -3.847  20.379   7.840  1.00  0.00     0.034 C 
HETATM   48  C23 UNL     1      -5.269  20.619   8.312  1.00  0.00     0.232 C 
HETATM   49  N6  UNL     1      -5.188  21.800   9.158  1.00  0.00    -0.075 N 
HETATM   50  C24 UNL     1      -4.334  22.685   8.354  1.00  0.00     0.237 C 
ATOM     51  H62 UNL     1      -6.085  22.198   9.436  1.00  0.00     0.277 HD
ATOM     52  H61 UNL     1      -4.862  21.630  10.110  1.00  0.00     0.277 HD
ENDBRANCH  45  46
ENDBRANCH  42  45
ENDBRANCH  39  41
ENDBRANCH  34  36
ENDBRANCH  31  32
ENDBRANCH   2  31
TORSDOF 18
ENDMDL
MODEL 5
REMARK VINA RESULT: -8.047550748      1.941      2.486
REMARK  18 active torsions:
REMARK  status: ('A' for Active; 'I' for Inactive)
REMARK       I    between atoms: C2_4  and  N2_5 
REMARK       I    between atoms: C2_4  and  N7_41 
REMARK    1  A    between atoms: N2_5  and  C3_7 
REMARK    2  A    between atoms: C3_7  and  C4_8 
REMARK    3  A    between atoms: C4_8  and  C5_9 
REMARK    4  A    between atoms: C5_9  and  C6_10 
REMARK    5  A    between atoms: C6_10  and  C7_11 
REMARK    6  A    between atoms: C7_11  and  C8_12 
REMARK    7  A    between atoms: C8_12  and  N3_13 
REMARK    8  A    between atoms: N3_13  and  C9_14 
REMARK       I    between atoms: N3_13  and  C11_17 
REMARK    9  A    between atoms: C9_14  and  C10_15 
REMARK   10  A    between atoms: C11_17  and  C12_19 
REMARK   11  A    between atoms: C12_19  and  N4_20 
REMARK       I    between atoms: N4_20  and  C14_22 
REMARK   12  A    between atoms: C14_22  and  C15_24 
REMARK   13  A    between atoms: C18_27  and  N5_28 
REMARK       I    between atoms: N5_28  and  C19_30 
REMARK   14  A    between atoms: C19_30  and  C20_32 
REMARK   15  A    between atoms: C20_32  and  C21_33 
REMARK   16  A    between atoms: N7_41  and  C25_43 
REMARK   17  A    between atoms: C25_43  and  C26_44 
REMARK   18  A    between atoms: C28_47  and  N8_48 
ROOT
HETATM    1  N3  UNL     1       8.719  26.736   3.346  1.00  0.00    -0.350 N 
HETATM    2  C11 UNL     1       7.932  26.131   4.407  1.00  0.00     0.237 C 
HETATM    3  O1  UNL     1       7.343  26.913   5.186  1.00  0.00    -0.272 OA
ENDROOT
BRANCH   1   4
HETATM    4  C8  UNL     1       8.775  28.163   3.257  1.00  0.00     0.126 C 
BRANCH   4   5
HETATM    5  C7  UNL     1       8.878  28.817   1.950  1.00  0.00     0.020 C 
BRANCH   5   6
HETATM    6  C6  UNL     1      10.132  29.459   1.524  1.00  0.00     0.002 C 
BRANCH   6   7
HETATM    7  C5  UNL     1      11.196  28.482   1.067  1.00  0.00     0.002 C 
BRANCH   7   8
HETATM    8  C4  UNL     1      10.711  27.811  -0.223  1.00  0.00     0.020 C 
BRANCH   8   9
HETATM    9  C3  UNL     1      11.687  26.707  -0.530  1.00  0.00     0.138 C 
BRANCH   9  10
HETATM   10  N2  UNL     1      13.021  27.238  -0.557  1.00  0.00    -0.227 N 
HETATM   11  C2  UNL     1      13.779  27.566  -1.704  1.00  0.00     0.669 C 
HETATM   12  N1  UNL     1      15.051  27.263  -1.639  1.00  0.00    -0.231 N 
HETATM   13  N7  UNL     1      13.261  28.184  -2.874  1.00  0.00    -0.221 N 
HETATM   14  C1  UNL     1      15.632  26.639  -0.477  1.00  0.00     0.165 C 
ATOM     15  H1  UNL     1      15.651  27.475  -2.437  1.00  0.00     0.177 HD
ATOM     16  H7  UNL     1      12.817  29.098  -2.790  1.00  0.00     0.178 HD
ATOM     17  H2  UNL     1      13.468  27.396   0.346  1.00  0.00     0.177 HD
BRANCH  13  18
HETATM   18  C25 UNL     1      13.341  27.563  -4.180  1.00  0.00     0.195 C 
BRANCH  18  19
HETATM   19  C26 UNL     1      12.616  26.225  -4.171  1.00  0.00     0.036 A 
HETATM   20  C27 UNL     1      13.354  25.071  -4.237  1.00  0.00     0.080 A 
HETATM   21  S2  UNL     1      12.143  23.870  -4.198  1.00  0.00    -0.064 SA
HETATM   22  C28 UNL     1      10.782  24.894  -4.102  1.00  0.00     0.142 A 
HETATM   23  N9  UNL     1      11.321  26.110  -4.104  1.00  0.00    -0.339 N 
ATOM     24  H9  UNL     1      10.729  26.938  -4.053  1.00  0.00     0.168 HD
BRANCH  22  25
HETATM   25  N8  UNL     1       9.502  24.587  -4.039  1.00  0.00    -0.380 N 
ATOM     26  H82 UNL     1       9.081  23.665  -4.150  1.00  0.00     0.158 HD
ATOM     27  H81 UNL     1       8.696  25.190  -3.872  1.00  0.00     0.158 HD
ENDBRANCH  22  25
ENDBRANCH  18  19
ENDBRANCH  13  18
ENDBRANCH   9  10
ENDBRANCH   8   9
ENDBRANCH   7   8
ENDBRANCH   6   7
ENDBRANCH   5   6
ENDBRANCH   4   5
ENDBRANCH   1   4
BRANCH   1  28
HETATM   28  C9  UNL     1       9.472  25.836   2.543  1.00  0.00     0.141 C 
BRANCH  28  29
HETATM   29  C10 UNL     1       8.793  25.058   1.481  1.00  0.00     0.134 C 
HETATM   30 CL1  UNL     1       7.567  26.121   0.689  1.00  0.00    -0.129 Cl
ENDBRANCH  28  29
ENDBRANCH   1  28
BRANCH   2  31
HETATM   31  C12 UNL     1       7.800  24.683   4.607  1.00  0.00     0.228 C 
BRANCH  31  32
HETATM   32  N4  UNL     1       6.378  24.326   4.825  1.00  0.00    -0.343 N 
HETATM   33  C13 UNL     1       5.387  24.916   3.963  1.00  0.00     0.153 C 
HETATM   34  C14 UNL     1       6.124  23.436   5.868  1.00  0.00     0.260 C 
HETATM   35  O2  UNL     1       7.024  22.940   6.600  1.00  0.00    -0.267 OA
BRANCH  34  36
HETATM   36  C15 UNL     1       4.738  23.021   6.168  1.00  0.00     0.074 A 
HETATM   37  C16 UNL     1       4.334  22.081   7.081  1.00  0.00     0.027 A 
HETATM   38  C17 UNL     1       3.020  21.857   7.202  1.00  0.00     0.039 A 
HETATM   39  C18 UNL     1       2.161  22.565   6.422  1.00  0.00     0.077 A 
HETATM   40  S1  UNL     1       3.266  23.558   5.510  1.00  0.00    -0.067 SA
BRANCH  39  41
HETATM   41  N5  UNL     1       0.745  22.564   6.306  1.00  0.00    -0.321 N 
HETATM   42  C19 UNL     1      -0.088  23.521   6.853  1.00  0.00     0.222 C 
HETATM   43  O3  UNL     1       0.340  24.485   7.507  1.00  0.00    -0.273 OA
ATOM     44  H5  UNL     1       0.313  21.803   5.783  1.00  0.00     0.169 HD
BRANCH  42  45
HETATM   45  C20 UNL     1      -1.552  23.418   6.666  1.00  0.00     0.109 C 
BRANCH  45  46
HETATM   46  C21 UNL     1      -2.284  22.629   7.689  1.00  0.00     0.021 C 
HETATM   47  C22 UNL     1      -2.290  21.145   7.489  1.00  0.00     0.034 C 
HETATM   48  C23 UNL     1      -3.731  20.777   7.787  1.00  0.00     0.232 C 
HETATM   49  N6  UNL     1      -4.232  21.865   8.614  1.00  0.00    -0.075 N 
HETATM   50  C24 UNL     1      -3.722  23.042   7.897  1.00  0.00     0.237 C 
ATOM     51  H62 UNL     1      -5.238  21.859   8.777  1.00  0.00     0.277 HD
ATOM     52  H61 UNL     1      -3.976  21.813   9.600  1.00  0.00     0.277 HD
ENDBRANCH  45  46
ENDBRANCH  42  45
ENDBRANCH  39  41
ENDBRANCH  34  36
ENDBRANCH  31  32
ENDBRANCH   2  31
TORSDOF 18
ENDMDL
