MODEL 1
REMARK VINA RESULT: -7.184998780      0.000      0.000
REMARK  7 active torsions:
REMARK  status: ('A' for Active; 'I' for Inactive)
REMARK    1  A    between atoms: C7_7  and  O1_8 
REMARK    2  A    between atoms: O1_8  and  C8_9 
REMARK    3  A    between atoms: C8_9  and  C9_11 
REMARK    4  A    between atoms: C9_11  and  N1_12 
REMARK    5  A    between atoms: N1_12  and  C10_15 
REMARK    6  A    between atoms: C10_15  and  C11_16 
REMARK    7  A    between atoms: C11_16  and  N2_17 
ROOT
HETATM    1  O1  UNL     1      -5.491  20.721  -1.125  1.00  0.00    -0.309 OA
ENDROOT
BRANCH   1   2
HETATM    2  C7  UNL     1      -5.553  21.345  -2.397  1.00  0.00     0.072 C 
HETATM    3  C6  UNL     1      -6.108  20.327  -3.362  1.00  0.00     0.039 C 
HETATM    4  C5  UNL     1      -5.570  20.426  -4.741  1.00  0.00     0.007 C 
HETATM    5  C4  UNL     1      -5.459  21.812  -5.290  1.00  0.00    -0.013 C 
HETATM    6  C3  UNL     1      -4.054  22.337  -5.045  1.00  0.00     0.014 C 
HETATM    7  C18 UNL     1      -6.528  22.743  -4.829  1.00  0.00     0.009 C 
HETATM    8  C2  UNL     1      -3.928  22.854  -3.633  1.00  0.00    -0.041 C 
HETATM    9  C1  UNL     1      -2.514  23.397  -3.452  1.00  0.00     0.015 C 
HETATM   10  C19 UNL     1      -4.864  24.028  -3.467  1.00  0.00     0.014 C 
HETATM   11  C20 UNL     1      -4.137  21.745  -2.687  1.00  0.00     0.048 C 
HETATM   12  C17 UNL     1      -6.261  23.455  -3.542  1.00  0.00    -0.011 C 
HETATM   13  C16 UNL     1      -6.513  22.513  -2.402  1.00  0.00     0.043 C 
ENDBRANCH   1   2
BRANCH   1  14
HETATM   14  C8  UNL     1      -6.523  20.568  -0.254  1.00  0.00     0.285 C 
HETATM   15  O2  UNL     1      -6.634  21.399   0.669  1.00  0.00    -0.263 OA
BRANCH  14  16
HETATM   16  C9  UNL     1      -7.535  19.482  -0.316  1.00  0.00     0.343 C 
BRANCH  16  17
HETATM   17  N1  UNL     1      -8.707  19.777   0.452  1.00  0.00    -0.065 N 
ATOM     18  H12 UNL     1      -8.586  20.580   1.068  1.00  0.00     0.277 HD
ATOM     19  H11 UNL     1      -9.468  20.155  -0.113  1.00  0.00     0.277 HD
BRANCH  17  20
HETATM   20  C10 UNL     1      -9.081  18.560   1.169  1.00  0.00     0.263 C 
BRANCH  20  21
HETATM   21  C11 UNL     1      -8.387  17.348   0.591  1.00  0.00     0.299 C 
BRANCH  21  22
HETATM   22  N2  UNL     1      -8.943  16.176   1.226  1.00  0.00     0.090 N 
HETATM   23  C12 UNL     1     -10.188  15.755   0.565  1.00  0.00     0.272 C 
HETATM   24  C13 UNL     1      -9.678  15.229  -0.758  1.00  0.00     0.032 C 
HETATM   25  C14 UNL     1      -8.250  14.785  -0.486  1.00  0.00     0.032 C 
HETATM   26  C15 UNL     1      -8.133  14.990   1.010  1.00  0.00     0.272 C 
ENDBRANCH  21  22
ENDBRANCH  20  21
ENDBRANCH  17  20
ENDBRANCH  16  17
ENDBRANCH  14  16
ENDBRANCH   1  14
TORSDOF 7
ENDMDL
MODEL 2
REMARK VINA RESULT: -6.966467596      0.818      2.210
REMARK  7 active torsions:
REMARK  status: ('A' for Active; 'I' for Inactive)
REMARK    1  A    between atoms: C7_7  and  O1_8 
REMARK    2  A    between atoms: O1_8  and  C8_9 
REMARK    3  A    between atoms: C8_9  and  C9_11 
REMARK    4  A    between atoms: C9_11  and  N1_12 
REMARK    5  A    between atoms: N1_12  and  C10_15 
REMARK    6  A    between atoms: C10_15  and  C11_16 
REMARK    7  A    between atoms: C11_16  and  N2_17 
ROOT
HETATM    1  O1  UNL     1      -5.897  20.805  -1.089  1.00  0.00    -0.309 OA
ENDROOT
BRANCH   1   2
HETATM    2  C7  UNL     1      -5.602  21.770  -2.085  1.00  0.00     0.072 C 
HETATM    3  C6  UNL     1      -6.032  23.109  -1.543  1.00  0.00     0.039 C 
HETATM    4  C5  UNL     1      -6.541  24.056  -2.567  1.00  0.00     0.007 C 
HETATM    5  C4  UNL     1      -5.748  24.118  -3.834  1.00  0.00    -0.013 C 
HETATM    6  C3  UNL     1      -6.364  23.177  -4.856  1.00  0.00     0.014 C 
HETATM    7  C18 UNL     1      -4.283  23.919  -3.653  1.00  0.00     0.009 C 
HETATM    8  C2  UNL     1      -5.906  21.761  -4.606  1.00  0.00    -0.041 C 
HETATM    9  C1  UNL     1      -6.524  20.867  -5.676  1.00  0.00     0.015 C 
HETATM   10  C19 UNL     1      -4.410  21.698  -4.804  1.00  0.00     0.014 C 
HETATM   11  C20 UNL     1      -6.384  21.322  -3.284  1.00  0.00     0.048 C 
HETATM   12  C17 UNL     1      -3.811  22.501  -3.672  1.00  0.00    -0.011 C 
HETATM   13  C16 UNL     1      -4.116  21.867  -2.348  1.00  0.00     0.043 C 
ENDBRANCH   1   2
BRANCH   1  14
HETATM   14  C8  UNL     1      -6.773  20.954  -0.060  1.00  0.00     0.285 C 
HETATM   15  O2  UNL     1      -6.397  21.604   0.936  1.00  0.00    -0.263 OA
BRANCH  14  16
HETATM   16  C9  UNL     1      -8.151  20.400  -0.029  1.00  0.00     0.343 C 
BRANCH  16  17
HETATM   17  N1  UNL     1      -8.344  19.462   1.035  1.00  0.00    -0.065 N 
ATOM     18  H12 UNL     1      -8.173  19.865   1.956  1.00  0.00     0.277 HD
ATOM     19  H11 UNL     1      -9.324  19.216   1.176  1.00  0.00     0.277 HD
BRANCH  17  20
HETATM   20  C10 UNL     1      -7.501  18.301   0.756  1.00  0.00     0.263 C 
BRANCH  20  21
HETATM   21  C11 UNL     1      -8.250  17.258  -0.041  1.00  0.00     0.299 C 
BRANCH  21  22
HETATM   22  N2  UNL     1      -8.872  16.350   0.895  1.00  0.00     0.090 N 
HETATM   23  C12 UNL     1     -10.145  15.837   0.369  1.00  0.00     0.272 C 
HETATM   24  C13 UNL     1      -9.682  14.928  -0.747  1.00  0.00     0.032 C 
HETATM   25  C14 UNL     1      -8.281  14.492  -0.349  1.00  0.00     0.032 C 
HETATM   26  C15 UNL     1      -8.138  15.104   1.029  1.00  0.00     0.272 C 
ENDBRANCH  21  22
ENDBRANCH  20  21
ENDBRANCH  17  20
ENDBRANCH  16  17
ENDBRANCH  14  16
ENDBRANCH   1  14
TORSDOF 7
ENDMDL
MODEL 3
REMARK VINA RESULT: -6.949253610      0.951      2.107
REMARK  7 active torsions:
REMARK  status: ('A' for Active; 'I' for Inactive)
REMARK    1  A    between atoms: C7_7  and  O1_8 
REMARK    2  A    between atoms: O1_8  and  C8_9 
REMARK    3  A    between atoms: C8_9  and  C9_11 
REMARK    4  A    between atoms: C9_11  and  N1_12 
REMARK    5  A    between atoms: N1_12  and  C10_15 
REMARK    6  A    between atoms: C10_15  and  C11_16 
REMARK    7  A    between atoms: C11_16  and  N2_17 
ROOT
HETATM    1  O1  UNL     1      -6.788  22.129  -1.486  1.00  0.00    -0.309 OA
ENDROOT
BRANCH   1   2
HETATM    2  C7  UNL     1      -6.078  22.063  -2.712  1.00  0.00     0.072 C 
HETATM    3  C6  UNL     1      -4.613  21.964  -2.369  1.00  0.00     0.039 C 
HETATM    4  C5  UNL     1      -3.705  22.633  -3.333  1.00  0.00     0.007 C 
HETATM    5  C4  UNL     1      -4.027  22.412  -4.777  1.00  0.00    -0.013 C 
HETATM    6  C3  UNL     1      -4.889  23.558  -5.280  1.00  0.00     0.014 C 
HETATM    7  C18 UNL     1      -4.592  21.067  -5.082  1.00  0.00     0.009 C 
HETATM    8  C2  UNL     1      -6.331  23.335  -4.895  1.00  0.00    -0.041 C 
HETATM    9  C1  UNL     1      -7.154  24.493  -5.450  1.00  0.00     0.015 C 
HETATM   10  C19 UNL     1      -6.824  22.086  -5.586  1.00  0.00     0.014 C 
HETATM   11  C20 UNL     1      -6.448  23.329  -3.427  1.00  0.00     0.048 C 
HETATM   12  C17 UNL     1      -6.075  20.939  -4.948  1.00  0.00    -0.011 C 
HETATM   13  C16 UNL     1      -6.425  20.817  -3.494  1.00  0.00     0.043 C 
ENDBRANCH   1   2
BRANCH   1  14
HETATM   14  C8  UNL     1      -6.653  21.280  -0.433  1.00  0.00     0.285 C 
HETATM   15  O2  UNL     1      -6.364  21.769   0.677  1.00  0.00    -0.263 OA
BRANCH  14  16
HETATM   16  C9  UNL     1      -6.827  19.806  -0.502  1.00  0.00     0.343 C 
BRANCH  16  17
HETATM   17  N1  UNL     1      -6.793  19.187   0.789  1.00  0.00    -0.065 N 
ATOM     18  H12 UNL     1      -6.037  18.510   0.885  1.00  0.00     0.277 HD
ATOM     19  H11 UNL     1      -6.497  19.824   1.529  1.00  0.00     0.277 HD
BRANCH  17  20
HETATM   20  C10 UNL     1      -8.112  18.606   1.032  1.00  0.00     0.263 C 
BRANCH  20  21
HETATM   21  C11 UNL     1      -8.323  17.359   0.206  1.00  0.00     0.299 C 
BRANCH  21  22
HETATM   22  N2  UNL     1      -8.934  16.363   1.056  1.00  0.00     0.090 N 
HETATM   23  C12 UNL     1     -10.172  15.842   0.458  1.00  0.00     0.272 C 
HETATM   24  C13 UNL     1      -9.643  15.033  -0.705  1.00  0.00     0.032 C 
HETATM   25  C14 UNL     1      -8.237  14.623  -0.297  1.00  0.00     0.032 C 
HETATM   26  C15 UNL     1      -8.155  15.139   1.124  1.00  0.00     0.272 C 
ENDBRANCH  21  22
ENDBRANCH  20  21
ENDBRANCH  17  20
ENDBRANCH  16  17
ENDBRANCH  14  16
ENDBRANCH   1  14
TORSDOF 7
ENDMDL
MODEL 4
REMARK VINA RESULT: -6.936012386      1.053      2.441
REMARK  7 active torsions:
REMARK  status: ('A' for Active; 'I' for Inactive)
REMARK    1  A    between atoms: C7_7  and  O1_8 
REMARK    2  A    between atoms: O1_8  and  C8_9 
REMARK    3  A    between atoms: C8_9  and  C9_11 
REMARK    4  A    between atoms: C9_11  and  N1_12 
REMARK    5  A    between atoms: N1_12  and  C10_15 
REMARK    6  A    between atoms: C10_15  and  C11_16 
REMARK    7  A    between atoms: C11_16  and  N2_17 
ROOT
HETATM    1  O1  UNL     1      -6.865  22.258  -1.219  1.00  0.00    -0.309 OA
ENDROOT
BRANCH   1   2
HETATM    2  C7  UNL     1      -5.866  22.774  -2.084  1.00  0.00     0.072 C 
HETATM    3  C6  UNL     1      -5.343  24.038  -1.449  1.00  0.00     0.039 C 
HETATM    4  C5  UNL     1      -4.935  25.091  -2.412  1.00  0.00     0.007 C 
HETATM    5  C4  UNL     1      -4.152  24.613  -3.593  1.00  0.00    -0.013 C 
HETATM    6  C3  UNL     1      -5.100  24.363  -4.754  1.00  0.00     0.014 C 
HETATM    7  C18 UNL     1      -3.249  23.463  -3.307  1.00  0.00     0.009 C 
HETATM    8  C2  UNL     1      -5.760  23.014  -4.609  1.00  0.00    -0.041 C 
HETATM    9  C1  UNL     1      -6.672  22.801  -5.814  1.00  0.00     0.015 C 
HETATM   10  C19 UNL     1      -4.693  21.948  -4.684  1.00  0.00     0.014 C 
HETATM   11  C20 UNL     1      -6.578  23.001  -3.385  1.00  0.00     0.048 C 
HETATM   12  C17 UNL     1      -3.865  22.106  -3.429  1.00  0.00    -0.011 C 
HETATM   13  C16 UNL     1      -4.690  21.832  -2.207  1.00  0.00     0.043 C 
ENDBRANCH   1   2
BRANCH   1  14
HETATM   14  C8  UNL     1      -6.683  21.326  -0.247  1.00  0.00     0.285 C 
HETATM   15  O2  UNL     1      -6.392  21.726   0.898  1.00  0.00    -0.263 OA
BRANCH  14  16
HETATM   16  C9  UNL     1      -6.804  19.858  -0.442  1.00  0.00     0.343 C 
BRANCH  16  17
HETATM   17  N1  UNL     1      -6.846  19.139   0.795  1.00  0.00    -0.065 N 
ATOM     18  H12 UNL     1      -6.118  18.429   0.866  1.00  0.00     0.277 HD
ATOM     19  H11 UNL     1      -6.559  19.706   1.594  1.00  0.00     0.277 HD
BRANCH  17  20
HETATM   20  C10 UNL     1      -8.193  18.592   0.940  1.00  0.00     0.263 C 
BRANCH  20  21
HETATM   21  C11 UNL     1      -8.355  17.316   0.147  1.00  0.00     0.299 C 
BRANCH  21  22
HETATM   22  N2  UNL     1      -8.928  16.320   1.023  1.00  0.00     0.090 N 
HETATM   23  C12 UNL     1     -10.184  15.790   0.474  1.00  0.00     0.272 C 
HETATM   24  C13 UNL     1      -9.694  14.979  -0.705  1.00  0.00     0.032 C 
HETATM   25  C14 UNL     1      -8.272  14.578  -0.348  1.00  0.00     0.032 C 
HETATM   26  C15 UNL     1      -8.140  15.101   1.067  1.00  0.00     0.272 C 
ENDBRANCH  21  22
ENDBRANCH  20  21
ENDBRANCH  17  20
ENDBRANCH  16  17
ENDBRANCH  14  16
ENDBRANCH   1  14
TORSDOF 7
ENDMDL
MODEL 5
REMARK VINA RESULT: -6.921374428      1.172      2.422
REMARK  7 active torsions:
REMARK  status: ('A' for Active; 'I' for Inactive)
REMARK    1  A    between atoms: C7_7  and  O1_8 
REMARK    2  A    between atoms: O1_8  and  C8_9 
REMARK    3  A    between atoms: C8_9  and  C9_11 
REMARK    4  A    between atoms: C9_11  and  N1_12 
REMARK    5  A    between atoms: N1_12  and  C10_15 
REMARK    6  A    between atoms: C10_15  and  C11_16 
REMARK    7  A    between atoms: C11_16  and  N2_17 
ROOT
HETATM    1  O1  UNL     1      -6.719  22.142  -1.635  1.00  0.00    -0.309 OA
ENDROOT
BRANCH   1   2
HETATM    2  C7  UNL     1      -6.041  22.025  -2.875  1.00  0.00     0.072 C 
HETATM    3  C6  UNL     1      -4.564  22.036  -2.574  1.00  0.00     0.039 C 
HETATM    4  C5  UNL     1      -3.725  22.681  -3.614  1.00  0.00     0.007 C 
HETATM    5  C4  UNL     1      -4.074  22.335  -5.027  1.00  0.00    -0.013 C 
HETATM    6  C3  UNL     1      -5.016  23.390  -5.583  1.00  0.00     0.014 C 
HETATM    7  C18 UNL     1      -4.567  20.942  -5.214  1.00  0.00     0.009 C 
HETATM    8  C2  UNL     1      -6.430  23.115  -5.136  1.00  0.00    -0.041 C 
HETATM    9  C1  UNL     1      -7.336  24.179  -5.747  1.00  0.00     0.015 C 
HETATM   10  C19 UNL     1      -6.869  21.792  -5.717  1.00  0.00     0.014 C 
HETATM   11  C20 UNL     1      -6.505  23.211  -3.668  1.00  0.00     0.048 C 
HETATM   12  C17 UNL     1      -6.035  20.740  -5.022  1.00  0.00    -0.011 C 
HETATM   13  C16 UNL     1      -6.336  20.707  -3.553  1.00  0.00     0.043 C 
ENDBRANCH   1   2
BRANCH   1  14
HETATM   14  C8  UNL     1      -6.369  21.539  -0.468  1.00  0.00     0.285 C 
HETATM   15  O2  UNL     1      -5.853  22.244   0.421  1.00  0.00    -0.263 OA
BRANCH  14  16
HETATM   16  C9  UNL     1      -6.554  20.095  -0.169  1.00  0.00     0.343 C 
BRANCH  16  17
HETATM   17  N1  UNL     1      -7.090  19.869   1.139  1.00  0.00    -0.065 N 
ATOM     18  H12 UNL     1      -6.646  19.087   1.621  1.00  0.00     0.277 HD
ATOM     19  H11 UNL     1      -6.835  20.599   1.806  1.00  0.00     0.277 HD
BRANCH  17  20
HETATM   20  C10 UNL     1      -8.536  19.705   1.001  1.00  0.00     0.263 C 
BRANCH  20  21
HETATM   21  C11 UNL     1      -8.980  18.338   1.465  1.00  0.00     0.299 C 
BRANCH  21  22
HETATM   22  N2  UNL     1      -9.865  17.795   0.460  1.00  0.00     0.090 N 
HETATM   23  C12 UNL     1      -9.154  17.568  -0.806  1.00  0.00     0.272 C 
HETATM   24  C13 UNL     1      -8.259  16.399  -0.459  1.00  0.00     0.032 C 
HETATM   25  C14 UNL     1      -8.975  15.671   0.667  1.00  0.00     0.032 C 
HETATM   26  C15 UNL     1     -10.278  16.436   0.761  1.00  0.00     0.272 C 
ENDBRANCH  21  22
ENDBRANCH  20  21
ENDBRANCH  17  20
ENDBRANCH  16  17
ENDBRANCH  14  16
ENDBRANCH   1  14
TORSDOF 7
ENDMDL
