MODEL 1
REMARK VINA RESULT: -9.900000728      0.000      0.000
REMARK  4 active torsions:
REMARK  status: ('A' for Active; 'I' for Inactive)
REMARK       I    between atoms: C1_4  and  N2_5 
REMARK       I    between atoms: C1_4  and  N5_18 
REMARK    1  A    between atoms: N3_7  and  C2_9 
REMARK    2  A    between atoms: C6_13  and  N4_14 
REMARK    3  A    between atoms: N5_18  and  C8_20 
REMARK    4  A    between atoms: C12_25  and  C13_26 
ROOT
HETATM    1  N1  UNL     1      15.723  30.355   0.222  1.00  0.00    -0.233 N 
ATOM      2  H11 UNL     1      16.510  30.518   0.850  1.00  0.00     0.174 HD
ATOM      3  H12 UNL     1      14.848  30.858   0.373  1.00  0.00     0.174 HD
HETATM    4  C1  UNL     1      15.829  29.532  -0.742  1.00  0.00     0.691 C 
HETATM    5  N2  UNL     1      14.742  29.307  -1.609  1.00  0.00    -0.132 N 
ATOM      6  H2  UNL     1      14.152  28.483  -1.499  1.00  0.00     0.205 HD
HETATM    7  N3  UNL     1      14.513  30.139  -2.517  1.00  0.00    -0.287 N 
ATOM      8  H3  UNL     1      15.138  30.942  -2.575  1.00  0.00     0.187 HD
HETATM    9  N5  UNL     1      17.040  28.835  -0.952  1.00  0.00    -0.191 N 
ATOM     10  H5  UNL     1      17.609  29.068  -1.766  1.00  0.00     0.184 HD
ENDROOT
BRANCH   9  11
HETATM   11  C8  UNL     1      17.495  27.810  -0.055  1.00  0.00     0.050 A 
HETATM   12  C9  UNL     1      16.721  26.691   0.137  1.00  0.00     0.033 A 
HETATM   13  C10 UNL     1      17.111  25.658   0.998  1.00  0.00     0.045 A 
HETATM   14  C11 UNL     1      18.310  25.776   1.669  1.00  0.00     0.131 A 
HETATM   15  F1  UNL     1      18.770  24.829   2.520  1.00  0.00    -0.205 F 
HETATM   16  C12 UNL     1      19.076  26.904   1.466  1.00  0.00     0.088 A 
HETATM   17  C14 UNL     1      18.692  27.923   0.617  1.00  0.00     0.049 A 
BRANCH  16  18
HETATM   18  C13 UNL     1      20.368  27.030   2.189  1.00  0.00     0.420 C 
HETATM   19  F2  UNL     1      20.810  28.338   1.951  1.00  0.00    -0.166 F 
HETATM   20  F3  UNL     1      21.332  26.205   1.657  1.00  0.00    -0.166 F 
HETATM   21  F4  UNL     1      20.226  26.889   3.542  1.00  0.00    -0.166 F 
ENDBRANCH  16  18
ENDBRANCH   9  11
BRANCH   7  22
HETATM   22  C2  UNL     1      13.477  30.072  -3.465  1.00  0.00     0.051 A 
HETATM   23  C3  UNL     1      13.722  30.546  -4.745  1.00  0.00     0.031 A 
HETATM   24  C4  UNL     1      12.771  30.525  -5.743  1.00  0.00     0.005 A 
HETATM   25  C5  UNL     1      11.521  30.000  -5.427  1.00  0.00     0.036 A 
HETATM   26  C6  UNL     1      11.242  29.520  -4.169  1.00  0.00     0.105 A 
HETATM   27  C7  UNL     1      12.213  29.556  -3.194  1.00  0.00     0.067 A 
BRANCH  26  28
HETATM   28  N4  UNL     1       9.973  28.986  -3.843  1.00  0.00    -0.116 N 
HETATM   29  O1  UNL     1       9.370  29.344  -2.818  1.00  0.00    -0.532 OA
HETATM   30  O2  UNL     1       9.405  28.064  -4.670  1.00  0.00    -0.532 OA
ENDBRANCH  26  28
ENDBRANCH   7  22
TORSDOF 4
ENDMDL
MODEL 2
REMARK VINA RESULT: -9.795767096      1.394      2.490
REMARK  4 active torsions:
REMARK  status: ('A' for Active; 'I' for Inactive)
REMARK       I    between atoms: C1_4  and  N2_5 
REMARK       I    between atoms: C1_4  and  N5_18 
REMARK    1  A    between atoms: N3_7  and  C2_9 
REMARK    2  A    between atoms: C6_13  and  N4_14 
REMARK    3  A    between atoms: N5_18  and  C8_20 
REMARK    4  A    between atoms: C12_25  and  C13_26 
ROOT
HETATM    1  N1  UNL     1      17.082  30.546   0.540  1.00  0.00    -0.233 N 
ATOM      2  H11 UNL     1      17.984  30.708   0.988  1.00  0.00     0.174 HD
ATOM      3  H12 UNL     1      16.303  31.173   0.740  1.00  0.00     0.174 HD
HETATM    4  C1  UNL     1      16.929  29.572  -0.264  1.00  0.00     0.691 C 
HETATM    5  N2  UNL     1      15.684  29.349  -0.883  1.00  0.00    -0.132 N 
ATOM      6  H2  UNL     1      15.049  28.634  -0.530  1.00  0.00     0.205 HD
HETATM    7  N3  UNL     1      15.371  30.045  -1.876  1.00  0.00    -0.287 N 
ATOM      8  H3  UNL     1      16.049  30.744  -2.182  1.00  0.00     0.187 HD
HETATM    9  N5  UNL     1      18.008  28.704  -0.542  1.00  0.00    -0.191 N 
ATOM     10  H5  UNL     1      18.436  28.728  -1.467  1.00  0.00     0.184 HD
ENDROOT
BRANCH   9  11
HETATM   11  C8  UNL     1      18.522  27.788   0.438  1.00  0.00     0.050 A 
HETATM   12  C9  UNL     1      19.810  27.944   0.894  1.00  0.00     0.033 A 
HETATM   13  C10 UNL     1      20.367  27.084   1.849  1.00  0.00     0.045 A 
HETATM   14  C11 UNL     1      19.593  26.053   2.339  1.00  0.00     0.131 A 
HETATM   15  F1  UNL     1      20.046  25.173   3.263  1.00  0.00    -0.205 F 
HETATM   16  C12 UNL     1      18.305  25.910   1.871  1.00  0.00     0.088 A 
HETATM   17  C14 UNL     1      17.754  26.757   0.931  1.00  0.00     0.049 A 
BRANCH  16  18
HETATM   18  C13 UNL     1      17.472  24.799   2.402  1.00  0.00     0.420 C 
HETATM   19  F2  UNL     1      16.303  24.800   1.630  1.00  0.00    -0.166 F 
HETATM   20  F3  UNL     1      17.067  25.037   3.695  1.00  0.00    -0.166 F 
HETATM   21  F4  UNL     1      18.065  23.577   2.240  1.00  0.00    -0.166 F 
ENDBRANCH  16  18
ENDBRANCH   9  11
BRANCH   7  22
HETATM   22  C2  UNL     1      14.176  29.957  -2.611  1.00  0.00     0.051 A 
HETATM   23  C3  UNL     1      14.165  30.436  -3.913  1.00  0.00     0.031 A 
HETATM   24  C4  UNL     1      13.043  30.396  -4.713  1.00  0.00     0.005 A 
HETATM   25  C5  UNL     1      11.886  29.846  -4.168  1.00  0.00     0.036 A 
HETATM   26  C6  UNL     1      11.859  29.361  -2.881  1.00  0.00     0.105 A 
HETATM   27  C7  UNL     1      12.996  29.417  -2.108  1.00  0.00     0.067 A 
BRANCH  26  28
HETATM   28  N4  UNL     1      10.686  28.802  -2.323  1.00  0.00    -0.116 N 
HETATM   29  O1  UNL     1       9.567  29.040  -2.810  1.00  0.00    -0.532 OA
HETATM   30  O2  UNL     1      10.786  27.991  -1.233  1.00  0.00    -0.532 OA
ENDBRANCH  26  28
ENDBRANCH   7  22
TORSDOF 4
ENDMDL
MODEL 3
REMARK VINA RESULT: -9.793791570      1.678      2.884
REMARK  4 active torsions:
REMARK  status: ('A' for Active; 'I' for Inactive)
REMARK       I    between atoms: C1_4  and  N2_5 
REMARK       I    between atoms: C1_4  and  N5_18 
REMARK    1  A    between atoms: N3_7  and  C2_9 
REMARK    2  A    between atoms: C6_13  and  N4_14 
REMARK    3  A    between atoms: N5_18  and  C8_20 
REMARK    4  A    between atoms: C12_25  and  C13_26 
ROOT
HETATM    1  N1  UNL     1      16.693  30.429   0.377  1.00  0.00    -0.233 N 
ATOM      2  H11 UNL     1      17.636  30.614   0.719  1.00  0.00     0.174 HD
ATOM      3  H12 UNL     1      15.937  31.072   0.615  1.00  0.00     0.174 HD
HETATM    4  C1  UNL     1      16.458  29.404  -0.341  1.00  0.00     0.691 C 
HETATM    5  N2  UNL     1      15.156  29.148  -0.812  1.00  0.00    -0.132 N 
ATOM      6  H2  UNL     1      14.562  28.462  -0.348  1.00  0.00     0.205 HD
HETATM    7  N3  UNL     1      14.741  29.780  -1.811  1.00  0.00    -0.287 N 
ATOM      8  H3  UNL     1      15.383  30.453  -2.230  1.00  0.00     0.187 HD
HETATM    9  N5  UNL     1      17.504  28.514  -0.670  1.00  0.00    -0.191 N 
ATOM     10  H5  UNL     1      17.834  28.475  -1.635  1.00  0.00     0.184 HD
ENDROOT
BRANCH   9  11
HETATM   11  C8  UNL     1      18.118  27.662   0.309  1.00  0.00     0.050 A 
HETATM   12  C9  UNL     1      19.418  27.898   0.687  1.00  0.00     0.033 A 
HETATM   13  C10 UNL     1      20.070  27.103   1.637  1.00  0.00     0.045 A 
HETATM   14  C11 UNL     1      19.380  26.053   2.205  1.00  0.00     0.131 A 
HETATM   15  F1  UNL     1      19.927  25.232   3.131  1.00  0.00    -0.205 F 
HETATM   16  C12 UNL     1      18.076  25.829   1.816  1.00  0.00     0.088 A 
HETATM   17  C14 UNL     1      17.432  26.613   0.880  1.00  0.00     0.049 A 
BRANCH  16  18
HETATM   18  C13 UNL     1      17.333  24.699   2.430  1.00  0.00     0.420 C 
HETATM   19  F2  UNL     1      16.110  24.635   1.750  1.00  0.00    -0.166 F 
HETATM   20  F3  UNL     1      17.017  24.950   3.746  1.00  0.00    -0.166 F 
HETATM   21  F4  UNL     1      17.962  23.498   2.249  1.00  0.00    -0.166 F 
ENDBRANCH  16  18
ENDBRANCH   9  11
BRANCH   7  22
HETATM   22  C2  UNL     1      13.477  29.650  -2.410  1.00  0.00     0.051 A 
HETATM   23  C3  UNL     1      12.456  29.061  -1.678  1.00  0.00     0.031 A 
HETATM   24  C4  UNL     1      11.183  28.888  -2.178  1.00  0.00     0.005 A 
HETATM   25  C5  UNL     1      10.937  29.332  -3.474  1.00  0.00     0.036 A 
HETATM   26  C6  UNL     1      11.924  29.922  -4.230  1.00  0.00     0.105 A 
HETATM   27  C7  UNL     1      13.185  30.079  -3.702  1.00  0.00     0.067 A 
BRANCH  26  28
HETATM   28  N4  UNL     1      11.678  30.374  -5.547  1.00  0.00    -0.116 N 
HETATM   29  O1  UNL     1      12.574  30.362  -6.407  1.00  0.00    -0.532 OA
HETATM   30  O2  UNL     1      10.436  30.829  -5.876  1.00  0.00    -0.532 OA
ENDBRANCH  26  28
ENDBRANCH   7  22
TORSDOF 4
ENDMDL
MODEL 4
REMARK VINA RESULT: -9.741499119      1.381      1.817
REMARK  4 active torsions:
REMARK  status: ('A' for Active; 'I' for Inactive)
REMARK       I    between atoms: C1_4  and  N2_5 
REMARK       I    between atoms: C1_4  and  N5_18 
REMARK    1  A    between atoms: N3_7  and  C2_9 
REMARK    2  A    between atoms: C6_13  and  N4_14 
REMARK    3  A    between atoms: N5_18  and  C8_20 
REMARK    4  A    between atoms: C12_25  and  C13_26 
ROOT
HETATM    1  N1  UNL     1      15.826  30.186   0.325  1.00  0.00    -0.233 N 
ATOM      2  H11 UNL     1      16.759  30.356   0.702  1.00  0.00     0.174 HD
ATOM      3  H12 UNL     1      15.055  30.794   0.600  1.00  0.00     0.174 HD
HETATM    4  C1  UNL     1      15.625  29.224  -0.484  1.00  0.00     0.691 C 
HETATM    5  N2  UNL     1      14.338  28.989  -1.005  1.00  0.00    -0.132 N 
ATOM      6  H2  UNL     1      13.746  28.256  -0.615  1.00  0.00     0.205 HD
HETATM    7  N3  UNL     1      13.932  29.698  -1.955  1.00  0.00    -0.287 N 
ATOM      8  H3  UNL     1      14.571  30.415  -2.300  1.00  0.00     0.187 HD
HETATM    9  N5  UNL     1      16.693  28.382  -0.866  1.00  0.00    -0.191 N 
ATOM     10  H5  UNL     1      17.043  28.432  -1.822  1.00  0.00     0.184 HD
ENDROOT
BRANCH   9  11
HETATM   11  C8  UNL     1      17.301  27.458   0.050  1.00  0.00     0.050 A 
HETATM   12  C9  UNL     1      16.667  26.270   0.327  1.00  0.00     0.033 A 
HETATM   13  C10 UNL     1      17.210  25.329   1.210  1.00  0.00     0.045 A 
HETATM   14  C11 UNL     1      18.417  25.611   1.815  1.00  0.00     0.131 A 
HETATM   15  F1  UNL     1      19.017  24.762   2.682  1.00  0.00    -0.205 F 
HETATM   16  C12 UNL     1      19.040  26.806   1.526  1.00  0.00     0.088 A 
HETATM   17  C14 UNL     1      18.506  27.734   0.656  1.00  0.00     0.049 A 
BRANCH  16  18
HETATM   18  C13 UNL     1      20.341  27.107   2.178  1.00  0.00     0.420 C 
HETATM   19  F2  UNL     1      20.699  28.388   1.735  1.00  0.00    -0.166 F 
HETATM   20  F3  UNL     1      21.338  26.267   1.739  1.00  0.00    -0.166 F 
HETATM   21  F4  UNL     1      20.244  27.161   3.541  1.00  0.00    -0.166 F 
ENDBRANCH  16  18
ENDBRANCH   9  11
BRANCH   7  22
HETATM   22  C2  UNL     1      12.683  29.602  -2.591  1.00  0.00     0.051 A 
HETATM   23  C3  UNL     1      11.678  28.878  -1.966  1.00  0.00     0.031 A 
HETATM   24  C4  UNL     1      10.421  28.724  -2.510  1.00  0.00     0.005 A 
HETATM   25  C5  UNL     1      10.175  29.331  -3.738  1.00  0.00     0.036 A 
HETATM   26  C6  UNL     1      11.146  30.056  -4.387  1.00  0.00     0.105 A 
HETATM   27  C7  UNL     1      12.392  30.190  -3.818  1.00  0.00     0.067 A 
BRANCH  26  28
HETATM   28  N4  UNL     1      10.901  30.673  -5.636  1.00  0.00    -0.116 N 
HETATM   29  O1  UNL     1       9.748  30.982  -5.984  1.00  0.00    -0.532 OA
HETATM   30  O2  UNL     1      11.947  30.932  -6.470  1.00  0.00    -0.532 OA
ENDBRANCH  26  28
ENDBRANCH   7  22
TORSDOF 4
ENDMDL
MODEL 5
REMARK VINA RESULT: -9.695839193      6.068      7.260
REMARK  4 active torsions:
REMARK  status: ('A' for Active; 'I' for Inactive)
REMARK       I    between atoms: C1_4  and  N2_5 
REMARK       I    between atoms: C1_4  and  N5_18 
REMARK    1  A    between atoms: N3_7  and  C2_9 
REMARK    2  A    between atoms: C6_13  and  N4_14 
REMARK    3  A    between atoms: N5_18  and  C8_20 
REMARK    4  A    between atoms: C12_25  and  C13_26 
ROOT
HETATM    1  N1  UNL     1      17.550  30.591   0.228  1.00  0.00    -0.233 N 
ATOM      2  H11 UNL     1      17.146  30.323   1.126  1.00  0.00     0.174 HD
ATOM      3  H12 UNL     1      17.026  31.204  -0.396  1.00  0.00     0.174 HD
HETATM    4  C1  UNL     1      18.700  30.164  -0.112  1.00  0.00     0.691 C 
HETATM    5  N2  UNL     1      19.258  30.533  -1.351  1.00  0.00    -0.132 N 
ATOM      6  H2  UNL     1      19.230  29.893  -2.145  1.00  0.00     0.205 HD
HETATM    7  N3  UNL     1      19.790  31.661  -1.461  1.00  0.00    -0.287 N 
ATOM      8  H3  UNL     1      19.787  32.255  -0.632  1.00  0.00     0.187 HD
HETATM    9  N5  UNL     1      19.426  29.315   0.752  1.00  0.00    -0.191 N 
ATOM     10  H5  UNL     1      20.264  29.675   1.209  1.00  0.00     0.184 HD
ENDROOT
BRANCH   9  11
HETATM   11  C8  UNL     1      19.022  27.961   1.008  1.00  0.00     0.050 A 
HETATM   12  C9  UNL     1      19.865  27.128   1.706  1.00  0.00     0.033 A 
HETATM   13  C10 UNL     1      19.527  25.799   1.987  1.00  0.00     0.045 A 
HETATM   14  C11 UNL     1      18.311  25.320   1.547  1.00  0.00     0.131 A 
HETATM   15  F1  UNL     1      17.899  24.050   1.772  1.00  0.00    -0.205 F 
HETATM   16  C12 UNL     1      17.477  26.167   0.850  1.00  0.00     0.088 A 
HETATM   17  C14 UNL     1      17.809  27.478   0.572  1.00  0.00     0.049 A 
BRANCH  16  18
HETATM   18  C13 UNL     1      16.167  25.650   0.377  1.00  0.00     0.420 C 
HETATM   19  F2  UNL     1      15.518  26.743  -0.212  1.00  0.00    -0.166 F 
HETATM   20  F3  UNL     1      15.365  25.259   1.426  1.00  0.00    -0.166 F 
HETATM   21  F4  UNL     1      16.299  24.688  -0.585  1.00  0.00    -0.166 F 
ENDBRANCH  16  18
ENDBRANCH   9  11
BRANCH   7  22
HETATM   22  C2  UNL     1      20.392  32.188  -2.617  1.00  0.00     0.051 A 
HETATM   23  C3  UNL     1      20.792  31.309  -3.612  1.00  0.00     0.031 A 
HETATM   24  C4  UNL     1      21.392  31.728  -4.781  1.00  0.00     0.005 A 
HETATM   25  C5  UNL     1      21.591  33.096  -4.945  1.00  0.00     0.036 A 
HETATM   26  C6  UNL     1      21.207  33.997  -3.980  1.00  0.00     0.105 A 
HETATM   27  C7  UNL     1      20.612  33.547  -2.824  1.00  0.00     0.067 A 
BRANCH  26  28
HETATM   28  N4  UNL     1      21.409  35.388  -4.142  1.00  0.00    -0.116 N 
HETATM   29  O1  UNL     1      21.433  35.905  -5.272  1.00  0.00    -0.532 OA
HETATM   30  O2  UNL     1      21.580  36.170  -3.040  1.00  0.00    -0.532 OA
ENDBRANCH  26  28
ENDBRANCH   7  22
TORSDOF 4
ENDMDL
