MODEL 1
REMARK VINA RESULT: -7.426997773      0.000      0.000
REMARK  5 active torsions:
REMARK  status: ('A' for Active; 'I' for Inactive)
REMARK    1  A    between atoms: C4_6  and  N1_7 
REMARK    2  A    between atoms: N1_7  and  C5_9 
REMARK    3  A    between atoms: C5_9  and  C7_11 
REMARK    4  A    between atoms: C5_9  and  C13_17 
REMARK    5  A    between atoms: C14_21  and  O1_22 
ROOT
HETATM    1  C5  UNL     1      15.771  29.369  -0.577  1.00  0.00     0.129 C 
HETATM    2  C6  UNL     1      16.462  30.216   0.444  1.00  0.00     0.048 C 
ENDROOT
BRANCH   1   3
HETATM    3  N1  UNL     1      16.460  28.115  -0.828  1.00  0.00    -0.365 N 
ATOM      4  H1  UNL     1      16.255  27.590  -1.679  1.00  0.00     0.161 HD
BRANCH   3   5
HETATM    5  C4  UNL     1      17.431  27.599   0.108  1.00  0.00     0.106 A 
HETATM    6  S1  UNL     1      18.929  28.267   0.575  1.00  0.00    -0.057 SA
HETATM    7  C3  UNL     1      19.432  27.073   1.680  1.00  0.00     0.085 A 
HETATM    8  C2  UNL     1      18.403  26.177   1.653  1.00  0.00     0.003 A 
HETATM    9 CL1  UNL     1      20.923  26.995   2.641  1.00  0.00    -0.076 Cl
HETATM   10  C1  UNL     1      18.471  24.936   2.525  1.00  0.00     0.054 C 
HETATM   11  C14 UNL     1      17.369  26.444   0.844  1.00  0.00     0.107 A 
BRANCH  11  12
HETATM   12  O1  UNL     1      16.234  25.594   0.720  1.00  0.00    -0.357 OA
ATOM     13  H1  UNL     1      15.480  25.806   0.181  1.00  0.00     0.217 HD
ENDBRANCH  11  12
ENDBRANCH   3   5
ENDBRANCH   1   3
BRANCH   1  14
HETATM   14  C7  UNL     1      14.296  29.248  -0.472  1.00  0.00     0.022 C 
HETATM   15  C8  UNL     1      13.779  27.858  -0.164  1.00  0.00     0.007 C 
HETATM   16  C9  UNL     1      12.267  27.891  -0.455  1.00  0.00     0.000 C 
HETATM   17  C10 UNL     1      11.554  28.929   0.349  1.00  0.00     0.000 C 
HETATM   18  C11 UNL     1      12.538  29.510   1.326  1.00  0.00     0.000 C 
HETATM   19  C12 UNL     1      13.717  30.150   0.611  1.00  0.00     0.007 C 
ENDBRANCH   1  14
BRANCH   1  20
HETATM   20  C13 UNL     1      16.019  30.154  -1.915  1.00  0.00     0.412 C 
HETATM   21  F1  UNL     1      14.920  29.931  -2.745  1.00  0.00    -0.168 F 
HETATM   22  F2  UNL     1      16.288  31.455  -1.679  1.00  0.00    -0.168 F 
HETATM   23  F3  UNL     1      17.073  29.544  -2.540  1.00  0.00    -0.168 F 
ENDBRANCH   1  20
TORSDOF 5
ENDMDL
MODEL 2
REMARK VINA RESULT: -7.304740330      2.757      3.473
REMARK  5 active torsions:
REMARK  status: ('A' for Active; 'I' for Inactive)
REMARK    1  A    between atoms: C4_6  and  N1_7 
REMARK    2  A    between atoms: N1_7  and  C5_9 
REMARK    3  A    between atoms: C5_9  and  C7_11 
REMARK    4  A    between atoms: C5_9  and  C13_17 
REMARK    5  A    between atoms: C14_21  and  O1_22 
ROOT
HETATM    1  C5  UNL     1      17.313  30.843  -0.331  1.00  0.00     0.129 C 
HETATM    2  C6  UNL     1      16.715  30.777   1.038  1.00  0.00     0.048 C 
ENDROOT
BRANCH   1   3
HETATM    3  N1  UNL     1      18.394  29.890  -0.519  1.00  0.00    -0.365 N 
ATOM      4  H1  UNL     1      19.180  30.135  -1.121  1.00  0.00     0.161 HD
BRANCH   3   5
HETATM    5  C4  UNL     1      18.374  28.603   0.135  1.00  0.00     0.106 A 
HETATM    6  S1  UNL     1      17.226  27.350  -0.002  1.00  0.00    -0.057 SA
HETATM    7  C3  UNL     1      17.924  26.218   1.060  1.00  0.00     0.085 A 
HETATM    8  C2  UNL     1      19.047  26.859   1.497  1.00  0.00     0.003 A 
HETATM    9 CL1  UNL     1      17.348  24.598   1.505  1.00  0.00    -0.076 Cl
HETATM   10  C1  UNL     1      19.966  26.163   2.485  1.00  0.00     0.054 C 
HETATM   11  C14 UNL     1      19.283  28.089   1.022  1.00  0.00     0.107 A 
BRANCH  11  12
HETATM   12  O1  UNL     1      20.416  28.866   1.395  1.00  0.00    -0.357 OA
ATOM     13  H1  UNL     1      20.439  29.814   1.341  1.00  0.00     0.217 HD
ENDBRANCH  11  12
ENDBRANCH   3   5
ENDBRANCH   1   3
BRANCH   1  14
HETATM   14  C7  UNL     1      16.376  30.941  -1.476  1.00  0.00     0.022 C 
HETATM   15  C8  UNL     1      16.743  30.109  -2.688  1.00  0.00     0.007 C 
HETATM   16  C9  UNL     1      15.867  30.629  -3.844  1.00  0.00     0.000 C 
HETATM   17  C10 UNL     1      14.407  30.536  -3.539  1.00  0.00     0.000 C 
HETATM   18  C11 UNL     1      14.255  29.795  -2.240  1.00  0.00     0.000 C 
HETATM   19  C12 UNL     1      14.960  30.519  -1.104  1.00  0.00     0.007 C 
ENDBRANCH   1  14
BRANCH   1  20
HETATM   20  C13 UNL     1      18.081  32.213  -0.317  1.00  0.00     0.412 C 
HETATM   21  F1  UNL     1      17.723  32.886   0.852  1.00  0.00    -0.168 F 
HETATM   22  F2  UNL     1      19.409  32.033  -0.476  1.00  0.00    -0.168 F 
HETATM   23  F3  UNL     1      17.565  32.964  -1.339  1.00  0.00    -0.168 F 
ENDBRANCH   1  20
TORSDOF 5
ENDMDL
MODEL 3
REMARK VINA RESULT: -7.290114993      3.615      5.748
REMARK  5 active torsions:
REMARK  status: ('A' for Active; 'I' for Inactive)
REMARK    1  A    between atoms: C4_6  and  N1_7 
REMARK    2  A    between atoms: N1_7  and  C5_9 
REMARK    3  A    between atoms: C5_9  and  C7_11 
REMARK    4  A    between atoms: C5_9  and  C13_17 
REMARK    5  A    between atoms: C14_21  and  O1_22 
ROOT
HETATM    1  C5  UNL     1      17.154  29.123  -0.430  1.00  0.00     0.129 C 
HETATM    2  C6  UNL     1      15.735  29.329  -0.855  1.00  0.00     0.048 C 
ENDROOT
BRANCH   1   3
HETATM    3  N1  UNL     1      17.602  30.114   0.534  1.00  0.00    -0.365 N 
ATOM      4  H1  UNL     1      18.455  29.945   1.069  1.00  0.00     0.161 HD
BRANCH   3   5
HETATM    5  C4  UNL     1      16.861  31.334   0.746  1.00  0.00     0.106 A 
HETATM    6  S1  UNL     1      15.412  31.571   1.615  1.00  0.00    -0.057 SA
HETATM    7  C3  UNL     1      15.222  33.246   1.384  1.00  0.00     0.085 A 
HETATM    8  C2  UNL     1      16.308  33.577   0.626  1.00  0.00     0.003 A 
HETATM    9 CL1  UNL     1      13.935  34.318   1.974  1.00  0.00    -0.076 Cl
HETATM   10  C1  UNL     1      16.507  35.020   0.198  1.00  0.00     0.054 C 
HETATM   11  C14 UNL     1      17.156  32.594   0.295  1.00  0.00     0.107 A 
BRANCH  11  12
HETATM   12  O1  UNL     1      18.325  32.802  -0.489  1.00  0.00    -0.357 OA
ATOM     13  H1  UNL     1      19.131  33.163  -0.139  1.00  0.00     0.217 HD
ENDBRANCH  11  12
ENDBRANCH   3   5
ENDBRANCH   1   3
BRANCH   1  14
HETATM   14  C7  UNL     1      17.576  27.734  -0.124  1.00  0.00     0.022 C 
HETATM   15  C8  UNL     1      18.448  27.577   1.105  1.00  0.00     0.007 C 
HETATM   16  C9  UNL     1      19.047  26.160   1.024  1.00  0.00     0.000 C 
HETATM   17  C10 UNL     1      17.997  25.100   0.960  1.00  0.00     0.000 C 
HETATM   18  C11 UNL     1      16.662  25.761   1.166  1.00  0.00     0.000 C 
HETATM   19  C12 UNL     1      16.390  26.803   0.093  1.00  0.00     0.007 C 
ENDBRANCH   1  14
BRANCH   1  20
HETATM   20  C13 UNL     1      17.969  29.521  -1.713  1.00  0.00     0.412 C 
HETATM   21  F1  UNL     1      17.186  30.407  -2.453  1.00  0.00    -0.168 F 
HETATM   22  F2  UNL     1      19.194  29.989  -1.391  1.00  0.00    -0.168 F 
HETATM   23  F3  UNL     1      18.065  28.394  -2.484  1.00  0.00    -0.168 F 
ENDBRANCH   1  20
TORSDOF 5
ENDMDL
MODEL 4
REMARK VINA RESULT: -7.283632931      5.295      7.034
REMARK  5 active torsions:
REMARK  status: ('A' for Active; 'I' for Inactive)
REMARK    1  A    between atoms: C4_6  and  N1_7 
REMARK    2  A    between atoms: N1_7  and  C5_9 
REMARK    3  A    between atoms: C5_9  and  C7_11 
REMARK    4  A    between atoms: C5_9  and  C13_17 
REMARK    5  A    between atoms: C14_21  and  O1_22 
ROOT
HETATM    1  C5  UNL     1      18.836  30.606  -3.388  1.00  0.00     0.129 C 
HETATM    2  C6  UNL     1      17.948  31.514  -4.175  1.00  0.00     0.048 C 
ENDROOT
BRANCH   1   3
HETATM    3  N1  UNL     1      19.981  31.294  -2.815  1.00  0.00    -0.365 N 
ATOM      4  H1  UNL     1      20.634  30.778  -2.225  1.00  0.00     0.161 HD
BRANCH   3   5
HETATM    5  C4  UNL     1      20.209  32.697  -3.070  1.00  0.00     0.106 A 
HETATM    6  S1  UNL     1      21.263  33.425  -4.195  1.00  0.00    -0.057 SA
HETATM    7  C3  UNL     1      20.935  35.061  -3.863  1.00  0.00     0.085 A 
HETATM    8  C2  UNL     1      20.000  34.992  -2.871  1.00  0.00     0.003 A 
HETATM    9 CL1  UNL     1      21.627  36.516  -4.612  1.00  0.00    -0.076 Cl
HETATM   10  C1  UNL     1      19.436  36.275  -2.286  1.00  0.00     0.054 C 
HETATM   11  C14 UNL     1      19.622  33.775  -2.459  1.00  0.00     0.107 A 
BRANCH  11  12
HETATM   12  O1  UNL     1      18.658  33.561  -1.434  1.00  0.00    -0.357 OA
ATOM     13  H1  UNL     1      18.260  34.267  -0.937  1.00  0.00     0.217 HD
ENDBRANCH  11  12
ENDBRANCH   3   5
ENDBRANCH   1   3
BRANCH   1  14
HETATM   14  C7  UNL     1      18.179  29.643  -2.470  1.00  0.00     0.022 C 
HETATM   15  C8  UNL     1      18.733  29.606  -1.061  1.00  0.00     0.007 C 
HETATM   16  C9  UNL     1      18.170  28.326  -0.414  1.00  0.00     0.000 C 
HETATM   17  C10 UNL     1      16.677  28.296  -0.415  1.00  0.00     0.000 C 
HETATM   18  C11 UNL     1      16.190  29.631  -0.909  1.00  0.00     0.000 C 
HETATM   19  C12 UNL     1      16.687  29.914  -2.317  1.00  0.00     0.007 C 
ENDBRANCH   1  14
BRANCH   1  20
HETATM   20  C13 UNL     1      19.507  29.717  -4.496  1.00  0.00     0.412 C 
HETATM   21  F1  UNL     1      19.397  30.399  -5.708  1.00  0.00    -0.168 F 
HETATM   22  F2  UNL     1      20.769  29.378  -4.156  1.00  0.00    -0.168 F 
HETATM   23  F3  UNL     1      18.723  28.603  -4.635  1.00  0.00    -0.168 F 
ENDBRANCH   1  20
TORSDOF 5
ENDMDL
MODEL 5
REMARK VINA RESULT: -7.255333934      5.048      6.739
REMARK  5 active torsions:
REMARK  status: ('A' for Active; 'I' for Inactive)
REMARK    1  A    between atoms: C4_6  and  N1_7 
REMARK    2  A    between atoms: N1_7  and  C5_9 
REMARK    3  A    between atoms: C5_9  and  C7_11 
REMARK    4  A    between atoms: C5_9  and  C13_17 
REMARK    5  A    between atoms: C14_21  and  O1_22 
ROOT
HETATM    1  C5  UNL     1      12.954  30.249   0.282  1.00  0.00     0.129 C 
HETATM    2  C6  UNL     1      11.853  31.174  -0.129  1.00  0.00     0.048 C 
ENDROOT
BRANCH   1   3
HETATM    3  N1  UNL     1      13.420  29.410  -0.810  1.00  0.00    -0.365 N 
ATOM      4  H1  UNL     1      14.131  28.700  -0.629  1.00  0.00     0.161 HD
BRANCH   3   5
HETATM    5  C4  UNL     1      12.894  29.565  -2.145  1.00  0.00     0.106 A 
HETATM    6  S1  UNL     1      13.550  30.427  -3.462  1.00  0.00    -0.057 SA
HETATM    7  C3  UNL     1      12.349  30.112  -4.625  1.00  0.00     0.085 A 
HETATM    8  C2  UNL     1      11.459  29.333  -3.944  1.00  0.00     0.003 A 
HETATM    9 CL1  UNL     1      12.257  30.653  -6.314  1.00  0.00    -0.076 Cl
HETATM   10  C1  UNL     1      10.214  28.829  -4.652  1.00  0.00     0.054 C 
HETATM   11  C14 UNL     1      11.736  29.048  -2.665  1.00  0.00     0.107 A 
BRANCH  11  12
HETATM   12  O1  UNL     1      10.894  28.248  -1.842  1.00  0.00    -0.357 OA
ATOM     13  H1  UNL     1      10.897  27.298  -1.860  1.00  0.00     0.217 HD
ENDBRANCH  11  12
ENDBRANCH   3   5
ENDBRANCH   1   3
BRANCH   1  14
HETATM   14  C7  UNL     1      14.035  30.814   1.126  1.00  0.00     0.022 C 
HETATM   15  C8  UNL     1      15.344  31.080   0.413  1.00  0.00     0.007 C 
HETATM   16  C9  UNL     1      16.393  31.308   1.518  1.00  0.00     0.000 C 
HETATM   17  C10 UNL     1      16.028  32.435   2.427  1.00  0.00     0.000 C 
HETATM   18  C11 UNL     1      14.808  33.106   1.860  1.00  0.00     0.000 C 
HETATM   19  C12 UNL     1      13.639  32.140   1.764  1.00  0.00     0.007 C 
ENDBRANCH   1  14
BRANCH   1  20
HETATM   20  C13 UNL     1      12.219  29.211   1.204  1.00  0.00     0.412 C 
HETATM   21  F1  UNL     1      10.866  29.228   0.865  1.00  0.00    -0.168 F 
HETATM   22  F2  UNL     1      12.800  27.994   1.132  1.00  0.00    -0.168 F 
HETATM   23  F3  UNL     1      12.279  29.705   2.479  1.00  0.00    -0.168 F 
ENDBRANCH   1  20
TORSDOF 5
ENDMDL
