MODEL 1
REMARK VINA RESULT: -8.700047630      0.000      0.000
REMARK  3 active torsions:
REMARK  status: ('A' for Active; 'I' for Inactive)
REMARK    1  A    between atoms: C6_9  and  N2_10 
REMARK    2  A    between atoms: C13_18  and  O1_19 
REMARK    3  A    between atoms: O1_19  and  C14_20 
ROOT
HETATM    1  C1  UNL     1      13.664  33.133  -0.855  1.00  0.00     0.032 C 
HETATM    2  C2  UNL     1      14.600  32.005  -0.485  1.00  0.00     0.080 C 
HETATM    3  C3  UNL     1      15.501  32.510   0.611  1.00  0.00     0.066 C 
HETATM    4  C4  UNL     1      15.946  31.351   1.505  1.00  0.00     0.181 C 
HETATM    5 CL1  UNL     1      16.323  32.025   3.093  1.00  0.00    -0.102 Cl
HETATM    6  N1  UNL     1      17.086  30.701   0.900  1.00  0.00    -0.369 N 
ATOM      7  H1  UNL     1      17.856  30.474   1.529  1.00  0.00     0.161 HD
HETATM    8  C5  UNL     1      17.267  30.341  -0.457  1.00  0.00     0.083 A 
HETATM    9  C6  UNL     1      18.370  29.531  -0.581  1.00  0.00     0.064 A 
HETATM   10  C12 UNL     1      18.716  29.072  -1.829  1.00  0.00     0.069 A 
HETATM   11  C13 UNL     1      17.976  29.409  -2.961  1.00  0.00     0.082 A 
HETATM   12  C15 UNL     1      16.871  30.222  -2.818  1.00  0.00     0.068 A 
HETATM   13  C16 UNL     1      16.497  30.702  -1.566  1.00  0.00     0.060 A 
HETATM   14  N3  UNL     1      15.335  31.519  -1.636  1.00  0.00    -0.384 N 
ATOM     15  H3  UNL     1      14.995  31.782  -2.562  1.00  0.00     0.160 HD
ENDROOT
BRANCH   9  16
HETATM   16  N2  UNL     1      19.114  29.191   0.540  1.00  0.00    -0.361 N 
HETATM   17  C7  UNL     1      19.174  28.063   1.124  1.00  0.00    -0.013 C 
HETATM   18  C8  UNL     1      18.496  26.783   0.816  1.00  0.00     0.052 C 
HETATM   19  C11 UNL     1      20.037  27.852   2.341  1.00  0.00     0.052 C 
HETATM   20  C9  UNL     1      18.765  25.907   2.019  1.00  0.00     0.006 C 
HETATM   21  C10 UNL     1      20.104  26.375   2.557  1.00  0.00     0.006 C 
ATOM     22  H2  UNL     1      19.682  29.935   0.945  1.00  0.00     0.165 HD
ENDBRANCH   9  16
BRANCH  11  23
HETATM   23  O1  UNL     1      18.338  28.936  -4.212  1.00  0.00    -0.255 OA
BRANCH  23  24
HETATM   24  C14 UNL     1      19.050  29.721  -5.151  1.00  0.00     0.530 C 
HETATM   25  F1  UNL     1      19.713  30.766  -4.568  1.00  0.00    -0.144 F 
HETATM   26  F2  UNL     1      19.894  28.867  -5.835  1.00  0.00    -0.144 F 
HETATM   27  F3  UNL     1      18.123  30.234  -6.041  1.00  0.00    -0.144 F 
ENDBRANCH  23  24
ENDBRANCH  11  23
TORSDOF 3
ENDMDL
MODEL 2
REMARK VINA RESULT: -8.696938352      4.618      6.730
REMARK  3 active torsions:
REMARK  status: ('A' for Active; 'I' for Inactive)
REMARK    1  A    between atoms: C6_9  and  N2_10 
REMARK    2  A    between atoms: C13_18  and  O1_19 
REMARK    3  A    between atoms: O1_19  and  C14_20 
ROOT
HETATM    1  C1  UNL     1      16.736  23.179   2.289  1.00  0.00     0.032 C 
HETATM    2  C2  UNL     1      16.967  24.377   1.398  1.00  0.00     0.080 C 
HETATM    3  C3  UNL     1      18.028  25.226   2.049  1.00  0.00     0.066 C 
HETATM    4  C4  UNL     1      18.812  25.999   0.988  1.00  0.00     0.181 C 
HETATM    5 CL1  UNL     1      20.409  26.341   1.658  1.00  0.00    -0.102 Cl
HETATM    6  N1  UNL     1      18.088  27.204   0.653  1.00  0.00    -0.369 N 
ATOM      7  H1  UNL     1      18.645  28.055   0.586  1.00  0.00     0.161 HD
HETATM    8  C5  UNL     1      16.701  27.350   0.408  1.00  0.00     0.083 A 
HETATM    9  C6  UNL     1      16.448  28.596  -0.112  1.00  0.00     0.064 A 
HETATM   10  C12 UNL     1      15.152  28.933  -0.419  1.00  0.00     0.069 A 
HETATM   11  C13 UNL     1      14.099  28.044  -0.214  1.00  0.00     0.082 A 
HETATM   12  C15 UNL     1      14.371  26.797   0.309  1.00  0.00     0.068 A 
HETATM   13  C16 UNL     1      15.674  26.427   0.629  1.00  0.00     0.060 A 
HETATM   14  N3  UNL     1      15.738  25.107   1.152  1.00  0.00    -0.384 N 
ATOM     15  H3  UNL     1      14.858  24.639   1.370  1.00  0.00     0.160 HD
ENDROOT
BRANCH   9  16
HETATM   16  N2  UNL     1      17.490  29.489  -0.319  1.00  0.00    -0.361 N 
HETATM   17  C7  UNL     1      18.131  29.704  -1.395  1.00  0.00    -0.013 C 
HETATM   18  C8  UNL     1      17.987  29.098  -2.738  1.00  0.00     0.052 C 
HETATM   19  C11 UNL     1      19.246  30.716  -1.458  1.00  0.00     0.052 C 
HETATM   20  C9  UNL     1      19.201  29.573  -3.506  1.00  0.00     0.006 C 
HETATM   21  C10 UNL     1      19.543  30.923  -2.907  1.00  0.00     0.006 C 
ATOM     22  H2  UNL     1      17.776  30.040   0.491  1.00  0.00     0.165 HD
ENDBRANCH   9  16
BRANCH  11  23
HETATM   23  O1  UNL     1      12.798  28.400  -0.530  1.00  0.00    -0.255 OA
BRANCH  23  24
HETATM   24  C14 UNL     1      11.864  28.831   0.442  1.00  0.00     0.530 C 
HETATM   25  F1  UNL     1      12.377  28.812   1.711  1.00  0.00    -0.144 F 
HETATM   26  F2  UNL     1      11.430  30.086   0.060  1.00  0.00    -0.144 F 
HETATM   27  F3  UNL     1      10.791  27.958   0.394  1.00  0.00    -0.144 F 
ENDBRANCH  23  24
ENDBRANCH  11  23
TORSDOF 3
ENDMDL
MODEL 3
REMARK VINA RESULT: -8.672332427      4.478      5.791
REMARK  3 active torsions:
REMARK  status: ('A' for Active; 'I' for Inactive)
REMARK    1  A    between atoms: C6_9  and  N2_10 
REMARK    2  A    between atoms: C13_18  and  O1_19 
REMARK    3  A    between atoms: O1_19  and  C14_20 
ROOT
HETATM    1  C1  UNL     1      11.297  28.240  -0.396  1.00  0.00     0.032 C 
HETATM    2  C2  UNL     1      12.714  28.662  -0.083  1.00  0.00     0.080 C 
HETATM    3  C3  UNL     1      13.174  29.560  -1.203  1.00  0.00     0.066 C 
HETATM    4  C4  UNL     1      14.213  30.558  -0.687  1.00  0.00     0.181 C 
HETATM    5 CL1  UNL     1      14.151  31.973  -1.741  1.00  0.00    -0.102 Cl
HETATM    6  N1  UNL     1      15.512  29.927  -0.690  1.00  0.00    -0.369 N 
ATOM      7  H1  UNL     1      16.280  30.489  -1.058  1.00  0.00     0.161 HD
HETATM    8  C5  UNL     1      15.854  28.628  -0.246  1.00  0.00     0.083 A 
HETATM    9  C6  UNL     1      17.220  28.498  -0.190  1.00  0.00     0.064 A 
HETATM   10  C12 UNL     1      17.754  27.300   0.221  1.00  0.00     0.069 A 
HETATM   11  C13 UNL     1      16.943  26.225   0.579  1.00  0.00     0.082 A 
HETATM   12  C15 UNL     1      15.573  26.372   0.518  1.00  0.00     0.068 A 
HETATM   13  C16 UNL     1      15.004  27.574   0.105  1.00  0.00     0.060 A 
HETATM   14  N3  UNL     1      13.583  27.519   0.112  1.00  0.00    -0.384 N 
ATOM     15  H3  UNL     1      13.145  26.610   0.266  1.00  0.00     0.160 HD
ENDROOT
BRANCH   9  16
HETATM   16  N2  UNL     1      18.037  29.563  -0.545  1.00  0.00    -0.361 N 
HETATM   17  C7  UNL     1      18.545  29.809  -1.683  1.00  0.00    -0.013 C 
HETATM   18  C8  UNL     1      18.441  29.073  -2.963  1.00  0.00     0.052 C 
HETATM   19  C11 UNL     1      19.418  31.017  -1.910  1.00  0.00     0.052 C 
HETATM   20  C9  UNL     1      19.476  29.716  -3.861  1.00  0.00     0.006 C 
HETATM   21  C10 UNL     1      19.568  31.154  -3.389  1.00  0.00     0.006 C 
ATOM     22  H2  UNL     1      18.255  30.228   0.197  1.00  0.00     0.165 HD
ENDBRANCH   9  16
BRANCH  11  23
HETATM   23  O1  UNL     1      17.498  25.024   0.992  1.00  0.00    -0.255 OA
BRANCH  23  24
HETATM   24  C14 UNL     1      17.809  24.749   2.346  1.00  0.00     0.530 C 
HETATM   25  F1  UNL     1      16.860  25.225   3.211  1.00  0.00    -0.144 F 
HETATM   26  F2  UNL     1      17.992  23.384   2.451  1.00  0.00    -0.144 F 
HETATM   27  F3  UNL     1      19.009  25.379   2.626  1.00  0.00    -0.144 F 
ENDBRANCH  23  24
ENDBRANCH  11  23
TORSDOF 3
ENDMDL
MODEL 4
REMARK VINA RESULT: -8.380581362      1.441      1.739
REMARK  3 active torsions:
REMARK  status: ('A' for Active; 'I' for Inactive)
REMARK    1  A    between atoms: C6_9  and  N2_10 
REMARK    2  A    between atoms: C13_18  and  O1_19 
REMARK    3  A    between atoms: O1_19  and  C14_20 
ROOT
HETATM    1  C1  UNL     1      14.089  34.772  -0.443  1.00  0.00     0.032 C 
HETATM    2  C2  UNL     1      14.892  33.492  -0.416  1.00  0.00     0.080 C 
HETATM    3  C3  UNL     1      15.693  33.489   0.860  1.00  0.00     0.066 C 
HETATM    4  C4  UNL     1      15.947  32.053   1.322  1.00  0.00     0.181 C 
HETATM    5 CL1  UNL     1      16.183  32.097   3.071  1.00  0.00    -0.102 Cl
HETATM    6  N1  UNL     1      17.100  31.532   0.625  1.00  0.00    -0.369 N 
ATOM      7  H1  UNL     1      17.773  31.021   1.196  1.00  0.00     0.161 HD
HETATM    8  C5  UNL     1      17.412  31.642  -0.751  1.00  0.00     0.083 A 
HETATM    9  C6  UNL     1      18.461  30.810  -1.059  1.00  0.00     0.064 A 
HETATM   10  C12 UNL     1      18.917  30.773  -2.355  1.00  0.00     0.069 A 
HETATM   11  C13 UNL     1      18.339  31.555  -3.354  1.00  0.00     0.082 A 
HETATM   12  C15 UNL     1      17.286  32.384  -3.028  1.00  0.00     0.068 A 
HETATM   13  C16 UNL     1      16.804  32.443  -1.723  1.00  0.00     0.060 A 
HETATM   14  N3  UNL     1      15.720  33.355  -1.598  1.00  0.00    -0.384 N 
ATOM     15  H3  UNL     1      15.510  33.954  -2.397  1.00  0.00     0.160 HD
ENDROOT
BRANCH   9  16
HETATM   16  N2  UNL     1      19.043  30.027  -0.072  1.00  0.00    -0.361 N 
HETATM   17  C7  UNL     1      18.757  28.830   0.243  1.00  0.00    -0.013 C 
HETATM   18  C8  UNL     1      17.747  27.903  -0.315  1.00  0.00     0.052 C 
HETATM   19  C11 UNL     1      19.487  28.112   1.349  1.00  0.00     0.052 C 
HETATM   20  C9  UNL     1      17.717  26.740   0.652  1.00  0.00     0.006 C 
HETATM   21  C10 UNL     1      19.118  26.670   1.228  1.00  0.00     0.006 C 
ATOM     22  H2  UNL     1      19.791  30.466   0.466  1.00  0.00     0.165 HD
ENDBRANCH   9  16
BRANCH  11  23
HETATM   23  O1  UNL     1      18.811  31.505  -4.656  1.00  0.00    -0.255 OA
BRANCH  23  24
HETATM   24  C14 UNL     1      18.282  30.622  -5.628  1.00  0.00     0.530 C 
HETATM   25  F1  UNL     1      17.078  30.087  -5.255  1.00  0.00    -0.144 F 
HETATM   26  F2  UNL     1      18.209  31.323  -6.817  1.00  0.00    -0.144 F 
HETATM   27  F3  UNL     1      19.189  29.588  -5.779  1.00  0.00    -0.144 F 
ENDBRANCH  23  24
ENDBRANCH  11  23
TORSDOF 3
ENDMDL
MODEL 5
REMARK VINA RESULT: -8.276192602      1.702      2.113
REMARK  3 active torsions:
REMARK  status: ('A' for Active; 'I' for Inactive)
REMARK    1  A    between atoms: C6_9  and  N2_10 
REMARK    2  A    between atoms: C13_18  and  O1_19 
REMARK    3  A    between atoms: O1_19  and  C14_20 
ROOT
HETATM    1  C1  UNL     1      16.723  35.005  -0.072  1.00  0.00     0.032 C 
HETATM    2  C2  UNL     1      16.415  33.579  -0.465  1.00  0.00     0.080 C 
HETATM    3  C3  UNL     1      16.129  32.815   0.802  1.00  0.00     0.066 C 
HETATM    4  C4  UNL     1      15.165  31.662   0.517  1.00  0.00     0.181 C 
HETATM    5 CL1  UNL     1      14.312  31.306   2.022  1.00  0.00    -0.102 Cl
HETATM    6  N1  UNL     1      15.917  30.529   0.032  1.00  0.00    -0.369 N 
ATOM      7  H1  UNL     1      15.670  29.624   0.432  1.00  0.00     0.161 HD
HETATM    8  C5  UNL     1      16.956  30.517  -0.930  1.00  0.00     0.083 A 
HETATM    9  C6  UNL     1      17.243  29.223  -1.291  1.00  0.00     0.064 A 
HETATM   10  C12 UNL     1      18.230  29.000  -2.220  1.00  0.00     0.069 A 
HETATM   11  C13 UNL     1      18.939  30.051  -2.799  1.00  0.00     0.082 A 
HETATM   12  C15 UNL     1      18.637  31.345  -2.426  1.00  0.00     0.068 A 
HETATM   13  C16 UNL     1      17.643  31.601  -1.486  1.00  0.00     0.060 A 
HETATM   14  N3  UNL     1      17.488  32.993  -1.243  1.00  0.00    -0.384 N 
ATOM     15  H3  UNL     1      18.182  33.624  -1.644  1.00  0.00     0.160 HD
ENDROOT
BRANCH   9  16
HETATM   16  N2  UNL     1      16.543  28.169  -0.720  1.00  0.00    -0.361 N 
HETATM   17  C7  UNL     1      16.984  27.281   0.076  1.00  0.00    -0.013 C 
HETATM   18  C8  UNL     1      18.338  27.081   0.639  1.00  0.00     0.052 C 
HETATM   19  C11 UNL     1      16.090  26.193   0.612  1.00  0.00     0.052 C 
HETATM   20  C9  UNL     1      18.285  25.716   1.291  1.00  0.00     0.006 C 
HETATM   21  C10 UNL     1      16.842  25.544   1.728  1.00  0.00     0.006 C 
ATOM     22  H2  UNL     1      15.556  28.098  -0.969  1.00  0.00     0.165 HD
ENDBRANCH   9  16
BRANCH  11  23
HETATM   23  O1  UNL     1      19.930  29.808  -3.736  1.00  0.00    -0.255 OA
BRANCH  23  24
HETATM   24  C14 UNL     1      19.661  29.673  -5.119  1.00  0.00     0.530 C 
HETATM   25  F1  UNL     1      19.092  30.795  -5.657  1.00  0.00    -0.144 F 
HETATM   26  F2  UNL     1      20.851  29.330  -5.732  1.00  0.00    -0.144 F 
HETATM   27  F3  UNL     1      18.771  28.622  -5.261  1.00  0.00    -0.144 F 
ENDBRANCH  23  24
ENDBRANCH  11  23
TORSDOF 3
ENDMDL
