MODEL 1
REMARK VINA RESULT: -8.806043322      0.000      0.000
REMARK  4 active torsions:
REMARK  status: ('A' for Active; 'I' for Inactive)
REMARK    1  A    between atoms: C6_6  and  N1_7 
REMARK    2  A    between atoms: N1_7  and  C7_9 
REMARK    3  A    between atoms: C13_16  and  C14_17 
REMARK    4  A    between atoms: C16_22  and  O1_23 
ROOT
HETATM    1  C1  UNL     1      14.114  27.645   0.119  1.00  0.00     0.015 C 
HETATM    2  C2  UNL     1      12.973  28.667  -0.002  1.00  0.00    -0.041 C 
HETATM    3  C3  UNL     1      12.605  29.018   1.446  1.00  0.00     0.015 C 
HETATM    4  C4  UNL     1      13.410  29.921  -0.676  1.00  0.00     0.050 C 
HETATM    5  C5  UNL     1      13.014  29.963  -2.152  1.00  0.00    -0.013 A 
HETATM    6  C6  UNL     1      13.793  30.477  -3.171  1.00  0.00     0.082 A 
HETATM    7  S1  UNL     1      12.830  30.248  -4.559  1.00  0.00    -0.067 SA
HETATM    8  C13 UNL     1      11.483  29.518  -3.837  1.00  0.00     0.100 A 
HETATM    9  C15 UNL     1      11.819  29.471  -2.521  1.00  0.00     0.002 A 
HETATM   10  C16 UNL     1      10.946  28.899  -1.417  1.00  0.00     0.154 C 
HETATM   11  C17 UNL     1      11.838  27.955  -0.647  1.00  0.00     0.045 C 
ENDROOT
BRANCH   6  12
HETATM   12  N1  UNL     1      15.096  31.078  -3.030  1.00  0.00    -0.350 N 
ATOM     13  H1  UNL     1      15.146  32.006  -2.609  1.00  0.00     0.166 HD
BRANCH  12  14
HETATM   14  C7  UNL     1      16.298  30.481  -3.426  1.00  0.00     0.032 A 
HETATM   15  C8  UNL     1      17.173  29.763  -2.658  1.00  0.00     0.029 A 
HETATM   16  C9  UNL     1      18.332  29.181  -3.151  1.00  0.00     0.002 A 
HETATM   17  C10 UNL     1      18.652  29.312  -4.482  1.00  0.00     0.000 A 
HETATM   18  C11 UNL     1      17.798  30.022  -5.271  1.00  0.00     0.002 A 
HETATM   19  C12 UNL     1      16.651  30.596  -4.777  1.00  0.00     0.029 A 
ENDBRANCH  12  14
ENDBRANCH   6  12
BRANCH   8  20
HETATM   20  C14 UNL     1      10.227  29.046  -4.519  1.00  0.00     0.424 C 
HETATM   21  F1  UNL     1       9.787  30.101  -5.295  1.00  0.00    -0.166 F 
HETATM   22  F2  UNL     1      10.561  27.944  -5.298  1.00  0.00    -0.166 F 
HETATM   23  F3  UNL     1       9.273  28.658  -3.624  1.00  0.00    -0.166 F 
ENDBRANCH   8  20
BRANCH  10  24
HETATM   24  O1  UNL     1      10.475  29.952  -0.680  1.00  0.00    -0.391 OA
ATOM     25  H1  UNL     1      11.204  30.295  -0.177  1.00  0.00     0.210 HD
ENDBRANCH  10  24
TORSDOF 4
ENDMDL
MODEL 2
REMARK VINA RESULT: -8.768390620      4.092      5.525
REMARK  4 active torsions:
REMARK  status: ('A' for Active; 'I' for Inactive)
REMARK    1  A    between atoms: C6_6  and  N1_7 
REMARK    2  A    between atoms: N1_7  and  C7_9 
REMARK    3  A    between atoms: C13_16  and  C14_17 
REMARK    4  A    between atoms: C16_22  and  O1_23 
ROOT
HETATM    1  C1  UNL     1      14.010  28.148   0.166  1.00  0.00     0.015 C 
HETATM    2  C2  UNL     1      14.399  29.584  -0.217  1.00  0.00    -0.041 C 
HETATM    3  C3  UNL     1      13.526  30.478   0.674  1.00  0.00     0.015 C 
HETATM    4  C4  UNL     1      15.823  29.883   0.098  1.00  0.00     0.050 C 
HETATM    5  C5  UNL     1      16.730  29.779  -1.129  1.00  0.00    -0.013 A 
HETATM    6  C6  UNL     1      18.012  29.264  -1.130  1.00  0.00     0.082 A 
HETATM    7  S1  UNL     1      18.499  29.418  -2.757  1.00  0.00    -0.067 SA
HETATM    8  C13 UNL     1      17.095  30.119  -3.395  1.00  0.00     0.100 A 
HETATM    9  C15 UNL     1      16.275  30.217  -2.314  1.00  0.00     0.002 A 
HETATM   10  C16 UNL     1      14.867  30.787  -2.338  1.00  0.00     0.154 C 
HETATM   11  C17 UNL     1      14.007  29.761  -1.639  1.00  0.00     0.045 C 
ENDROOT
BRANCH   6  12
HETATM   12  N1  UNL     1      18.728  28.754   0.013  1.00  0.00    -0.350 N 
ATOM     13  H1  UNL     1      19.483  29.326   0.392  1.00  0.00     0.166 HD
BRANCH  12  14
HETATM   14  C7  UNL     1      18.464  27.531   0.640  1.00  0.00     0.032 A 
HETATM   15  C8  UNL     1      17.418  26.679   0.413  1.00  0.00     0.029 A 
HETATM   16  C9  UNL     1      17.256  25.467   1.069  1.00  0.00     0.002 A 
HETATM   17  C10 UNL     1      18.180  25.066   2.006  1.00  0.00     0.000 A 
HETATM   18  C11 UNL     1      19.232  25.895   2.251  1.00  0.00     0.002 A 
HETATM   19  C12 UNL     1      19.387  27.095   1.599  1.00  0.00     0.029 A 
ENDBRANCH  12  14
ENDBRANCH   6  12
BRANCH   8  20
HETATM   20  C14 UNL     1      16.846  30.526  -4.821  1.00  0.00     0.424 C 
HETATM   21  F1  UNL     1      17.153  31.871  -4.900  1.00  0.00    -0.166 F 
HETATM   22  F2  UNL     1      17.685  29.764  -5.627  1.00  0.00    -0.166 F 
HETATM   23  F3  UNL     1      15.560  30.287  -5.206  1.00  0.00    -0.166 F 
ENDBRANCH   8  20
BRANCH  10  24
HETATM   24  O1  UNL     1      14.907  32.004  -1.712  1.00  0.00    -0.391 OA
ATOM     25  H1  UNL     1      14.147  32.058  -1.145  1.00  0.00     0.210 HD
ENDBRANCH  10  24
TORSDOF 4
ENDMDL
MODEL 3
REMARK VINA RESULT: -8.761748406      5.319      6.768
REMARK  4 active torsions:
REMARK  status: ('A' for Active; 'I' for Inactive)
REMARK    1  A    between atoms: C6_6  and  N1_7 
REMARK    2  A    between atoms: N1_7  and  C7_9 
REMARK    3  A    between atoms: C13_16  and  C14_17 
REMARK    4  A    between atoms: C16_22  and  O1_23 
ROOT
HETATM    1  C1  UNL     1      14.271  30.884   1.082  1.00  0.00     0.015 C 
HETATM    2  C2  UNL     1      15.673  31.512   1.052  1.00  0.00    -0.041 C 
HETATM    3  C3  UNL     1      15.775  32.310   2.359  1.00  0.00     0.015 C 
HETATM    4  C4  UNL     1      16.750  30.483   1.064  1.00  0.00     0.050 C 
HETATM    5  C5  UNL     1      17.320  30.214  -0.328  1.00  0.00    -0.013 A 
HETATM    6  C6  UNL     1      17.694  28.973  -0.810  1.00  0.00     0.082 A 
HETATM    7  S1  UNL     1      18.245  29.310  -2.387  1.00  0.00    -0.067 SA
HETATM    8  C13 UNL     1      17.997  30.986  -2.409  1.00  0.00     0.100 A 
HETATM    9  C15 UNL     1      17.487  31.243  -1.175  1.00  0.00     0.002 A 
HETATM   10  C16 UNL     1      17.082  32.617  -0.668  1.00  0.00     0.154 C 
HETATM   11  C17 UNL     1      15.692  32.444  -0.106  1.00  0.00     0.045 C 
ENDROOT
BRANCH   6  12
HETATM   12  N1  UNL     1      17.632  27.724  -0.091  1.00  0.00    -0.350 N 
ATOM     13  H1  UNL     1      16.861  27.093  -0.306  1.00  0.00     0.166 HD
BRANCH  12  14
HETATM   14  C7  UNL     1      18.553  27.316   0.879  1.00  0.00     0.032 A 
HETATM   15  C8  UNL     1      19.642  28.002   1.346  1.00  0.00     0.029 A 
HETATM   16  C9  UNL     1      20.485  27.523   2.338  1.00  0.00     0.002 A 
HETATM   17  C10 UNL     1      20.245  26.295   2.909  1.00  0.00     0.000 A 
HETATM   18  C11 UNL     1      19.168  25.592   2.464  1.00  0.00     0.002 A 
HETATM   19  C12 UNL     1      18.335  26.070   1.481  1.00  0.00     0.029 A 
ENDBRANCH  12  14
ENDBRANCH   6  12
BRANCH   8  20
HETATM   20  C14 UNL     1      18.285  31.936  -3.539  1.00  0.00     0.424 C 
HETATM   21  F1  UNL     1      18.832  31.176  -4.555  1.00  0.00    -0.166 F 
HETATM   22  F2  UNL     1      17.078  32.508  -3.925  1.00  0.00    -0.166 F 
HETATM   23  F3  UNL     1      19.127  32.941  -3.163  1.00  0.00    -0.166 F 
ENDBRANCH   8  20
BRANCH  10  24
HETATM   24  O1  UNL     1      18.016  33.004   0.255  1.00  0.00    -0.391 OA
ATOM     25  H1  UNL     1      18.869  32.752  -0.080  1.00  0.00     0.210 HD
ENDBRANCH  10  24
TORSDOF 4
ENDMDL
MODEL 4
REMARK VINA RESULT: -8.662907430      3.871      5.121
REMARK  4 active torsions:
REMARK  status: ('A' for Active; 'I' for Inactive)
REMARK    1  A    between atoms: C6_6  and  N1_7 
REMARK    2  A    between atoms: N1_7  and  C7_9 
REMARK    3  A    between atoms: C13_16  and  C14_17 
REMARK    4  A    between atoms: C16_22  and  O1_23 
ROOT
HETATM    1  C1  UNL     1      16.310  32.002   2.733  1.00  0.00     0.015 C 
HETATM    2  C2  UNL     1      15.397  32.230   1.518  1.00  0.00    -0.041 C 
HETATM    3  C3  UNL     1      15.635  33.692   1.116  1.00  0.00     0.015 C 
HETATM    4  C4  UNL     1      15.778  31.375   0.360  1.00  0.00     0.050 C 
HETATM    5  C5  UNL     1      14.897  30.132   0.234  1.00  0.00    -0.013 A 
HETATM    6  C6  UNL     1      15.340  28.876  -0.136  1.00  0.00     0.082 A 
HETATM    7  S1  UNL     1      13.923  27.929  -0.099  1.00  0.00    -0.067 SA
HETATM    8  C13 UNL     1      12.814  29.119   0.377  1.00  0.00     0.100 A 
HETATM    9  C15 UNL     1      13.583  30.234   0.495  1.00  0.00     0.002 A 
HETATM   10  C16 UNL     1      13.074  31.605   0.906  1.00  0.00     0.154 C 
HETATM   11  C17 UNL     1      14.002  32.067   2.003  1.00  0.00     0.045 C 
ENDROOT
BRANCH   6  12
HETATM   12  N1  UNL     1      16.692  28.516  -0.486  1.00  0.00    -0.350 N 
ATOM     13  H1  UNL     1      17.073  28.897  -1.352  1.00  0.00     0.166 HD
BRANCH  12  14
HETATM   14  C7  UNL     1      17.519  27.683   0.275  1.00  0.00     0.032 A 
HETATM   15  C8  UNL     1      17.302  26.378   0.625  1.00  0.00     0.029 A 
HETATM   16  C9  UNL     1      18.201  25.620   1.363  1.00  0.00     0.002 A 
HETATM   17  C10 UNL     1      19.386  26.178   1.782  1.00  0.00     0.000 A 
HETATM   18  C11 UNL     1      19.627  27.475   1.448  1.00  0.00     0.002 A 
HETATM   19  C12 UNL     1      18.734  28.222   0.717  1.00  0.00     0.029 A 
ENDBRANCH  12  14
ENDBRANCH   6  12
BRANCH   8  20
HETATM   20  C14 UNL     1      11.337  28.950   0.604  1.00  0.00     0.424 C 
HETATM   21  F1  UNL     1      11.137  29.074   1.965  1.00  0.00    -0.166 F 
HETATM   22  F2  UNL     1      10.686  29.957  -0.100  1.00  0.00    -0.166 F 
HETATM   23  F3  UNL     1      10.881  27.750   0.144  1.00  0.00    -0.166 F 
ENDBRANCH   8  20
BRANCH  10  24
HETATM   24  O1  UNL     1      13.087  32.398  -0.210  1.00  0.00    -0.391 OA
ATOM     25  H1  UNL     1      12.696  33.231   0.028  1.00  0.00     0.210 HD
ENDBRANCH  10  24
TORSDOF 4
ENDMDL
MODEL 5
REMARK VINA RESULT: -8.641193923      4.705      6.000
REMARK  4 active torsions:
REMARK  status: ('A' for Active; 'I' for Inactive)
REMARK    1  A    between atoms: C6_6  and  N1_7 
REMARK    2  A    between atoms: N1_7  and  C7_9 
REMARK    3  A    between atoms: C13_16  and  C14_17 
REMARK    4  A    between atoms: C16_22  and  O1_23 
ROOT
HETATM    1  C1  UNL     1      12.311  29.039  -2.030  1.00  0.00     0.015 C 
HETATM    2  C2  UNL     1      12.474  29.268  -0.520  1.00  0.00    -0.041 C 
HETATM    3  C3  UNL     1      11.271  28.559   0.117  1.00  0.00     0.015 C 
HETATM    4  C4  UNL     1      13.710  28.633   0.015  1.00  0.00     0.050 C 
HETATM    5  C5  UNL     1      14.855  29.631   0.187  1.00  0.00    -0.013 A 
HETATM    6  C6  UNL     1      16.186  29.369  -0.076  1.00  0.00     0.082 A 
HETATM    7  S1  UNL     1      16.962  30.839   0.302  1.00  0.00    -0.067 SA
HETATM    8  C13 UNL     1      15.611  31.744   0.776  1.00  0.00     0.100 A 
HETATM    9  C15 UNL     1      14.581  30.870   0.628  1.00  0.00     0.002 A 
HETATM   10  C16 UNL     1      13.123  31.183   0.922  1.00  0.00     0.154 C 
HETATM   11  C17 UNL     1      12.361  30.734  -0.302  1.00  0.00     0.045 C 
ENDROOT
BRANCH   6  12
HETATM   12  N1  UNL     1      16.735  28.116  -0.535  1.00  0.00    -0.350 N 
ATOM     13  H1  UNL     1      16.677  27.912  -1.533  1.00  0.00     0.166 HD
BRANCH  12  14
HETATM   14  C7  UNL     1      17.340  27.160   0.288  1.00  0.00     0.032 A 
HETATM   15  C8  UNL     1      18.592  27.198   0.839  1.00  0.00     0.029 A 
HETATM   16  C9  UNL     1      19.097  26.209   1.672  1.00  0.00     0.002 A 
HETATM   17  C10 UNL     1      18.324  25.115   1.983  1.00  0.00     0.000 A 
HETATM   18  C11 UNL     1      17.073  25.052   1.448  1.00  0.00     0.002 A 
HETATM   19  C12 UNL     1      16.579  26.034   0.624  1.00  0.00     0.029 A 
ENDBRANCH  12  14
ENDBRANCH   6  12
BRANCH   8  20
HETATM   20  C14 UNL     1      15.591  33.173   1.246  1.00  0.00     0.424 C 
HETATM   21  F1  UNL     1      15.238  33.137   2.581  1.00  0.00    -0.166 F 
HETATM   22  F2  UNL     1      16.869  33.690   1.071  1.00  0.00    -0.166 F 
HETATM   23  F3  UNL     1      14.723  33.938   0.524  1.00  0.00    -0.166 F 
ENDBRANCH   8  20
BRANCH  10  24
HETATM   24  O1  UNL     1      12.785  30.515   2.069  1.00  0.00    -0.391 OA
ATOM     25  H1  UNL     1      12.019  30.945   2.432  1.00  0.00     0.210 HD
ENDBRANCH  10  24
TORSDOF 4
ENDMDL
