MODEL 1
REMARK VINA RESULT: -9.392739618      0.000      0.000
REMARK  4 active torsions:
REMARK  status: ('A' for Active; 'I' for Inactive)
REMARK    1  A    between atoms: O1_1  and  C1_3 
REMARK    2  A    between atoms: C4_6  and  N1_7 
REMARK    3  A    between atoms: N1_7  and  C5_9 
REMARK    4  A    between atoms: C15_20  and  C16_21 
ROOT
HETATM    1  N1  UNL     1      18.122  28.478   0.468  1.00  0.00    -0.385 N 
ATOM      2  H1  UNL     1      18.665  28.823   1.260  1.00  0.00     0.160 HD
ENDROOT
BRANCH   1   3
HETATM    3  C4  UNL     1      17.688  27.130   0.532  1.00  0.00     0.043 A 
HETATM    4  C3  UNL     1      16.487  26.759  -0.021  1.00  0.00     0.033 A 
HETATM    5  C2  UNL     1      16.042  25.462   0.018  1.00  0.00     0.039 A 
HETATM    6  C1  UNL     1      16.813  24.496   0.626  1.00  0.00     0.066 A 
HETATM    7  C17 UNL     1      18.009  24.887   1.172  1.00  0.00     0.055 A 
HETATM    8  C15 UNL     1      18.481  26.193   1.145  1.00  0.00     0.076 A 
BRANCH   6   9
HETATM    9  O1  UNL     1      16.373  23.168   0.674  1.00  0.00    -0.361 OA
ATOM     10  H1  UNL     1      16.761  22.512   0.106  1.00  0.00     0.217 HD
ENDBRANCH   6   9
BRANCH   8  11
HETATM   11  C16 UNL     1      19.795  26.504   1.767  1.00  0.00     0.419 C 
HETATM   12  F1  UNL     1      20.060  25.489   2.700  1.00  0.00    -0.166 F 
HETATM   13  F2  UNL     1      20.852  26.456   0.896  1.00  0.00    -0.166 F 
HETATM   14  F3  UNL     1      19.836  27.662   2.471  1.00  0.00    -0.166 F 
ENDBRANCH   8  11
ENDBRANCH   1   3
BRANCH   1  15
HETATM   15  C5  UNL     1      17.872  29.408  -0.599  1.00  0.00     0.084 C 
HETATM   16  C6  UNL     1      17.920  30.851  -0.233  1.00  0.00     0.035 C 
HETATM   17  C7  UNL     1      16.973  31.607  -1.147  1.00  0.00     0.076 C 
HETATM   18  S1  UNL     1      17.468  31.298  -2.840  1.00  0.00    -0.159 SA
HETATM   19  C8  UNL     1      18.649  29.965  -2.941  1.00  0.00     0.010 C 
HETATM   20  C9  UNL     1      20.032  30.569  -3.216  1.00  0.00     0.020 C 
HETATM   21  C13 UNL     1      18.317  29.157  -4.204  1.00  0.00     0.020 C 
HETATM   22  C14 UNL     1      18.714  29.070  -1.775  1.00  0.00     0.045 C 
HETATM   23  C10 UNL     1      19.820  31.710  -4.167  1.00  0.00     0.002 C 
HETATM   24  C11 UNL     1      19.203  31.167  -5.424  1.00  0.00     0.000 C 
HETATM   25  C12 UNL     1      19.033  29.677  -5.405  1.00  0.00     0.002 C 
ENDBRANCH   1  15
TORSDOF 4
ENDMDL
MODEL 2
REMARK VINA RESULT: -9.200116452      3.581      5.366
REMARK  4 active torsions:
REMARK  status: ('A' for Active; 'I' for Inactive)
REMARK    1  A    between atoms: O1_1  and  C1_3 
REMARK    2  A    between atoms: C4_6  and  N1_7 
REMARK    3  A    between atoms: N1_7  and  C5_9 
REMARK    4  A    between atoms: C15_20  and  C16_21 
ROOT
HETATM    1  N1  UNL     1      16.880  27.326  -0.237  1.00  0.00    -0.385 N 
ATOM      2  H1  UNL     1      16.773  26.651  -0.994  1.00  0.00     0.160 HD
ENDROOT
BRANCH   1   3
HETATM    3  C4  UNL     1      17.926  27.088   0.687  1.00  0.00     0.043 A 
HETATM    4  C3  UNL     1      18.922  28.018   0.867  1.00  0.00     0.033 A 
HETATM    5  C2  UNL     1      19.945  27.820   1.758  1.00  0.00     0.039 A 
HETATM    6  C1  UNL     1      19.987  26.661   2.500  1.00  0.00     0.066 A 
HETATM    7  C17 UNL     1      18.984  25.745   2.307  1.00  0.00     0.055 A 
HETATM    8  C15 UNL     1      17.937  25.922   1.411  1.00  0.00     0.076 A 
BRANCH   6   9
HETATM    9  O1  UNL     1      21.025  26.443   3.415  1.00  0.00    -0.361 OA
ATOM     10  H1  UNL     1      20.983  26.818   4.287  1.00  0.00     0.217 HD
ENDBRANCH   6   9
BRANCH   8  11
HETATM   11  C16 UNL     1      16.901  24.863   1.285  1.00  0.00     0.419 C 
HETATM   12  F1  UNL     1      17.254  23.834   2.172  1.00  0.00    -0.166 F 
HETATM   13  F2  UNL     1      15.650  25.252   1.687  1.00  0.00    -0.166 F 
HETATM   14  F3  UNL     1      16.826  24.279   0.064  1.00  0.00    -0.166 F 
ENDBRANCH   8  11
ENDBRANCH   1   3
BRANCH   1  15
HETATM   15  C5  UNL     1      15.952  28.425  -0.216  1.00  0.00     0.084 C 
HETATM   16  C6  UNL     1      16.134  29.455  -1.278  1.00  0.00     0.035 C 
HETATM   17  C7  UNL     1      15.664  30.791  -0.732  1.00  0.00     0.076 C 
HETATM   18  S1  UNL     1      13.960  30.612  -0.215  1.00  0.00    -0.159 SA
HETATM   19  C8  UNL     1      13.469  28.898  -0.167  1.00  0.00     0.010 C 
HETATM   20  C9  UNL     1      12.564  28.624  -1.376  1.00  0.00     0.020 C 
HETATM   21  C13 UNL     1      12.553  28.721   1.053  1.00  0.00     0.020 C 
HETATM   22  C14 UNL     1      14.562  27.915  -0.122  1.00  0.00     0.045 C 
HETATM   23  C10 UNL     1      11.707  29.842  -1.556  1.00  0.00     0.002 C 
HETATM   24  C11 UNL     1      10.899  30.038  -0.305  1.00  0.00     0.000 C 
HETATM   25  C12 UNL     1      11.119  28.962   0.717  1.00  0.00     0.002 C 
ENDBRANCH   1  15
TORSDOF 4
ENDMDL
MODEL 3
REMARK VINA RESULT: -8.908360520      2.219      2.819
REMARK  4 active torsions:
REMARK  status: ('A' for Active; 'I' for Inactive)
REMARK    1  A    between atoms: O1_1  and  C1_3 
REMARK    2  A    between atoms: C4_6  and  N1_7 
REMARK    3  A    between atoms: N1_7  and  C5_9 
REMARK    4  A    between atoms: C15_20  and  C16_21 
ROOT
HETATM    1  N1  UNL     1      16.796  27.826  -0.346  1.00  0.00    -0.385 N 
ATOM      2  H1  UNL     1      15.920  27.305  -0.285  1.00  0.00     0.160 HD
ENDROOT
BRANCH   1   3
HETATM    3  C4  UNL     1      17.825  27.448   0.551  1.00  0.00     0.043 A 
HETATM    4  C3  UNL     1      18.870  28.301   0.810  1.00  0.00     0.033 A 
HETATM    5  C2  UNL     1      19.879  27.969   1.677  1.00  0.00     0.039 A 
HETATM    6  C1  UNL     1      19.855  26.747   2.312  1.00  0.00     0.066 A 
HETATM    7  C17 UNL     1      18.803  25.909   2.041  1.00  0.00     0.055 A 
HETATM    8  C15 UNL     1      17.770  26.223   1.166  1.00  0.00     0.076 A 
BRANCH   6   9
HETATM    9  O1  UNL     1      20.877  26.391   3.201  1.00  0.00    -0.361 OA
ATOM     10  H1  UNL     1      20.709  26.349   4.135  1.00  0.00     0.217 HD
ENDBRANCH   6   9
BRANCH   8  11
HETATM   11  C16 UNL     1      16.678  25.238   0.949  1.00  0.00     0.419 C 
HETATM   12  F1  UNL     1      17.012  24.084   1.675  1.00  0.00    -0.166 F 
HETATM   13  F2  UNL     1      15.465  25.626   1.454  1.00  0.00    -0.166 F 
HETATM   14  F3  UNL     1      16.527  24.826  -0.334  1.00  0.00    -0.166 F 
ENDBRANCH   8  11
ENDBRANCH   1   3
BRANCH   1  15
HETATM   15  C5  UNL     1      16.860  28.868  -1.333  1.00  0.00     0.084 C 
HETATM   16  C6  UNL     1      16.622  30.254  -0.838  1.00  0.00     0.035 C 
HETATM   17  C7  UNL     1      16.004  31.063  -1.963  1.00  0.00     0.076 C 
HETATM   18  S1  UNL     1      17.112  31.003  -3.367  1.00  0.00    -0.159 SA
HETATM   19  C8  UNL     1      18.378  29.766  -3.146  1.00  0.00     0.010 C 
HETATM   20  C9  UNL     1      19.697  30.481  -2.823  1.00  0.00     0.020 C 
HETATM   21  C13 UNL     1      18.616  29.109  -4.514  1.00  0.00     0.020 C 
HETATM   22  C14 UNL     1      18.103  28.735  -2.134  1.00  0.00     0.045 C 
HETATM   23  C10 UNL     1      19.731  31.720  -3.668  1.00  0.00     0.002 C 
HETATM   24  C11 UNL     1      19.676  31.307  -5.111  1.00  0.00     0.000 C 
HETATM   25  C12 UNL     1      19.665  29.820  -5.302  1.00  0.00     0.002 C 
ENDBRANCH   1  15
TORSDOF 4
ENDMDL
MODEL 4
REMARK VINA RESULT: -8.821348393      2.774      4.319
REMARK  4 active torsions:
REMARK  status: ('A' for Active; 'I' for Inactive)
REMARK    1  A    between atoms: O1_1  and  C1_3 
REMARK    2  A    between atoms: C4_6  and  N1_7 
REMARK    3  A    between atoms: N1_7  and  C5_9 
REMARK    4  A    between atoms: C15_20  and  C16_21 
ROOT
HETATM    1  N1  UNL     1      16.155  25.326   0.938  1.00  0.00    -0.385 N 
ATOM      2  H1  UNL     1      15.189  25.548   0.697  1.00  0.00     0.160 HD
ENDROOT
BRANCH   1   3
HETATM    3  C4  UNL     1      16.442  23.971   1.234  1.00  0.00     0.043 A 
HETATM    4  C3  UNL     1      16.942  23.137   0.264  1.00  0.00     0.033 A 
HETATM    5  C2  UNL     1      17.236  21.822   0.520  1.00  0.00     0.039 A 
HETATM    6  C1  UNL     1      17.030  21.312   1.782  1.00  0.00     0.066 A 
HETATM    7  C17 UNL     1      16.531  22.161   2.738  1.00  0.00     0.055 A 
HETATM    8  C15 UNL     1      16.225  23.495   2.503  1.00  0.00     0.076 A 
BRANCH   6   9
HETATM    9  O1  UNL     1      17.325  19.971   2.061  1.00  0.00    -0.361 OA
ATOM     10  H1  UNL     1      17.558  19.704   2.942  1.00  0.00     0.217 HD
ENDBRANCH   6   9
BRANCH   8  11
HETATM   11  C16 UNL     1      15.691  24.325   3.615  1.00  0.00     0.419 C 
HETATM   12  F1  UNL     1      16.752  25.111   4.090  1.00  0.00    -0.166 F 
HETATM   13  F2  UNL     1      14.735  25.229   3.231  1.00  0.00    -0.166 F 
HETATM   14  F3  UNL     1      15.250  23.625   4.690  1.00  0.00    -0.166 F 
ENDBRANCH   8  11
ENDBRANCH   1   3
BRANCH   1  15
HETATM   15  C5  UNL     1      17.088  26.419   0.941  1.00  0.00     0.084 C 
HETATM   16  C6  UNL     1      18.524  26.053   0.782  1.00  0.00     0.035 C 
HETATM   17  C7  UNL     1      19.363  27.087   1.512  1.00  0.00     0.076 C 
HETATM   18  S1  UNL     1      18.973  28.698   0.838  1.00  0.00    -0.159 SA
HETATM   19  C8  UNL     1      17.517  28.640  -0.191  1.00  0.00     0.010 C 
HETATM   20  C9  UNL     1      17.961  28.733  -1.657  1.00  0.00     0.020 C 
HETATM   21  C13 UNL     1      16.729  29.934   0.061  1.00  0.00     0.020 C 
HETATM   22  C14 UNL     1      16.641  27.473  -0.004  1.00  0.00     0.045 C 
HETATM   23  C10 UNL     1      19.103  29.706  -1.698  1.00  0.00     0.002 C 
HETATM   24  C11 UNL     1      18.609  31.032  -1.194  1.00  0.00     0.000 C 
HETATM   25  C12 UNL     1      17.147  31.032  -0.859  1.00  0.00     0.002 C 
ENDBRANCH   1  15
TORSDOF 4
ENDMDL
MODEL 5
REMARK VINA RESULT: -8.686115745      3.475      4.732
REMARK  4 active torsions:
REMARK  status: ('A' for Active; 'I' for Inactive)
REMARK    1  A    between atoms: O1_1  and  C1_3 
REMARK    2  A    between atoms: C4_6  and  N1_7 
REMARK    3  A    between atoms: N1_7  and  C5_9 
REMARK    4  A    between atoms: C15_20  and  C16_21 
ROOT
HETATM    1  N1  UNL     1      17.062  27.852  -0.603  1.00  0.00    -0.385 N 
ATOM      2  H1  UNL     1      17.030  27.302  -1.461  1.00  0.00     0.160 HD
ENDROOT
BRANCH   1   3
HETATM    3  C4  UNL     1      17.984  27.435   0.389  1.00  0.00     0.043 A 
HETATM    4  C3  UNL     1      19.094  28.193   0.670  1.00  0.00     0.033 A 
HETATM    5  C2  UNL     1      20.002  27.821   1.628  1.00  0.00     0.039 A 
HETATM    6  C1  UNL     1      19.806  26.656   2.334  1.00  0.00     0.066 A 
HETATM    7  C17 UNL     1      18.692  25.912   2.039  1.00  0.00     0.055 A 
HETATM    8  C15 UNL     1      17.758  26.268   1.074  1.00  0.00     0.076 A 
BRANCH   6   9
HETATM    9  O1  UNL     1      20.724  26.260   3.316  1.00  0.00    -0.361 OA
ATOM     10  H1  UNL     1      20.780  25.350   3.582  1.00  0.00     0.217 HD
ENDBRANCH   6   9
BRANCH   8  11
HETATM   11  C16 UNL     1      16.584  25.387   0.839  1.00  0.00     0.419 C 
HETATM   12  F1  UNL     1      16.840  24.174   1.497  1.00  0.00    -0.166 F 
HETATM   13  F2  UNL     1      15.419  25.845   1.398  1.00  0.00    -0.166 F 
HETATM   14  F3  UNL     1      16.368  25.056  -0.458  1.00  0.00    -0.166 F 
ENDBRANCH   8  11
ENDBRANCH   1   3
BRANCH   1  15
HETATM   15  C5  UNL     1      16.167  28.974  -0.521  1.00  0.00     0.084 C 
HETATM   16  C6  UNL     1      14.810  28.689   0.026  1.00  0.00     0.035 C 
HETATM   17  C7  UNL     1      13.828  29.658  -0.606  1.00  0.00     0.076 C 
HETATM   18  S1  UNL     1      14.387  31.323  -0.259  1.00  0.00    -0.159 SA
HETATM   19  C8  UNL     1      16.049  31.332   0.386  1.00  0.00     0.010 C 
HETATM   20  C9  UNL     1      15.979  31.622   1.892  1.00  0.00     0.020 C 
HETATM   21  C13 UNL     1      16.764  32.552  -0.213  1.00  0.00     0.020 C 
HETATM   22  C14 UNL     1      16.842  30.116   0.144  1.00  0.00     0.045 C 
HETATM   23  C10 UNL     1      14.891  32.638   2.082  1.00  0.00     0.002 C 
HETATM   24  C11 UNL     1      15.259  33.871   1.307  1.00  0.00     0.000 C 
HETATM   25  C12 UNL     1      16.595  33.771   0.632  1.00  0.00     0.002 C 
ENDBRANCH   1  15
TORSDOF 4
ENDMDL
