MODEL 1
REMARK VINA RESULT: -6.804661553      0.000      0.000
REMARK  11 active torsions:
REMARK  status: ('A' for Active; 'I' for Inactive)
REMARK    1  A    between atoms: C2_2  and  O1_3 
REMARK    2  A    between atoms: O1_3  and  C3_4 
REMARK    3  A    between atoms: C3_4  and  C4_5 
REMARK    4  A    between atoms: C4_5  and  C5_6 
REMARK    5  A    between atoms: C5_6  and  C6_7 
REMARK    6  A    between atoms: C6_7  and  C7_8 
REMARK    7  A    between atoms: C6_7  and  O2_10 
REMARK    8  A    between atoms: O2_10  and  C9_11 
REMARK    9  A    between atoms: C9_11  and  C11_13 
REMARK   10  A    between atoms: C11_13  and  C12_14 
REMARK   11  A    between atoms: C12_14  and  C13_15 
ROOT
HETATM    1  C6  UNL     1     -16.569  -9.474 156.667  1.00  0.00     0.121 C 
ENDROOT
BRANCH   1   2
HETATM    2  C5  UNL     1     -16.743  -7.968 156.773  1.00  0.00     0.034 C 
BRANCH   2   3
HETATM    3  C4  UNL     1     -16.821  -7.494 158.212  1.00  0.00     0.029 C 
BRANCH   3   4
HETATM    4  C3  UNL     1     -18.222  -7.417 158.705  1.00  0.00     0.167 C 
BRANCH   4   5
HETATM    5  O1  UNL     1     -19.139  -6.941 157.808  1.00  0.00    -0.391 OA
BRANCH   5   6
HETATM    6  C2  UNL     1     -20.394  -6.849 158.370  1.00  0.00     0.163 C 
HETATM    7  C1  UNL     1     -20.492  -5.638 159.299  1.00  0.00     0.033 C 
ENDBRANCH   5   6
ENDBRANCH   4   5
ENDBRANCH   3   4
ENDBRANCH   2   3
ENDBRANCH   1   2
BRANCH   1   8
HETATM    8  C7  UNL     1     -15.675  -9.995 157.767  1.00  0.00     0.027 C 
HETATM    9  C8  UNL     1     -14.607 -10.940 157.279  1.00  0.00     0.007 C 
ENDBRANCH   1   8
BRANCH   1  10
HETATM   10  O2  UNL     1     -15.912  -9.679 155.467  1.00  0.00    -0.381 OA
BRANCH  10  11
HETATM   11  C9  UNL     1     -16.677 -10.061 154.403  1.00  0.00     0.118 C 
HETATM   12  C10 UNL     1     -16.699  -9.034 153.286  1.00  0.00     0.039 C 
BRANCH  11  13
HETATM   13  C11 UNL     1     -16.354 -11.377 153.821  1.00  0.00     0.036 C 
BRANCH  13  14
HETATM   14  C12 UNL     1     -17.067 -12.543 154.425  1.00  0.00     0.041 C 
BRANCH  14  15
HETATM   15  C13 UNL     1     -18.484 -12.631 154.060  1.00  0.00    -0.058 A 
HETATM   16  C14 UNL     1     -19.822 -12.423 154.234  1.00  0.00     0.007 A 
HETATM   17  C15 UNL     1     -19.485 -13.100 153.075  1.00  0.00     0.007 A 
ENDBRANCH  14  15
ENDBRANCH  13  14
ENDBRANCH  11  13
ENDBRANCH  10  11
ENDBRANCH   1  10
TORSDOF 11
ENDMDL
MODEL 2
REMARK VINA RESULT: -6.691652643      1.188      1.562
REMARK  11 active torsions:
REMARK  status: ('A' for Active; 'I' for Inactive)
REMARK    1  A    between atoms: C2_2  and  O1_3 
REMARK    2  A    between atoms: O1_3  and  C3_4 
REMARK    3  A    between atoms: C3_4  and  C4_5 
REMARK    4  A    between atoms: C4_5  and  C5_6 
REMARK    5  A    between atoms: C5_6  and  C6_7 
REMARK    6  A    between atoms: C6_7  and  C7_8 
REMARK    7  A    between atoms: C6_7  and  O2_10 
REMARK    8  A    between atoms: O2_10  and  C9_11 
REMARK    9  A    between atoms: C9_11  and  C11_13 
REMARK   10  A    between atoms: C11_13  and  C12_14 
REMARK   11  A    between atoms: C12_14  and  C13_15 
ROOT
HETATM    1  C6  UNL     1     -16.833  -8.778 157.431  1.00  0.00     0.121 C 
ENDROOT
BRANCH   1   2
HETATM    2  C5  UNL     1     -16.749  -7.275 157.647  1.00  0.00     0.034 C 
BRANCH   2   3
HETATM    3  C4  UNL     1     -18.056  -6.572 157.332  1.00  0.00     0.029 C 
BRANCH   3   4
HETATM    4  C3  UNL     1     -19.162  -7.011 158.224  1.00  0.00     0.167 C 
BRANCH   4   5
HETATM    5  O1  UNL     1     -20.178  -6.110 158.394  1.00  0.00    -0.391 OA
BRANCH   5   6
HETATM    6  C2  UNL     1     -20.265  -5.688 159.703  1.00  0.00     0.163 C 
HETATM    7  C1  UNL     1     -21.062  -4.387 159.809  1.00  0.00     0.033 C 
ENDBRANCH   5   6
ENDBRANCH   4   5
ENDBRANCH   3   4
ENDBRANCH   2   3
ENDBRANCH   1   2
BRANCH   1   8
HETATM    8  C7  UNL     1     -16.246  -9.526 158.604  1.00  0.00     0.027 C 
HETATM    9  C8  UNL     1     -16.662  -8.970 159.943  1.00  0.00     0.007 C 
ENDBRANCH   1   8
BRANCH   1  10
HETATM   10  O2  UNL     1     -16.029  -9.032 156.334  1.00  0.00    -0.381 OA
BRANCH  10  11
HETATM   11  C9  UNL     1     -16.562  -9.810 155.348  1.00  0.00     0.118 C 
HETATM   12  C10 UNL     1     -16.599  -9.118 153.997  1.00  0.00     0.039 C 
BRANCH  11  13
HETATM   13  C11 UNL     1     -15.942 -11.137 155.174  1.00  0.00     0.036 C 
BRANCH  13  14
HETATM   14  C12 UNL     1     -16.408 -11.916 153.987  1.00  0.00     0.041 C 
BRANCH  14  15
HETATM   15  C13 UNL     1     -17.677 -12.621 154.195  1.00  0.00    -0.058 A 
HETATM   16  C14 UNL     1     -19.029 -12.715 154.356  1.00  0.00     0.007 A 
HETATM   17  C15 UNL     1     -18.355 -13.923 154.390  1.00  0.00     0.007 A 
ENDBRANCH  14  15
ENDBRANCH  13  14
ENDBRANCH  11  13
ENDBRANCH  10  11
ENDBRANCH   1  10
TORSDOF 11
ENDMDL
MODEL 3
REMARK VINA RESULT: -6.683232407      1.707      6.412
REMARK  11 active torsions:
REMARK  status: ('A' for Active; 'I' for Inactive)
REMARK    1  A    between atoms: C2_2  and  O1_3 
REMARK    2  A    between atoms: O1_3  and  C3_4 
REMARK    3  A    between atoms: C3_4  and  C4_5 
REMARK    4  A    between atoms: C4_5  and  C5_6 
REMARK    5  A    between atoms: C5_6  and  C6_7 
REMARK    6  A    between atoms: C6_7  and  C7_8 
REMARK    7  A    between atoms: C6_7  and  O2_10 
REMARK    8  A    between atoms: O2_10  and  C9_11 
REMARK    9  A    between atoms: C9_11  and  C11_13 
REMARK   10  A    between atoms: C11_13  and  C12_14 
REMARK   11  A    between atoms: C12_14  and  C13_15 
ROOT
HETATM    1  C6  UNL     1     -15.771  -9.603 155.978  1.00  0.00     0.121 C 
ENDROOT
BRANCH   1   2
HETATM    2  C5  UNL     1     -16.427  -9.631 154.607  1.00  0.00     0.034 C 
BRANCH   2   3
HETATM    3  C4  UNL     1     -16.229 -10.958 153.898  1.00  0.00     0.029 C 
BRANCH   3   4
HETATM    4  C3  UNL     1     -17.481 -11.758 153.839  1.00  0.00     0.167 C 
BRANCH   4   5
HETATM    5  O1  UNL     1     -17.346 -13.089 154.128  1.00  0.00    -0.391 OA
BRANCH   5   6
HETATM    6  C2  UNL     1     -18.561 -13.666 154.430  1.00  0.00     0.163 C 
HETATM    7  C1  UNL     1     -19.705 -12.668 154.238  1.00  0.00     0.033 C 
ENDBRANCH   5   6
ENDBRANCH   4   5
ENDBRANCH   3   4
ENDBRANCH   2   3
ENDBRANCH   1   2
BRANCH   1   8
HETATM    8  C7  UNL     1     -15.152 -10.940 156.310  1.00  0.00     0.027 C 
HETATM    9  C8  UNL     1     -14.288 -10.914 157.546  1.00  0.00     0.007 C 
ENDBRANCH   1   8
BRANCH   1  10
HETATM   10  O2  UNL     1     -16.808  -9.393 156.871  1.00  0.00    -0.381 OA
BRANCH  10  11
HETATM   11  C9  UNL     1     -16.711  -8.296 157.678  1.00  0.00     0.118 C 
HETATM   12  C10 UNL     1     -17.515  -7.113 157.172  1.00  0.00     0.039 C 
BRANCH  11  13
HETATM   13  C11 UNL     1     -17.046  -8.515 159.098  1.00  0.00     0.036 C 
BRANCH  13  14
HETATM   14  C12 UNL     1     -18.338  -7.920 159.555  1.00  0.00     0.041 C 
BRANCH  14  15
HETATM   15  C13 UNL     1     -18.188  -6.870 160.567  1.00  0.00    -0.058 A 
HETATM   16  C14 UNL     1     -17.548  -6.199 161.568  1.00  0.00     0.007 A 
HETATM   17  C15 UNL     1     -18.780  -5.677 161.214  1.00  0.00     0.007 A 
ENDBRANCH  14  15
ENDBRANCH  13  14
ENDBRANCH  11  13
ENDBRANCH  10  11
ENDBRANCH   1  10
TORSDOF 11
ENDMDL
MODEL 4
REMARK VINA RESULT: -6.611493479      1.220      1.459
REMARK  11 active torsions:
REMARK  status: ('A' for Active; 'I' for Inactive)
REMARK    1  A    between atoms: C2_2  and  O1_3 
REMARK    2  A    between atoms: O1_3  and  C3_4 
REMARK    3  A    between atoms: C3_4  and  C4_5 
REMARK    4  A    between atoms: C4_5  and  C5_6 
REMARK    5  A    between atoms: C5_6  and  C6_7 
REMARK    6  A    between atoms: C6_7  and  C7_8 
REMARK    7  A    between atoms: C6_7  and  O2_10 
REMARK    8  A    between atoms: O2_10  and  C9_11 
REMARK    9  A    between atoms: C9_11  and  C11_13 
REMARK   10  A    between atoms: C11_13  and  C12_14 
REMARK   11  A    between atoms: C12_14  and  C13_15 
ROOT
HETATM    1  C6  UNL     1     -16.346  -9.590 156.722  1.00  0.00     0.121 C 
ENDROOT
BRANCH   1   2
HETATM    2  C5  UNL     1     -16.267  -8.073 156.791  1.00  0.00     0.034 C 
BRANCH   2   3
HETATM    3  C4  UNL     1     -17.600  -7.440 157.146  1.00  0.00     0.029 C 
BRANCH   3   4
HETATM    4  C3  UNL     1     -17.793  -7.318 158.616  1.00  0.00     0.167 C 
BRANCH   4   5
HETATM    5  O1  UNL     1     -16.650  -7.142 159.349  1.00  0.00    -0.391 OA
BRANCH   5   6
HETATM    6  C2  UNL     1     -16.934  -6.932 160.681  1.00  0.00     0.163 C 
HETATM    7  C1  UNL     1     -18.368  -6.433 160.866  1.00  0.00     0.033 C 
ENDBRANCH   5   6
ENDBRANCH   4   5
ENDBRANCH   3   4
ENDBRANCH   2   3
ENDBRANCH   1   2
BRANCH   1   8
HETATM    8  C7  UNL     1     -15.508 -10.224 157.807  1.00  0.00     0.027 C 
HETATM    9  C8  UNL     1     -14.376 -11.069 157.278  1.00  0.00     0.007 C 
ENDBRANCH   1   8
BRANCH   1  10
HETATM   10  O2  UNL     1     -15.775  -9.927 155.507  1.00  0.00    -0.381 OA
BRANCH  10  11
HETATM   11  C9  UNL     1     -16.632 -10.220 154.486  1.00  0.00     0.118 C 
HETATM   12  C10 UNL     1     -16.693  -9.132 153.430  1.00  0.00     0.039 C 
BRANCH  11  13
HETATM   13  C11 UNL     1     -16.407 -11.512 153.812  1.00  0.00     0.036 C 
BRANCH  13  14
HETATM   14  C12 UNL     1     -17.158 -12.674 154.377  1.00  0.00     0.041 C 
BRANCH  14  15
HETATM   15  C13 UNL     1     -18.574 -12.710 153.999  1.00  0.00    -0.058 A 
HETATM   16  C14 UNL     1     -19.906 -12.460 154.164  1.00  0.00     0.007 A 
HETATM   17  C15 UNL     1     -19.581 -13.132 152.998  1.00  0.00     0.007 A 
ENDBRANCH  14  15
ENDBRANCH  13  14
ENDBRANCH  11  13
ENDBRANCH  10  11
ENDBRANCH   1  10
TORSDOF 11
ENDMDL
MODEL 5
REMARK VINA RESULT: -6.453447833      1.327      6.020
REMARK  11 active torsions:
REMARK  status: ('A' for Active; 'I' for Inactive)
REMARK    1  A    between atoms: C2_2  and  O1_3 
REMARK    2  A    between atoms: O1_3  and  C3_4 
REMARK    3  A    between atoms: C3_4  and  C4_5 
REMARK    4  A    between atoms: C4_5  and  C5_6 
REMARK    5  A    between atoms: C5_6  and  C6_7 
REMARK    6  A    between atoms: C6_7  and  C7_8 
REMARK    7  A    between atoms: C6_7  and  O2_10 
REMARK    8  A    between atoms: O2_10  and  C9_11 
REMARK    9  A    between atoms: C9_11  and  C11_13 
REMARK   10  A    between atoms: C11_13  and  C12_14 
REMARK   11  A    between atoms: C12_14  and  C13_15 
ROOT
HETATM    1  C6  UNL     1     -15.833  -9.526 156.200  1.00  0.00     0.121 C 
ENDROOT
BRANCH   1   2
HETATM    2  C5  UNL     1     -16.466  -9.446 154.820  1.00  0.00     0.034 C 
BRANCH   2   3
HETATM    3  C4  UNL     1     -16.241 -10.707 154.006  1.00  0.00     0.029 C 
BRANCH   3   4
HETATM    4  C3  UNL     1     -17.450 -11.573 153.964  1.00  0.00     0.167 C 
BRANCH   4   5
HETATM    5  O1  UNL     1     -17.230 -12.905 154.191  1.00  0.00    -0.391 OA
BRANCH   5   6
HETATM    6  C2  UNL     1     -18.412 -13.583 154.399  1.00  0.00     0.163 C 
HETATM    7  C1  UNL     1     -19.614 -12.648 154.250  1.00  0.00     0.033 C 
ENDBRANCH   5   6
ENDBRANCH   4   5
ENDBRANCH   3   4
ENDBRANCH   2   3
ENDBRANCH   1   2
BRANCH   1   8
HETATM    8  C7  UNL     1     -15.254 -10.898 156.451  1.00  0.00     0.027 C 
HETATM    9  C8  UNL     1     -14.128 -10.902 157.455  1.00  0.00     0.007 C 
ENDBRANCH   1   8
BRANCH   1  10
HETATM   10  O2  UNL     1     -16.879  -9.348 157.089  1.00  0.00    -0.381 OA
BRANCH  10  11
HETATM   11  C9  UNL     1     -16.682  -8.451 158.098  1.00  0.00     0.118 C 
HETATM   12  C10 UNL     1     -16.588  -7.017 157.609  1.00  0.00     0.039 C 
BRANCH  11  13
HETATM   13  C11 UNL     1     -17.659  -8.504 159.201  1.00  0.00     0.036 C 
BRANCH  13  14
HETATM   14  C12 UNL     1     -18.108  -7.180 159.730  1.00  0.00     0.041 C 
BRANCH  14  15
HETATM   15  C13 UNL     1     -19.409  -6.741 159.216  1.00  0.00    -0.058 A 
HETATM   16  C14 UNL     1     -20.531  -6.837 158.444  1.00  0.00     0.007 A 
HETATM   17  C15 UNL     1     -20.479  -5.718 159.257  1.00  0.00     0.007 A 
ENDBRANCH  14  15
ENDBRANCH  13  14
ENDBRANCH  11  13
ENDBRANCH  10  11
ENDBRANCH   1  10
TORSDOF 11
ENDMDL
