MODEL 1
REMARK VINA RESULT: -7.526149916      0.000      0.000
REMARK  11 active torsions:
REMARK  status: ('A' for Active; 'I' for Inactive)
REMARK    1  A    between atoms: C2_2  and  C3_3 
REMARK    2  A    between atoms: C3_3  and  C4_4 
REMARK    3  A    between atoms: C4_4  and  C5_5 
REMARK    4  A    between atoms: C5_5  and  C6_6 
REMARK    5  A    between atoms: C7_7  and  C8_8 
REMARK    6  A    between atoms: C8_8  and  C9_9 
REMARK    7  A    between atoms: C9_9  and  C10_10 
REMARK    8  A    between atoms: C10_10  and  C11_11 
REMARK    9  A    between atoms: C11_11  and  C12_12 
REMARK   10  A    between atoms: C13_14  and  C14_15 
REMARK   11  A    between atoms: C14_15  and  C15_16 
ROOT
HETATM    1  C9  UNL     1     -15.288 -10.471 157.754  1.00  0.00     0.004 C 
ENDROOT
BRANCH   1   2
HETATM    2  C8  UNL     1     -15.116 -10.886 156.307  1.00  0.00     0.027 C 
BRANCH   2   3
HETATM    3  C7  UNL     1     -15.887  -9.983 155.432  1.00  0.00    -0.031 C 
HETATM    4  C6  UNL     1     -16.623 -10.286 154.395  1.00  0.00    -0.031 C 
BRANCH   4   5
HETATM    5  C5  UNL     1     -16.814 -11.658 153.900  1.00  0.00     0.027 C 
BRANCH   5   6
HETATM    6  C4  UNL     1     -18.107 -12.274 154.419  1.00  0.00     0.007 C 
BRANCH   6   7
HETATM    7  C3  UNL     1     -18.182 -13.750 154.157  1.00  0.00     0.026 C 
BRANCH   7   8
HETATM    8  C2  UNL     1     -18.978 -14.011 152.951  1.00  0.00    -0.037 C 
HETATM    9  C1  UNL     1     -19.895 -13.142 152.547  1.00  0.00     0.007 C 
ENDBRANCH   7   8
ENDBRANCH   6   7
ENDBRANCH   5   6
ENDBRANCH   4   5
ENDBRANCH   2   3
ENDBRANCH   1   2
BRANCH   1  10
HETATM   10  C10 UNL     1     -16.253  -9.376 157.956  1.00  0.00     0.003 C 
BRANCH  10  11
HETATM   11  C11 UNL     1     -16.866  -9.208 159.287  1.00  0.00     0.034 C 
BRANCH  11  12
HETATM   12  C12 UNL     1     -17.584  -7.928 159.553  1.00  0.00     0.151 A 
HETATM   13  O1  UNL     1     -16.985  -6.726 159.084  1.00  0.00    -0.375 OA
HETATM   14  C13 UNL     1     -17.203  -6.875 160.475  1.00  0.00     0.158 A 
BRANCH  14  15
HETATM   15  C14 UNL     1     -18.292  -6.058 161.132  1.00  0.00     0.112 C 
BRANCH  15  16
HETATM   16  C15 UNL     1     -17.752  -5.057 162.049  1.00  0.00     0.125 C 
HETATM   17  C16 UNL     1     -17.788  -5.414 163.521  1.00  0.00     0.091 C 
HETATM   18  O2  UNL     1     -17.303  -4.012 161.669  1.00  0.00    -0.298 OA
ENDBRANCH  15  16
ENDBRANCH  14  15
ENDBRANCH  11  12
ENDBRANCH  10  11
ENDBRANCH   1  10
TORSDOF 11
ENDMDL
MODEL 2
REMARK VINA RESULT: -7.469535602      0.972      1.144
REMARK  11 active torsions:
REMARK  status: ('A' for Active; 'I' for Inactive)
REMARK    1  A    between atoms: C2_2  and  C3_3 
REMARK    2  A    between atoms: C3_3  and  C4_4 
REMARK    3  A    between atoms: C4_4  and  C5_5 
REMARK    4  A    between atoms: C5_5  and  C6_6 
REMARK    5  A    between atoms: C7_7  and  C8_8 
REMARK    6  A    between atoms: C8_8  and  C9_9 
REMARK    7  A    between atoms: C9_9  and  C10_10 
REMARK    8  A    between atoms: C10_10  and  C11_11 
REMARK    9  A    between atoms: C11_11  and  C12_12 
REMARK   10  A    between atoms: C13_14  and  C14_15 
REMARK   11  A    between atoms: C14_15  and  C15_16 
ROOT
HETATM    1  C9  UNL     1     -16.247  -9.204 157.231  1.00  0.00     0.004 C 
ENDROOT
BRANCH   1   2
HETATM    2  C8  UNL     1     -15.703 -10.136 156.167  1.00  0.00     0.027 C 
BRANCH   2   3
HETATM    3  C7  UNL     1     -16.221  -9.741 154.843  1.00  0.00    -0.031 C 
HETATM    4  C6  UNL     1     -16.639 -10.507 153.870  1.00  0.00    -0.031 C 
BRANCH   4   5
HETATM    5  C5  UNL     1     -16.662 -11.976 153.938  1.00  0.00     0.027 C 
BRANCH   5   6
HETATM    6  C4  UNL     1     -18.007 -12.500 154.427  1.00  0.00     0.007 C 
BRANCH   6   7
HETATM    7  C3  UNL     1     -18.217 -13.946 154.078  1.00  0.00     0.026 C 
BRANCH   7   8
HETATM    8  C2  UNL     1     -19.060 -14.062 152.881  1.00  0.00    -0.037 C 
HETATM    9  C1  UNL     1     -19.938 -13.115 152.581  1.00  0.00     0.007 C 
ENDBRANCH   7   8
ENDBRANCH   6   7
ENDBRANCH   5   6
ENDBRANCH   4   5
ENDBRANCH   2   3
ENDBRANCH   1   2
BRANCH   1  10
HETATM   10  C10 UNL     1     -16.974  -8.039 156.697  1.00  0.00     0.003 C 
BRANCH  10  11
HETATM   11  C11 UNL     1     -17.473  -7.021 157.641  1.00  0.00     0.034 C 
BRANCH  11  12
HETATM   12  C12 UNL     1     -17.212  -7.249 159.093  1.00  0.00     0.151 A 
HETATM   13  O1  UNL     1     -18.242  -7.859 159.860  1.00  0.00    -0.375 OA
HETATM   14  C13 UNL     1     -17.811  -6.559 160.218  1.00  0.00     0.158 A 
BRANCH  14  15
HETATM   15  C14 UNL     1     -16.996  -6.385 161.479  1.00  0.00     0.112 C 
BRANCH  15  16
HETATM   16  C15 UNL     1     -17.316  -5.140 162.174  1.00  0.00     0.125 C 
HETATM   17  C16 UNL     1     -17.669  -5.266 163.642  1.00  0.00     0.091 C 
HETATM   18  O2  UNL     1     -17.302  -4.074 161.623  1.00  0.00    -0.298 OA
ENDBRANCH  15  16
ENDBRANCH  14  15
ENDBRANCH  11  12
ENDBRANCH  10  11
ENDBRANCH   1  10
TORSDOF 11
ENDMDL
MODEL 3
REMARK VINA RESULT: -7.440488874      1.593      1.996
REMARK  11 active torsions:
REMARK  status: ('A' for Active; 'I' for Inactive)
REMARK    1  A    between atoms: C2_2  and  C3_3 
REMARK    2  A    between atoms: C3_3  and  C4_4 
REMARK    3  A    between atoms: C4_4  and  C5_5 
REMARK    4  A    between atoms: C5_5  and  C6_6 
REMARK    5  A    between atoms: C7_7  and  C8_8 
REMARK    6  A    between atoms: C8_8  and  C9_9 
REMARK    7  A    between atoms: C9_9  and  C10_10 
REMARK    8  A    between atoms: C10_10  and  C11_11 
REMARK    9  A    between atoms: C11_11  and  C12_12 
REMARK   10  A    between atoms: C13_14  and  C14_15 
REMARK   11  A    between atoms: C14_15  and  C15_16 
ROOT
HETATM    1  C9  UNL     1     -16.267  -9.235 157.346  1.00  0.00     0.004 C 
ENDROOT
BRANCH   1   2
HETATM    2  C8  UNL     1     -15.623  -9.979 156.193  1.00  0.00     0.027 C 
BRANCH   2   3
HETATM    3  C7  UNL     1     -16.315  -9.647 154.934  1.00  0.00    -0.031 C 
HETATM    4  C6  UNL     1     -16.559 -10.421 153.909  1.00  0.00    -0.031 C 
BRANCH   4   5
HETATM    5  C5  UNL     1     -16.159 -11.835 153.839  1.00  0.00     0.027 C 
BRANCH   5   6
HETATM    6  C4  UNL     1     -17.353 -12.770 153.984  1.00  0.00     0.007 C 
BRANCH   6   7
HETATM    7  C3  UNL     1     -18.591 -12.048 154.431  1.00  0.00     0.026 C 
BRANCH   7   8
HETATM    8  C2  UNL     1     -19.782 -12.671 153.839  1.00  0.00    -0.037 C 
HETATM    9  C1  UNL     1     -19.720 -13.244 152.644  1.00  0.00     0.007 C 
ENDBRANCH   7   8
ENDBRANCH   6   7
ENDBRANCH   5   6
ENDBRANCH   4   5
ENDBRANCH   2   3
ENDBRANCH   1   2
BRANCH   1  10
HETATM   10  C10 UNL     1     -16.625  -7.840 157.037  1.00  0.00     0.003 C 
BRANCH  10  11
HETATM   11  C11 UNL     1     -17.892  -7.300 157.566  1.00  0.00     0.034 C 
BRANCH  11  12
HETATM   12  C12 UNL     1     -17.918  -6.900 159.003  1.00  0.00     0.151 A 
HETATM   13  O1  UNL     1     -18.433  -7.839 159.940  1.00  0.00    -0.375 OA
HETATM   14  C13 UNL     1     -19.078  -6.585 159.814  1.00  0.00     0.158 A 
BRANCH  14  15
HETATM   15  C14 UNL     1     -18.931  -5.575 160.929  1.00  0.00     0.112 C 
BRANCH  15  16
HETATM   16  C15 UNL     1     -20.015  -4.596 160.931  1.00  0.00     0.125 C 
HETATM   17  C16 UNL     1     -21.188  -4.896 160.020  1.00  0.00     0.091 C 
HETATM   18  O2  UNL     1     -19.989  -3.609 161.613  1.00  0.00    -0.298 OA
ENDBRANCH  15  16
ENDBRANCH  14  15
ENDBRANCH  11  12
ENDBRANCH  10  11
ENDBRANCH   1  10
TORSDOF 11
ENDMDL
MODEL 4
REMARK VINA RESULT: -7.354144697      1.830      2.578
REMARK  11 active torsions:
REMARK  status: ('A' for Active; 'I' for Inactive)
REMARK    1  A    between atoms: C2_2  and  C3_3 
REMARK    2  A    between atoms: C3_3  and  C4_4 
REMARK    3  A    between atoms: C4_4  and  C5_5 
REMARK    4  A    between atoms: C5_5  and  C6_6 
REMARK    5  A    between atoms: C7_7  and  C8_8 
REMARK    6  A    between atoms: C8_8  and  C9_9 
REMARK    7  A    between atoms: C9_9  and  C10_10 
REMARK    8  A    between atoms: C10_10  and  C11_11 
REMARK    9  A    between atoms: C11_11  and  C12_12 
REMARK   10  A    between atoms: C13_14  and  C14_15 
REMARK   11  A    between atoms: C14_15  and  C15_16 
ROOT
HETATM    1  C9  UNL     1     -17.041  -7.995 157.507  1.00  0.00     0.004 C 
ENDROOT
BRANCH   1   2
HETATM    2  C8  UNL     1     -16.562  -8.602 156.204  1.00  0.00     0.027 C 
BRANCH   2   3
HETATM    3  C7  UNL     1     -15.836  -9.857 156.474  1.00  0.00    -0.031 C 
HETATM    4  C6  UNL     1     -15.595 -10.850 155.659  1.00  0.00    -0.031 C 
BRANCH   4   5
HETATM    5  C5  UNL     1     -16.035 -10.883 154.256  1.00  0.00     0.027 C 
BRANCH   5   6
HETATM    6  C4  UNL     1     -16.881 -12.114 153.956  1.00  0.00     0.007 C 
BRANCH   6   7
HETATM    7  C3  UNL     1     -18.314 -11.935 154.363  1.00  0.00     0.026 C 
BRANCH   7   8
HETATM    8  C2  UNL     1     -18.989 -13.238 154.430  1.00  0.00    -0.037 C 
HETATM    9  C1  UNL     1     -18.341 -14.350 154.112  1.00  0.00     0.007 C 
ENDBRANCH   7   8
ENDBRANCH   6   7
ENDBRANCH   5   6
ENDBRANCH   4   5
ENDBRANCH   2   3
ENDBRANCH   1   2
BRANCH   1  10
HETATM   10  C10 UNL     1     -16.947  -8.901 158.665  1.00  0.00     0.003 C 
BRANCH  10  11
HETATM   11  C11 UNL     1     -16.758  -8.319 160.007  1.00  0.00     0.034 C 
BRANCH  11  12
HETATM   12  C12 UNL     1     -17.308  -6.953 160.244  1.00  0.00     0.151 A 
HETATM   13  O1  UNL     1     -17.341  -6.478 161.584  1.00  0.00    -0.375 OA
HETATM   14  C13 UNL     1     -18.563  -6.602 160.880  1.00  0.00     0.158 A 
BRANCH  14  15
HETATM   15  C14 UNL     1     -19.276  -5.346 160.434  1.00  0.00     0.112 C 
BRANCH  15  16
HETATM   16  C15 UNL     1     -20.509  -5.641 159.708  1.00  0.00     0.125 C 
HETATM   17  C16 UNL     1     -20.370  -6.535 158.493  1.00  0.00     0.091 C 
HETATM   18  O2  UNL     1     -21.575  -5.207 160.047  1.00  0.00    -0.298 OA
ENDBRANCH  15  16
ENDBRANCH  14  15
ENDBRANCH  11  12
ENDBRANCH  10  11
ENDBRANCH   1  10
TORSDOF 11
ENDMDL
MODEL 5
REMARK VINA RESULT: -7.347152093      1.687      2.148
REMARK  11 active torsions:
REMARK  status: ('A' for Active; 'I' for Inactive)
REMARK    1  A    between atoms: C2_2  and  C3_3 
REMARK    2  A    between atoms: C3_3  and  C4_4 
REMARK    3  A    between atoms: C4_4  and  C5_5 
REMARK    4  A    between atoms: C5_5  and  C6_6 
REMARK    5  A    between atoms: C7_7  and  C8_8 
REMARK    6  A    between atoms: C8_8  and  C9_9 
REMARK    7  A    between atoms: C9_9  and  C10_10 
REMARK    8  A    between atoms: C10_10  and  C11_11 
REMARK    9  A    between atoms: C11_11  and  C12_12 
REMARK   10  A    between atoms: C13_14  and  C14_15 
REMARK   11  A    between atoms: C14_15  and  C15_16 
ROOT
HETATM    1  C9  UNL     1     -15.317 -10.608 157.626  1.00  0.00     0.004 C 
ENDROOT
BRANCH   1   2
HETATM    2  C8  UNL     1     -15.012 -10.919 156.174  1.00  0.00     0.027 C 
BRANCH   2   3
HETATM    3  C7  UNL     1     -15.930 -10.167 155.298  1.00  0.00    -0.031 C 
HETATM    4  C6  UNL     1     -16.697 -10.620 154.342  1.00  0.00    -0.031 C 
BRANCH   4   5
HETATM    5  C5  UNL     1     -16.776 -12.038 153.959  1.00  0.00     0.027 C 
BRANCH   5   6
HETATM    6  C4  UNL     1     -18.095 -12.668 154.387  1.00  0.00     0.007 C 
BRANCH   6   7
HETATM    7  C3  UNL     1     -18.230 -14.087 153.915  1.00  0.00     0.026 C 
BRANCH   7   8
HETATM    8  C2  UNL     1     -19.191 -14.164 152.807  1.00  0.00    -0.037 C 
HETATM    9  C1  UNL     1     -19.938 -13.115 152.489  1.00  0.00     0.007 C 
ENDBRANCH   7   8
ENDBRANCH   6   7
ENDBRANCH   5   6
ENDBRANCH   4   5
ENDBRANCH   2   3
ENDBRANCH   1   2
BRANCH   1  10
HETATM   10  C10 UNL     1     -16.250  -9.485 157.819  1.00  0.00     0.003 C 
BRANCH  10  11
HETATM   11  C11 UNL     1     -16.656  -9.128 159.191  1.00  0.00     0.034 C 
BRANCH  11  12
HETATM   12  C12 UNL     1     -17.172  -7.746 159.415  1.00  0.00     0.151 A 
HETATM   13  O1  UNL     1     -17.522  -7.380 160.743  1.00  0.00    -0.375 OA
HETATM   14  C13 UNL     1     -18.527  -7.350 159.747  1.00  0.00     0.158 A 
BRANCH  14  15
HETATM   15  C14 UNL     1     -19.030  -6.010 159.260  1.00  0.00     0.112 C 
BRANCH  15  16
HETATM   16  C15 UNL     1     -20.489  -5.959 159.201  1.00  0.00     0.125 C 
HETATM   17  C16 UNL     1     -21.155  -4.899 160.054  1.00  0.00     0.091 C 
HETATM   18  O2  UNL     1     -21.132  -6.708 158.519  1.00  0.00    -0.298 OA
ENDBRANCH  15  16
ENDBRANCH  14  15
ENDBRANCH  11  12
ENDBRANCH  10  11
ENDBRANCH   1  10
TORSDOF 11
ENDMDL
