MODEL 1
REMARK VINA RESULT: -4.872977797      0.000      0.000
REMARK  6 active torsions:
REMARK  status: ('A' for Active; 'I' for Inactive)
REMARK    1  A    between atoms: N1_2  and  C3_4 
REMARK    2  A    between atoms: C5_11  and  N4_12 
REMARK    3  A    between atoms: C6_15  and  N5_16 
REMARK    4  A    between atoms: N5_16  and  O2_17 
REMARK    5  A    between atoms: N5_16  and  C7_19 
REMARK    6  A    between atoms: C7_19  and  N6_22 
ROOT
HETATM    1  C3  UNL     1      -0.204 -19.718 -50.420  1.00  0.00     0.140 A 
HETATM    2  N2  UNL     1      -1.240 -20.559 -50.144  1.00  0.00    -0.292 N 
ATOM      3  H2  UNL     1      -1.421 -21.363 -50.745  1.00  0.00     0.172 HD
HETATM    4  C4  UNL     1      -2.015 -20.326 -49.090  1.00  0.00     0.327 A 
HETATM    5  O1  UNL     1      -2.996 -21.098 -48.807  1.00  0.00    -0.247 OA
HETATM    6  N3  UNL     1      -1.775 -19.282 -48.313  1.00  0.00    -0.293 N 
ATOM      7  H3  UNL     1      -2.378 -19.117 -47.507  1.00  0.00     0.172 HD
HETATM    8  C5  UNL     1      -0.745 -18.420 -48.558  1.00  0.00     0.136 A 
HETATM    9  C6  UNL     1       0.078 -18.635 -49.649  1.00  0.00     0.147 A 
ENDROOT
BRANCH   9  10
HETATM   10  N5  UNL     1       1.144 -17.774 -49.901  1.00  0.00    -0.217 N 
BRANCH  10  11
HETATM   11  O2  UNL     1       2.206 -17.984 -49.197  1.00  0.00    -0.284 OA
ATOM     12  H2  UNL     1       2.999 -17.574 -49.521  1.00  0.00     0.245 HD
ENDBRANCH  10  11
BRANCH  10  13
HETATM   13  C7  UNL     1       1.254 -16.681 -50.807  1.00  0.00     0.213 C 
HETATM   14  C8  UNL     1       2.067 -17.022 -52.067  1.00  0.00     0.072 C 
HETATM   15  C9  UNL     1      -0.143 -16.327 -51.377  1.00  0.00     0.072 C 
BRANCH  13  16
HETATM   16  N6  UNL     1       1.723 -15.436 -50.239  1.00  0.00    -0.051 N 
ATOM     17  H63 UNL     1       1.047 -15.088 -49.558  1.00  0.00     0.277 HD
ATOM     18  H62 UNL     1       2.522 -15.612 -49.629  1.00  0.00     0.277 HD
ATOM     19  H61 UNL     1       1.952 -14.701 -50.908  1.00  0.00     0.277 HD
ENDBRANCH  13  16
ENDBRANCH  10  13
ENDBRANCH   9  10
BRANCH   1  20
HETATM   20  N1  UNL     1       0.544 -20.094 -51.551  1.00  0.00    -0.374 N 
HETATM   21  C1  UNL     1       1.799 -20.753 -51.435  1.00  0.00     0.150 C 
HETATM   22  C2  UNL     1      -0.024 -19.825 -52.851  1.00  0.00     0.150 C 
ENDBRANCH   1  20
BRANCH   8  23
HETATM   23  N4  UNL     1      -0.522 -17.437 -47.790  1.00  0.00    -0.383 N 
ATOM     24  H42 UNL     1      -0.924 -17.428 -46.853  1.00  0.00     0.157 HD
ATOM     25  H41 UNL     1       0.044 -16.646 -48.100  1.00  0.00     0.157 HD
ENDBRANCH   8  23
TORSDOF 6
ENDMDL
MODEL 2
REMARK VINA RESULT: -4.649468242      0.722      1.011
REMARK  6 active torsions:
REMARK  status: ('A' for Active; 'I' for Inactive)
REMARK    1  A    between atoms: N1_2  and  C3_4 
REMARK    2  A    between atoms: C5_11  and  N4_12 
REMARK    3  A    between atoms: C6_15  and  N5_16 
REMARK    4  A    between atoms: N5_16  and  O2_17 
REMARK    5  A    between atoms: N5_16  and  C7_19 
REMARK    6  A    between atoms: C7_19  and  N6_22 
ROOT
HETATM    1  C3  UNL     1      -0.202 -19.744 -50.481  1.00  0.00     0.140 A 
HETATM    2  N2  UNL     1      -1.209 -20.601 -50.152  1.00  0.00    -0.292 N 
ATOM      3  H2  UNL     1      -1.375 -21.435 -50.714  1.00  0.00     0.172 HD
HETATM    4  C4  UNL     1      -1.975 -20.343 -49.097  1.00  0.00     0.327 A 
HETATM    5  O1  UNL     1      -2.929 -21.130 -48.765  1.00  0.00    -0.247 OA
HETATM    6  N3  UNL     1      -1.754 -19.260 -48.371  1.00  0.00    -0.293 N 
ATOM      7  H3  UNL     1      -2.350 -19.076 -47.563  1.00  0.00     0.172 HD
HETATM    8  C5  UNL     1      -0.754 -18.380 -48.669  1.00  0.00     0.136 A 
HETATM    9  C6  UNL     1       0.059 -18.620 -49.763  1.00  0.00     0.147 A 
ENDROOT
BRANCH   9  10
HETATM   10  N5  UNL     1       1.096 -17.741 -50.069  1.00  0.00    -0.217 N 
BRANCH  10  11
HETATM   11  O2  UNL     1       2.117 -17.788 -49.278  1.00  0.00    -0.284 OA
ATOM     12  H2  UNL     1       2.259 -18.621 -48.844  1.00  0.00     0.245 HD
ENDBRANCH  10  11
BRANCH  10  13
HETATM   13  C7  UNL     1       1.214 -16.780 -51.112  1.00  0.00     0.213 C 
HETATM   14  C8  UNL     1      -0.139 -16.385 -51.725  1.00  0.00     0.072 C 
HETATM   15  C9  UNL     1       1.742 -15.441 -50.538  1.00  0.00     0.072 C 
BRANCH  13  16
HETATM   16  N6  UNL     1       2.156 -17.103 -52.162  1.00  0.00    -0.051 N 
ATOM     17  H63 UNL     1       2.501 -16.246 -52.594  1.00  0.00     0.277 HD
ATOM     18  H62 UNL     1       3.020 -17.462 -51.755  1.00  0.00     0.277 HD
ATOM     19  H61 UNL     1       1.819 -17.743 -52.881  1.00  0.00     0.277 HD
ENDBRANCH  13  16
ENDBRANCH  10  13
ENDBRANCH   9  10
BRANCH   1  20
HETATM   20  N1  UNL     1       0.540 -20.148 -51.606  1.00  0.00    -0.374 N 
HETATM   21  C1  UNL     1       1.792 -20.811 -51.480  1.00  0.00     0.150 C 
HETATM   22  C2  UNL     1      -0.030 -19.904 -52.910  1.00  0.00     0.150 C 
ENDBRANCH   1  20
BRANCH   8  23
HETATM   23  N4  UNL     1      -0.548 -17.358 -47.949  1.00  0.00    -0.383 N 
ATOM     24  H42 UNL     1      -0.797 -16.434 -48.303  1.00  0.00     0.157 HD
ATOM     25  H41 UNL     1      -0.123 -17.443 -47.025  1.00  0.00     0.157 HD
ENDBRANCH   8  23
TORSDOF 6
ENDMDL
MODEL 3
REMARK VINA RESULT: -4.413293728      2.005      4.198
REMARK  6 active torsions:
REMARK  status: ('A' for Active; 'I' for Inactive)
REMARK    1  A    between atoms: N1_2  and  C3_4 
REMARK    2  A    between atoms: C5_11  and  N4_12 
REMARK    3  A    between atoms: C6_15  and  N5_16 
REMARK    4  A    between atoms: N5_16  and  O2_17 
REMARK    5  A    between atoms: N5_16  and  C7_19 
REMARK    6  A    between atoms: C7_19  and  N6_22 
ROOT
HETATM    1  C3  UNL     1       1.237 -18.571 -51.827  1.00  0.00     0.140 A 
HETATM    2  N2  UNL     1       1.451 -18.365 -53.157  1.00  0.00    -0.292 N 
ATOM      3  H2  UNL     1       1.326 -19.129 -53.820  1.00  0.00     0.172 HD
HETATM    4  C4  UNL     1       1.823 -17.163 -53.586  1.00  0.00     0.327 A 
HETATM    5  O1  UNL     1       2.032 -16.941 -54.830  1.00  0.00    -0.247 OA
HETATM    6  N3  UNL     1       1.982 -16.174 -52.722  1.00  0.00    -0.293 N 
ATOM      7  H3  UNL     1       2.268 -15.258 -53.067  1.00  0.00     0.172 HD
HETATM    8  C5  UNL     1       1.775 -16.343 -51.383  1.00  0.00     0.136 A 
HETATM    9  C6  UNL     1       1.388 -17.583 -50.906  1.00  0.00     0.147 A 
ENDROOT
BRANCH   9  10
HETATM   10  N5  UNL     1       1.156 -17.766 -49.544  1.00  0.00    -0.217 N 
BRANCH  10  11
HETATM   11  O2  UNL     1       2.172 -18.172 -48.856  1.00  0.00    -0.284 OA
ATOM     12  H2  UNL     1       2.309 -19.111 -48.846  1.00  0.00     0.245 HD
ENDBRANCH  10  11
BRANCH  10  13
HETATM   13  C7  UNL     1      -0.030 -17.588 -48.778  1.00  0.00     0.213 C 
HETATM   14  C8  UNL     1      -1.131 -16.829 -49.537  1.00  0.00     0.072 C 
HETATM   15  C9  UNL     1      -0.685 -18.963 -48.494  1.00  0.00     0.072 C 
BRANCH  13  16
HETATM   16  N6  UNL     1       0.149 -17.011 -47.463  1.00  0.00    -0.051 N 
ATOM     17  H63 UNL     1       0.762 -17.605 -46.904  1.00  0.00     0.277 HD
ATOM     18  H62 UNL     1       0.722 -16.169 -47.528  1.00  0.00     0.277 HD
ATOM     19  H61 UNL     1      -0.707 -16.810 -46.945  1.00  0.00     0.277 HD
ENDBRANCH  13  16
ENDBRANCH  10  13
ENDBRANCH   9  10
BRANCH   1  20
HETATM   20  N1  UNL     1       0.827 -19.880 -51.516  1.00  0.00    -0.374 N 
HETATM   21  C1  UNL     1      -0.518 -20.306 -51.687  1.00  0.00     0.150 C 
HETATM   22  C2  UNL     1       1.834 -20.804 -51.049  1.00  0.00     0.150 C 
ENDBRANCH   1  20
BRANCH   8  23
HETATM   23  N4  UNL     1       1.915 -15.377 -50.575  1.00  0.00    -0.383 N 
ATOM     24  H42 UNL     1       2.244 -14.475 -50.920  1.00  0.00     0.157 HD
ATOM     25  H41 UNL     1       1.716 -15.492 -49.581  1.00  0.00     0.157 HD
ENDBRANCH   8  23
TORSDOF 6
ENDMDL
MODEL 4
REMARK VINA RESULT: -4.218508099      2.446      3.774
REMARK  6 active torsions:
REMARK  status: ('A' for Active; 'I' for Inactive)
REMARK    1  A    between atoms: N1_2  and  C3_4 
REMARK    2  A    between atoms: C5_11  and  N4_12 
REMARK    3  A    between atoms: C6_15  and  N5_16 
REMARK    4  A    between atoms: N5_16  and  O2_17 
REMARK    5  A    between atoms: N5_16  and  C7_19 
REMARK    6  A    between atoms: C7_19  and  N6_22 
ROOT
HETATM    1  C3  UNL     1       0.947 -19.050 -51.945  1.00  0.00     0.140 A 
HETATM    2  N2  UNL     1       1.287 -20.085 -52.763  1.00  0.00    -0.292 N 
ATOM      3  H2  UNL     1       0.854 -20.176 -53.681  1.00  0.00     0.172 HD
HETATM    4  C4  UNL     1       2.186 -20.977 -52.359  1.00  0.00     0.327 A 
HETATM    5  O1  UNL     1       2.525 -21.960 -53.106  1.00  0.00    -0.247 OA
HETATM    6  N3  UNL     1       2.747 -20.854 -51.167  1.00  0.00    -0.293 N 
ATOM      7  H3  UNL     1       3.436 -21.546 -50.870  1.00  0.00     0.172 HD
HETATM    8  C5  UNL     1       2.432 -19.830 -50.321  1.00  0.00     0.136 A 
HETATM    9  C6  UNL     1       1.498 -18.886 -50.713  1.00  0.00     0.147 A 
ENDROOT
BRANCH   9  10
HETATM   10  N5  UNL     1       1.180 -17.825 -49.868  1.00  0.00    -0.217 N 
BRANCH  10  11
HETATM   11  O2  UNL     1       2.009 -16.835 -49.883  1.00  0.00    -0.284 OA
ATOM     12  H2  UNL     1       2.023 -16.300 -49.098  1.00  0.00     0.245 HD
ENDBRANCH  10  11
BRANCH  10  13
HETATM   13  C7  UNL     1       0.087 -17.654 -48.972  1.00  0.00     0.213 C 
HETATM   14  C8  UNL     1      -0.973 -16.671 -49.494  1.00  0.00     0.072 C 
HETATM   15  C9  UNL     1      -0.700 -18.983 -48.842  1.00  0.00     0.072 C 
BRANCH  13  16
HETATM   16  N6  UNL     1       0.437 -17.323 -47.607  1.00  0.00    -0.051 N 
ATOM     17  H63 UNL     1       1.340 -17.735 -47.371  1.00  0.00     0.277 HD
ATOM     18  H62 UNL     1       0.666 -16.331 -47.539  1.00  0.00     0.277 HD
ATOM     19  H61 UNL     1      -0.254 -17.570 -46.899  1.00  0.00     0.277 HD
ENDBRANCH  13  16
ENDBRANCH  10  13
ENDBRANCH   9  10
BRANCH   1  20
HETATM   20  N1  UNL     1       0.001 -18.173 -52.505  1.00  0.00    -0.374 N 
HETATM   21  C1  UNL     1       0.378 -16.918 -53.059  1.00  0.00     0.150 C 
HETATM   22  C2  UNL     1      -1.376 -18.604 -52.541  1.00  0.00     0.150 C 
ENDBRANCH   1  20
BRANCH   8  23
HETATM   23  N4  UNL     1       2.995 -19.720 -49.191  1.00  0.00    -0.383 N 
ATOM     24  H42 UNL     1       2.823 -20.423 -48.472  1.00  0.00     0.157 HD
ATOM     25  H41 UNL     1       3.608 -18.931 -48.983  1.00  0.00     0.157 HD
ENDBRANCH   8  23
TORSDOF 6
ENDMDL
MODEL 5
REMARK VINA RESULT: -4.174143907      2.052      4.276
REMARK  6 active torsions:
REMARK  status: ('A' for Active; 'I' for Inactive)
REMARK    1  A    between atoms: N1_2  and  C3_4 
REMARK    2  A    between atoms: C5_11  and  N4_12 
REMARK    3  A    between atoms: C6_15  and  N5_16 
REMARK    4  A    between atoms: N5_16  and  O2_17 
REMARK    5  A    between atoms: N5_16  and  C7_19 
REMARK    6  A    between atoms: C7_19  and  N6_22 
ROOT
HETATM    1  C3  UNL     1       0.371 -18.787 -51.691  1.00  0.00     0.140 A 
HETATM    2  N2  UNL     1       1.388 -18.871 -52.595  1.00  0.00    -0.292 N 
ATOM      3  H2  UNL     1       1.468 -19.688 -53.201  1.00  0.00     0.172 HD
HETATM    4  C4  UNL     1       2.275 -17.886 -52.682  1.00  0.00     0.327 A 
HETATM    5  O1  UNL     1       3.241 -17.938 -53.521  1.00  0.00    -0.247 OA
HETATM    6  N3  UNL     1       2.166 -16.829 -51.894  1.00  0.00    -0.293 N 
ATOM      7  H3  UNL     1       2.855 -16.080 -51.973  1.00  0.00     0.172 HD
HETATM    8  C5  UNL     1       1.161 -16.709 -50.979  1.00  0.00     0.136 A 
HETATM    9  C6  UNL     1       0.222 -17.720 -50.863  1.00  0.00     0.147 A 
ENDROOT
BRANCH   9  10
HETATM   10  N5  UNL     1      -0.820 -17.603 -49.946  1.00  0.00    -0.217 N 
BRANCH  10  11
HETATM   11  O2  UNL     1      -1.892 -17.038 -50.392  1.00  0.00    -0.284 OA
ATOM     12  H2  UNL     1      -1.859 -16.090 -50.455  1.00  0.00     0.245 HD
ENDBRANCH  10  11
BRANCH  10  13
HETATM   13  C7  UNL     1      -0.897 -17.998 -48.580  1.00  0.00     0.213 C 
HETATM   14  C8  UNL     1      -1.762 -17.056 -47.727  1.00  0.00     0.072 C 
HETATM   15  C9  UNL     1      -1.638 -19.355 -48.465  1.00  0.00     0.072 C 
BRANCH  13  16
HETATM   16  N6  UNL     1       0.369 -18.237 -47.921  1.00  0.00    -0.051 N 
ATOM     17  H63 UNL     1       1.059 -18.558 -48.601  1.00  0.00     0.277 HD
ATOM     18  H62 UNL     1       0.788 -17.350 -47.641  1.00  0.00     0.277 HD
ATOM     19  H61 UNL     1       0.342 -18.875 -47.125  1.00  0.00     0.277 HD
ENDBRANCH  13  16
ENDBRANCH  10  13
ENDBRANCH   9  10
BRANCH   1  20
HETATM   20  N1  UNL     1      -0.504 -19.888 -51.720  1.00  0.00    -0.374 N 
HETATM   21  C1  UNL     1      -1.755 -19.834 -52.395  1.00  0.00     0.150 C 
HETATM   22  C2  UNL     1      -0.075 -21.104 -51.071  1.00  0.00     0.150 C 
ENDBRANCH   1  20
BRANCH   8  23
HETATM   23  N4  UNL     1       1.064 -15.679 -50.247  1.00  0.00    -0.383 N 
ATOM     24  H42 UNL     1       1.729 -15.538 -49.487  1.00  0.00     0.157 HD
ATOM     25  H41 UNL     1       0.322 -14.995 -50.397  1.00  0.00     0.157 HD
ENDBRANCH   8  23
TORSDOF 6
ENDMDL
