MODEL 1
REMARK VINA RESULT: -5.330319056      0.000      0.000
REMARK  4 active torsions:
REMARK  status: ('A' for Active; 'I' for Inactive)
REMARK    1  A    between atoms: N3_10  and  C4_12 
REMARK    2  A    between atoms: C4_12  and  C5_13 
REMARK    3  A    between atoms: C5_13  and  S1_14 
REMARK    4  A    between atoms: S1_14  and  C6_15 
ROOT
HETATM    1  N1  UNL     1       0.182 -18.123 -47.810  1.00  0.00    -0.381 N 
ATOM      2  H11 UNL     1      -0.714 -18.406 -47.411  1.00  0.00     0.157 HD
ATOM      3  H12 UNL     1       1.062 -18.429 -47.396  1.00  0.00     0.157 HD
HETATM    4  C1  UNL     1       0.191 -17.356 -48.867  1.00  0.00     0.171 A 
HETATM    5  N2  UNL     1       1.430 -16.964 -49.420  1.00  0.00    -0.302 N 
ATOM      6  H2  UNL     1       2.307 -17.273 -49.001  1.00  0.00     0.171 HD
HETATM    7  C2  UNL     1       1.428 -16.121 -50.583  1.00  0.00     0.291 A 
HETATM    8  O1  UNL     1       2.522 -15.779 -51.064  1.00  0.00    -0.264 OA
HETATM    9  C3  UNL     1       0.197 -15.666 -51.200  1.00  0.00     0.173 A 
HETATM   10  N3  UNL     1       0.210 -14.931 -52.214  1.00  0.00    -0.371 N 
ATOM     11  H3  UNL     1       1.135 -14.683 -52.567  1.00  0.00     0.161 HD
HETATM   12  N5  UNL     1      -1.029 -16.075 -50.625  1.00  0.00    -0.302 N 
ATOM     13  H5  UNL     1      -1.906 -15.765 -51.043  1.00  0.00     0.171 HD
HETATM   14  C7  UNL     1      -1.062 -16.922 -49.457  1.00  0.00     0.290 A 
HETATM   15  O2  UNL     1      -2.152 -17.285 -48.948  1.00  0.00    -0.264 OA
ENDROOT
BRANCH  10  16
HETATM   16  C4  UNL     1      -0.893 -14.394 -52.946  1.00  0.00     0.132 C 
BRANCH  16  17
HETATM   17  C5  UNL     1      -0.778 -12.952 -53.287  1.00  0.00     0.101 C 
BRANCH  17  18
HETATM   18  S1  UNL     1      -2.419 -12.191 -53.271  1.00  0.00    -0.102 SA
BRANCH  18  19
HETATM   19  C6  UNL     1      -2.484 -10.642 -52.442  1.00  0.00     0.149 C 
HETATM   20  N4  UNL     1      -3.526 -10.404 -51.509  1.00  0.00    -0.082 NA
HETATM   21  S2  UNL     1      -1.393  -9.465 -52.694  1.00  0.00    -0.056 SA
ENDBRANCH  18  19
ENDBRANCH  17  18
ENDBRANCH  16  17
ENDBRANCH  10  16
TORSDOF 4
ENDMDL
MODEL 2
REMARK VINA RESULT: -5.159086356      1.068      1.219
REMARK  4 active torsions:
REMARK  status: ('A' for Active; 'I' for Inactive)
REMARK    1  A    between atoms: N3_10  and  C4_12 
REMARK    2  A    between atoms: C4_12  and  C5_13 
REMARK    3  A    between atoms: C5_13  and  S1_14 
REMARK    4  A    between atoms: S1_14  and  C6_15 
ROOT
HETATM    1  N1  UNL     1       0.158 -18.038 -47.726  1.00  0.00    -0.381 N 
ATOM      2  H11 UNL     1      -0.737 -18.311 -47.320  1.00  0.00     0.157 HD
ATOM      3  H12 UNL     1       1.038 -18.296 -47.280  1.00  0.00     0.157 HD
HETATM    4  C1  UNL     1       0.168 -17.346 -48.834  1.00  0.00     0.171 A 
HETATM    5  N2  UNL     1       1.407 -16.967 -49.395  1.00  0.00    -0.302 N 
ATOM      6  H2  UNL     1       2.284 -17.227 -48.945  1.00  0.00     0.171 HD
HETATM    7  C2  UNL     1       1.406 -16.207 -50.615  1.00  0.00     0.291 A 
HETATM    8  O1  UNL     1       2.500 -15.876 -51.103  1.00  0.00    -0.264 OA
HETATM    9  C3  UNL     1       0.176 -15.822 -51.279  1.00  0.00     0.173 A 
HETATM   10  N3  UNL     1       0.189 -15.159 -52.341  1.00  0.00    -0.371 N 
ATOM     11  H3  UNL     1       1.114 -14.916 -52.697  1.00  0.00     0.161 HD
HETATM   12  N5  UNL     1      -1.050 -16.216 -50.693  1.00  0.00    -0.302 N 
ATOM     13  H5  UNL     1      -1.927 -15.954 -51.144  1.00  0.00     0.171 HD
HETATM   14  C7  UNL     1      -1.084 -16.980 -49.470  1.00  0.00     0.290 A 
HETATM   15  O2  UNL     1      -2.174 -17.330 -48.951  1.00  0.00    -0.264 OA
ENDROOT
BRANCH  10  16
HETATM   16  C4  UNL     1      -0.913 -14.698 -53.124  1.00  0.00     0.132 C 
BRANCH  16  17
HETATM   17  C5  UNL     1      -0.542 -13.913 -54.330  1.00  0.00     0.101 C 
BRANCH  17  18
HETATM   18  S1  UNL     1      -0.851 -12.156 -54.030  1.00  0.00    -0.102 SA
BRANCH  18  19
HETATM   19  C6  UNL     1      -2.307 -11.832 -53.097  1.00  0.00     0.149 C 
HETATM   20  N4  UNL     1      -2.181 -11.273 -51.799  1.00  0.00    -0.082 NA
HETATM   21  S2  UNL     1      -3.798 -12.139 -53.662  1.00  0.00    -0.056 SA
ENDBRANCH  18  19
ENDBRANCH  17  18
ENDBRANCH  16  17
ENDBRANCH  10  16
TORSDOF 4
ENDMDL
MODEL 3
REMARK VINA RESULT: -5.107446378      2.073      2.618
REMARK  4 active torsions:
REMARK  status: ('A' for Active; 'I' for Inactive)
REMARK    1  A    between atoms: N3_10  and  C4_12 
REMARK    2  A    between atoms: C4_12  and  C5_13 
REMARK    3  A    between atoms: C5_13  and  S1_14 
REMARK    4  A    between atoms: S1_14  and  C6_15 
ROOT
HETATM    1  N1  UNL     1       0.039 -18.307 -47.702  1.00  0.00    -0.381 N 
ATOM      2  H11 UNL     1      -0.869 -18.542 -47.300  1.00  0.00     0.157 HD
ATOM      3  H12 UNL     1       0.902 -18.671 -47.299  1.00  0.00     0.157 HD
HETATM    4  C1  UNL     1       0.086 -17.527 -48.749  1.00  0.00     0.171 A 
HETATM    5  N2  UNL     1       1.343 -17.201 -49.305  1.00  0.00    -0.302 N 
ATOM      6  H2  UNL     1       2.203 -17.567 -48.897  1.00  0.00     0.171 HD
HETATM    7  C2  UNL     1       1.384 -16.342 -50.456  1.00  0.00     0.291 A 
HETATM    8  O1  UNL     1       2.493 -16.060 -50.940  1.00  0.00    -0.264 OA
HETATM    9  C3  UNL     1       0.178 -15.806 -51.057  1.00  0.00     0.173 A 
HETATM   10  N3  UNL     1       0.228 -15.059 -52.061  1.00  0.00    -0.371 N 
ATOM     11  H3  UNL     1       1.163 -14.861 -52.417  1.00  0.00     0.161 HD
HETATM   12  N5  UNL     1      -1.066 -16.150 -50.478  1.00  0.00    -0.302 N 
ATOM     13  H5  UNL     1      -1.927 -15.782 -50.886  1.00  0.00     0.171 HD
HETATM   14  C7  UNL     1      -1.142 -17.010 -49.323  1.00  0.00     0.290 A 
HETATM   15  O2  UNL     1      -2.248 -17.315 -48.810  1.00  0.00    -0.264 OA
ENDROOT
BRANCH  10  16
HETATM   16  C4  UNL     1      -0.846 -14.447 -52.776  1.00  0.00     0.132 C 
BRANCH  16  17
HETATM   17  C5  UNL     1      -0.750 -12.969 -52.911  1.00  0.00     0.101 C 
BRANCH  17  18
HETATM   18  S1  UNL     1       0.221 -12.555 -54.380  1.00  0.00    -0.102 SA
BRANCH  18  19
HETATM   19  C6  UNL     1       1.952 -12.442 -54.089  1.00  0.00     0.149 C 
HETATM   20  N4  UNL     1       2.574 -13.405 -53.253  1.00  0.00    -0.082 NA
HETATM   21  S2  UNL     1       2.878 -11.279 -54.744  1.00  0.00    -0.056 SA
ENDBRANCH  18  19
ENDBRANCH  17  18
ENDBRANCH  16  17
ENDBRANCH  10  16
TORSDOF 4
ENDMDL
MODEL 4
REMARK VINA RESULT: -5.092232106      2.761      3.223
REMARK  4 active torsions:
REMARK  status: ('A' for Active; 'I' for Inactive)
REMARK    1  A    between atoms: N3_10  and  C4_12 
REMARK    2  A    between atoms: C4_12  and  C5_13 
REMARK    3  A    between atoms: C5_13  and  S1_14 
REMARK    4  A    between atoms: S1_14  and  C6_15 
ROOT
HETATM    1  N1  UNL     1       0.121 -18.221 -47.823  1.00  0.00    -0.381 N 
ATOM      2  H11 UNL     1      -0.785 -18.476 -47.429  1.00  0.00     0.157 HD
ATOM      3  H12 UNL     1       0.988 -18.570 -47.415  1.00  0.00     0.157 HD
HETATM    4  C1  UNL     1       0.161 -17.435 -48.866  1.00  0.00     0.171 A 
HETATM    5  N2  UNL     1       1.415 -17.083 -49.410  1.00  0.00    -0.302 N 
ATOM      6  H2  UNL     1       2.279 -17.434 -48.998  1.00  0.00     0.171 HD
HETATM    7  C2  UNL     1       1.448 -16.218 -50.558  1.00  0.00     0.291 A 
HETATM    8  O1  UNL     1       2.555 -15.911 -51.032  1.00  0.00    -0.264 OA
HETATM    9  C3  UNL     1       0.237 -15.703 -51.166  1.00  0.00     0.173 A 
HETATM   10  N3  UNL     1       0.279 -14.950 -52.166  1.00  0.00    -0.371 N 
ATOM     11  H3  UNL     1       1.214 -14.732 -52.513  1.00  0.00     0.161 HD
HETATM   12  N5  UNL     1      -1.005 -16.074 -50.598  1.00  0.00    -0.302 N 
ATOM     13  H5  UNL     1      -1.869 -15.721 -51.011  1.00  0.00     0.171 HD
HETATM   14  C7  UNL     1      -1.072 -16.940 -49.447  1.00  0.00     0.290 A 
HETATM   15  O2  UNL     1      -2.177 -17.269 -48.944  1.00  0.00    -0.264 OA
ENDROOT
BRANCH  10  16
HETATM   16  C4  UNL     1      -0.801 -14.356 -52.887  1.00  0.00     0.132 C 
BRANCH  16  17
HETATM   17  C5  UNL     1      -0.808 -14.632 -54.348  1.00  0.00     0.101 C 
BRANCH  17  18
HETATM   18  S1  UNL     1      -1.541 -16.257 -54.655  1.00  0.00    -0.102 SA
BRANCH  18  19
HETATM   19  C6  UNL     1      -2.890 -16.648 -53.596  1.00  0.00     0.149 C 
HETATM   20  N4  UNL     1      -2.731 -17.675 -52.629  1.00  0.00    -0.082 NA
HETATM   21  S2  UNL     1      -4.317 -15.875 -53.671  1.00  0.00    -0.056 SA
ENDBRANCH  18  19
ENDBRANCH  17  18
ENDBRANCH  16  17
ENDBRANCH  10  16
TORSDOF 4
ENDMDL
MODEL 5
REMARK VINA RESULT: -5.037955550      1.127      1.127
REMARK  4 active torsions:
REMARK  status: ('A' for Active; 'I' for Inactive)
REMARK    1  A    between atoms: N3_10  and  C4_12 
REMARK    2  A    between atoms: C4_12  and  C5_13 
REMARK    3  A    between atoms: C5_13  and  S1_14 
REMARK    4  A    between atoms: S1_14  and  C6_15 
ROOT
HETATM    1  N1  UNL     1       0.198 -18.218 -47.900  1.00  0.00    -0.381 N 
ATOM      2  H11 UNL     1      -0.699 -18.499 -47.505  1.00  0.00     0.157 HD
ATOM      3  H12 UNL     1       1.075 -18.574 -47.519  1.00  0.00     0.157 HD
HETATM    4  C1  UNL     1       0.216 -17.388 -48.909  1.00  0.00     0.171 A 
HETATM    5  N2  UNL     1       1.459 -16.998 -49.455  1.00  0.00    -0.302 N 
ATOM      6  H2  UNL     1       2.332 -17.357 -49.070  1.00  0.00     0.171 HD
HETATM    7  C2  UNL     1       1.467 -16.085 -50.564  1.00  0.00     0.291 A 
HETATM    8  O1  UNL     1       2.564 -15.746 -51.039  1.00  0.00    -0.264 OA
HETATM    9  C3  UNL     1       0.242 -15.557 -51.133  1.00  0.00     0.173 A 
HETATM   10  N3  UNL     1       0.263 -14.762 -52.100  1.00  0.00    -0.371 N 
ATOM     11  H3  UNL     1       1.190 -14.519 -52.450  1.00  0.00     0.161 HD
HETATM   12  N5  UNL     1      -0.988 -15.965 -50.565  1.00  0.00    -0.302 N 
ATOM     13  H5  UNL     1      -1.862 -15.605 -50.950  1.00  0.00     0.171 HD
HETATM   14  C7  UNL     1      -1.030 -16.881 -49.451  1.00  0.00     0.290 A 
HETATM   15  O2  UNL     1      -2.124 -17.243 -48.948  1.00  0.00    -0.264 OA
ENDROOT
BRANCH  10  16
HETATM   16  C4  UNL     1      -0.834 -14.149 -52.780  1.00  0.00     0.132 C 
BRANCH  16  17
HETATM   17  C5  UNL     1      -0.579 -12.766 -53.262  1.00  0.00     0.101 C 
BRANCH  17  18
HETATM   18  S1  UNL     1      -1.777 -11.633 -52.516  1.00  0.00    -0.102 SA
BRANCH  18  19
HETATM   19  C6  UNL     1      -1.377  -9.932 -52.714  1.00  0.00     0.149 C 
HETATM   20  N4  UNL     1      -0.351  -9.569 -53.625  1.00  0.00    -0.082 NA
HETATM   21  S2  UNL     1      -2.139  -8.751 -51.901  1.00  0.00    -0.056 SA
ENDBRANCH  18  19
ENDBRANCH  17  18
ENDBRANCH  16  17
ENDBRANCH  10  16
TORSDOF 4
ENDMDL
