MODEL 1
REMARK VINA RESULT: -4.328535624      0.000      0.000
REMARK  5 active torsions:
REMARK  status: ('A' for Active; 'I' for Inactive)
REMARK    1  A    between atoms: N1_1  and  C1_4 
REMARK    2  A    between atoms: C2_7  and  N3_8 
REMARK    3  A    between atoms: N3_8  and  C3_10 
REMARK    4  A    between atoms: C3_10  and  C4_11 
REMARK    5  A    between atoms: C4_11  and  N4_12 
ROOT
HETATM    1  C1  UNL     1       0.069 -18.092 -48.351  1.00  0.00     0.162 A 
HETATM    2  N2  UNL     1       0.916 -18.490 -49.323  1.00  0.00    -0.170 N 
ATOM      3  H2  UNL     1       1.817 -18.015 -49.366  1.00  0.00     0.186 HD
HETATM    4  C2  UNL     1       0.697 -19.435 -50.228  1.00  0.00     0.683 A 
HETATM    5  N6  UNL     1      -0.437 -20.183 -50.337  1.00  0.00    -0.150 N 
ATOM      6  H6  UNL     1      -0.466 -20.879 -51.083  1.00  0.00     0.188 HD
HETATM    7  C9  UNL     1      -1.509 -20.087 -49.555  1.00  0.00     0.305 A 
HETATM    8  O1  UNL     1      -2.505 -20.850 -49.766  1.00  0.00    -0.259 OA
HETATM    9  S1  UNL     1      -1.418 -18.920 -48.326  1.00  0.00     0.008 SA
ENDROOT
BRANCH   4  10
HETATM   10  N3  UNL     1       1.585 -19.707 -51.102  1.00  0.00    -0.224 N 
ATOM     11  H3  UNL     1       1.903 -20.672 -51.198  1.00  0.00     0.177 HD
BRANCH  10  12
HETATM   12  C3  UNL     1       2.149 -18.706 -51.951  1.00  0.00     0.157 C 
BRANCH  12  13
HETATM   13  C4  UNL     1       1.173 -18.320 -53.065  1.00  0.00     0.137 C 
BRANCH  13  14
HETATM   14  N4  UNL     1       0.838 -16.942 -52.969  1.00  0.00    -0.408 N 
HETATM   15  C5  UNL     1      -0.539 -16.668 -53.106  1.00  0.00     0.136 C 
HETATM   16  C6  UNL     1      -1.129 -16.664 -51.697  1.00  0.00     0.133 C 
HETATM   17  N5  UNL     1      -0.557 -15.620 -50.923  1.00  0.00    -0.418 N 
HETATM   18  C7  UNL     1       0.764 -15.214 -51.235  1.00  0.00     0.133 C 
ATOM     19  H5  UNL     1      -1.080 -15.176 -50.168  1.00  0.00     0.153 HD
HETATM   20  C8  UNL     1       1.572 -16.237 -51.988  1.00  0.00     0.136 C 
ENDBRANCH  13  14
ENDBRANCH  12  13
ENDBRANCH  10  12
ENDBRANCH   4  10
BRANCH   1  21
HETATM   21  N1  UNL     1       0.392 -17.137 -47.519  1.00  0.00    -0.379 N 
ATOM     22  H12 UNL     1       0.625 -16.185 -47.801  1.00  0.00     0.158 HD
ATOM     23  H11 UNL     1       0.436 -17.303 -46.514  1.00  0.00     0.158 HD
ENDBRANCH   1  21
TORSDOF 5
ENDMDL
MODEL 2
REMARK VINA RESULT: -4.163632857      3.266      5.194
REMARK  5 active torsions:
REMARK  status: ('A' for Active; 'I' for Inactive)
REMARK    1  A    between atoms: N1_1  and  C1_4 
REMARK    2  A    between atoms: C2_7  and  N3_8 
REMARK    3  A    between atoms: N3_8  and  C3_10 
REMARK    4  A    between atoms: C3_10  and  C4_11 
REMARK    5  A    between atoms: C4_11  and  N4_12 
ROOT
HETATM    1  C1  UNL     1       0.245 -18.003 -48.423  1.00  0.00     0.162 A 
HETATM    2  N2  UNL     1       1.238 -18.266 -49.297  1.00  0.00    -0.170 N 
ATOM      3  H2  UNL     1       2.115 -17.764 -49.157  1.00  0.00     0.186 HD
HETATM    4  C2  UNL     1       1.192 -19.111 -50.319  1.00  0.00     0.683 A 
HETATM    5  N6  UNL     1       0.120 -19.874 -50.672  1.00  0.00    -0.150 N 
ATOM      6  H6  UNL     1       0.229 -20.482 -51.484  1.00  0.00     0.188 HD
HETATM    7  C9  UNL     1      -1.056 -19.896 -50.049  1.00  0.00     0.305 A 
HETATM    8  O1  UNL     1      -1.977 -20.658 -50.484  1.00  0.00    -0.259 OA
HETATM    9  S1  UNL     1      -1.192 -18.871 -48.703  1.00  0.00     0.008 SA
ENDROOT
BRANCH   4  10
HETATM   10  N3  UNL     1       2.207 -19.258 -51.078  1.00  0.00    -0.224 N 
ATOM     11  H3  UNL     1       2.713 -18.430 -51.392  1.00  0.00     0.177 HD
BRANCH  10  12
HETATM   12  C3  UNL     1       2.659 -20.546 -51.502  1.00  0.00     0.157 C 
BRANCH  12  13
HETATM   13  C4  UNL     1       4.109 -20.786 -51.073  1.00  0.00     0.137 C 
BRANCH  13  14
HETATM   14  N4  UNL     1       4.146 -21.438 -49.811  1.00  0.00    -0.408 N 
HETATM   15  C5  UNL     1       3.584 -22.732 -49.808  1.00  0.00     0.136 C 
HETATM   16  C6  UNL     1       4.728 -23.708 -50.078  1.00  0.00     0.133 C 
HETATM   17  N5  UNL     1       5.685 -23.652 -49.030  1.00  0.00    -0.418 N 
HETATM   18  C7  UNL     1       5.830 -22.427 -48.333  1.00  0.00     0.133 C 
ATOM     19  H5  UNL     1       6.249 -24.466 -48.787  1.00  0.00     0.153 HD
HETATM   20  C8  UNL     1       5.337 -21.218 -49.083  1.00  0.00     0.136 C 
ENDBRANCH  13  14
ENDBRANCH  12  13
ENDBRANCH  10  12
ENDBRANCH   4  10
BRANCH   1  21
HETATM   21  N1  UNL     1       0.404 -17.138 -47.456  1.00  0.00    -0.379 N 
ATOM     22  H12 UNL     1       0.347 -16.127 -47.575  1.00  0.00     0.158 HD
ATOM     23  H11 UNL     1       0.606 -17.440 -46.503  1.00  0.00     0.158 HD
ENDBRANCH   1  21
TORSDOF 5
ENDMDL
MODEL 3
REMARK VINA RESULT: -4.090833441      3.799      5.293
REMARK  5 active torsions:
REMARK  status: ('A' for Active; 'I' for Inactive)
REMARK    1  A    between atoms: N1_1  and  C1_4 
REMARK    2  A    between atoms: C2_7  and  N3_8 
REMARK    3  A    between atoms: N3_8  and  C3_10 
REMARK    4  A    between atoms: C3_10  and  C4_11 
REMARK    5  A    between atoms: C4_11  and  N4_12 
ROOT
HETATM    1  C1  UNL     1       3.368 -22.847 -50.776  1.00  0.00     0.162 A 
HETATM    2  N2  UNL     1       2.777 -21.640 -50.665  1.00  0.00    -0.170 N 
ATOM      3  H2  UNL     1       1.898 -21.513 -51.167  1.00  0.00     0.186 HD
HETATM    4  C2  UNL     1       3.221 -20.600 -49.970  1.00  0.00     0.683 A 
HETATM    5  N6  UNL     1       4.367 -20.568 -49.233  1.00  0.00    -0.150 N 
ATOM      6  H6  UNL     1       4.584 -19.698 -48.747  1.00  0.00     0.188 HD
HETATM    7  C9  UNL     1       5.228 -21.573 -49.092  1.00  0.00     0.305 A 
HETATM    8  O1  UNL     1       6.264 -21.409 -48.372  1.00  0.00    -0.259 OA
HETATM    9  S1  UNL     1       4.828 -23.002 -49.916  1.00  0.00     0.008 SA
ENDROOT
BRANCH   4  10
HETATM   10  N3  UNL     1       2.564 -19.507 -49.957  1.00  0.00    -0.224 N 
ATOM     11  H3  UNL     1       2.644 -18.893 -49.146  1.00  0.00     0.177 HD
BRANCH  10  12
HETATM   12  C3  UNL     1       1.721 -19.113 -51.041  1.00  0.00     0.157 C 
BRANCH  12  13
HETATM   13  C4  UNL     1       0.580 -18.219 -50.550  1.00  0.00     0.137 C 
BRANCH  13  14
HETATM   14  N4  UNL     1       0.188 -18.599 -49.238  1.00  0.00    -0.408 N 
HETATM   15  C5  UNL     1       0.282 -17.566 -48.281  1.00  0.00     0.136 C 
HETATM   16  C6  UNL     1      -1.085 -16.885 -48.234  1.00  0.00     0.133 C 
HETATM   17  N5  UNL     1      -2.078 -17.798 -47.787  1.00  0.00    -0.418 N 
HETATM   18  C7  UNL     1      -1.882 -19.173 -48.061  1.00  0.00     0.133 C 
ATOM     19  H5  UNL     1      -2.904 -17.473 -47.285  1.00  0.00     0.153 HD
HETATM   20  C8  UNL     1      -0.934 -19.457 -49.196  1.00  0.00     0.136 C 
ENDBRANCH  13  14
ENDBRANCH  12  13
ENDBRANCH  10  12
ENDBRANCH   4  10
BRANCH   1  21
HETATM   21  N1  UNL     1       2.839 -23.797 -51.503  1.00  0.00    -0.379 N 
ATOM     22  H12 UNL     1       1.851 -24.052 -51.482  1.00  0.00     0.158 HD
ATOM     23  H11 UNL     1       3.406 -24.353 -52.142  1.00  0.00     0.158 HD
ENDBRANCH   1  21
TORSDOF 5
ENDMDL
MODEL 4
REMARK VINA RESULT: -4.084120940      3.403      5.414
REMARK  5 active torsions:
REMARK  status: ('A' for Active; 'I' for Inactive)
REMARK    1  A    between atoms: N1_1  and  C1_4 
REMARK    2  A    between atoms: C2_7  and  N3_8 
REMARK    3  A    between atoms: N3_8  and  C3_10 
REMARK    4  A    between atoms: C3_10  and  C4_11 
REMARK    5  A    between atoms: C4_11  and  N4_12 
ROOT
HETATM    1  C1  UNL     1       0.011 -17.959 -48.305  1.00  0.00     0.162 A 
HETATM    2  N2  UNL     1       0.913 -18.376 -49.218  1.00  0.00    -0.170 N 
ATOM      3  H2  UNL     1       1.810 -17.891 -49.229  1.00  0.00     0.186 HD
HETATM    4  C2  UNL     1       0.752 -19.352 -50.103  1.00  0.00     0.683 A 
HETATM    5  N6  UNL     1      -0.365 -20.117 -50.248  1.00  0.00    -0.150 N 
ATOM      6  H6  UNL     1      -0.347 -20.835 -50.973  1.00  0.00     0.188 HD
HETATM    7  C9  UNL     1      -1.479 -20.011 -49.526  1.00  0.00     0.305 A 
HETATM    8  O1  UNL     1      -2.453 -20.792 -49.766  1.00  0.00    -0.259 OA
HETATM    9  S1  UNL     1      -1.465 -18.805 -48.332  1.00  0.00     0.008 SA
ENDROOT
BRANCH   4  10
HETATM   10  N3  UNL     1       1.688 -19.639 -50.921  1.00  0.00    -0.224 N 
ATOM     11  H3  UNL     1       1.900 -18.988 -51.678  1.00  0.00     0.177 HD
BRANCH  10  12
HETATM   12  C3  UNL     1       2.452 -20.842 -50.811  1.00  0.00     0.157 C 
BRANCH  12  13
HETATM   13  C4  UNL     1       3.699 -20.623 -49.951  1.00  0.00     0.137 C 
BRANCH  13  14
HETATM   14  N4  UNL     1       4.705 -21.565 -50.296  1.00  0.00    -0.408 N 
HETATM   15  C5  UNL     1       5.914 -21.412 -49.584  1.00  0.00     0.136 C 
HETATM   16  C6  UNL     1       5.821 -22.320 -48.359  1.00  0.00     0.133 C 
HETATM   17  N5  UNL     1       5.724 -23.680 -48.756  1.00  0.00    -0.418 N 
HETATM   18  C7  UNL     1       5.117 -23.962 -50.005  1.00  0.00     0.133 C 
ATOM     19  H5  UNL     1       6.079 -24.429 -48.163  1.00  0.00     0.153 HD
HETATM   20  C8  UNL     1       4.218 -22.872 -50.524  1.00  0.00     0.136 C 
ENDBRANCH  13  14
ENDBRANCH  12  13
ENDBRANCH  10  12
ENDBRANCH   4  10
BRANCH   1  21
HETATM   21  N1  UNL     1       0.280 -16.975 -47.488  1.00  0.00    -0.379 N 
ATOM     22  H12 UNL     1       0.915 -17.046 -46.693  1.00  0.00     0.158 HD
ATOM     23  H11 UNL     1      -0.152 -16.058 -47.603  1.00  0.00     0.158 HD
ENDBRANCH   1  21
TORSDOF 5
ENDMDL
MODEL 5
REMARK VINA RESULT: -4.071964491      2.189      3.150
REMARK  5 active torsions:
REMARK  status: ('A' for Active; 'I' for Inactive)
REMARK    1  A    between atoms: N1_1  and  C1_4 
REMARK    2  A    between atoms: C2_7  and  N3_8 
REMARK    3  A    between atoms: N3_8  and  C3_10 
REMARK    4  A    between atoms: C3_10  and  C4_11 
REMARK    5  A    between atoms: C4_11  and  N4_12 
ROOT
HETATM    1  C1  UNL     1       1.473 -18.320 -49.353  1.00  0.00     0.162 A 
HETATM    2  N2  UNL     1       1.685 -17.140 -49.971  1.00  0.00    -0.170 N 
ATOM      3  H2  UNL     1       2.642 -16.941 -50.262  1.00  0.00     0.186 HD
HETATM    4  C2  UNL     1       0.776 -16.211 -50.240  1.00  0.00     0.683 A 
HETATM    5  N6  UNL     1      -0.550 -16.286 -49.938  1.00  0.00    -0.150 N 
ATOM      6  H6  UNL     1      -1.135 -15.494 -50.208  1.00  0.00     0.188 HD
HETATM    7  C9  UNL     1      -1.151 -17.303 -49.323  1.00  0.00     0.305 A 
HETATM    8  O1  UNL     1      -2.402 -17.245 -49.101  1.00  0.00    -0.259 OA
HETATM    9  S1  UNL     1      -0.142 -18.599 -48.895  1.00  0.00     0.008 SA
ENDROOT
BRANCH   4  10
HETATM   10  N3  UNL     1       1.115 -15.130 -50.825  1.00  0.00    -0.224 N 
ATOM     11  H3  UNL     1       1.999 -14.688 -50.571  1.00  0.00     0.177 HD
BRANCH  10  12
HETATM   12  C3  UNL     1       0.298 -14.516 -51.824  1.00  0.00     0.157 C 
BRANCH  12  13
HETATM   13  C4  UNL     1       0.643 -15.050 -53.217  1.00  0.00     0.137 C 
BRANCH  13  14
HETATM   14  N4  UNL     1      -0.491 -15.681 -53.795  1.00  0.00    -0.408 N 
HETATM   15  C5  UNL     1      -0.252 -16.991 -54.263  1.00  0.00     0.136 C 
HETATM   16  C6  UNL     1      -0.607 -17.938 -53.118  1.00  0.00     0.133 C 
HETATM   17  N5  UNL     1      -1.989 -17.838 -52.802  1.00  0.00    -0.418 N 
HETATM   18  C7  UNL     1      -2.633 -16.600 -53.040  1.00  0.00     0.133 C 
ATOM     19  H5  UNL     1      -2.500 -18.632 -52.417  1.00  0.00     0.153 HD
HETATM   20  C8  UNL     1      -1.705 -15.417 -53.121  1.00  0.00     0.136 C 
ENDBRANCH  13  14
ENDBRANCH  12  13
ENDBRANCH  10  12
ENDBRANCH   4  10
BRANCH   1  21
HETATM   21  N1  UNL     1       2.454 -19.155 -49.132  1.00  0.00    -0.379 N 
ATOM     22  H12 UNL     1       3.251 -19.282 -49.756  1.00  0.00     0.158 HD
ATOM     23  H11 UNL     1       2.470 -19.746 -48.301  1.00  0.00     0.158 HD
ENDBRANCH   1  21
TORSDOF 5
ENDMDL
