MODEL 1
REMARK VINA RESULT: -7.514134082      0.000      0.000
REMARK  9 active torsions:
REMARK  status: ('A' for Active; 'I' for Inactive)
REMARK       I    between atoms: C1_2  and  N1_3 
REMARK       I    between atoms: C1_2  and  N3_23 
REMARK    1  A    between atoms: N1_3  and  C2_5 
REMARK    2  A    between atoms: C2_5  and  C3_6 
REMARK    3  A    between atoms: C3_6  and  C4_7 
REMARK    4  A    between atoms: C4_7  and  C5_8 
REMARK    5  A    between atoms: C5_8  and  O2_9 
REMARK    6  A    between atoms: O2_9  and  C6_10 
REMARK    7  A    between atoms: C9_13  and  C10_14 
REMARK    8  A    between atoms: C10_14  and  O3_15 
REMARK    9  A    between atoms: N2_17  and  O4_19 
ROOT
HETATM    1  C5  UNL     1      11.993   5.939   1.948  1.00  0.00     0.172 C 
ENDROOT
BRANCH   1   2
HETATM    2  C4  UNL     1      11.035   6.458   3.041  1.00  0.00     0.054 C 
BRANCH   2   3
HETATM    3  C3  UNL     1       9.967   5.493   3.339  1.00  0.00    -0.007 C 
BRANCH   3   4
HETATM    4  C2  UNL     1       8.632   5.558   2.741  1.00  0.00     0.089 C 
BRANCH   4   5
HETATM    5  N1  UNL     1       8.438   5.928   1.402  1.00  0.00    -0.319 N 
HETATM    6  C1  UNL     1       7.950   7.090   0.828  1.00  0.00     0.322 C 
HETATM    7  O1  UNL     1       7.590   8.078   1.499  1.00  0.00    -0.247 OA
HETATM    8  N3  UNL     1       7.821   7.245  -0.594  1.00  0.00    -0.329 N 
HETATM    9  C13 UNL     1       7.330   8.401  -1.293  1.00  0.00     0.132 C 
HETATM   10  C16 UNL     1       8.141   6.321  -1.598  1.00  0.00     0.089 C 
HETATM   11  C14 UNL     1       7.467   7.874  -2.702  1.00  0.00     0.007 C 
HETATM   12  C15 UNL     1       8.839   7.216  -2.637  1.00  0.00     0.031 C 
HETATM   13  C17 UNL     1       6.927   6.449  -2.535  1.00  0.00     0.031 C 
ATOM     14  H1  UNL     1       8.705   5.211   0.728  1.00  0.00     0.169 HD
ENDBRANCH   4   5
ENDBRANCH   3   4
ENDBRANCH   2   3
ENDBRANCH   1   2
BRANCH   1  15
HETATM   15  O2  UNL     1      11.207   5.854   0.801  1.00  0.00    -0.386 OA
BRANCH  15  16
HETATM   16  C6  UNL     1      11.947   6.023  -0.371  1.00  0.00     0.121 C 
HETATM   17  C7  UNL     1      11.746   4.837  -1.246  1.00  0.00     0.033 C 
HETATM   18  C8  UNL     1      12.733   3.734  -1.102  1.00  0.00     0.015 C 
HETATM   19  C9  UNL     1      14.074   4.114  -0.607  1.00  0.00     0.062 C 
HETATM   20  C11 UNL     1      14.366   5.591  -0.838  1.00  0.00     0.015 C 
HETATM   21  C12 UNL     1      13.348   6.317   0.016  1.00  0.00     0.033 C 
BRANCH  19  22
HETATM   22  C10 UNL     1      15.119   3.357  -1.334  1.00  0.00     0.139 C 
HETATM   23  N2  UNL     1      14.804   2.624  -2.345  1.00  0.00    -0.251 N 
ATOM     24  H2  UNL     1      13.833   2.557  -2.653  1.00  0.00     0.196 HD
BRANCH  22  25
HETATM   25  O3  UNL     1      16.434   3.457  -0.904  1.00  0.00    -0.348 OA
ATOM     26  H3  UNL     1      17.083   2.879  -1.286  1.00  0.00     0.219 HD
ENDBRANCH  22  25
BRANCH  23  27
HETATM   27  O4  UNL     1      15.790   1.934  -3.002  1.00  0.00    -0.288 OA
ATOM     28  H4  UNL     1      15.583   1.096  -3.398  1.00  0.00     0.244 HD
ENDBRANCH  23  27
ENDBRANCH  19  22
ENDBRANCH  15  16
ENDBRANCH   1  15
TORSDOF 9
ENDMDL
MODEL 2
REMARK VINA RESULT: -7.309623432      0.877      1.096
REMARK  9 active torsions:
REMARK  status: ('A' for Active; 'I' for Inactive)
REMARK       I    between atoms: C1_2  and  N1_3 
REMARK       I    between atoms: C1_2  and  N3_23 
REMARK    1  A    between atoms: N1_3  and  C2_5 
REMARK    2  A    between atoms: C2_5  and  C3_6 
REMARK    3  A    between atoms: C3_6  and  C4_7 
REMARK    4  A    between atoms: C4_7  and  C5_8 
REMARK    5  A    between atoms: C5_8  and  O2_9 
REMARK    6  A    between atoms: O2_9  and  C6_10 
REMARK    7  A    between atoms: C9_13  and  C10_14 
REMARK    8  A    between atoms: C10_14  and  O3_15 
REMARK    9  A    between atoms: N2_17  and  O4_19 
ROOT
HETATM    1  C5  UNL     1      12.661   5.946   2.487  1.00  0.00     0.172 C 
ENDROOT
BRANCH   1   2
HETATM    2  C4  UNL     1      11.632   5.883   3.636  1.00  0.00     0.054 C 
BRANCH   2   3
HETATM    3  C3  UNL     1      10.305   6.350   3.212  1.00  0.00    -0.007 C 
BRANCH   3   4
HETATM    4  C2  UNL     1       9.387   5.544   2.404  1.00  0.00     0.089 C 
BRANCH   4   5
HETATM    5  N1  UNL     1       8.966   5.955   1.131  1.00  0.00    -0.319 N 
HETATM    6  C1  UNL     1       8.178   7.016   0.717  1.00  0.00     0.322 C 
HETATM    7  O1  UNL     1       7.694   7.849   1.508  1.00  0.00    -0.247 OA
HETATM    8  N3  UNL     1       7.858   7.236  -0.666  1.00  0.00    -0.329 N 
HETATM    9  C13 UNL     1       7.054   8.300  -1.203  1.00  0.00     0.132 C 
HETATM   10  C16 UNL     1       8.251   6.480  -1.777  1.00  0.00     0.089 C 
HETATM   11  C14 UNL     1       7.139   7.916  -2.661  1.00  0.00     0.007 C 
HETATM   12  C15 UNL     1       8.618   7.578  -2.790  1.00  0.00     0.031 C 
HETATM   13  C17 UNL     1       6.939   6.398  -2.577  1.00  0.00     0.031 C 
ATOM     14  H1  UNL     1       9.302   5.364   0.371  1.00  0.00     0.169 HD
ENDBRANCH   4   5
ENDBRANCH   3   4
ENDBRANCH   2   3
ENDBRANCH   1   2
BRANCH   1  15
HETATM   15  O2  UNL     1      12.051   6.732   1.511  1.00  0.00    -0.386 OA
BRANCH  15  16
HETATM   16  C6  UNL     1      12.795   6.795   0.331  1.00  0.00     0.121 C 
HETATM   17  C7  UNL     1      12.012   6.171  -0.769  1.00  0.00     0.033 C 
HETATM   18  C8  UNL     1      12.252   4.724  -1.014  1.00  0.00     0.015 C 
HETATM   19  C9  UNL     1      13.577   4.203  -0.611  1.00  0.00     0.062 C 
HETATM   20  C11 UNL     1      14.619   5.310  -0.519  1.00  0.00     0.015 C 
HETATM   21  C12 UNL     1      14.126   6.201   0.601  1.00  0.00     0.033 C 
BRANCH  19  22
HETATM   22  C10 UNL     1      14.072   3.238  -1.621  1.00  0.00     0.139 C 
HETATM   23  N2  UNL     1      15.337   3.040  -1.763  1.00  0.00    -0.251 N 
ATOM     24  H2  UNL     1      16.008   3.546  -1.184  1.00  0.00     0.196 HD
BRANCH  22  25
HETATM   25  O3  UNL     1      13.148   2.558  -2.400  1.00  0.00    -0.348 OA
ATOM     26  H3  UNL     1      12.973   1.645  -2.206  1.00  0.00     0.219 HD
ENDBRANCH  22  25
BRANCH  23  27
HETATM   27  O4  UNL     1      15.770   2.142  -2.704  1.00  0.00    -0.288 OA
ATOM     28  H4  UNL     1      15.129   1.672  -3.224  1.00  0.00     0.244 HD
ENDBRANCH  23  27
ENDBRANCH  19  22
ENDBRANCH  15  16
ENDBRANCH   1  15
TORSDOF 9
ENDMDL
MODEL 3
REMARK VINA RESULT: -7.243525698      2.516      3.384
REMARK  9 active torsions:
REMARK  status: ('A' for Active; 'I' for Inactive)
REMARK       I    between atoms: C1_2  and  N1_3 
REMARK       I    between atoms: C1_2  and  N3_23 
REMARK    1  A    between atoms: N1_3  and  C2_5 
REMARK    2  A    between atoms: C2_5  and  C3_6 
REMARK    3  A    between atoms: C3_6  and  C4_7 
REMARK    4  A    between atoms: C4_7  and  C5_8 
REMARK    5  A    between atoms: C5_8  and  O2_9 
REMARK    6  A    between atoms: O2_9  and  C6_10 
REMARK    7  A    between atoms: C9_13  and  C10_14 
REMARK    8  A    between atoms: C10_14  and  O3_15 
REMARK    9  A    between atoms: N2_17  and  O4_19 
ROOT
HETATM    1  C5  UNL     1      10.061   6.681   1.001  1.00  0.00     0.172 C 
ENDROOT
BRANCH   1   2
HETATM    2  C4  UNL     1       8.680   6.235   0.474  1.00  0.00     0.054 C 
BRANCH   2   3
HETATM    3  C3  UNL     1       8.207   7.094  -0.621  1.00  0.00    -0.007 C 
BRANCH   3   4
HETATM    4  C2  UNL     1       7.879   6.591  -1.956  1.00  0.00     0.089 C 
BRANCH   4   5
HETATM    5  N1  UNL     1       6.560   6.560  -2.432  1.00  0.00    -0.319 N 
HETATM    6  C1  UNL     1       5.694   7.570  -2.816  1.00  0.00     0.322 C 
HETATM    7  O1  UNL     1       6.011   8.776  -2.800  1.00  0.00    -0.247 OA
HETATM    8  N3  UNL     1       4.356   7.301  -3.264  1.00  0.00    -0.329 N 
HETATM    9  C13 UNL     1       3.379   8.269  -3.683  1.00  0.00     0.132 C 
HETATM   10  C16 UNL     1       3.719   6.060  -3.390  1.00  0.00     0.089 C 
HETATM   11  C14 UNL     1       2.253   7.312  -3.997  1.00  0.00     0.007 C 
HETATM   12  C15 UNL     1       3.000   6.213  -4.742  1.00  0.00     0.031 C 
HETATM   13  C17 UNL     1       2.332   6.363  -2.796  1.00  0.00     0.031 C 
ATOM     14  H1  UNL     1       6.167   5.622  -2.510  1.00  0.00     0.169 HD
ENDBRANCH   4   5
ENDBRANCH   3   4
ENDBRANCH   2   3
ENDBRANCH   1   2
BRANCH   1  15
HETATM   15  O2  UNL     1      10.913   5.621   0.699  1.00  0.00    -0.386 OA
BRANCH  15  16
HETATM   16  C6  UNL     1      11.790   5.919  -0.345  1.00  0.00     0.121 C 
HETATM   17  C7  UNL     1      11.683   4.859  -1.384  1.00  0.00     0.033 C 
HETATM   18  C8  UNL     1      12.634   3.722  -1.270  1.00  0.00     0.015 C 
HETATM   19  C9  UNL     1      13.910   4.002  -0.576  1.00  0.00     0.062 C 
HETATM   20  C11 UNL     1      14.243   5.489  -0.578  1.00  0.00     0.015 C 
HETATM   21  C12 UNL     1      13.137   6.125   0.238  1.00  0.00     0.033 C 
BRANCH  19  22
HETATM   22  C10 UNL     1      15.027   3.317  -1.267  1.00  0.00     0.139 C 
HETATM   23  N2  UNL     1      14.801   2.605  -2.317  1.00  0.00    -0.251 N 
ATOM     24  H2  UNL     1      13.853   2.506  -2.680  1.00  0.00     0.196 HD
BRANCH  22  25
HETATM   25  O3  UNL     1      16.310   3.462  -0.762  1.00  0.00    -0.348 OA
ATOM     26  H3  UNL     1      16.952   3.937  -1.277  1.00  0.00     0.219 HD
ENDBRANCH  22  25
BRANCH  23  27
HETATM   27  O4  UNL     1      15.852   1.983  -2.939  1.00  0.00    -0.288 OA
ATOM     28  H4  UNL     1      15.946   2.065  -3.880  1.00  0.00     0.244 HD
ENDBRANCH  23  27
ENDBRANCH  19  22
ENDBRANCH  15  16
ENDBRANCH   1  15
TORSDOF 9
ENDMDL
MODEL 4
REMARK VINA RESULT: -7.175948582      1.425      2.202
REMARK  9 active torsions:
REMARK  status: ('A' for Active; 'I' for Inactive)
REMARK       I    between atoms: C1_2  and  N1_3 
REMARK       I    between atoms: C1_2  and  N3_23 
REMARK    1  A    between atoms: N1_3  and  C2_5 
REMARK    2  A    between atoms: C2_5  and  C3_6 
REMARK    3  A    between atoms: C3_6  and  C4_7 
REMARK    4  A    between atoms: C4_7  and  C5_8 
REMARK    5  A    between atoms: C5_8  and  O2_9 
REMARK    6  A    between atoms: O2_9  and  C6_10 
REMARK    7  A    between atoms: C9_13  and  C10_14 
REMARK    8  A    between atoms: C10_14  and  O3_15 
REMARK    9  A    between atoms: N2_17  and  O4_19 
ROOT
HETATM    1  C5  UNL     1      12.433   6.347   0.100  1.00  0.00     0.172 C 
ENDROOT
BRANCH   1   2
HETATM    2  C4  UNL     1      12.382   5.864   1.565  1.00  0.00     0.054 C 
BRANCH   2   3
HETATM    3  C3  UNL     1      11.105   6.197   2.210  1.00  0.00    -0.007 C 
BRANCH   3   4
HETATM    4  C2  UNL     1       9.817   5.653   1.776  1.00  0.00     0.089 C 
BRANCH   4   5
HETATM    5  N1  UNL     1       9.130   6.171   0.669  1.00  0.00    -0.319 N 
HETATM    6  C1  UNL     1       8.161   7.154   0.561  1.00  0.00     0.322 C 
HETATM    7  O1  UNL     1       7.731   7.792   1.543  1.00  0.00    -0.247 OA
HETATM    8  N3  UNL     1       7.574   7.516  -0.699  1.00  0.00    -0.329 N 
HETATM    9  C13 UNL     1       6.567   8.517  -0.923  1.00  0.00     0.132 C 
HETATM   10  C16 UNL     1       7.849   6.984  -1.966  1.00  0.00     0.089 C 
HETATM   11  C14 UNL     1       6.434   8.355  -2.419  1.00  0.00     0.007 C 
HETATM   12  C15 UNL     1       7.896   8.253  -2.835  1.00  0.00     0.031 C 
HETATM   13  C17 UNL     1       6.433   6.827  -2.549  1.00  0.00     0.031 C 
ATOM     14  H1  UNL     1       9.391   5.745  -0.220  1.00  0.00     0.169 HD
ENDBRANCH   4   5
ENDBRANCH   3   4
ENDBRANCH   2   3
ENDBRANCH   1   2
BRANCH   1  15
HETATM   15  O2  UNL     1      13.484   5.633  -0.471  1.00  0.00    -0.386 OA
BRANCH  15  16
HETATM   16  C6  UNL     1      13.273   4.253  -0.444  1.00  0.00     0.121 C 
HETATM   17  C7  UNL     1      14.588   3.563  -0.369  1.00  0.00     0.033 C 
HETATM   18  C8  UNL     1      15.204   3.170  -1.664  1.00  0.00     0.015 C 
HETATM   19  C9  UNL     1      14.272   2.945  -2.791  1.00  0.00     0.062 C 
HETATM   20  C11 UNL     1      12.861   2.636  -2.307  1.00  0.00     0.015 C 
HETATM   21  C12 UNL     1      12.418   3.901  -1.603  1.00  0.00     0.033 C 
BRANCH  19  22
HETATM   22  C10 UNL     1      14.711   1.776  -3.588  1.00  0.00     0.139 C 
HETATM   23  N2  UNL     1      15.335   1.947  -4.702  1.00  0.00    -0.251 N 
ATOM     24  H2  UNL     1      15.533   2.887  -5.045  1.00  0.00     0.196 HD
BRANCH  22  25
HETATM   25  O3  UNL     1      14.436   0.503  -3.109  1.00  0.00    -0.348 OA
ATOM     26  H3  UNL     1      15.005  -0.213  -3.366  1.00  0.00     0.219 HD
ENDBRANCH  22  25
BRANCH  23  27
HETATM   27  O4  UNL     1      15.732   0.849  -5.420  1.00  0.00    -0.288 OA
ATOM     28  H4  UNL     1      15.851   0.928  -6.358  1.00  0.00     0.244 HD
ENDBRANCH  23  27
ENDBRANCH  19  22
ENDBRANCH  15  16
ENDBRANCH   1  15
TORSDOF 9
ENDMDL
MODEL 5
REMARK VINA RESULT: -7.163140472      2.456      4.896
REMARK  9 active torsions:
REMARK  status: ('A' for Active; 'I' for Inactive)
REMARK       I    between atoms: C1_2  and  N1_3 
REMARK       I    between atoms: C1_2  and  N3_23 
REMARK    1  A    between atoms: N1_3  and  C2_5 
REMARK    2  A    between atoms: C2_5  and  C3_6 
REMARK    3  A    between atoms: C3_6  and  C4_7 
REMARK    4  A    between atoms: C4_7  and  C5_8 
REMARK    5  A    between atoms: C5_8  and  O2_9 
REMARK    6  A    between atoms: O2_9  and  C6_10 
REMARK    7  A    between atoms: C9_13  and  C10_14 
REMARK    8  A    between atoms: C10_14  and  O3_15 
REMARK    9  A    between atoms: N2_17  and  O4_19 
ROOT
HETATM    1  C5  UNL     1       9.619   5.697   0.291  1.00  0.00     0.172 C 
ENDROOT
BRANCH   1   2
HETATM    2  C4  UNL     1       8.772   6.225   1.468  1.00  0.00     0.054 C 
BRANCH   2   3
HETATM    3  C3  UNL     1       8.670   5.242   2.555  1.00  0.00    -0.007 C 
BRANCH   3   4
HETATM    4  C2  UNL     1       9.545   5.243   3.729  1.00  0.00     0.089 C 
BRANCH   4   5
HETATM    5  N1  UNL     1      10.700   6.037   3.789  1.00  0.00    -0.319 N 
HETATM    6  C1  UNL     1      11.750   6.072   4.692  1.00  0.00     0.322 C 
HETATM    7  O1  UNL     1      11.823   5.307   5.674  1.00  0.00    -0.247 OA
HETATM    8  N3  UNL     1      12.839   6.998   4.563  1.00  0.00    -0.329 N 
HETATM    9  C13 UNL     1      13.973   7.120   5.438  1.00  0.00     0.132 C 
HETATM   10  C16 UNL     1      13.036   7.971   3.574  1.00  0.00     0.089 C 
HETATM   11  C14 UNL     1      14.675   8.250   4.723  1.00  0.00     0.007 C 
HETATM   12  C15 UNL     1      14.536   7.811   3.271  1.00  0.00     0.031 C 
HETATM   13  C17 UNL     1      13.493   9.178   4.412  1.00  0.00     0.031 C 
ATOM     14  H1  UNL     1      10.782   6.712   3.029  1.00  0.00     0.169 HD
ENDBRANCH   4   5
ENDBRANCH   3   4
ENDBRANCH   2   3
ENDBRANCH   1   2
BRANCH   1  15
HETATM   15  O2  UNL     1      10.939   5.860   0.704  1.00  0.00    -0.386 OA
BRANCH  15  16
HETATM   16  C6  UNL     1      11.809   6.106  -0.360  1.00  0.00     0.121 C 
HETATM   17  C7  UNL     1      11.684   5.004  -1.351  1.00  0.00     0.033 C 
HETATM   18  C8  UNL     1      12.628   3.866  -1.198  1.00  0.00     0.015 C 
HETATM   19  C9  UNL     1      13.912   4.165  -0.527  1.00  0.00     0.062 C 
HETATM   20  C11 UNL     1      14.256   5.648  -0.596  1.00  0.00     0.015 C 
HETATM   21  C12 UNL     1      13.163   6.327   0.202  1.00  0.00     0.033 C 
BRANCH  19  22
HETATM   22  C10 UNL     1      15.018   3.443  -1.199  1.00  0.00     0.139 C 
HETATM   23  N2  UNL     1      14.785   2.730  -2.246  1.00  0.00    -0.251 N 
ATOM     24  H2  UNL     1      13.839   2.656  -2.622  1.00  0.00     0.196 HD
BRANCH  22  25
HETATM   25  O3  UNL     1      16.298   3.553  -0.677  1.00  0.00    -0.348 OA
ATOM     26  H3  UNL     1      16.776   2.758  -0.472  1.00  0.00     0.219 HD
ENDBRANCH  22  25
BRANCH  23  27
HETATM   27  O4  UNL     1      15.825   2.073  -2.850  1.00  0.00    -0.288 OA
ATOM     28  H4  UNL     1      15.755   1.840  -3.768  1.00  0.00     0.244 HD
ENDBRANCH  23  27
ENDBRANCH  19  22
ENDBRANCH  15  16
ENDBRANCH   1  15
TORSDOF 9
ENDMDL
