MODEL 1
REMARK VINA RESULT: -7.679232946      0.000      0.000
REMARK  8 active torsions:
REMARK  status: ('A' for Active; 'I' for Inactive)
REMARK    1  A    between atoms: C8_8  and  O1_9 
REMARK    2  A    between atoms: C10_12  and  N1_13 
REMARK    3  A    between atoms: N1_13  and  C11_15 
REMARK    4  A    between atoms: C11_15  and  C12_16 
REMARK    5  A    between atoms: C12_16  and  C14_18 
REMARK    6  A    between atoms: C14_18  and  C15_20 
REMARK    7  A    between atoms: C15_20  and  C16_21 
REMARK    8  A    between atoms: C16_21  and  C18_23 
ROOT
HETATM    1  N1  UNL     1      11.721   6.298   0.544  1.00  0.00    -0.415 N 
ATOM      2  H1  UNL     1      11.843   7.310   0.577  1.00  0.00     0.153 HD
ENDROOT
BRANCH   1   3
HETATM    3  C10 UNL     1      10.461   5.791   0.243  1.00  0.00     0.087 C 
HETATM    4  C5  UNL     1       9.277   6.255   1.010  1.00  0.00    -0.018 C 
HETATM    5  C4  UNL     1       8.873   5.221   2.025  1.00  0.00     0.012 C 
HETATM    6  C6  UNL     1       9.387   7.559   1.711  1.00  0.00     0.015 C 
HETATM    7  C7  UNL     1       8.186   6.291  -0.068  1.00  0.00     0.043 C 
HETATM    8  C3  UNL     1       8.722   5.886   3.350  1.00  0.00     0.005 C 
HETATM    9  C2  UNL     1       8.841   7.344   3.105  1.00  0.00    -0.018 C 
HETATM   10  C1  UNL     1       7.534   8.094   3.300  1.00  0.00     0.010 C 
HETATM   11  C8  UNL     1       8.952   6.820  -1.281  1.00  0.00     0.120 C 
HETATM   12  C9  UNL     1      10.182   5.958  -1.234  1.00  0.00     0.057 C 
BRANCH  11  13
HETATM   13  O1  UNL     1       8.250   6.687  -2.457  1.00  0.00    -0.395 OA
ATOM     14  H1  UNL     1       8.509   7.320  -3.115  1.00  0.00     0.210 HD
ENDBRANCH  11  13
ENDBRANCH   1   3
BRANCH   1  15
HETATM   15  C11 UNL     1      12.828   5.486   0.804  1.00  0.00     0.126 C 
BRANCH  15  16
HETATM   16  C12 UNL     1      13.749   5.533  -0.428  1.00  0.00     0.068 C 
HETATM   17  C13 UNL     1      14.559   6.806  -0.267  1.00  0.00     0.019 C 
BRANCH  16  18
HETATM   18  C14 UNL     1      14.615   4.330  -0.475  1.00  0.00     0.132 C 
HETATM   19  O2  UNL     1      15.804   4.472  -0.253  1.00  0.00    -0.298 OA
BRANCH  18  20
HETATM   20  C15 UNL     1      14.103   2.983  -0.777  1.00  0.00     0.083 C 
BRANCH  20  21
HETATM   21  C16 UNL     1      13.343   2.911  -2.095  1.00  0.00    -0.004 C 
HETATM   22  C17 UNL     1      11.866   2.925  -1.895  1.00  0.00     0.011 C 
BRANCH  21  23
HETATM   23  C18 UNL     1      13.875   1.756  -2.869  1.00  0.00     0.041 C 
HETATM   24  C19 UNL     1      15.350   1.811  -3.205  1.00  0.00     0.239 C 
HETATM   25  N2  UNL     1      15.024   1.149  -4.459  1.00  0.00    -0.074 N 
HETATM   26  C20 UNL     1      13.692   1.764  -4.351  1.00  0.00     0.239 C 
ATOM     27  H22 UNL     1      15.600   1.277  -5.291  1.00  0.00     0.277 HD
ATOM     28  H21 UNL     1      15.133   0.141  -4.570  1.00  0.00     0.277 HD
ENDBRANCH  21  23
ENDBRANCH  20  21
ENDBRANCH  18  20
ENDBRANCH  16  18
ENDBRANCH  15  16
ENDBRANCH   1  15
TORSDOF 8
ENDMDL
MODEL 2
REMARK VINA RESULT: -7.494322999      2.091      2.623
REMARK  8 active torsions:
REMARK  status: ('A' for Active; 'I' for Inactive)
REMARK    1  A    between atoms: C8_8  and  O1_9 
REMARK    2  A    between atoms: C10_12  and  N1_13 
REMARK    3  A    between atoms: N1_13  and  C11_15 
REMARK    4  A    between atoms: C11_15  and  C12_16 
REMARK    5  A    between atoms: C12_16  and  C14_18 
REMARK    6  A    between atoms: C14_18  and  C15_20 
REMARK    7  A    between atoms: C15_20  and  C16_21 
REMARK    8  A    between atoms: C16_21  and  C18_23 
ROOT
HETATM    1  N1  UNL     1      12.248   5.513   1.792  1.00  0.00    -0.415 N 
ATOM      2  H1  UNL     1      11.979   4.558   2.029  1.00  0.00     0.153 HD
ENDROOT
BRANCH   1   3
HETATM    3  C10 UNL     1      11.279   6.510   1.856  1.00  0.00     0.087 C 
HETATM    4  C5  UNL     1      10.166   6.394   2.832  1.00  0.00    -0.018 C 
HETATM    5  C4  UNL     1       8.908   5.947   2.140  1.00  0.00     0.012 C 
HETATM    6  C6  UNL     1      10.378   5.509   4.006  1.00  0.00     0.015 C 
HETATM    7  C7  UNL     1       9.960   7.852   3.262  1.00  0.00     0.043 C 
HETATM    8  C3  UNL     1       8.335   4.794   2.891  1.00  0.00     0.005 C 
HETATM    9  C2  UNL     1       9.129   4.667   4.137  1.00  0.00    -0.018 C 
HETATM   10  C1  UNL     1       8.348   5.040   5.387  1.00  0.00     0.010 C 
HETATM   11  C8  UNL     1      11.396   8.372   3.332  1.00  0.00     0.120 C 
HETATM   12  C9  UNL     1      11.944   7.858   2.030  1.00  0.00     0.057 C 
BRANCH  11  13
HETATM   13  O1  UNL     1      11.465   9.742   3.436  1.00  0.00    -0.395 OA
ATOM     14  H1  UNL     1      12.304  10.047   3.761  1.00  0.00     0.210 HD
ENDBRANCH  11  13
ENDBRANCH   1   3
BRANCH   1  15
HETATM   15  C11 UNL     1      13.571   5.758   1.417  1.00  0.00     0.126 C 
BRANCH  15  16
HETATM   16  C12 UNL     1      13.692   5.499  -0.094  1.00  0.00     0.068 C 
HETATM   17  C13 UNL     1      14.249   6.787  -0.672  1.00  0.00     0.019 C 
BRANCH  16  18
HETATM   18  C14 UNL     1      14.587   4.346  -0.354  1.00  0.00     0.132 C 
HETATM   19  O2  UNL     1      15.788   4.517  -0.249  1.00  0.00    -0.298 OA
BRANCH  18  20
HETATM   20  C15 UNL     1      14.089   3.013  -0.732  1.00  0.00     0.083 C 
BRANCH  20  21
HETATM   21  C16 UNL     1      13.365   2.999  -2.073  1.00  0.00    -0.004 C 
HETATM   22  C17 UNL     1      11.887   3.108  -1.916  1.00  0.00     0.011 C 
BRANCH  21  23
HETATM   23  C18 UNL     1      13.845   1.817  -2.839  1.00  0.00     0.041 C 
HETATM   24  C19 UNL     1      15.319   1.806  -3.184  1.00  0.00     0.239 C 
HETATM   25  N2  UNL     1      14.957   1.149  -4.431  1.00  0.00    -0.074 N 
HETATM   26  C20 UNL     1      13.653   1.821  -4.320  1.00  0.00     0.239 C 
ATOM     27  H22 UNL     1      15.534   1.247  -5.267  1.00  0.00     0.277 HD
ATOM     28  H21 UNL     1      15.024   0.137  -4.534  1.00  0.00     0.277 HD
ENDBRANCH  21  23
ENDBRANCH  20  21
ENDBRANCH  18  20
ENDBRANCH  16  18
ENDBRANCH  15  16
ENDBRANCH   1  15
TORSDOF 8
ENDMDL
MODEL 3
REMARK VINA RESULT: -7.468552839      2.668      3.826
REMARK  8 active torsions:
REMARK  status: ('A' for Active; 'I' for Inactive)
REMARK    1  A    between atoms: C8_8  and  O1_9 
REMARK    2  A    between atoms: C10_12  and  N1_13 
REMARK    3  A    between atoms: N1_13  and  C11_15 
REMARK    4  A    between atoms: C11_15  and  C12_16 
REMARK    5  A    between atoms: C12_16  and  C14_18 
REMARK    6  A    between atoms: C14_18  and  C15_20 
REMARK    7  A    between atoms: C15_20  and  C16_21 
REMARK    8  A    between atoms: C16_21  and  C18_23 
ROOT
HETATM    1  N1  UNL     1      14.323   6.499   2.247  1.00  0.00    -0.415 N 
ATOM      2  H1  UNL     1      14.661   5.790   2.898  1.00  0.00     0.153 HD
ENDROOT
BRANCH   1   3
HETATM    3  C10 UNL     1      13.572   7.557   2.751  1.00  0.00     0.087 C 
HETATM    4  C5  UNL     1      12.164   7.330   3.164  1.00  0.00    -0.018 C 
HETATM    5  C4  UNL     1      11.221   7.849   2.114  1.00  0.00     0.012 C 
HETATM    6  C6  UNL     1      11.763   5.937   3.486  1.00  0.00     0.015 C 
HETATM    7  C7  UNL     1      12.035   8.245   4.389  1.00  0.00     0.043 C 
HETATM    8  C3  UNL     1      10.230   6.782   1.794  1.00  0.00     0.005 C 
HETATM    9  C2  UNL     1      10.448   5.696   2.780  1.00  0.00    -0.018 C 
HETATM   10  C1  UNL     1       9.311   5.557   3.779  1.00  0.00     0.010 C 
HETATM   11  C8  UNL     1      13.393   8.066   5.068  1.00  0.00     0.120 C 
HETATM   12  C9  UNL     1      14.317   8.215   3.891  1.00  0.00     0.057 C 
BRANCH  11  13
HETATM   13  O1  UNL     1      13.627   8.998   6.052  1.00  0.00    -0.395 OA
ATOM     14  H1  UNL     1      14.421   8.824   6.544  1.00  0.00     0.210 HD
ENDBRANCH  11  13
ENDBRANCH   1   3
BRANCH   1  15
HETATM   15  C11 UNL     1      14.636   6.362   0.893  1.00  0.00     0.126 C 
BRANCH  15  16
HETATM   16  C12 UNL     1      13.676   5.324   0.287  1.00  0.00     0.068 C 
HETATM   17  C13 UNL     1      12.857   6.092  -0.734  1.00  0.00     0.019 C 
BRANCH  16  18
HETATM   18  C14 UNL     1      14.437   4.215  -0.338  1.00  0.00     0.132 C 
HETATM   19  O2  UNL     1      15.630   4.373  -0.525  1.00  0.00    -0.298 OA
BRANCH  18  20
HETATM   20  C15 UNL     1      13.816   2.942  -0.739  1.00  0.00     0.083 C 
BRANCH  20  21
HETATM   21  C16 UNL     1      13.310   2.947  -2.177  1.00  0.00    -0.004 C 
HETATM   22  C17 UNL     1      11.827   3.068  -2.251  1.00  0.00     0.011 C 
BRANCH  21  23
HETATM   23  C18 UNL     1      13.894   1.767  -2.872  1.00  0.00     0.041 C 
HETATM   24  C19 UNL     1      15.365   1.863  -3.214  1.00  0.00     0.239 C 
HETATM   25  N2  UNL     1      15.069   1.105  -4.420  1.00  0.00    -0.074 N 
HETATM   26  C20 UNL     1      13.711   1.667  -4.350  1.00  0.00     0.239 C 
ATOM     27  H22 UNL     1      15.640   1.202  -5.260  1.00  0.00     0.277 HD
ATOM     28  H21 UNL     1      15.223   0.098  -4.463  1.00  0.00     0.277 HD
ENDBRANCH  21  23
ENDBRANCH  20  21
ENDBRANCH  18  20
ENDBRANCH  16  18
ENDBRANCH  15  16
ENDBRANCH   1  15
TORSDOF 8
ENDMDL
MODEL 4
REMARK VINA RESULT: -7.459291094      2.954      3.838
REMARK  8 active torsions:
REMARK  status: ('A' for Active; 'I' for Inactive)
REMARK    1  A    between atoms: C8_8  and  O1_9 
REMARK    2  A    between atoms: C10_12  and  N1_13 
REMARK    3  A    between atoms: N1_13  and  C11_15 
REMARK    4  A    between atoms: C11_15  and  C12_16 
REMARK    5  A    between atoms: C12_16  and  C14_18 
REMARK    6  A    between atoms: C14_18  and  C15_20 
REMARK    7  A    between atoms: C15_20  and  C16_21 
REMARK    8  A    between atoms: C16_21  and  C18_23 
ROOT
HETATM    1  N1  UNL     1      13.401   5.634   1.983  1.00  0.00    -0.415 N 
ATOM      2  H1  UNL     1      14.412   5.653   2.115  1.00  0.00     0.153 HD
ENDROOT
BRANCH   1   3
HETATM    3  C10 UNL     1      12.586   5.929   3.072  1.00  0.00     0.087 C 
HETATM    4  C5  UNL     1      12.991   6.987   4.032  1.00  0.00    -0.018 C 
HETATM    5  C4  UNL     1      13.549   6.370   5.285  1.00  0.00     0.012 C 
HETATM    6  C6  UNL     1      13.963   8.004   3.555  1.00  0.00     0.015 C 
HETATM    7  C7  UNL     1      11.646   7.628   4.396  1.00  0.00     0.043 C 
HETATM    8  C3  UNL     1      14.859   7.013   5.590  1.00  0.00     0.005 C 
HETATM    9  C2  UNL     1      15.004   8.145   4.643  1.00  0.00    -0.018 C 
HETATM   10  C1  UNL     1      14.909   9.505   5.315  1.00  0.00     0.010 C 
HETATM   11  C8  UNL     1      10.915   7.622   3.053  1.00  0.00     0.120 C 
HETATM   12  C9  UNL     1      11.179   6.215   2.596  1.00  0.00     0.057 C 
BRANCH  11  13
HETATM   13  O1  UNL     1       9.573   7.902   3.172  1.00  0.00    -0.395 OA
ATOM     14  H1  UNL     1       9.024   7.136   3.057  1.00  0.00     0.210 HD
ENDBRANCH  11  13
ENDBRANCH   1   3
BRANCH   1  15
HETATM   15  C11 UNL     1      12.898   5.315   0.719  1.00  0.00     0.126 C 
BRANCH  15  16
HETATM   16  C12 UNL     1      14.037   5.488  -0.300  1.00  0.00     0.068 C 
HETATM   17  C13 UNL     1      14.939   6.556   0.292  1.00  0.00     0.019 C 
BRANCH  16  18
HETATM   18  C14 UNL     1      14.757   4.207  -0.497  1.00  0.00     0.132 C 
HETATM   19  O2  UNL     1      15.971   4.211  -0.402  1.00  0.00    -0.298 OA
BRANCH  18  20
HETATM   20  C15 UNL     1      14.072   2.939  -0.801  1.00  0.00     0.083 C 
BRANCH  20  21
HETATM   21  C16 UNL     1      13.347   2.955  -2.142  1.00  0.00    -0.004 C 
HETATM   22  C17 UNL     1      11.868   3.049  -1.980  1.00  0.00     0.011 C 
BRANCH  21  23
HETATM   23  C18 UNL     1      13.835   1.797  -2.939  1.00  0.00     0.041 C 
HETATM   24  C19 UNL     1      15.322   1.767  -3.218  1.00  0.00     0.239 C 
HETATM   25  N2  UNL     1      15.004   1.174  -4.508  1.00  0.00    -0.074 N 
HETATM   26  C20 UNL     1      13.711   1.872  -4.426  1.00  0.00     0.239 C 
ATOM     27  H22 UNL     1      15.619   1.295  -5.313  1.00  0.00     0.277 HD
ATOM     28  H21 UNL     1      15.053   0.167  -4.655  1.00  0.00     0.277 HD
ENDBRANCH  21  23
ENDBRANCH  20  21
ENDBRANCH  18  20
ENDBRANCH  16  18
ENDBRANCH  15  16
ENDBRANCH   1  15
TORSDOF 8
ENDMDL
MODEL 5
REMARK VINA RESULT: -7.297859145      2.329      2.888
REMARK  8 active torsions:
REMARK  status: ('A' for Active; 'I' for Inactive)
REMARK    1  A    between atoms: C8_8  and  O1_9 
REMARK    2  A    between atoms: C10_12  and  N1_13 
REMARK    3  A    between atoms: N1_13  and  C11_15 
REMARK    4  A    between atoms: C11_15  and  C12_16 
REMARK    5  A    between atoms: C12_16  and  C14_18 
REMARK    6  A    between atoms: C14_18  and  C15_20 
REMARK    7  A    between atoms: C15_20  and  C16_21 
REMARK    8  A    between atoms: C16_21  and  C18_23 
ROOT
HETATM    1  N1  UNL     1      12.398   6.993   0.465  1.00  0.00    -0.415 N 
ATOM      2  H1  UNL     1      12.804   7.927   0.514  1.00  0.00     0.153 HD
ENDROOT
BRANCH   1   3
HETATM    3  C10 UNL     1      11.705   6.512   1.572  1.00  0.00     0.087 C 
HETATM    4  C5  UNL     1      11.822   7.213   2.876  1.00  0.00    -0.018 C 
HETATM    5  C4  UNL     1      12.750   6.463   3.791  1.00  0.00     0.012 C 
HETATM    6  C6  UNL     1      12.257   8.632   2.851  1.00  0.00     0.015 C 
HETATM    7  C7  UNL     1      10.404   7.074   3.447  1.00  0.00     0.043 C 
HETATM    8  C3  UNL     1      13.752   7.420   4.341  1.00  0.00     0.005 C 
HETATM    9  C2  UNL     1      13.318   8.774   3.919  1.00  0.00    -0.018 C 
HETATM   10  C1  UNL     1      12.821   9.630   5.072  1.00  0.00     0.010 C 
HETATM   11  C8  UNL     1       9.537   7.264   2.201  1.00  0.00     0.120 C 
HETATM   12  C9  UNL     1      10.239   6.358   1.229  1.00  0.00     0.057 C 
BRANCH  11  13
HETATM   13  O1  UNL     1       8.223   6.914   2.405  1.00  0.00    -0.395 OA
ATOM     14  H1  UNL     1       7.883   6.344   1.726  1.00  0.00     0.210 HD
ENDBRANCH  11  13
ENDBRANCH   1   3
BRANCH   1  15
HETATM   15  C11 UNL     1      12.565   6.255  -0.709  1.00  0.00     0.126 C 
BRANCH  15  16
HETATM   16  C12 UNL     1      14.029   5.784  -0.769  1.00  0.00     0.068 C 
HETATM   17  C13 UNL     1      14.805   6.803   0.044  1.00  0.00     0.019 C 
BRANCH  16  18
HETATM   18  C14 UNL     1      14.158   4.417  -0.209  1.00  0.00     0.132 C 
HETATM   19  O2  UNL     1      14.014   4.274   0.992  1.00  0.00    -0.298 OA
BRANCH  18  20
HETATM   20  C15 UNL     1      14.451   3.235  -1.035  1.00  0.00     0.083 C 
BRANCH  20  21
HETATM   21  C16 UNL     1      13.430   3.010  -2.144  1.00  0.00    -0.004 C 
HETATM   22  C17 UNL     1      12.036   2.946  -1.622  1.00  0.00     0.011 C 
BRANCH  21  23
HETATM   23  C18 UNL     1      13.872   1.833  -2.942  1.00  0.00     0.041 C 
HETATM   24  C19 UNL     1      15.353   1.761  -3.247  1.00  0.00     0.239 C 
HETATM   25  N2  UNL     1      14.996   1.168  -4.527  1.00  0.00    -0.074 N 
HETATM   26  C20 UNL     1      13.724   1.900  -4.426  1.00  0.00     0.239 C 
ATOM     27  H22 UNL     1      15.600   1.267  -5.343  1.00  0.00     0.277 HD
ATOM     28  H21 UNL     1      15.016   0.159  -4.666  1.00  0.00     0.277 HD
ENDBRANCH  21  23
ENDBRANCH  20  21
ENDBRANCH  18  20
ENDBRANCH  16  18
ENDBRANCH  15  16
ENDBRANCH   1  15
TORSDOF 8
ENDMDL
