MODEL 1
REMARK VINA RESULT: -8.338457485      0.000      0.000
REMARK  9 active torsions:
REMARK  status: ('A' for Active; 'I' for Inactive)
REMARK    1  A    between atoms: O1_1  and  C1_3 
REMARK    2  A    between atoms: C1_3  and  C2_4 
REMARK    3  A    between atoms: C2_4  and  N1_5 
REMARK    4  A    between atoms: N1_5  and  C3_7 
REMARK    5  A    between atoms: C6_10  and  N2_11 
REMARK    6  A    between atoms: C10_15  and  O2_16 
REMARK    7  A    between atoms: C10_15  and  C11_18 
REMARK    8  A    between atoms: C11_18  and  C12_19 
REMARK    9  A    between atoms: C12_19  and  C13_20 
ROOT
HETATM    1  N2  UNL     1      10.599   6.053   0.069  1.00  0.00    -0.405 N 
HETATM    2  C7  UNL     1      10.587   6.560   1.400  1.00  0.00     0.117 C 
HETATM    3  C8  UNL     1      11.747   6.002   2.202  1.00  0.00     0.022 C 
HETATM    4  C9  UNL     1      13.059   6.295   1.429  1.00  0.00     0.041 C 
HETATM    5  C10 UNL     1      12.946   5.791   0.024  1.00  0.00     0.074 C 
HETATM    6  C19 UNL     1      11.598   5.062  -0.183  1.00  0.00     0.155 C 
ENDROOT
BRANCH   1   7
HETATM    7  C6  UNL     1       9.353   5.920  -0.583  1.00  0.00     0.079 C 
HETATM    8  C5  UNL     1       8.204   6.601   0.066  1.00  0.00     0.027 C 
HETATM    9  C4  UNL     1       7.601   7.774  -0.588  1.00  0.00     0.027 C 
HETATM   10  C3  UNL     1       7.841   7.992  -2.020  1.00  0.00     0.076 C 
HETATM   11  C21 UNL     1       8.260   6.658  -2.642  1.00  0.00     0.027 C 
HETATM   12  C20 UNL     1       9.582   6.339  -2.028  1.00  0.00     0.027 C 
BRANCH  10  13
HETATM   13  N1  UNL     1       6.781   8.534  -2.785  1.00  0.00    -0.415 N 
ATOM     14  H1  UNL     1       6.952   8.965  -3.694  1.00  0.00     0.153 HD
BRANCH  13  15
HETATM   15  C2  UNL     1       5.472   8.456  -2.244  1.00  0.00     0.140 C 
BRANCH  15  16
HETATM   16  C1  UNL     1       4.625   7.634  -3.224  1.00  0.00     0.183 C 
BRANCH  16  17
HETATM   17  O1  UNL     1       4.095   8.480  -4.211  1.00  0.00    -0.399 OA
ATOM     18  H1  UNL     1       3.224   8.184  -4.449  1.00  0.00     0.209 HD
ENDBRANCH  16  17
ENDBRANCH  15  16
ENDBRANCH  13  15
ENDBRANCH  10  13
ENDBRANCH   1   7
BRANCH   5  19
HETATM   19  O2  UNL     1      12.903   6.926  -0.852  1.00  0.00    -0.388 OA
ATOM     20  H2  UNL     1      12.225   6.772  -1.499  1.00  0.00     0.210 HD
ENDBRANCH   5  19
BRANCH   5  21
HETATM   21  C11 UNL     1      14.048   4.930  -0.416  1.00  0.00     0.044 C 
BRANCH  21  22
HETATM   22  C12 UNL     1      13.873   3.475  -0.581  1.00  0.00     0.041 C 
BRANCH  22  23
HETATM   23  C13 UNL     1      13.813   2.860  -1.886  1.00  0.00    -0.058 A 
HETATM   24  C14 UNL     1      12.615   2.882  -2.603  1.00  0.00     0.007 A 
HETATM   25  C15 UNL     1      12.520   2.288  -3.834  1.00  0.00     0.001 A 
HETATM   26  C16 UNL     1      13.593   1.652  -4.410  1.00  0.00     0.000 A 
HETATM   27  C17 UNL     1      14.781   1.626  -3.709  1.00  0.00     0.001 A 
HETATM   28  C18 UNL     1      14.876   2.221  -2.476  1.00  0.00     0.007 A 
ENDBRANCH  22  23
ENDBRANCH  21  22
ENDBRANCH   5  21
TORSDOF 9
ENDMDL
MODEL 2
REMARK VINA RESULT: -7.874401868      2.726      7.342
REMARK  9 active torsions:
REMARK  status: ('A' for Active; 'I' for Inactive)
REMARK    1  A    between atoms: O1_1  and  C1_3 
REMARK    2  A    between atoms: C1_3  and  C2_4 
REMARK    3  A    between atoms: C2_4  and  N1_5 
REMARK    4  A    between atoms: N1_5  and  C3_7 
REMARK    5  A    between atoms: C6_10  and  N2_11 
REMARK    6  A    between atoms: C10_15  and  O2_16 
REMARK    7  A    between atoms: C10_15  and  C11_18 
REMARK    8  A    between atoms: C11_18  and  C12_19 
REMARK    9  A    between atoms: C12_19  and  C13_20 
ROOT
HETATM    1  N2  UNL     1      12.331   5.626   0.673  1.00  0.00    -0.405 N 
HETATM    2  C7  UNL     1      13.253   5.497   1.752  1.00  0.00     0.117 C 
HETATM    3  C8  UNL     1      12.961   6.517   2.837  1.00  0.00     0.022 C 
HETATM    4  C9  UNL     1      11.475   6.369   3.258  1.00  0.00     0.041 C 
HETATM    5  C10 UNL     1      10.594   6.443   2.050  1.00  0.00     0.074 C 
HETATM    6  C19 UNL     1      11.434   6.734   0.784  1.00  0.00     0.155 C 
ENDROOT
BRANCH   1   7
HETATM    7  C6  UNL     1      12.789   5.269  -0.614  1.00  0.00     0.079 C 
HETATM    8  C5  UNL     1      14.244   4.991  -0.732  1.00  0.00     0.027 C 
HETATM    9  C4  UNL     1      14.694   3.612  -0.983  1.00  0.00     0.027 C 
HETATM   10  C3  UNL     1      13.738   2.638  -1.523  1.00  0.00     0.076 C 
HETATM   11  C21 UNL     1      12.597   3.410  -2.191  1.00  0.00     0.027 C 
HETATM   12  C20 UNL     1      11.903   4.122  -1.078  1.00  0.00     0.027 C 
BRANCH  10  13
HETATM   13  N1  UNL     1      14.230   1.679  -2.438  1.00  0.00    -0.415 N 
ATOM     14  H1  UNL     1      14.673   0.818  -2.115  1.00  0.00     0.153 HD
BRANCH  13  15
HETATM   15  C2  UNL     1      14.086   1.955  -3.822  1.00  0.00     0.140 C 
BRANCH  15  16
HETATM   16  C1  UNL     1      15.349   1.435  -4.522  1.00  0.00     0.183 C 
BRANCH  16  17
HETATM   17  O1  UNL     1      15.714   2.319  -5.550  1.00  0.00    -0.399 OA
ATOM     18  H1  UNL     1      16.556   2.710  -5.349  1.00  0.00     0.209 HD
ENDBRANCH  16  17
ENDBRANCH  15  16
ENDBRANCH  13  15
ENDBRANCH  10  13
ENDBRANCH   1   7
BRANCH   5  19
HETATM   19  O2  UNL     1      10.021   5.146   1.838  1.00  0.00    -0.388 OA
ATOM     20  H2  UNL     1       9.078   5.228   1.902  1.00  0.00     0.210 HD
ENDBRANCH   5  19
BRANCH   5  21
HETATM   21  C11 UNL     1       9.493   7.407   2.146  1.00  0.00     0.044 C 
BRANCH  21  22
HETATM   22  C12 UNL     1       8.156   7.109   1.599  1.00  0.00     0.041 C 
BRANCH  22  23
HETATM   23  C13 UNL     1       7.832   7.348   0.212  1.00  0.00    -0.058 A 
HETATM   24  C14 UNL     1       7.064   8.461  -0.134  1.00  0.00     0.007 A 
HETATM   25  C15 UNL     1       6.722   8.704  -1.438  1.00  0.00     0.001 A 
HETATM   26  C16 UNL     1       7.118   7.866  -2.452  1.00  0.00     0.000 A 
HETATM   27  C17 UNL     1       7.878   6.763  -2.120  1.00  0.00     0.001 A 
HETATM   28  C18 UNL     1       8.220   6.522  -0.814  1.00  0.00     0.007 A 
ENDBRANCH  22  23
ENDBRANCH  21  22
ENDBRANCH   5  21
TORSDOF 9
ENDMDL
MODEL 3
REMARK VINA RESULT: -7.870218219      1.215      2.012
REMARK  9 active torsions:
REMARK  status: ('A' for Active; 'I' for Inactive)
REMARK    1  A    between atoms: O1_1  and  C1_3 
REMARK    2  A    between atoms: C1_3  and  C2_4 
REMARK    3  A    between atoms: C2_4  and  N1_5 
REMARK    4  A    between atoms: N1_5  and  C3_7 
REMARK    5  A    between atoms: C6_10  and  N2_11 
REMARK    6  A    between atoms: C10_15  and  O2_16 
REMARK    7  A    between atoms: C10_15  and  C11_18 
REMARK    8  A    between atoms: C11_18  and  C12_19 
REMARK    9  A    between atoms: C12_19  and  C13_20 
ROOT
HETATM    1  N2  UNL     1       9.412   6.880  -0.768  1.00  0.00    -0.405 N 
HETATM    2  C7  UNL     1       8.931   6.911   0.573  1.00  0.00     0.117 C 
HETATM    3  C8  UNL     1       9.459   5.729   1.364  1.00  0.00     0.022 C 
HETATM    4  C9  UNL     1      11.005   5.719   1.250  1.00  0.00     0.041 C 
HETATM    5  C10 UNL     1      11.411   5.763  -0.190  1.00  0.00     0.074 C 
HETATM    6  C19 UNL     1      10.164   5.713  -1.105  1.00  0.00     0.155 C 
ENDROOT
BRANCH   1   7
HETATM    7  C6  UNL     1       8.586   7.447  -1.764  1.00  0.00     0.079 C 
HETATM    8  C5  UNL     1       8.528   6.716  -3.055  1.00  0.00     0.027 C 
HETATM    9  C4  UNL     1       7.281   6.031  -3.438  1.00  0.00     0.027 C 
HETATM   10  C3  UNL     1       6.026   6.419  -2.783  1.00  0.00     0.076 C 
HETATM   11  C21 UNL     1       6.208   7.821  -2.195  1.00  0.00     0.027 C 
HETATM   12  C20 UNL     1       7.226   7.663  -1.115  1.00  0.00     0.027 C 
BRANCH  10  13
HETATM   13  N1  UNL     1       4.849   6.408  -3.567  1.00  0.00    -0.415 N 
ATOM     14  H1  UNL     1       4.838   5.989  -4.498  1.00  0.00     0.153 HD
BRANCH  13  15
HETATM   15  C2  UNL     1       3.684   7.000  -3.015  1.00  0.00     0.140 C 
BRANCH  15  16
HETATM   16  C1  UNL     1       2.953   7.715  -4.159  1.00  0.00     0.183 C 
BRANCH  16  17
HETATM   17  O1  UNL     1       3.733   8.789  -4.616  1.00  0.00    -0.399 OA
ATOM     18  H1  UNL     1       4.423   8.462  -5.181  1.00  0.00     0.209 HD
ENDBRANCH  16  17
ENDBRANCH  15  16
ENDBRANCH  13  15
ENDBRANCH  10  13
ENDBRANCH   1   7
BRANCH   5  19
HETATM   19  O2  UNL     1      12.017   7.038  -0.442  1.00  0.00    -0.388 OA
ATOM     20  H2  UNL     1      12.955   6.943  -0.330  1.00  0.00     0.210 HD
ENDBRANCH   5  19
BRANCH   5  21
HETATM   21  C11 UNL     1      12.365   4.727  -0.596  1.00  0.00     0.044 C 
BRANCH  21  22
HETATM   22  C12 UNL     1      11.939   3.538  -1.358  1.00  0.00     0.041 C 
BRANCH  22  23
HETATM   23  C13 UNL     1      12.826   2.865  -2.277  1.00  0.00    -0.058 A 
HETATM   24  C14 UNL     1      12.382   2.560  -3.564  1.00  0.00     0.007 A 
HETATM   25  C15 UNL     1      13.192   1.903  -4.453  1.00  0.00     0.001 A 
HETATM   26  C16 UNL     1      14.467   1.522  -4.115  1.00  0.00     0.000 A 
HETATM   27  C17 UNL     1      14.916   1.820  -2.844  1.00  0.00     0.001 A 
HETATM   28  C18 UNL     1      14.104   2.478  -1.956  1.00  0.00     0.007 A 
ENDBRANCH  22  23
ENDBRANCH  21  22
ENDBRANCH   5  21
TORSDOF 9
ENDMDL
MODEL 4
REMARK VINA RESULT: -7.810348241      1.550      2.308
REMARK  9 active torsions:
REMARK  status: ('A' for Active; 'I' for Inactive)
REMARK    1  A    between atoms: O1_1  and  C1_3 
REMARK    2  A    between atoms: C1_3  and  C2_4 
REMARK    3  A    between atoms: C2_4  and  N1_5 
REMARK    4  A    between atoms: N1_5  and  C3_7 
REMARK    5  A    between atoms: C6_10  and  N2_11 
REMARK    6  A    between atoms: C10_15  and  O2_16 
REMARK    7  A    between atoms: C10_15  and  C11_18 
REMARK    8  A    between atoms: C11_18  and  C12_19 
REMARK    9  A    between atoms: C12_19  and  C13_20 
ROOT
HETATM    1  N2  UNL     1       9.350   6.812  -1.067  1.00  0.00    -0.405 N 
HETATM    2  C7  UNL     1       8.769   6.846   0.234  1.00  0.00     0.117 C 
HETATM    3  C8  UNL     1       9.258   5.681   1.074  1.00  0.00     0.022 C 
HETATM    4  C9  UNL     1      10.809   5.700   1.077  1.00  0.00     0.041 C 
HETATM    5  C10 UNL     1      11.320   5.738  -0.330  1.00  0.00     0.074 C 
HETATM    6  C19 UNL     1      10.147   5.656  -1.335  1.00  0.00     0.155 C 
ENDROOT
BRANCH   1   7
HETATM    7  C6  UNL     1       8.590   7.354  -2.127  1.00  0.00     0.079 C 
HETATM    8  C5  UNL     1       8.121   6.387  -3.152  1.00  0.00     0.027 C 
HETATM    9  C4  UNL     1       6.683   6.079  -3.245  1.00  0.00     0.027 C 
HETATM   10  C3  UNL     1       5.717   7.008  -2.647  1.00  0.00     0.076 C 
HETATM   11  C21 UNL     1       6.397   8.371  -2.493  1.00  0.00     0.027 C 
HETATM   12  C20 UNL     1       7.472   8.159  -1.481  1.00  0.00     0.027 C 
BRANCH  10  13
HETATM   13  N1  UNL     1       4.486   7.191  -3.319  1.00  0.00    -0.415 N 
ATOM     14  H1  UNL     1       4.276   8.060  -3.810  1.00  0.00     0.153 HD
BRANCH  13  15
HETATM   15  C2  UNL     1       3.552   6.123  -3.286  1.00  0.00     0.140 C 
BRANCH  15  16
HETATM   16  C1  UNL     1       3.351   5.651  -4.732  1.00  0.00     0.183 C 
BRANCH  16  17
HETATM   17  O1  UNL     1       2.957   4.304  -4.736  1.00  0.00    -0.399 OA
ATOM     18  H1  UNL     1       2.762   4.027  -3.848  1.00  0.00     0.209 HD
ENDBRANCH  16  17
ENDBRANCH  15  16
ENDBRANCH  13  15
ENDBRANCH  10  13
ENDBRANCH   1   7
BRANCH   5  19
HETATM   19  O2  UNL     1      11.920   7.022  -0.549  1.00  0.00    -0.388 OA
ATOM     20  H2  UNL     1      12.061   7.428   0.298  1.00  0.00     0.210 HD
ENDBRANCH   5  19
BRANCH   5  21
HETATM   21  C11 UNL     1      12.321   4.716  -0.653  1.00  0.00     0.044 C 
BRANCH  21  22
HETATM   22  C12 UNL     1      11.960   3.481  -1.371  1.00  0.00     0.041 C 
BRANCH  22  23
HETATM   23  C13 UNL     1      12.868   2.848  -2.299  1.00  0.00    -0.058 A 
HETATM   24  C14 UNL     1      12.439   2.562  -3.596  1.00  0.00     0.007 A 
HETATM   25  C15 UNL     1      13.269   1.943  -4.493  1.00  0.00     0.001 A 
HETATM   26  C16 UNL     1      14.550   1.581  -4.154  1.00  0.00     0.000 A 
HETATM   27  C17 UNL     1      14.983   1.859  -2.874  1.00  0.00     0.001 A 
HETATM   28  C18 UNL     1      14.151   2.480  -1.976  1.00  0.00     0.007 A 
ENDBRANCH  22  23
ENDBRANCH  21  22
ENDBRANCH   5  21
TORSDOF 9
ENDMDL
MODEL 5
REMARK VINA RESULT: -7.766233136      2.959      7.432
REMARK  9 active torsions:
REMARK  status: ('A' for Active; 'I' for Inactive)
REMARK    1  A    between atoms: O1_1  and  C1_3 
REMARK    2  A    between atoms: C1_3  and  C2_4 
REMARK    3  A    between atoms: C2_4  and  N1_5 
REMARK    4  A    between atoms: N1_5  and  C3_7 
REMARK    5  A    between atoms: C6_10  and  N2_11 
REMARK    6  A    between atoms: C10_15  and  O2_16 
REMARK    7  A    between atoms: C10_15  and  C11_18 
REMARK    8  A    between atoms: C11_18  and  C12_19 
REMARK    9  A    between atoms: C12_19  and  C13_20 
ROOT
HETATM    1  N2  UNL     1      13.053   4.726  -0.156  1.00  0.00    -0.405 N 
HETATM    2  C7  UNL     1      14.094   5.662  -0.426  1.00  0.00     0.117 C 
HETATM    3  C8  UNL     1      13.537   7.068  -0.554  1.00  0.00     0.022 C 
HETATM    4  C9  UNL     1      12.721   7.386   0.725  1.00  0.00     0.041 C 
HETATM    5  C10 UNL     1      11.706   6.311   0.963  1.00  0.00     0.074 C 
HETATM    6  C19 UNL     1      11.735   5.276  -0.186  1.00  0.00     0.155 C 
ENDROOT
BRANCH   1   7
HETATM    7  C6  UNL     1      13.233   3.407  -0.627  1.00  0.00     0.079 C 
HETATM    8  C5  UNL     1      12.120   2.848  -1.437  1.00  0.00     0.027 C 
HETATM    9  C4  UNL     1      12.325   2.615  -2.876  1.00  0.00     0.027 C 
HETATM   10  C3  UNL     1      13.696   2.529  -3.395  1.00  0.00     0.076 C 
HETATM   11  C21 UNL     1      14.628   2.194  -2.228  1.00  0.00     0.027 C 
HETATM   12  C20 UNL     1      14.581   3.389  -1.335  1.00  0.00     0.027 C 
BRANCH  10  13
HETATM   13  N1  UNL     1      13.940   1.613  -4.445  1.00  0.00    -0.415 N 
ATOM     14  H1  UNL     1      13.224   0.954  -4.749  1.00  0.00     0.153 HD
BRANCH  13  15
HETATM   15  C2  UNL     1      15.217   1.645  -5.062  1.00  0.00     0.140 C 
BRANCH  15  16
HETATM   16  C1  UNL     1      15.332   2.986  -5.800  1.00  0.00     0.183 C 
BRANCH  16  17
HETATM   17  O1  UNL     1      16.546   3.033  -6.502  1.00  0.00    -0.399 OA
ATOM     18  H1  UNL     1      17.190   3.511  -5.992  1.00  0.00     0.209 HD
ENDBRANCH  16  17
ENDBRANCH  15  16
ENDBRANCH  13  15
ENDBRANCH  10  13
ENDBRANCH   1   7
BRANCH   5  19
HETATM   19  O2  UNL     1      12.096   5.587   2.138  1.00  0.00    -0.388 OA
ATOM     20  H2  UNL     1      12.080   4.661   1.930  1.00  0.00     0.210 HD
ENDBRANCH   5  19
BRANCH   5  21
HETATM   21  C11 UNL     1      10.335   6.788   1.167  1.00  0.00     0.044 C 
BRANCH  21  22
HETATM   22  C12 UNL     1       9.192   6.177   0.465  1.00  0.00     0.041 C 
BRANCH  22  23
HETATM   23  C13 UNL     1       8.425   6.905  -0.518  1.00  0.00    -0.058 A 
HETATM   24  C14 UNL     1       8.630   6.654  -1.876  1.00  0.00     0.007 A 
HETATM   25  C15 UNL     1       7.934   7.344  -2.833  1.00  0.00     0.001 A 
HETATM   26  C16 UNL     1       7.011   8.304  -2.498  1.00  0.00     0.000 A 
HETATM   27  C17 UNL     1       6.801   8.559  -1.158  1.00  0.00     0.001 A 
HETATM   28  C18 UNL     1       7.499   7.868  -0.200  1.00  0.00     0.007 A 
ENDBRANCH  22  23
ENDBRANCH  21  22
ENDBRANCH   5  21
TORSDOF 9
ENDMDL
