MODEL 1
REMARK VINA RESULT: -6.023334400      0.000      0.000
REMARK  10 active torsions:
REMARK  status: ('A' for Active; 'I' for Inactive)
REMARK    1  A    between atoms: C2_2  and  O1_5 
REMARK    2  A    between atoms: O1_5  and  C5_6 
REMARK    3  A    between atoms: C5_6  and  N1_8 
REMARK    4  A    between atoms: N1_8  and  C6_10 
REMARK    5  A    between atoms: C6_10  and  C7_11 
REMARK    6  A    between atoms: C7_11  and  N2_12 
REMARK       I    between atoms: N3_15  and  C10_16 
REMARK       I    between atoms: C10_16  and  N4_18 
REMARK    7  A    between atoms: N4_18  and  C11_20 
REMARK    8  A    between atoms: C11_20  and  C12_21 
REMARK    9  A    between atoms: C12_21  and  C13_22 
REMARK   10  A    between atoms: C13_22  and  C14_23 
ROOT
HETATM    1  N2  UNL     1       4.602  62.531  27.897  1.00  0.00     0.093 N 
HETATM    2  C8  UNL     1       3.718  61.790  28.726  1.00  0.00     0.292 C 
HETATM    3  C9  UNL     1       4.024  60.321  28.515  1.00  0.00     0.158 C 
HETATM    4  N3  UNL     1       4.915  60.067  27.419  1.00  0.00    -0.331 N 
HETATM    5  C10 UNL     1       4.621  59.003  26.517  1.00  0.00     0.318 C 
HETATM    6  O2  UNL     1       3.567  58.306  26.713  1.00  0.00    -0.247 OA
HETATM    7  N4  UNL     1       5.511  58.768  25.448  1.00  0.00    -0.343 N 
ATOM      8  H4  UNL     1       6.328  59.370  25.348  1.00  0.00     0.164 HD
HETATM    9  C19 UNL     1       6.097  60.853  27.207  1.00  0.00     0.158 C 
HETATM   10  C20 UNL     1       5.978  62.119  28.070  1.00  0.00     0.292 C 
ENDROOT
BRANCH   7  11
HETATM   11  C11 UNL     1       5.308  57.711  24.495  1.00  0.00     0.124 C 
BRANCH  11  12
HETATM   12  C12 UNL     1       4.573  58.233  23.301  1.00  0.00     0.022 C 
BRANCH  12  13
HETATM   13  C13 UNL     1       3.866  57.258  22.460  1.00  0.00     0.034 C 
BRANCH  13  14
HETATM   14  C14 UNL     1       4.247  56.999  21.071  1.00  0.00     0.186 C 
HETATM   15  C15 UNL     1       3.898  57.938  20.005  1.00  0.00     0.033 C 
HETATM   16  C16 UNL     1       3.554  57.179  18.726  1.00  0.00     0.004 C 
HETATM   17  C17 UNL     1       2.280  56.364  18.947  1.00  0.00     0.027 C 
HETATM   18  C18 UNL     1       2.372  55.691  20.315  1.00  0.00     0.232 C 
HETATM   19  N5  UNL     1       3.767  55.653  20.732  1.00  0.00    -0.071 N 
ATOM     20  H52 UNL     1       4.358  55.207  20.031  1.00  0.00     0.277 HD
ATOM     21  H51 UNL     1       3.914  54.996  21.498  1.00  0.00     0.277 HD
ENDBRANCH  13  14
ENDBRANCH  12  13
ENDBRANCH  11  12
ENDBRANCH   7  11
BRANCH   1  22
HETATM   22  C7  UNL     1       4.422  63.946  27.898  1.00  0.00     0.292 C 
BRANCH  22  23
HETATM   23  C6  UNL     1       3.508  64.477  26.853  1.00  0.00     0.152 C 
BRANCH  23  24
HETATM   24  N1  UNL     1       4.086  64.206  25.550  1.00  0.00    -0.360 N 
ATOM     25  H1  UNL     1       4.993  64.593  25.290  1.00  0.00     0.162 HD
BRANCH  24  26
HETATM   26  C5  UNL     1       3.361  63.394  24.651  1.00  0.00     0.210 C 
HETATM   27  S1  UNL     1       2.208  62.406  25.218  1.00  0.00    -0.033 SA
BRANCH  26  28
HETATM   28  O1  UNL     1       3.630  63.438  23.309  1.00  0.00    -0.317 OA
BRANCH  28  29
HETATM   29  C2  UNL     1       4.427  62.568  22.571  1.00  0.00     0.059 C 
HETATM   30  C1  UNL     1       5.195  63.417  21.550  1.00  0.00     0.045 C 
HETATM   31  C3  UNL     1       5.453  61.839  23.415  1.00  0.00     0.045 C 
HETATM   32  C4  UNL     1       3.652  61.536  21.807  1.00  0.00     0.045 C 
ENDBRANCH  28  29
ENDBRANCH  26  28
ENDBRANCH  24  26
ENDBRANCH  23  24
ENDBRANCH  22  23
ENDBRANCH   1  22
TORSDOF 10
ENDMDL
MODEL 2
REMARK VINA RESULT: -5.998600207      2.010      4.098
REMARK  10 active torsions:
REMARK  status: ('A' for Active; 'I' for Inactive)
REMARK    1  A    between atoms: C2_2  and  O1_5 
REMARK    2  A    between atoms: O1_5  and  C5_6 
REMARK    3  A    between atoms: C5_6  and  N1_8 
REMARK    4  A    between atoms: N1_8  and  C6_10 
REMARK    5  A    between atoms: C6_10  and  C7_11 
REMARK    6  A    between atoms: C7_11  and  N2_12 
REMARK       I    between atoms: N3_15  and  C10_16 
REMARK       I    between atoms: C10_16  and  N4_18 
REMARK    7  A    between atoms: N4_18  and  C11_20 
REMARK    8  A    between atoms: C11_20  and  C12_21 
REMARK    9  A    between atoms: C12_21  and  C13_22 
REMARK   10  A    between atoms: C13_22  and  C14_23 
ROOT
HETATM    1  N2  UNL     1       5.550  59.552  27.138  1.00  0.00     0.093 N 
HETATM    2  C8  UNL     1       4.248  59.200  27.584  1.00  0.00     0.292 C 
HETATM    3  C9  UNL     1       3.724  58.127  26.651  1.00  0.00     0.158 C 
HETATM    4  N3  UNL     1       4.539  57.925  25.486  1.00  0.00    -0.331 N 
HETATM    5  C10 UNL     1       3.911  57.788  24.214  1.00  0.00     0.318 C 
HETATM    6  O2  UNL     1       2.634  57.850  24.151  1.00  0.00    -0.247 OA
HETATM    7  N4  UNL     1       4.728  57.587  23.083  1.00  0.00    -0.343 N 
ATOM      8  H4  UNL     1       5.740  57.556  23.207  1.00  0.00     0.164 HD
HETATM    9  C19 UNL     1       5.970  57.854  25.567  1.00  0.00     0.158 C 
HETATM   10  C20 UNL     1       6.389  58.388  26.946  1.00  0.00     0.292 C 
ENDROOT
BRANCH   7  11
HETATM   11  C11 UNL     1       4.187  57.424  21.761  1.00  0.00     0.124 C 
BRANCH  11  12
HETATM   12  C12 UNL     1       4.696  58.507  20.863  1.00  0.00     0.022 C 
BRANCH  12  13
HETATM   13  C13 UNL     1       3.950  59.772  20.837  1.00  0.00     0.034 C 
BRANCH  13  14
HETATM   14  C14 UNL     1       4.385  60.953  21.583  1.00  0.00     0.186 C 
HETATM   15  C15 UNL     1       3.953  62.295  21.190  1.00  0.00     0.033 C 
HETATM   16  C16 UNL     1       5.083  63.298  21.413  1.00  0.00     0.004 C 
HETATM   17  C17 UNL     1       6.240  62.978  20.468  1.00  0.00     0.027 C 
HETATM   18  C18 UNL     1       6.457  61.466  20.469  1.00  0.00     0.232 C 
HETATM   19  N5  UNL     1       5.850  60.901  21.666  1.00  0.00    -0.071 N 
ATOM     20  H52 UNL     1       6.196  61.351  22.513  1.00  0.00     0.277 HD
ATOM     21  H51 UNL     1       6.183  59.955  21.848  1.00  0.00     0.277 HD
ENDBRANCH  13  14
ENDBRANCH  12  13
ENDBRANCH  11  12
ENDBRANCH   7  11
BRANCH   1  22
HETATM   22  C7  UNL     1       6.191  60.609  27.850  1.00  0.00     0.292 C 
BRANCH  22  23
HETATM   23  C6  UNL     1       5.286  61.502  28.622  1.00  0.00     0.152 C 
BRANCH  23  24
HETATM   24  N1  UNL     1       5.507  62.870  28.191  1.00  0.00    -0.360 N 
ATOM     25  H1  UNL     1       6.397  63.336  28.367  1.00  0.00     0.162 HD
BRANCH  24  26
HETATM   26  C5  UNL     1       4.460  63.540  27.523  1.00  0.00     0.210 C 
HETATM   27  S1  UNL     1       4.316  65.147  27.670  1.00  0.00    -0.033 SA
BRANCH  26  28
HETATM   28  O1  UNL     1       3.569  62.837  26.755  1.00  0.00    -0.317 OA
BRANCH  28  29
HETATM   29  C2  UNL     1       3.617  62.619  25.381  1.00  0.00     0.059 C 
HETATM   30  C1  UNL     1       2.710  61.418  25.085  1.00  0.00     0.045 C 
HETATM   31  C3  UNL     1       3.095  63.790  24.574  1.00  0.00     0.045 C 
HETATM   32  C4  UNL     1       4.987  62.287  24.867  1.00  0.00     0.045 C 
ENDBRANCH  28  29
ENDBRANCH  26  28
ENDBRANCH  24  26
ENDBRANCH  23  24
ENDBRANCH  22  23
ENDBRANCH   1  22
TORSDOF 10
ENDMDL
MODEL 3
REMARK VINA RESULT: -5.914132247      2.309      3.707
REMARK  10 active torsions:
REMARK  status: ('A' for Active; 'I' for Inactive)
REMARK    1  A    between atoms: C2_2  and  O1_5 
REMARK    2  A    between atoms: O1_5  and  C5_6 
REMARK    3  A    between atoms: C5_6  and  N1_8 
REMARK    4  A    between atoms: N1_8  and  C6_10 
REMARK    5  A    between atoms: C6_10  and  C7_11 
REMARK    6  A    between atoms: C7_11  and  N2_12 
REMARK       I    between atoms: N3_15  and  C10_16 
REMARK       I    between atoms: C10_16  and  N4_18 
REMARK    7  A    between atoms: N4_18  and  C11_20 
REMARK    8  A    between atoms: C11_20  and  C12_21 
REMARK    9  A    between atoms: C12_21  and  C13_22 
REMARK   10  A    between atoms: C13_22  and  C14_23 
ROOT
HETATM    1  N2  UNL     1       5.654  59.630  27.235  1.00  0.00     0.093 N 
HETATM    2  C8  UNL     1       4.423  59.131  27.739  1.00  0.00     0.292 C 
HETATM    3  C9  UNL     1       3.939  58.064  26.777  1.00  0.00     0.158 C 
HETATM    4  N3  UNL     1       4.689  58.005  25.554  1.00  0.00    -0.331 N 
HETATM    5  C10 UNL     1       3.992  57.877  24.317  1.00  0.00     0.318 C 
HETATM    6  O2  UNL     1       2.714  57.820  24.336  1.00  0.00    -0.247 OA
HETATM    7  N4  UNL     1       4.747  57.817  23.128  1.00  0.00    -0.343 N 
ATOM      8  H4  UNL     1       5.764  57.877  23.187  1.00  0.00     0.164 HD
HETATM    9  C19 UNL     1       6.123  58.068  25.542  1.00  0.00     0.158 C 
HETATM   10  C20 UNL     1       6.582  58.564  26.922  1.00  0.00     0.292 C 
ENDROOT
BRANCH   7  11
HETATM   11  C11 UNL     1       4.136  57.675  21.834  1.00  0.00     0.124 C 
BRANCH  11  12
HETATM   12  C12 UNL     1       4.117  58.994  21.129  1.00  0.00     0.022 C 
BRANCH  12  13
HETATM   13  C13 UNL     1       5.251  59.309  20.251  1.00  0.00     0.034 C 
BRANCH  13  14
HETATM   14  C14 UNL     1       6.339  60.197  20.663  1.00  0.00     0.186 C 
HETATM   15  C15 UNL     1       6.194  61.651  20.593  1.00  0.00     0.033 C 
HETATM   16  C16 UNL     1       7.518  62.294  20.185  1.00  0.00     0.004 C 
HETATM   17  C17 UNL     1       7.866  61.877  18.757  1.00  0.00     0.027 C 
HETATM   18  C18 UNL     1       7.586  60.382  18.611  1.00  0.00     0.232 C 
HETATM   19  N5  UNL     1       7.543  59.777  19.935  1.00  0.00    -0.071 N 
ATOM     20  H52 UNL     1       8.393  59.971  20.466  1.00  0.00     0.277 HD
ATOM     21  H51 UNL     1       7.620  58.761  19.888  1.00  0.00     0.277 HD
ENDBRANCH  13  14
ENDBRANCH  12  13
ENDBRANCH  11  12
ENDBRANCH   7  11
BRANCH   1  22
HETATM   22  C7  UNL     1       6.240  60.703  27.969  1.00  0.00     0.292 C 
BRANCH  22  23
HETATM   23  C6  UNL     1       5.328  61.831  28.293  1.00  0.00     0.152 C 
BRANCH  23  24
HETATM   24  N1  UNL     1       5.222  62.691  27.129  1.00  0.00    -0.360 N 
ATOM     25  H1  UNL     1       6.037  63.188  26.770  1.00  0.00     0.162 HD
BRANCH  24  26
HETATM   26  C5  UNL     1       3.962  62.823  26.506  1.00  0.00     0.210 C 
HETATM   27  S1  UNL     1       2.613  62.572  27.368  1.00  0.00    -0.033 SA
BRANCH  26  28
HETATM   28  O1  UNL     1       3.879  63.159  25.180  1.00  0.00    -0.317 OA
BRANCH  28  29
HETATM   29  C2  UNL     1       3.945  62.309  24.081  1.00  0.00     0.059 C 
HETATM   30  C1  UNL     1       3.959  63.194  22.828  1.00  0.00     0.045 C 
HETATM   31  C3  UNL     1       5.204  61.467  24.054  1.00  0.00     0.045 C 
HETATM   32  C4  UNL     1       2.774  61.378  23.962  1.00  0.00     0.045 C 
ENDBRANCH  28  29
ENDBRANCH  26  28
ENDBRANCH  24  26
ENDBRANCH  23  24
ENDBRANCH  22  23
ENDBRANCH   1  22
TORSDOF 10
ENDMDL
MODEL 4
REMARK VINA RESULT: -5.832445668      2.005      4.247
REMARK  10 active torsions:
REMARK  status: ('A' for Active; 'I' for Inactive)
REMARK    1  A    between atoms: C2_2  and  O1_5 
REMARK    2  A    between atoms: O1_5  and  C5_6 
REMARK    3  A    between atoms: C5_6  and  N1_8 
REMARK    4  A    between atoms: N1_8  and  C6_10 
REMARK    5  A    between atoms: C6_10  and  C7_11 
REMARK    6  A    between atoms: C7_11  and  N2_12 
REMARK       I    between atoms: N3_15  and  C10_16 
REMARK       I    between atoms: C10_16  and  N4_18 
REMARK    7  A    between atoms: N4_18  and  C11_20 
REMARK    8  A    between atoms: C11_20  and  C12_21 
REMARK    9  A    between atoms: C12_21  and  C13_22 
REMARK   10  A    between atoms: C13_22  and  C14_23 
ROOT
HETATM    1  N2  UNL     1       5.554  59.738  26.832  1.00  0.00     0.093 N 
HETATM    2  C8  UNL     1       4.334  59.309  27.421  1.00  0.00     0.292 C 
HETATM    3  C9  UNL     1       3.860  58.096  26.647  1.00  0.00     0.158 C 
HETATM    4  N3  UNL     1       4.601  57.853  25.441  1.00  0.00    -0.331 N 
HETATM    5  C10 UNL     1       3.896  57.518  24.248  1.00  0.00     0.318 C 
HETATM    6  O2  UNL     1       2.619  57.447  24.289  1.00  0.00    -0.247 OA
HETATM    7  N4  UNL     1       4.642  57.280  23.076  1.00  0.00    -0.343 N 
ATOM      8  H4  UNL     1       5.658  57.363  23.114  1.00  0.00     0.164 HD
HETATM    9  C19 UNL     1       6.033  57.933  25.405  1.00  0.00     0.158 C 
HETATM   10  C20 UNL     1       6.495  58.650  26.683  1.00  0.00     0.292 C 
ENDROOT
BRANCH   7  11
HETATM   11  C11 UNL     1       4.023  56.924  21.828  1.00  0.00     0.124 C 
BRANCH  11  12
HETATM   12  C12 UNL     1       4.284  57.985  20.806  1.00  0.00     0.022 C 
BRANCH  12  13
HETATM   13  C13 UNL     1       5.216  59.060  21.170  1.00  0.00     0.034 C 
BRANCH  13  14
HETATM   14  C14 UNL     1       4.831  60.472  21.148  1.00  0.00     0.186 C 
HETATM   15  C15 UNL     1       5.835  61.525  20.993  1.00  0.00     0.033 C 
HETATM   16  C16 UNL     1       5.456  62.741  21.837  1.00  0.00     0.004 C 
HETATM   17  C17 UNL     1       5.518  62.370  23.318  1.00  0.00     0.027 C 
HETATM   18  C18 UNL     1       4.871  60.998  23.497  1.00  0.00     0.232 C 
HETATM   19  N5  UNL     1       4.022  60.721  22.347  1.00  0.00    -0.071 N 
ATOM     20  H52 UNL     1       3.339  61.464  22.194  1.00  0.00     0.277 HD
ATOM     21  H51 UNL     1       3.375  59.954  22.531  1.00  0.00     0.277 HD
ENDBRANCH  13  14
ENDBRANCH  12  13
ENDBRANCH  11  12
ENDBRANCH   7  11
BRANCH   1  22
HETATM   22  C7  UNL     1       6.129  60.924  27.378  1.00  0.00     0.292 C 
BRANCH  22  23
HETATM   23  C6  UNL     1       5.161  61.933  27.881  1.00  0.00     0.152 C 
BRANCH  23  24
HETATM   24  N1  UNL     1       5.331  63.158  27.121  1.00  0.00    -0.360 N 
ATOM     25  H1  UNL     1       5.963  63.194  26.321  1.00  0.00     0.162 HD
BRANCH  24  26
HETATM   26  C5  UNL     1       4.600  64.299  27.517  1.00  0.00     0.210 C 
HETATM   27  S1  UNL     1       4.661  64.793  29.059  1.00  0.00    -0.033 SA
BRANCH  26  28
HETATM   28  O1  UNL     1       3.844  64.986  26.604  1.00  0.00    -0.317 OA
BRANCH  28  29
HETATM   29  C2  UNL     1       2.597  64.634  26.096  1.00  0.00     0.059 C 
HETATM   30  C1  UNL     1       1.801  65.933  25.919  1.00  0.00     0.045 C 
HETATM   31  C3  UNL     1       2.674  63.962  24.740  1.00  0.00     0.045 C 
HETATM   32  C4  UNL     1       1.803  63.739  27.002  1.00  0.00     0.045 C 
ENDBRANCH  28  29
ENDBRANCH  26  28
ENDBRANCH  24  26
ENDBRANCH  23  24
ENDBRANCH  22  23
ENDBRANCH   1  22
TORSDOF 10
ENDMDL
MODEL 5
REMARK VINA RESULT: -5.817614488      2.662      6.753
REMARK  10 active torsions:
REMARK  status: ('A' for Active; 'I' for Inactive)
REMARK    1  A    between atoms: C2_2  and  O1_5 
REMARK    2  A    between atoms: O1_5  and  C5_6 
REMARK    3  A    between atoms: C5_6  and  N1_8 
REMARK    4  A    between atoms: N1_8  and  C6_10 
REMARK    5  A    between atoms: C6_10  and  C7_11 
REMARK    6  A    between atoms: C7_11  and  N2_12 
REMARK       I    between atoms: N3_15  and  C10_16 
REMARK       I    between atoms: C10_16  and  N4_18 
REMARK    7  A    between atoms: N4_18  and  C11_20 
REMARK    8  A    between atoms: C11_20  and  C12_21 
REMARK    9  A    between atoms: C12_21  and  C13_22 
REMARK   10  A    between atoms: C13_22  and  C14_23 
ROOT
HETATM    1  N2  UNL     1       3.780  58.063  25.057  1.00  0.00     0.093 N 
HETATM    2  C8  UNL     1       5.095  58.055  25.596  1.00  0.00     0.292 C 
HETATM    3  C9  UNL     1       5.191  59.208  26.574  1.00  0.00     0.158 C 
HETATM    4  N3  UNL     1       4.068  60.101  26.527  1.00  0.00    -0.331 N 
HETATM    5  C10 UNL     1       4.297  61.508  26.546  1.00  0.00     0.318 C 
HETATM    6  O2  UNL     1       5.503  61.932  26.604  1.00  0.00    -0.247 OA
HETATM    7  N4  UNL     1       3.181  62.368  26.503  1.00  0.00    -0.343 N 
ATOM      8  H4  UNL     1       2.247  61.960  26.449  1.00  0.00     0.164 HD
HETATM    9  C19 UNL     1       2.718  59.617  26.465  1.00  0.00     0.158 C 
HETATM   10  C20 UNL     1       2.771  58.127  26.092  1.00  0.00     0.292 C 
ENDROOT
BRANCH   7  11
HETATM   11  C11 UNL     1       3.310  63.800  26.531  1.00  0.00     0.124 C 
BRANCH  11  12
HETATM   12  C12 UNL     1       3.188  64.352  25.147  1.00  0.00     0.022 C 
BRANCH  12  13
HETATM   13  C13 UNL     1       3.268  63.402  24.029  1.00  0.00     0.034 C 
BRANCH  13  14
HETATM   14  C14 UNL     1       4.309  63.484  23.003  1.00  0.00     0.186 C 
HETATM   15  C15 UNL     1       4.000  63.243  21.594  1.00  0.00     0.033 C 
HETATM   16  C16 UNL     1       5.161  62.518  20.916  1.00  0.00     0.004 C 
HETATM   17  C17 UNL     1       5.306  61.121  21.519  1.00  0.00     0.027 C 
HETATM   18  C18 UNL     1       5.166  61.235  23.035  1.00  0.00     0.232 C 
HETATM   19  N5  UNL     1       5.411  62.614  23.432  1.00  0.00    -0.071 N 
ATOM     20  H52 UNL     1       6.312  62.950  23.090  1.00  0.00     0.277 HD
ATOM     21  H51 UNL     1       5.587  62.693  24.433  1.00  0.00     0.277 HD
ENDBRANCH  13  14
ENDBRANCH  12  13
ENDBRANCH  11  12
ENDBRANCH   7  11
BRANCH   1  22
HETATM   22  C7  UNL     1       3.510  57.088  24.052  1.00  0.00     0.292 C 
BRANCH  22  23
HETATM   23  C6  UNL     1       3.611  57.568  22.648  1.00  0.00     0.152 C 
BRANCH  23  24
HETATM   24  N1  UNL     1       4.377  56.603  21.881  1.00  0.00    -0.360 N 
ATOM     25  H1  UNL     1       5.278  56.264  22.218  1.00  0.00     0.162 HD
BRANCH  24  26
HETATM   26  C5  UNL     1       3.842  56.144  20.658  1.00  0.00     0.210 C 
HETATM   27  S1  UNL     1       3.482  57.212  19.493  1.00  0.00    -0.033 SA
BRANCH  26  28
HETATM   28  O1  UNL     1       3.629  54.807  20.455  1.00  0.00    -0.317 OA
BRANCH  28  29
HETATM   29  C2  UNL     1       2.478  54.076  20.737  1.00  0.00     0.059 C 
HETATM   30  C1  UNL     1       1.690  53.956  19.427  1.00  0.00     0.045 C 
HETATM   31  C3  UNL     1       2.769  52.670  21.221  1.00  0.00     0.045 C 
HETATM   32  C4  UNL     1       1.579  54.727  21.746  1.00  0.00     0.045 C 
ENDBRANCH  28  29
ENDBRANCH  26  28
ENDBRANCH  24  26
ENDBRANCH  23  24
ENDBRANCH  22  23
ENDBRANCH   1  22
TORSDOF 10
ENDMDL
