MODEL 1
REMARK VINA RESULT: -7.433213328      0.000      0.000
REMARK  10 active torsions:
REMARK  status: ('A' for Active; 'I' for Inactive)
REMARK    1  A    between atoms: O1_2  and  C2_3 
REMARK    2  A    between atoms: C2_3  and  C3_4 
REMARK    3  A    between atoms: C3_4  and  C4_5 
REMARK    4  A    between atoms: C4_5  and  C5_6 
REMARK    5  A    between atoms: C5_6  and  C6_7 
REMARK    6  A    between atoms: C6_7  and  C7_8 
REMARK    7  A    between atoms: C7_8  and  N1_9 
REMARK    8  A    between atoms: C12_15  and  O3_16 
REMARK    9  A    between atoms: C13_18  and  O4_19 
REMARK   10  A    between atoms: C23_30  and  O5_31 
ROOT
HETATM    1  N1  UNL     1       5.845  61.540  21.234  1.00  0.00    -0.338 N 
HETATM    2  C8  UNL     1       5.563  62.918  21.024  1.00  0.00     0.220 C 
HETATM    3  O2  UNL     1       6.308  63.904  20.856  1.00  0.00    -0.273 OA
HETATM    4  C9  UNL     1       4.060  63.144  21.019  1.00  0.00     0.105 C 
HETATM    5  C10 UNL     1       3.604  61.712  21.123  1.00  0.00     0.046 C 
HETATM    6  C11 UNL     1       4.703  61.051  21.992  1.00  0.00     0.090 C 
HETATM    7  C12 UNL     1       4.427  59.615  22.024  1.00  0.00     0.178 C 
HETATM    8  C13 UNL     1       4.964  58.848  23.187  1.00  0.00     0.155 C 
HETATM    9  C14 UNL     1       5.382  59.649  24.365  1.00  0.00     0.035 C 
HETATM   10  C15 UNL     1       5.495  58.776  25.608  1.00  0.00    -0.041 C 
HETATM   11  C16 UNL     1       6.060  57.394  25.274  1.00  0.00     0.015 C 
HETATM   12  C17 UNL     1       6.542  59.349  26.579  1.00  0.00     0.015 C 
HETATM   13  C18 UNL     1       4.189  58.549  26.284  1.00  0.00     0.009 C 
HETATM   14  C19 UNL     1       3.175  59.605  26.185  1.00  0.00     0.002 C 
HETATM   15  C20 UNL     1       3.177  60.470  24.982  1.00  0.00     0.012 C 
HETATM   16  C21 UNL     1       4.556  60.848  24.532  1.00  0.00    -0.009 C 
HETATM   17  C22 UNL     1       5.055  61.786  25.651  1.00  0.00     0.018 C 
HETATM   18  C23 UNL     1       4.616  61.724  23.317  1.00  0.00     0.157 C 
ENDROOT
BRANCH   1  19
HETATM   19  C7  UNL     1       7.008  60.869  20.768  1.00  0.00     0.127 C 
BRANCH  19  20
HETATM   20  C6  UNL     1       7.265  60.721  19.340  1.00  0.00     0.020 C 
BRANCH  20  21
HETATM   21  C5  UNL     1       8.004  61.778  18.593  1.00  0.00     0.002 C 
BRANCH  21  22
HETATM   22  C4  UNL     1       8.478  61.336  17.223  1.00  0.00     0.002 C 
BRANCH  22  23
HETATM   23  C3  UNL     1       7.727  60.072  16.877  1.00  0.00     0.026 C 
BRANCH  23  24
HETATM   24  C2  UNL     1       6.949  60.269  15.590  1.00  0.00     0.167 C 
BRANCH  24  25
HETATM   25  O1  UNL     1       6.605  61.586  15.391  1.00  0.00    -0.396 OA
HETATM   26  C1  UNL     1       5.772  61.666  14.277  1.00  0.00     0.201 C 
ENDBRANCH  24  25
ENDBRANCH  23  24
ENDBRANCH  22  23
ENDBRANCH  21  22
ENDBRANCH  20  21
ENDBRANCH  19  20
ENDBRANCH   1  19
BRANCH   7  27
HETATM   27  O3  UNL     1       4.654  58.885  20.870  1.00  0.00    -0.390 OA
ATOM     28  H3  UNL     1       4.228  58.040  20.785  1.00  0.00     0.210 HD
ENDBRANCH   7  27
BRANCH  18  29
HETATM   29  O5  UNL     1       5.717  62.562  23.476  1.00  0.00    -0.392 OA
ATOM     30  H5  UNL     1       5.882  62.687  24.403  1.00  0.00     0.210 HD
ENDBRANCH  18  29
BRANCH   8  31
HETATM   31  O4  UNL     1       4.044  57.854  23.521  1.00  0.00    -0.392 OA
ATOM     32  H4  UNL     1       3.763  57.994  24.419  1.00  0.00     0.210 HD
ENDBRANCH   8  31
TORSDOF 10
ENDMDL
MODEL 2
REMARK VINA RESULT: -6.457467994      2.261      3.850
REMARK  10 active torsions:
REMARK  status: ('A' for Active; 'I' for Inactive)
REMARK    1  A    between atoms: O1_2  and  C2_3 
REMARK    2  A    between atoms: C2_3  and  C3_4 
REMARK    3  A    between atoms: C3_4  and  C4_5 
REMARK    4  A    between atoms: C4_5  and  C5_6 
REMARK    5  A    between atoms: C5_6  and  C6_7 
REMARK    6  A    between atoms: C6_7  and  C7_8 
REMARK    7  A    between atoms: C7_8  and  N1_9 
REMARK    8  A    between atoms: C12_15  and  O3_16 
REMARK    9  A    between atoms: C13_18  and  O4_19 
REMARK   10  A    between atoms: C23_30  and  O5_31 
ROOT
HETATM    1  N1  UNL     1       3.297  62.879  24.858  1.00  0.00    -0.338 N 
HETATM    2  C8  UNL     1       2.989  63.991  25.689  1.00  0.00     0.220 C 
HETATM    3  O2  UNL     1       3.514  65.117  25.801  1.00  0.00    -0.273 OA
HETATM    4  C9  UNL     1       1.793  63.664  26.568  1.00  0.00     0.105 C 
HETATM    5  C10 UNL     1       1.448  62.311  26.005  1.00  0.00     0.046 C 
HETATM    6  C11 UNL     1       2.827  61.727  25.611  1.00  0.00     0.090 C 
HETATM    7  C12 UNL     1       2.581  60.466  24.911  1.00  0.00     0.178 C 
HETATM    8  C13 UNL     1       3.686  59.462  24.918  1.00  0.00     0.155 C 
HETATM    9  C14 UNL     1       4.753  59.666  25.930  1.00  0.00     0.035 C 
HETATM   10  C15 UNL     1       5.563  58.393  26.135  1.00  0.00    -0.041 C 
HETATM   11  C16 UNL     1       5.771  57.641  24.819  1.00  0.00     0.015 C 
HETATM   12  C17 UNL     1       7.000  58.730  26.567  1.00  0.00     0.015 C 
HETATM   13  C18 UNL     1       4.920  57.434  27.074  1.00  0.00     0.009 C 
HETATM   14  C19 UNL     1       4.084  57.986  28.147  1.00  0.00     0.002 C 
HETATM   15  C20 UNL     1       3.389  59.272  27.905  1.00  0.00     0.012 C 
HETATM   16  C21 UNL     1       4.231  60.264  27.162  1.00  0.00    -0.009 C 
HETATM   17  C22 UNL     1       5.331  60.635  28.178  1.00  0.00     0.018 C 
HETATM   18  C23 UNL     1       3.575  61.584  26.890  1.00  0.00     0.157 C 
ENDROOT
BRANCH   1  19
HETATM   19  C7  UNL     1       3.925  62.966  23.586  1.00  0.00     0.127 C 
BRANCH  19  20
HETATM   20  C6  UNL     1       5.246  62.390  23.362  1.00  0.00     0.020 C 
BRANCH  20  21
HETATM   21  C5  UNL     1       5.483  61.465  22.217  1.00  0.00     0.002 C 
BRANCH  21  22
HETATM   22  C4  UNL     1       5.616  62.171  20.883  1.00  0.00     0.002 C 
BRANCH  22  23
HETATM   23  C3  UNL     1       7.045  61.993  20.425  1.00  0.00     0.026 C 
BRANCH  23  24
HETATM   24  C2  UNL     1       7.461  63.168  19.562  1.00  0.00     0.167 C 
BRANCH  24  25
HETATM   25  O1  UNL     1       7.609  62.812  18.241  1.00  0.00    -0.396 OA
HETATM   26  C1  UNL     1       8.035  61.487  18.181  1.00  0.00     0.201 C 
ENDBRANCH  24  25
ENDBRANCH  23  24
ENDBRANCH  22  23
ENDBRANCH  21  22
ENDBRANCH  20  21
ENDBRANCH  19  20
ENDBRANCH   1  19
BRANCH   7  27
HETATM   27  O3  UNL     1       2.046  60.526  23.636  1.00  0.00    -0.390 OA
ATOM     28  H3  UNL     1       2.646  60.516  22.899  1.00  0.00     0.210 HD
ENDBRANCH   7  27
BRANCH  18  29
HETATM   29  O5  UNL     1       4.575  62.552  26.943  1.00  0.00    -0.392 OA
ATOM     30  H5  UNL     1       4.369  63.246  26.329  1.00  0.00     0.210 HD
ENDBRANCH  18  29
BRANCH   8  31
HETATM   31  O4  UNL     1       3.121  58.187  24.993  1.00  0.00    -0.392 OA
ATOM     32  H4  UNL     1       2.888  57.910  24.114  1.00  0.00     0.210 HD
ENDBRANCH   8  31
TORSDOF 10
ENDMDL
MODEL 3
REMARK VINA RESULT: -6.398728591      3.432      4.384
REMARK  10 active torsions:
REMARK  status: ('A' for Active; 'I' for Inactive)
REMARK    1  A    between atoms: O1_2  and  C2_3 
REMARK    2  A    between atoms: C2_3  and  C3_4 
REMARK    3  A    between atoms: C3_4  and  C4_5 
REMARK    4  A    between atoms: C4_5  and  C5_6 
REMARK    5  A    between atoms: C5_6  and  C6_7 
REMARK    6  A    between atoms: C6_7  and  C7_8 
REMARK    7  A    between atoms: C7_8  and  N1_9 
REMARK    8  A    between atoms: C12_15  and  O3_16 
REMARK    9  A    between atoms: C13_18  and  O4_19 
REMARK   10  A    between atoms: C23_30  and  O5_31 
ROOT
HETATM    1  N1  UNL     1       3.332  62.823  24.716  1.00  0.00    -0.338 N 
HETATM    2  C8  UNL     1       2.991  63.942  25.525  1.00  0.00     0.220 C 
HETATM    3  O2  UNL     1       3.501  65.074  25.637  1.00  0.00    -0.273 OA
HETATM    4  C9  UNL     1       1.774  63.613  26.375  1.00  0.00     0.105 C 
HETATM    5  C10 UNL     1       1.458  62.250  25.819  1.00  0.00     0.046 C 
HETATM    6  C11 UNL     1       2.853  61.675  25.470  1.00  0.00     0.090 C 
HETATM    7  C12 UNL     1       2.639  60.404  24.779  1.00  0.00     0.178 C 
HETATM    8  C13 UNL     1       3.752  59.411  24.828  1.00  0.00     0.155 C 
HETATM    9  C14 UNL     1       4.790  59.637  25.866  1.00  0.00     0.035 C 
HETATM   10  C15 UNL     1       5.606  58.375  26.108  1.00  0.00    -0.041 C 
HETATM   11  C16 UNL     1       5.857  57.610  24.808  1.00  0.00     0.015 C 
HETATM   12  C17 UNL     1       7.028  58.732  26.575  1.00  0.00     0.015 C 
HETATM   13  C18 UNL     1       4.947  57.421  27.041  1.00  0.00     0.009 C 
HETATM   14  C19 UNL     1       4.077  57.978  28.084  1.00  0.00     0.002 C 
HETATM   15  C20 UNL     1       3.376  59.253  27.808  1.00  0.00     0.012 C 
HETATM   16  C21 UNL     1       4.228  60.245  27.076  1.00  0.00    -0.009 C 
HETATM   17  C22 UNL     1       5.297  60.639  28.117  1.00  0.00     0.018 C 
HETATM   18  C23 UNL     1       3.567  61.555  26.771  1.00  0.00     0.157 C 
ENDROOT
BRANCH   1  19
HETATM   19  C7  UNL     1       3.993  62.901  23.460  1.00  0.00     0.127 C 
BRANCH  19  20
HETATM   20  C6  UNL     1       5.331  62.347  23.283  1.00  0.00     0.020 C 
BRANCH  20  21
HETATM   21  C5  UNL     1       5.770  61.845  21.950  1.00  0.00     0.002 C 
BRANCH  21  22
HETATM   22  C4  UNL     1       4.765  60.927  21.285  1.00  0.00     0.002 C 
BRANCH  22  23
HETATM   23  C3  UNL     1       5.283  59.515  21.432  1.00  0.00     0.026 C 
BRANCH  23  24
HETATM   24  C2  UNL     1       4.247  58.529  20.930  1.00  0.00     0.167 C 
BRANCH  24  25
HETATM   25  O1  UNL     1       3.846  57.654  21.915  1.00  0.00    -0.396 OA
HETATM   26  C1  UNL     1       3.854  56.362  21.393  1.00  0.00     0.201 C 
ENDBRANCH  24  25
ENDBRANCH  23  24
ENDBRANCH  22  23
ENDBRANCH  21  22
ENDBRANCH  20  21
ENDBRANCH  19  20
ENDBRANCH   1  19
BRANCH   7  27
HETATM   27  O3  UNL     1       2.138  60.443  23.489  1.00  0.00    -0.390 OA
ATOM     28  H3  UNL     1       1.638  59.696  23.182  1.00  0.00     0.210 HD
ENDBRANCH   7  27
BRANCH  18  29
HETATM   29  O5  UNL     1       4.556  62.534  26.839  1.00  0.00    -0.392 OA
ATOM     30  H5  UNL     1       4.965  62.504  27.696  1.00  0.00     0.210 HD
ENDBRANCH  18  29
BRANCH   8  31
HETATM   31  O4  UNL     1       3.198  58.132  24.903  1.00  0.00    -0.392 OA
ATOM     32  H4  UNL     1       3.879  57.498  24.704  1.00  0.00     0.210 HD
ENDBRANCH   8  31
TORSDOF 10
ENDMDL
MODEL 4
REMARK VINA RESULT: -6.345553527      3.717      6.273
REMARK  10 active torsions:
REMARK  status: ('A' for Active; 'I' for Inactive)
REMARK    1  A    between atoms: O1_2  and  C2_3 
REMARK    2  A    between atoms: C2_3  and  C3_4 
REMARK    3  A    between atoms: C3_4  and  C4_5 
REMARK    4  A    between atoms: C4_5  and  C5_6 
REMARK    5  A    between atoms: C5_6  and  C6_7 
REMARK    6  A    between atoms: C6_7  and  C7_8 
REMARK    7  A    between atoms: C7_8  and  N1_9 
REMARK    8  A    between atoms: C12_15  and  O3_16 
REMARK    9  A    between atoms: C13_18  and  O4_19 
REMARK   10  A    between atoms: C23_30  and  O5_31 
ROOT
HETATM    1  N1  UNL     1       4.699  58.448  27.265  1.00  0.00    -0.338 N 
HETATM    2  C8  UNL     1       3.695  57.741  27.983  1.00  0.00     0.220 C 
HETATM    3  O2  UNL     1       3.286  56.566  27.901  1.00  0.00    -0.273 OA
HETATM    4  C9  UNL     1       3.054  58.656  29.013  1.00  0.00     0.105 C 
HETATM    5  C10 UNL     1       3.928  59.870  28.828  1.00  0.00     0.046 C 
HETATM    6  C11 UNL     1       4.268  59.837  27.318  1.00  0.00     0.090 C 
HETATM    7  C12 UNL     1       5.243  60.898  27.069  1.00  0.00     0.178 C 
HETATM    8  C13 UNL     1       5.316  61.438  25.679  1.00  0.00     0.155 C 
HETATM    9  C14 UNL     1       4.163  61.132  24.794  1.00  0.00     0.035 C 
HETATM   10  C15 UNL     1       4.137  62.063  23.589  1.00  0.00    -0.041 C 
HETATM   11  C16 UNL     1       5.547  62.360  23.077  1.00  0.00     0.015 C 
HETATM   12  C17 UNL     1       3.474  61.370  22.385  1.00  0.00     0.015 C 
HETATM   13  C18 UNL     1       3.504  63.378  23.879  1.00  0.00     0.009 C 
HETATM   14  C19 UNL     1       2.447  63.418  24.896  1.00  0.00     0.002 C 
HETATM   15  C20 UNL     1       2.494  62.427  25.997  1.00  0.00     0.012 C 
HETATM   16  C21 UNL     1       2.905  61.061  25.541  1.00  0.00    -0.009 C 
HETATM   17  C22 UNL     1       1.709  60.592  24.685  1.00  0.00     0.018 C 
HETATM   18  C23 UNL     1       2.968  60.018  26.616  1.00  0.00     0.157 C 
ENDROOT
BRANCH   1  19
HETATM   19  C7  UNL     1       5.841  57.851  26.664  1.00  0.00     0.127 C 
BRANCH  19  20
HETATM   20  C6  UNL     1       5.994  57.821  25.214  1.00  0.00     0.020 C 
BRANCH  20  21
HETATM   21  C5  UNL     1       4.848  57.438  24.341  1.00  0.00     0.002 C 
BRANCH  21  22
HETATM   22  C4  UNL     1       4.900  58.060  22.961  1.00  0.00     0.002 C 
BRANCH  22  23
HETATM   23  C3  UNL     1       3.883  57.339  22.107  1.00  0.00     0.026 C 
BRANCH  23  24
HETATM   24  C2  UNL     1       4.182  57.571  20.639  1.00  0.00     0.167 C 
BRANCH  24  25
HETATM   25  O1  UNL     1       3.965  56.442  19.882  1.00  0.00    -0.396 OA
HETATM   26  C1  UNL     1       3.119  56.771  18.825  1.00  0.00     0.201 C 
ENDBRANCH  24  25
ENDBRANCH  23  24
ENDBRANCH  22  23
ENDBRANCH  21  22
ENDBRANCH  20  21
ENDBRANCH  19  20
ENDBRANCH   1  19
BRANCH   7  27
HETATM   27  O3  UNL     1       6.531  60.721  27.543  1.00  0.00    -0.390 OA
ATOM     28  H3  UNL     1       7.215  61.280  27.194  1.00  0.00     0.210 HD
ENDBRANCH   7  27
BRANCH  18  29
HETATM   29  O5  UNL     1       2.593  58.810  26.033  1.00  0.00    -0.392 OA
ATOM     30  H5  UNL     1       1.739  58.912  25.628  1.00  0.00     0.210 HD
ENDBRANCH  18  29
BRANCH   8  31
HETATM   31  O4  UNL     1       5.580  62.807  25.750  1.00  0.00    -0.392 OA
ATOM     32  H4  UNL     1       5.499  63.174  24.877  1.00  0.00     0.210 HD
ENDBRANCH   8  31
TORSDOF 10
ENDMDL
MODEL 5
REMARK VINA RESULT: -6.247952544      2.544      5.022
REMARK  10 active torsions:
REMARK  status: ('A' for Active; 'I' for Inactive)
REMARK    1  A    between atoms: O1_2  and  C2_3 
REMARK    2  A    between atoms: C2_3  and  C3_4 
REMARK    3  A    between atoms: C3_4  and  C4_5 
REMARK    4  A    between atoms: C4_5  and  C5_6 
REMARK    5  A    between atoms: C5_6  and  C6_7 
REMARK    6  A    between atoms: C6_7  and  C7_8 
REMARK    7  A    between atoms: C7_8  and  N1_9 
REMARK    8  A    between atoms: C12_15  and  O3_16 
REMARK    9  A    between atoms: C13_18  and  O4_19 
REMARK   10  A    between atoms: C23_30  and  O5_31 
ROOT
HETATM    1  N1  UNL     1       3.776  60.295  23.767  1.00  0.00    -0.338 N 
HETATM    2  C8  UNL     1       3.874  58.889  23.953  1.00  0.00     0.220 C 
HETATM    3  O2  UNL     1       3.237  57.938  23.458  1.00  0.00    -0.273 OA
HETATM    4  C9  UNL     1       4.975  58.574  24.952  1.00  0.00     0.105 C 
HETATM    5  C10 UNL     1       5.513  59.966  25.159  1.00  0.00     0.046 C 
HETATM    6  C11 UNL     1       4.253  60.858  25.021  1.00  0.00     0.090 C 
HETATM    7  C12 UNL     1       4.701  62.250  25.057  1.00  0.00     0.178 C 
HETATM    8  C13 UNL     1       3.702  63.270  25.492  1.00  0.00     0.155 C 
HETATM    9  C14 UNL     1       2.502  62.756  26.200  1.00  0.00     0.035 C 
HETATM   10  C15 UNL     1       1.795  63.871  26.958  1.00  0.00    -0.041 C 
HETATM   11  C16 UNL     1       1.824  65.187  26.180  1.00  0.00     0.015 C 
HETATM   12  C17 UNL     1       0.290  63.575  27.074  1.00  0.00     0.015 C 
HETATM   13  C18 UNL     1       2.401  64.150  28.288  1.00  0.00     0.009 C 
HETATM   14  C19 UNL     1       3.041  63.035  28.995  1.00  0.00     0.002 C 
HETATM   15  C20 UNL     1       3.639  61.944  28.191  1.00  0.00     0.012 C 
HETATM   16  C21 UNL     1       2.809  61.568  27.001  1.00  0.00    -0.009 C 
HETATM   17  C22 UNL     1       1.560  60.912  27.627  1.00  0.00     0.018 C 
HETATM   18  C23 UNL     1       3.368  60.467  26.152  1.00  0.00     0.157 C 
ENDROOT
BRANCH   1  19
HETATM   19  C7  UNL     1       3.308  60.927  22.583  1.00  0.00     0.127 C 
BRANCH  19  20
HETATM   20  C6  UNL     1       3.996  60.738  21.311  1.00  0.00     0.020 C 
BRANCH  20  21
HETATM   21  C5  UNL     1       5.469  60.939  21.212  1.00  0.00     0.002 C 
BRANCH  21  22
HETATM   22  C4  UNL     1       6.191  59.813  20.501  1.00  0.00     0.002 C 
BRANCH  22  23
HETATM   23  C3  UNL     1       7.355  60.426  19.759  1.00  0.00     0.026 C 
BRANCH  23  24
HETATM   24  C2  UNL     1       7.251  61.938  19.792  1.00  0.00     0.167 C 
BRANCH  24  25
HETATM   25  O1  UNL     1       7.401  62.494  18.542  1.00  0.00    -0.396 OA
HETATM   26  C1  UNL     1       8.093  61.595  17.734  1.00  0.00     0.201 C 
ENDBRANCH  24  25
ENDBRANCH  23  24
ENDBRANCH  22  23
ENDBRANCH  21  22
ENDBRANCH  20  21
ENDBRANCH  19  20
ENDBRANCH   1  19
BRANCH   7  27
HETATM   27  O3  UNL     1       5.384  62.740  23.957  1.00  0.00    -0.390 OA
ATOM     28  H3  UNL     1       5.892  63.535  24.066  1.00  0.00     0.210 HD
ENDBRANCH   7  27
BRANCH  18  29
HETATM   29  O5  UNL     1       2.283  59.748  25.654  1.00  0.00    -0.392 OA
ATOM     30  H5  UNL     1       1.707  59.517  26.372  1.00  0.00     0.210 HD
ENDBRANCH  18  29
BRANCH   8  31
HETATM   31  O4  UNL     1       4.369  64.254  26.226  1.00  0.00    -0.392 OA
ATOM     32  H4  UNL     1       5.013  64.664  25.661  1.00  0.00     0.210 HD
ENDBRANCH   8  31
TORSDOF 10
ENDMDL
