MODEL 1
REMARK VINA RESULT: -7.326684029      0.000      0.000
REMARK  7 active torsions:
REMARK  status: ('A' for Active; 'I' for Inactive)
REMARK    1  A    between atoms: C2_3  and  N2_4 
REMARK       I    between atoms: N2_4  and  C3_6 
REMARK       I    between atoms: C3_6  and  N3_8 
REMARK    2  A    between atoms: N3_8  and  C4_10 
REMARK    3  A    between atoms: C7_13  and  C8_14 
REMARK    4  A    between atoms: C8_14  and  N4_15 
REMARK       I    between atoms: N4_15  and  C9_17 
REMARK    5  A    between atoms: C9_17  and  C10_19 
REMARK    6  A    between atoms: C10_19  and  C11_20 
REMARK    7  A    between atoms: C11_20  and  C12_21 
ROOT
HETATM    1  N1  UNL     1       4.673  65.431  29.688  1.00  0.00    -0.195 NA
HETATM    2  C1  UNL     1       4.812  64.476  29.046  1.00  0.00     0.091 C 
HETATM    3  C2  UNL     1       4.973  63.243  28.239  1.00  0.00     0.123 C 
HETATM    4  C18 UNL     1       6.361  62.735  28.560  1.00  0.00     0.046 C 
HETATM    5  C19 UNL     1       6.159  61.959  29.827  1.00  0.00     0.004 C 
HETATM    6  C20 UNL     1       4.843  61.248  29.598  1.00  0.00     0.004 C 
HETATM    7  C21 UNL     1       4.038  62.212  28.774  1.00  0.00     0.046 C 
ENDROOT
BRANCH   3   8
HETATM    8  N2  UNL     1       4.780  63.556  26.852  1.00  0.00    -0.321 N 
HETATM    9  C3  UNL     1       5.062  62.618  25.825  1.00  0.00     0.317 C 
HETATM   10  O1  UNL     1       5.492  61.477  26.110  1.00  0.00    -0.247 OA
HETATM   11  N3  UNL     1       4.865  62.954  24.463  1.00  0.00    -0.338 N 
ATOM     12  H3  UNL     1       4.516  63.887  24.244  1.00  0.00     0.164 HD
ATOM     13  H2  UNL     1       4.431  64.480  26.598  1.00  0.00     0.166 HD
BRANCH  11  14
HETATM   14  C4  UNL     1       5.127  62.057  23.376  1.00  0.00     0.086 C 
HETATM   15  C5  UNL     1       5.432  62.844  22.109  1.00  0.00     0.026 C 
HETATM   16  C6  UNL     1       5.952  61.934  21.040  1.00  0.00     0.008 C 
HETATM   17  C7  UNL     1       5.033  60.788  20.814  1.00  0.00     0.003 C 
HETATM   18  C16 UNL     1       3.751  60.999  21.597  1.00  0.00     0.008 C 
HETATM   19  C17 UNL     1       3.998  61.082  23.096  1.00  0.00     0.026 C 
BRANCH  17  20
HETATM   20  C8  UNL     1       5.657  59.472  21.208  1.00  0.00     0.127 C 
BRANCH  20  21
HETATM   21  N4  UNL     1       5.011  58.408  20.492  1.00  0.00    -0.361 N 
HETATM   22  C9  UNL     1       4.301  57.342  21.088  1.00  0.00     0.217 C 
HETATM   23  O2  UNL     1       4.184  57.240  22.327  1.00  0.00    -0.274 OA
ATOM     24  H4  UNL     1       5.068  58.423  19.474  1.00  0.00     0.162 HD
BRANCH  22  25
HETATM   25  C10 UNL     1       3.692  56.335  20.166  1.00  0.00     0.104 C 
BRANCH  25  26
HETATM   26  C11 UNL     1       3.140  55.193  21.027  1.00  0.00     0.024 C 
BRANCH  26  27
HETATM   27  C12 UNL     1       1.739  54.815  20.543  1.00  0.00     0.047 C 
HETATM   28  C13 UNL     1       1.705  54.988  19.066  1.00  0.00     0.016 C 
HETATM   29  C14 UNL     1       0.956  53.856  18.446  1.00  0.00     0.011 C 
HETATM   30  C15 UNL     1       1.484  52.570  18.987  1.00  0.00     0.074 C 
HETATM   31  S1  UNL     1       1.610  52.997  20.771  1.00  0.00    -0.164 SA
ENDBRANCH  26  27
ENDBRANCH  25  26
ENDBRANCH  22  25
ENDBRANCH  20  21
ENDBRANCH  17  20
ENDBRANCH  11  14
ENDBRANCH   3   8
TORSDOF 7
ENDMDL
MODEL 2
REMARK VINA RESULT: -7.184009658      4.139      6.318
REMARK  7 active torsions:
REMARK  status: ('A' for Active; 'I' for Inactive)
REMARK    1  A    between atoms: C2_3  and  N2_4 
REMARK       I    between atoms: N2_4  and  C3_6 
REMARK       I    between atoms: C3_6  and  N3_8 
REMARK    2  A    between atoms: N3_8  and  C4_10 
REMARK    3  A    between atoms: C7_13  and  C8_14 
REMARK    4  A    between atoms: C8_14  and  N4_15 
REMARK       I    between atoms: N4_15  and  C9_17 
REMARK    5  A    between atoms: C9_17  and  C10_19 
REMARK    6  A    between atoms: C10_19  and  C11_20 
REMARK    7  A    between atoms: C11_20  and  C12_21 
ROOT
HETATM    1  N1  UNL     1       7.730  63.234  20.439  1.00  0.00    -0.195 NA
HETATM    2  C1  UNL     1       6.792  62.653  20.795  1.00  0.00     0.091 C 
HETATM    3  C2  UNL     1       5.578  61.927  21.238  1.00  0.00     0.123 C 
HETATM    4  C18 UNL     1       5.525  62.117  22.738  1.00  0.00     0.046 C 
HETATM    5  C19 UNL     1       4.864  63.453  22.892  1.00  0.00     0.004 C 
HETATM    6  C20 UNL     1       3.786  63.437  21.831  1.00  0.00     0.004 C 
HETATM    7  C21 UNL     1       4.386  62.646  20.704  1.00  0.00     0.046 C 
ENDROOT
BRANCH   3   8
HETATM    8  N2  UNL     1       5.673  60.553  20.834  1.00  0.00    -0.321 N 
HETATM    9  C3  UNL     1       4.656  59.610  21.134  1.00  0.00     0.317 C 
HETATM   10  O1  UNL     1       3.634  59.962  21.769  1.00  0.00    -0.247 OA
HETATM   11  N3  UNL     1       4.777  58.260  20.725  1.00  0.00    -0.338 N 
ATOM     12  H3  UNL     1       5.614  57.986  20.211  1.00  0.00     0.164 HD
ATOM     13  H2  UNL     1       6.496  60.246  20.316  1.00  0.00     0.166 HD
BRANCH  11  14
HETATM   14  C4  UNL     1       3.788  57.256  20.993  1.00  0.00     0.086 C 
HETATM   15  C5  UNL     1       3.766  56.927  22.480  1.00  0.00     0.026 C 
HETATM   16  C6  UNL     1       2.578  56.077  22.809  1.00  0.00     0.008 C 
HETATM   17  C7  UNL     1       2.519  54.874  21.938  1.00  0.00     0.003 C 
HETATM   18  C16 UNL     1       3.790  54.774  21.117  1.00  0.00     0.008 C 
HETATM   19  C17 UNL     1       3.981  55.975  20.202  1.00  0.00     0.026 C 
BRANCH  17  20
HETATM   20  C8  UNL     1       1.321  54.895  21.020  1.00  0.00     0.127 C 
BRANCH  20  21
HETATM   21  N4  UNL     1       1.267  53.662  20.285  1.00  0.00    -0.361 N 
HETATM   22  C9  UNL     1       1.238  53.556  18.876  1.00  0.00     0.217 C 
HETATM   23  O2  UNL     1       1.254  54.565  18.140  1.00  0.00    -0.274 OA
ATOM     24  H4  UNL     1       1.247  52.795  20.822  1.00  0.00     0.162 HD
BRANCH  22  25
HETATM   25  C10 UNL     1       1.188  52.178  18.302  1.00  0.00     0.104 C 
BRANCH  25  26
HETATM   26  C11 UNL     1       1.353  51.187  19.460  1.00  0.00     0.024 C 
BRANCH  26  27
HETATM   27  C12 UNL     1       2.667  50.421  19.299  1.00  0.00     0.047 C 
HETATM   28  C13 UNL     1       3.711  51.138  20.079  1.00  0.00     0.016 C 
HETATM   29  C14 UNL     1       4.574  50.149  20.789  1.00  0.00     0.011 C 
HETATM   30  C15 UNL     1       3.705  49.177  21.513  1.00  0.00     0.074 C 
HETATM   31  S1  UNL     1       2.441  48.848  20.219  1.00  0.00    -0.164 SA
ENDBRANCH  26  27
ENDBRANCH  25  26
ENDBRANCH  22  25
ENDBRANCH  20  21
ENDBRANCH  17  20
ENDBRANCH  11  14
ENDBRANCH   3   8
TORSDOF 7
ENDMDL
MODEL 3
REMARK VINA RESULT: -7.163866404      0.876      1.398
REMARK  7 active torsions:
REMARK  status: ('A' for Active; 'I' for Inactive)
REMARK    1  A    between atoms: C2_3  and  N2_4 
REMARK       I    between atoms: N2_4  and  C3_6 
REMARK       I    between atoms: C3_6  and  N3_8 
REMARK    2  A    between atoms: N3_8  and  C4_10 
REMARK    3  A    between atoms: C7_13  and  C8_14 
REMARK    4  A    between atoms: C8_14  and  N4_15 
REMARK       I    between atoms: N4_15  and  C9_17 
REMARK    5  A    between atoms: C9_17  and  C10_19 
REMARK    6  A    between atoms: C10_19  and  C11_20 
REMARK    7  A    between atoms: C11_20  and  C12_21 
ROOT
HETATM    1  N1  UNL     1       6.967  62.214  28.701  1.00  0.00    -0.195 NA
HETATM    2  C1  UNL     1       5.964  62.704  28.389  1.00  0.00     0.091 C 
HETATM    3  C2  UNL     1       4.685  63.349  28.007  1.00  0.00     0.123 C 
HETATM    4  C18 UNL     1       3.609  62.360  28.397  1.00  0.00     0.046 C 
HETATM    5  C19 UNL     1       3.393  62.641  29.853  1.00  0.00     0.004 C 
HETATM    6  C20 UNL     1       3.465  64.150  29.934  1.00  0.00     0.004 C 
HETATM    7  C21 UNL     1       4.478  64.531  28.893  1.00  0.00     0.046 C 
ENDROOT
BRANCH   3   8
HETATM    8  N2  UNL     1       4.708  63.654  26.606  1.00  0.00    -0.321 N 
HETATM    9  C3  UNL     1       4.973  62.662  25.626  1.00  0.00     0.317 C 
HETATM   10  O1  UNL     1       5.197  61.477  25.968  1.00  0.00    -0.247 OA
HETATM   11  N3  UNL     1       4.991  62.990  24.249  1.00  0.00    -0.338 N 
ATOM     12  H3  UNL     1       4.809  63.958  23.983  1.00  0.00     0.164 HD
ATOM     13  H2  UNL     1       4.527  64.611  26.305  1.00  0.00     0.166 HD
BRANCH  11  14
HETATM   14  C4  UNL     1       5.251  62.039  23.207  1.00  0.00     0.086 C 
HETATM   15  C5  UNL     1       5.674  62.760  21.934  1.00  0.00     0.026 C 
HETATM   16  C6  UNL     1       6.189  61.781  20.925  1.00  0.00     0.008 C 
HETATM   17  C7  UNL     1       5.209  60.689  20.686  1.00  0.00     0.003 C 
HETATM   18  C16 UNL     1       3.904  61.010  21.390  1.00  0.00     0.008 C 
HETATM   19  C17 UNL     1       4.076  61.130  22.896  1.00  0.00     0.026 C 
BRANCH  17  20
HETATM   20  C8  UNL     1       5.723  59.350  21.156  1.00  0.00     0.127 C 
BRANCH  20  21
HETATM   21  N4  UNL     1       4.983  58.304  20.506  1.00  0.00    -0.361 N 
HETATM   22  C9  UNL     1       4.294  57.265  21.169  1.00  0.00     0.217 C 
HETATM   23  O2  UNL     1       4.280  57.173  22.415  1.00  0.00    -0.274 OA
ATOM     24  H4  UNL     1       4.954  58.313  19.487  1.00  0.00     0.162 HD
BRANCH  22  25
HETATM   25  C10 UNL     1       3.576  56.274  20.311  1.00  0.00     0.104 C 
BRANCH  25  26
HETATM   26  C11 UNL     1       3.059  55.157  21.225  1.00  0.00     0.024 C 
BRANCH  26  27
HETATM   27  C12 UNL     1       1.706  54.660  20.717  1.00  0.00     0.047 C 
HETATM   28  C13 UNL     1       1.686  54.823  19.238  1.00  0.00     0.016 C 
HETATM   29  C14 UNL     1       1.049  53.629  18.610  1.00  0.00     0.011 C 
HETATM   30  C15 UNL     1       1.672  52.395  19.170  1.00  0.00     0.074 C 
HETATM   31  S1  UNL     1       1.725  52.839  20.952  1.00  0.00    -0.164 SA
ENDBRANCH  26  27
ENDBRANCH  25  26
ENDBRANCH  22  25
ENDBRANCH  20  21
ENDBRANCH  17  20
ENDBRANCH  11  14
ENDBRANCH   3   8
TORSDOF 7
ENDMDL
MODEL 4
REMARK VINA RESULT: -7.089190715      0.817      1.263
REMARK  7 active torsions:
REMARK  status: ('A' for Active; 'I' for Inactive)
REMARK    1  A    between atoms: C2_3  and  N2_4 
REMARK       I    between atoms: N2_4  and  C3_6 
REMARK       I    between atoms: C3_6  and  N3_8 
REMARK    2  A    between atoms: N3_8  and  C4_10 
REMARK    3  A    between atoms: C7_13  and  C8_14 
REMARK    4  A    between atoms: C8_14  and  N4_15 
REMARK       I    between atoms: N4_15  and  C9_17 
REMARK    5  A    between atoms: C9_17  and  C10_19 
REMARK    6  A    between atoms: C10_19  and  C11_20 
REMARK    7  A    between atoms: C11_20  and  C12_21 
ROOT
HETATM    1  N1  UNL     1       2.592  61.749  28.781  1.00  0.00    -0.195 NA
HETATM    2  C1  UNL     1       3.540  62.355  28.502  1.00  0.00     0.091 C 
HETATM    3  C2  UNL     1       4.766  63.112  28.155  1.00  0.00     0.123 C 
HETATM    4  C18 UNL     1       4.783  64.297  29.094  1.00  0.00     0.046 C 
HETATM    5  C19 UNL     1       5.400  63.740  30.341  1.00  0.00     0.004 C 
HETATM    6  C20 UNL     1       6.499  62.841  29.818  1.00  0.00     0.004 C 
HETATM    7  C21 UNL     1       5.947  62.285  28.538  1.00  0.00     0.046 C 
ENDROOT
BRANCH   3   8
HETATM    8  N2  UNL     1       4.721  63.476  26.768  1.00  0.00    -0.321 N 
HETATM    9  C3  UNL     1       5.008  62.543  25.737  1.00  0.00     0.317 C 
HETATM   10  O1  UNL     1       5.312  61.361  26.019  1.00  0.00    -0.247 OA
HETATM   11  N3  UNL     1       4.958  62.930  24.376  1.00  0.00    -0.338 N 
ATOM     12  H3  UNL     1       4.711  63.895  24.159  1.00  0.00     0.164 HD
ATOM     13  H2  UNL     1       4.476  64.433  26.516  1.00  0.00     0.166 HD
BRANCH  11  14
HETATM   14  C4  UNL     1       5.234  62.041  23.285  1.00  0.00     0.086 C 
HETATM   15  C5  UNL     1       5.589  62.838  22.037  1.00  0.00     0.026 C 
HETATM   16  C6  UNL     1       6.122  61.931  20.971  1.00  0.00     0.008 C 
HETATM   17  C7  UNL     1       5.189  60.805  20.706  1.00  0.00     0.003 C 
HETATM   18  C16 UNL     1       3.890  61.030  21.456  1.00  0.00     0.008 C 
HETATM   19  C17 UNL     1       4.096  61.090  22.962  1.00  0.00     0.026 C 
BRANCH  17  20
HETATM   20  C8  UNL     1       5.778  59.472  21.101  1.00  0.00     0.127 C 
BRANCH  20  21
HETATM   21  N4  UNL     1       5.021  58.419  20.485  1.00  0.00    -0.361 N 
HETATM   22  C9  UNL     1       4.342  57.393  21.180  1.00  0.00     0.217 C 
HETATM   23  O2  UNL     1       4.356  57.322  22.427  1.00  0.00    -0.274 OA
ATOM     24  H4  UNL     1       4.969  58.411  19.466  1.00  0.00     0.162 HD
BRANCH  22  25
HETATM   25  C10 UNL     1       3.603  56.391  20.354  1.00  0.00     0.104 C 
BRANCH  25  26
HETATM   26  C11 UNL     1       3.136  55.271  21.291  1.00  0.00     0.024 C 
BRANCH  26  27
HETATM   27  C12 UNL     1       1.792  54.724  20.810  1.00  0.00     0.047 C 
HETATM   28  C13 UNL     1       1.746  54.863  19.330  1.00  0.00     0.016 C 
HETATM   29  C14 UNL     1       1.137  53.640  18.730  1.00  0.00     0.011 C 
HETATM   30  C15 UNL     1       1.807  52.435  19.299  1.00  0.00     0.074 C 
HETATM   31  S1  UNL     1       1.872  52.908  21.074  1.00  0.00    -0.164 SA
ENDBRANCH  26  27
ENDBRANCH  25  26
ENDBRANCH  22  25
ENDBRANCH  20  21
ENDBRANCH  17  20
ENDBRANCH  11  14
ENDBRANCH   3   8
TORSDOF 7
ENDMDL
MODEL 5
REMARK VINA RESULT: -6.908006887      4.162      6.452
REMARK  7 active torsions:
REMARK  status: ('A' for Active; 'I' for Inactive)
REMARK    1  A    between atoms: C2_3  and  N2_4 
REMARK       I    between atoms: N2_4  and  C3_6 
REMARK       I    between atoms: C3_6  and  N3_8 
REMARK    2  A    between atoms: N3_8  and  C4_10 
REMARK    3  A    between atoms: C7_13  and  C8_14 
REMARK    4  A    between atoms: C8_14  and  N4_15 
REMARK       I    between atoms: N4_15  and  C9_17 
REMARK    5  A    between atoms: C9_17  and  C10_19 
REMARK    6  A    between atoms: C10_19  and  C11_20 
REMARK    7  A    between atoms: C11_20  and  C12_21 
ROOT
HETATM    1  N1  UNL     1       7.687  63.293  20.455  1.00  0.00    -0.195 NA
HETATM    2  C1  UNL     1       6.762  62.698  20.818  1.00  0.00     0.091 C 
HETATM    3  C2  UNL     1       5.563  61.953  21.270  1.00  0.00     0.123 C 
HETATM    4  C18 UNL     1       5.479  62.198  22.761  1.00  0.00     0.046 C 
HETATM    5  C19 UNL     1       4.777  63.518  22.854  1.00  0.00     0.004 C 
HETATM    6  C20 UNL     1       3.717  63.429  21.777  1.00  0.00     0.004 C 
HETATM    7  C21 UNL     1       4.358  62.615  20.691  1.00  0.00     0.046 C 
ENDROOT
BRANCH   3   8
HETATM    8  N2  UNL     1       5.705  60.569  20.921  1.00  0.00    -0.321 N 
HETATM    9  C3  UNL     1       4.671  59.625  21.154  1.00  0.00     0.317 C 
HETATM   10  O1  UNL     1       3.591  59.985  21.678  1.00  0.00    -0.247 OA
HETATM   11  N3  UNL     1       4.839  58.264  20.801  1.00  0.00    -0.338 N 
ATOM     12  H3  UNL     1       5.722  57.983  20.376  1.00  0.00     0.164 HD
ATOM     13  H2  UNL     1       6.575  60.254  20.493  1.00  0.00     0.166 HD
BRANCH  11  14
HETATM   14  C4  UNL     1       3.836  57.259  21.006  1.00  0.00     0.086 C 
HETATM   15  C5  UNL     1       3.816  56.831  22.467  1.00  0.00     0.026 C 
HETATM   16  C6  UNL     1       2.618  55.978  22.746  1.00  0.00     0.008 C 
HETATM   17  C7  UNL     1       2.536  54.838  21.796  1.00  0.00     0.003 C 
HETATM   18  C16 UNL     1       3.801  54.775  20.962  1.00  0.00     0.008 C 
HETATM   19  C17 UNL     1       4.006  56.032  20.130  1.00  0.00     0.026 C 
BRANCH  17  20
HETATM   20  C8  UNL     1       1.335  54.938  20.888  1.00  0.00     0.127 C 
BRANCH  20  21
HETATM   21  N4  UNL     1       1.251  53.753  20.080  1.00  0.00    -0.361 N 
HETATM   22  C9  UNL     1       0.962  53.732  18.697  1.00  0.00     0.217 C 
HETATM   23  O2  UNL     1       0.745  54.780  18.053  1.00  0.00    -0.274 OA
ATOM     24  H4  UNL     1       1.413  52.858  20.540  1.00  0.00     0.162 HD
BRANCH  22  25
HETATM   25  C10 UNL     1       0.927  52.393  18.034  1.00  0.00     0.104 C 
BRANCH  25  26
HETATM   26  C11 UNL     1       0.064  52.522  16.773  1.00  0.00     0.024 C 
BRANCH  26  27
HETATM   27  C12 UNL     1       0.054  51.193  16.018  1.00  0.00     0.047 C 
HETATM   28  C13 UNL     1       0.505  51.457  14.625  1.00  0.00     0.016 C 
HETATM   29  C14 UNL     1       1.421  50.366  14.180  1.00  0.00     0.011 C 
HETATM   30  C15 UNL     1       2.464  50.151  15.224  1.00  0.00     0.074 C 
HETATM   31  S1  UNL     1       1.422  50.202  16.737  1.00  0.00    -0.164 SA
ENDBRANCH  26  27
ENDBRANCH  25  26
ENDBRANCH  22  25
ENDBRANCH  20  21
ENDBRANCH  17  20
ENDBRANCH  11  14
ENDBRANCH   3   8
TORSDOF 7
ENDMDL
