MODEL 1
REMARK VINA RESULT: -8.359472667      0.000      0.000
REMARK  9 active torsions:
REMARK  status: ('A' for Active; 'I' for Inactive)
REMARK    1  A    between atoms: N1_1  and  C1_5 
REMARK    2  A    between atoms: C1_5  and  C2_6 
REMARK    3  A    between atoms: C2_6  and  C3_7 
REMARK    4  A    between atoms: C7_11  and  O1_12 
REMARK    5  A    between atoms: O1_12  and  C8_13 
REMARK    6  A    between atoms: N2_16  and  C11_17 
REMARK    7  A    between atoms: C14_20  and  N3_21 
REMARK    8  A    between atoms: N3_21  and  C15_23 
REMARK    9  A    between atoms: C18_26  and  O2_27 
ROOT
HETATM    1  C8  UNL     1       3.524  57.004  22.059  1.00  0.00     0.132 C 
HETATM    2  C9  UNL     1       4.187  58.121  21.276  1.00  0.00     0.062 C 
HETATM    3  C10 UNL     1       5.108  58.923  22.142  1.00  0.00     0.275 C 
HETATM    4  N2  UNL     1       4.434  59.607  23.217  1.00  0.00     0.093 N 
HETATM    5  C23 UNL     1       3.582  58.623  23.880  1.00  0.00     0.275 C 
HETATM    6  C24 UNL     1       3.923  57.204  23.510  1.00  0.00     0.062 C 
ENDROOT
BRANCH   4   7
HETATM    7  C11 UNL     1       3.567  60.676  22.775  1.00  0.00     0.223 C 
HETATM    8  C12 UNL     1       3.596  60.954  21.311  1.00  0.00     0.041 C 
HETATM    9  C13 UNL     1       4.432  62.192  20.948  1.00  0.00     0.054 C 
HETATM   10  C14 UNL     1       5.728  62.180  21.727  1.00  0.00    -0.014 C 
HETATM   11  C21 UNL     1       5.425  62.309  23.197  1.00  0.00     0.054 C 
HETATM   12  C22 UNL     1       3.984  61.933  23.506  1.00  0.00     0.041 C 
BRANCH  10  13
HETATM   13  N3  UNL     1       6.814  62.841  21.208  1.00  0.00    -0.370 N 
ATOM     14  H3  UNL     1       7.051  63.720  21.669  1.00  0.00     0.165 HD
BRANCH  13  15
HETATM   15  C15 UNL     1       7.628  62.489  20.157  1.00  0.00    -0.014 C 
HETATM   16  C16 UNL     1       7.457  63.176  18.823  1.00  0.00     0.055 C 
HETATM   17  C17 UNL     1       8.586  62.680  17.903  1.00  0.00     0.037 C 
HETATM   18  C18 UNL     1       8.394  61.226  17.555  1.00  0.00     0.118 C 
HETATM   19  C19 UNL     1       7.421  60.584  18.529  1.00  0.00     0.037 C 
HETATM   20  C20 UNL     1       7.890  61.009  19.927  1.00  0.00     0.055 C 
BRANCH  18  21
HETATM   21  O2  UNL     1       8.014  61.036  16.234  1.00  0.00    -0.396 OA
ATOM     22  H2  UNL     1       7.196  61.468  16.021  1.00  0.00     0.210 HD
ENDBRANCH  18  21
ENDBRANCH  13  15
ENDBRANCH  10  13
ENDBRANCH   4   7
BRANCH   1  23
HETATM   23  O1  UNL     1       3.818  55.751  21.581  1.00  0.00    -0.346 OA
BRANCH  23  24
HETATM   24  C7  UNL     1       3.026  55.002  20.767  1.00  0.00     0.069 A 
HETATM   25  C6  UNL     1       2.064  55.486  19.915  1.00  0.00     0.037 A 
HETATM   26  C5  UNL     1       1.330  54.592  19.142  1.00  0.00     0.003 A 
HETATM   27  C4  UNL     1       1.528  53.234  19.192  1.00  0.00     0.007 A 
HETATM   28  C3  UNL     1       2.490  52.731  20.042  1.00  0.00    -0.054 A 
HETATM   29  C25 UNL     1       3.212  53.611  20.803  1.00  0.00     0.044 A 
BRANCH  28  30
HETATM   30  C2  UNL     1       2.731  51.246  20.115  1.00  0.00     0.066 C 
BRANCH  30  31
HETATM   31  C1  UNL     1       4.114  51.055  20.696  1.00  0.00     0.234 C 
BRANCH  31  32
HETATM   32  N1  UNL     1       5.026  50.712  19.642  1.00  0.00    -0.079 N 
ATOM     33  H13 UNL     1       5.388  51.535  19.160  1.00  0.00     0.274 HD
ATOM     34  H12 UNL     1       5.912  50.353  19.999  1.00  0.00     0.274 HD
ATOM     35  H11 UNL     1       4.572  50.059  19.004  1.00  0.00     0.274 HD
ENDBRANCH  31  32
ENDBRANCH  30  31
ENDBRANCH  28  30
ENDBRANCH  23  24
ENDBRANCH   1  23
TORSDOF 9
ENDMDL
MODEL 2
REMARK VINA RESULT: -8.239362825      2.443      9.661
REMARK  9 active torsions:
REMARK  status: ('A' for Active; 'I' for Inactive)
REMARK    1  A    between atoms: N1_1  and  C1_5 
REMARK    2  A    between atoms: C1_5  and  C2_6 
REMARK    3  A    between atoms: C2_6  and  C3_7 
REMARK    4  A    between atoms: C7_11  and  O1_12 
REMARK    5  A    between atoms: O1_12  and  C8_13 
REMARK    6  A    between atoms: N2_16  and  C11_17 
REMARK    7  A    between atoms: C14_20  and  N3_21 
REMARK    8  A    between atoms: N3_21  and  C15_23 
REMARK    9  A    between atoms: C18_26  and  O2_27 
ROOT
HETATM    1  C8  UNL     1       4.146  58.621  21.343  1.00  0.00     0.132 C 
HETATM    2  C9  UNL     1       4.010  57.360  22.177  1.00  0.00     0.062 C 
HETATM    3  C10 UNL     1       4.229  56.132  21.349  1.00  0.00     0.275 C 
HETATM    4  N2  UNL     1       3.252  55.963  20.304  1.00  0.00     0.093 N 
HETATM    5  C23 UNL     1       3.160  57.237  19.596  1.00  0.00     0.275 C 
HETATM    6  C24 UNL     1       4.304  58.165  19.903  1.00  0.00     0.062 C 
ENDROOT
BRANCH   4   7
HETATM    7  C11 UNL     1       1.924  55.661  20.790  1.00  0.00     0.223 C 
HETATM    8  C12 UNL     1       1.848  54.557  21.787  1.00  0.00     0.041 C 
HETATM    9  C13 UNL     1       1.355  53.232  21.184  1.00  0.00     0.054 C 
HETATM   10  C14 UNL     1       2.040  52.988  19.857  1.00  0.00    -0.014 C 
HETATM   11  C21 UNL     1       1.626  54.059  18.882  1.00  0.00     0.054 C 
HETATM   12  C22 UNL     1       1.075  55.284  19.596  1.00  0.00     0.041 C 
BRANCH  10  13
HETATM   13  N3  UNL     1       2.174  51.697  19.413  1.00  0.00    -0.370 N 
ATOM     14  H3  UNL     1       1.642  51.466  18.573  1.00  0.00     0.165 HD
BRANCH  13  15
HETATM   15  C15 UNL     1       2.922  50.668  19.936  1.00  0.00    -0.014 C 
HETATM   16  C16 UNL     1       4.279  50.963  20.530  1.00  0.00     0.055 C 
HETATM   17  C17 UNL     1       4.803  49.656  21.151  1.00  0.00     0.037 C 
HETATM   18  C18 UNL     1       5.121  48.643  20.082  1.00  0.00     0.118 C 
HETATM   19  C19 UNL     1       4.445  49.036  18.778  1.00  0.00     0.037 C 
HETATM   20  C20 UNL     1       2.993  49.370  19.147  1.00  0.00     0.055 C 
BRANCH  18  21
HETATM   21  O2  UNL     1       6.484  48.440  19.923  1.00  0.00    -0.396 OA
ATOM     22  H2  UNL     1       6.947  48.389  20.750  1.00  0.00     0.210 HD
ENDBRANCH  18  21
ENDBRANCH  13  15
ENDBRANCH  10  13
ENDBRANCH   4   7
BRANCH   1  23
HETATM   23  O1  UNL     1       5.155  59.450  21.766  1.00  0.00    -0.346 OA
BRANCH  23  24
HETATM   24  C7  UNL     1       5.169  60.807  21.660  1.00  0.00     0.069 A 
HETATM   25  C6  UNL     1       4.303  61.670  22.286  1.00  0.00     0.037 A 
HETATM   26  C5  UNL     1       4.444  63.039  22.079  1.00  0.00     0.003 A 
HETATM   27  C4  UNL     1       5.419  63.570  21.272  1.00  0.00     0.007 A 
HETATM   28  C3  UNL     1       6.297  62.716  20.637  1.00  0.00    -0.054 A 
HETATM   29  C25 UNL     1       6.159  61.370  20.839  1.00  0.00     0.044 A 
BRANCH  28  30
HETATM   30  C2  UNL     1       7.378  63.271  19.747  1.00  0.00     0.066 C 
BRANCH  30  31
HETATM   31  C1  UNL     1       7.680  62.212  18.712  1.00  0.00     0.234 C 
BRANCH  31  32
HETATM   32  N1  UNL     1       8.218  62.839  17.537  1.00  0.00    -0.079 N 
ATOM     33  H13 UNL     1       7.607  63.571  17.175  1.00  0.00     0.274 HD
ATOM     34  H12 UNL     1       9.030  63.420  17.747  1.00  0.00     0.274 HD
ATOM     35  H11 UNL     1       8.423  62.124  16.839  1.00  0.00     0.274 HD
ENDBRANCH  31  32
ENDBRANCH  30  31
ENDBRANCH  28  30
ENDBRANCH  23  24
ENDBRANCH   1  23
TORSDOF 9
ENDMDL
MODEL 3
REMARK VINA RESULT: -8.089980147      1.472      2.142
REMARK  9 active torsions:
REMARK  status: ('A' for Active; 'I' for Inactive)
REMARK    1  A    between atoms: N1_1  and  C1_5 
REMARK    2  A    between atoms: C1_5  and  C2_6 
REMARK    3  A    between atoms: C2_6  and  C3_7 
REMARK    4  A    between atoms: C7_11  and  O1_12 
REMARK    5  A    between atoms: O1_12  and  C8_13 
REMARK    6  A    between atoms: N2_16  and  C11_17 
REMARK    7  A    between atoms: C14_20  and  N3_21 
REMARK    8  A    between atoms: N3_21  and  C15_23 
REMARK    9  A    between atoms: C18_26  and  O2_27 
ROOT
HETATM    1  C8  UNL     1       3.585  56.919  21.997  1.00  0.00     0.132 C 
HETATM    2  C9  UNL     1       4.263  58.047  21.242  1.00  0.00     0.062 C 
HETATM    3  C10 UNL     1       5.132  58.864  22.147  1.00  0.00     0.275 C 
HETATM    4  N2  UNL     1       4.401  59.537  23.191  1.00  0.00     0.093 N 
HETATM    5  C23 UNL     1       3.538  58.540  23.817  1.00  0.00     0.275 C 
HETATM    6  C24 UNL     1       3.918  57.126  23.464  1.00  0.00     0.062 C 
ENDROOT
BRANCH   4   7
HETATM    7  C11 UNL     1       3.537  60.592  22.710  1.00  0.00     0.223 C 
HETATM    8  C12 UNL     1       3.622  60.867  21.249  1.00  0.00     0.041 C 
HETATM    9  C13 UNL     1       4.452  62.116  20.916  1.00  0.00     0.054 C 
HETATM   10  C14 UNL     1       5.716  62.126  21.747  1.00  0.00    -0.014 C 
HETATM   11  C21 UNL     1       5.351  62.254  23.203  1.00  0.00     0.054 C 
HETATM   12  C22 UNL     1       3.904  61.857  23.455  1.00  0.00     0.041 C 
BRANCH  10  13
HETATM   13  N3  UNL     1       6.812  62.802  21.271  1.00  0.00    -0.370 N 
ATOM     14  H3  UNL     1       7.053  63.654  21.778  1.00  0.00     0.165 HD
BRANCH  13  15
HETATM   15  C15 UNL     1       7.631  62.497  20.210  1.00  0.00    -0.014 C 
HETATM   16  C16 UNL     1       7.424  63.194  18.887  1.00  0.00     0.055 C 
HETATM   17  C17 UNL     1       8.565  62.754  17.952  1.00  0.00     0.037 C 
HETATM   18  C18 UNL     1       8.429  61.299  17.586  1.00  0.00     0.118 C 
HETATM   19  C19 UNL     1       7.488  60.606  18.559  1.00  0.00     0.037 C 
HETATM   20  C20 UNL     1       7.950  61.031  19.958  1.00  0.00     0.055 C 
BRANCH  18  21
HETATM   21  O2  UNL     1       8.047  61.110  16.266  1.00  0.00    -0.396 OA
ATOM     22  H2  UNL     1       8.278  60.251  15.935  1.00  0.00     0.210 HD
ENDBRANCH  18  21
ENDBRANCH  13  15
ENDBRANCH  10  13
ENDBRANCH   4   7
BRANCH   1  23
HETATM   23  O1  UNL     1       3.920  55.671  21.533  1.00  0.00    -0.346 OA
BRANCH  23  24
HETATM   24  C7  UNL     1       3.090  54.815  20.878  1.00  0.00     0.069 A 
HETATM   25  C6  UNL     1       2.866  53.501  21.210  1.00  0.00     0.037 A 
HETATM   26  C5  UNL     1       1.984  52.748  20.440  1.00  0.00     0.003 A 
HETATM   27  C4  UNL     1       1.323  53.265  19.354  1.00  0.00     0.007 A 
HETATM   28  C3  UNL     1       1.537  54.583  19.007  1.00  0.00    -0.054 A 
HETATM   29  C25 UNL     1       2.404  55.323  19.763  1.00  0.00     0.044 A 
BRANCH  28  30
HETATM   30  C2  UNL     1       0.822  55.177  17.822  1.00  0.00     0.066 C 
BRANCH  30  31
HETATM   31  C1  UNL     1       0.096  54.044  17.135  1.00  0.00     0.234 C 
BRANCH  31  32
HETATM   32  N1  UNL     1       0.020  54.315  15.727  1.00  0.00    -0.079 N 
ATOM     33  H13 UNL     1      -0.453  53.571  15.214  1.00  0.00     0.274 HD
ATOM     34  H12 UNL     1      -0.628  55.073  15.513  1.00  0.00     0.274 HD
ATOM     35  H11 UNL     1       0.958  54.495  15.369  1.00  0.00     0.274 HD
ENDBRANCH  31  32
ENDBRANCH  30  31
ENDBRANCH  28  30
ENDBRANCH  23  24
ENDBRANCH   1  23
TORSDOF 9
ENDMDL
MODEL 4
REMARK VINA RESULT: -7.750159270      2.510      9.740
REMARK  9 active torsions:
REMARK  status: ('A' for Active; 'I' for Inactive)
REMARK    1  A    between atoms: N1_1  and  C1_5 
REMARK    2  A    between atoms: C1_5  and  C2_6 
REMARK    3  A    between atoms: C2_6  and  C3_7 
REMARK    4  A    between atoms: C7_11  and  O1_12 
REMARK    5  A    between atoms: O1_12  and  C8_13 
REMARK    6  A    between atoms: N2_16  and  C11_17 
REMARK    7  A    between atoms: C14_20  and  N3_21 
REMARK    8  A    between atoms: N3_21  and  C15_23 
REMARK    9  A    between atoms: C18_26  and  O2_27 
ROOT
HETATM    1  C8  UNL     1       4.236  58.530  21.237  1.00  0.00     0.132 C 
HETATM    2  C9  UNL     1       4.091  57.244  22.029  1.00  0.00     0.062 C 
HETATM    3  C10 UNL     1       4.243  56.042  21.150  1.00  0.00     0.275 C 
HETATM    4  N2  UNL     1       3.225  55.940  20.136  1.00  0.00     0.093 N 
HETATM    5  C23 UNL     1       3.146  57.241  19.478  1.00  0.00     0.275 C 
HETATM    6  C24 UNL     1       4.328  58.124  19.777  1.00  0.00     0.062 C 
ENDROOT
BRANCH   4   7
HETATM    7  C11 UNL     1       1.906  55.659  20.660  1.00  0.00     0.223 C 
HETATM    8  C12 UNL     1       1.848  54.588  21.694  1.00  0.00     0.041 C 
HETATM    9  C13 UNL     1       1.339  53.246  21.145  1.00  0.00     0.054 C 
HETATM   10  C14 UNL     1       1.995  52.956  19.814  1.00  0.00    -0.014 C 
HETATM   11  C21 UNL     1       1.565  53.996  18.812  1.00  0.00     0.054 C 
HETATM   12  C22 UNL     1       1.032  55.246  19.497  1.00  0.00     0.041 C 
BRANCH  10  13
HETATM   13  N3  UNL     1       2.116  51.650  19.410  1.00  0.00    -0.370 N 
ATOM     14  H3  UNL     1       1.557  51.391  18.596  1.00  0.00     0.165 HD
BRANCH  13  15
HETATM   15  C15 UNL     1       2.883  50.640  19.943  1.00  0.00    -0.014 C 
HETATM   16  C16 UNL     1       4.236  50.965  20.529  1.00  0.00     0.055 C 
HETATM   17  C17 UNL     1       4.783  49.674  21.164  1.00  0.00     0.037 C 
HETATM   18  C18 UNL     1       5.116  48.654  20.106  1.00  0.00     0.118 C 
HETATM   19  C19 UNL     1       4.430  49.021  18.800  1.00  0.00     0.037 C 
HETATM   20  C20 UNL     1       2.974  49.335  19.168  1.00  0.00     0.055 C 
BRANCH  18  21
HETATM   21  O2  UNL     1       6.481  48.472  19.946  1.00  0.00    -0.396 OA
ATOM     22  H2  UNL     1       6.977  49.271  20.077  1.00  0.00     0.210 HD
ENDBRANCH  18  21
ENDBRANCH  13  15
ENDBRANCH  10  13
ENDBRANCH   4   7
BRANCH   1  23
HETATM   23  O1  UNL     1       5.284  59.314  21.652  1.00  0.00    -0.346 OA
BRANCH  23  24
HETATM   24  C7  UNL     1       5.325  60.674  21.619  1.00  0.00     0.069 A 
HETATM   25  C6  UNL     1       6.033  61.434  20.722  1.00  0.00     0.037 A 
HETATM   26  C5  UNL     1       5.975  62.822  20.815  1.00  0.00     0.003 A 
HETATM   27  C4  UNL     1       5.234  63.469  21.772  1.00  0.00     0.007 A 
HETATM   28  C3  UNL     1       4.517  62.720  22.680  1.00  0.00    -0.054 A 
HETATM   29  C25 UNL     1       4.574  61.356  22.590  1.00  0.00     0.044 A 
BRANCH  28  30
HETATM   30  C2  UNL     1       3.692  63.404  23.739  1.00  0.00     0.066 C 
BRANCH  30  31
HETATM   31  C1  UNL     1       3.876  62.615  25.015  1.00  0.00     0.234 C 
BRANCH  31  32
HETATM   32  N1  UNL     1       4.939  63.198  25.784  1.00  0.00    -0.079 N 
ATOM     33  H13 UNL     1       5.852  62.820  25.529  1.00  0.00     0.274 HD
ATOM     34  H12 UNL     1       5.111  64.171  25.530  1.00  0.00     0.274 HD
ATOM     35  H11 UNL     1       4.736  63.086  26.777  1.00  0.00     0.274 HD
ENDBRANCH  31  32
ENDBRANCH  30  31
ENDBRANCH  28  30
ENDBRANCH  23  24
ENDBRANCH   1  23
TORSDOF 9
ENDMDL
MODEL 5
REMARK VINA RESULT: -7.662887543      2.239      2.542
REMARK  9 active torsions:
REMARK  status: ('A' for Active; 'I' for Inactive)
REMARK    1  A    between atoms: N1_1  and  C1_5 
REMARK    2  A    between atoms: C1_5  and  C2_6 
REMARK    3  A    between atoms: C2_6  and  C3_7 
REMARK    4  A    between atoms: C7_11  and  O1_12 
REMARK    5  A    between atoms: O1_12  and  C8_13 
REMARK    6  A    between atoms: N2_16  and  C11_17 
REMARK    7  A    between atoms: C14_20  and  N3_21 
REMARK    8  A    between atoms: N3_21  and  C15_23 
REMARK    9  A    between atoms: C18_26  and  O2_27 
ROOT
HETATM    1  C8  UNL     1       3.555  56.969  21.829  1.00  0.00     0.132 C 
HETATM    2  C9  UNL     1       3.951  58.125  20.930  1.00  0.00     0.062 C 
HETATM    3  C10 UNL     1       5.103  58.892  21.502  1.00  0.00     0.275 C 
HETATM    4  N2  UNL     1       4.804  59.521  22.763  1.00  0.00     0.093 N 
HETATM    5  C23 UNL     1       4.192  58.503  23.613  1.00  0.00     0.275 C 
HETATM    6  C24 UNL     1       4.388  57.105  23.091  1.00  0.00     0.062 C 
ENDROOT
BRANCH   4   7
HETATM    7  C11 UNL     1       3.851  60.605  22.662  1.00  0.00     0.223 C 
HETATM    8  C12 UNL     1       3.572  61.079  21.278  1.00  0.00     0.041 C 
HETATM    9  C13 UNL     1       4.299  62.386  20.928  1.00  0.00     0.054 C 
HETATM   10  C14 UNL     1       5.729  62.321  21.415  1.00  0.00    -0.014 C 
HETATM   11  C21 UNL     1       5.738  62.239  22.919  1.00  0.00     0.054 C 
HETATM   12  C22 UNL     1       4.397  61.768  23.461  1.00  0.00     0.041 C 
BRANCH  10  13
HETATM   13  N3  UNL     1       6.675  63.089  20.782  1.00  0.00    -0.370 N 
ATOM     14  H3  UNL     1       6.687  64.074  21.048  1.00  0.00     0.165 HD
BRANCH  13  15
HETATM   15  C15 UNL     1       7.609  62.723  19.842  1.00  0.00    -0.014 C 
HETATM   16  C16 UNL     1       7.544  63.322  18.457  1.00  0.00     0.055 C 
HETATM   17  C17 UNL     1       8.784  62.835  17.687  1.00  0.00     0.037 C 
HETATM   18  C18 UNL     1       8.699  61.356  17.412  1.00  0.00     0.118 C 
HETATM   19  C19 UNL     1       7.662  60.719  18.323  1.00  0.00     0.037 C 
HETATM   20  C20 UNL     1       7.964  61.248  19.731  1.00  0.00     0.055 C 
BRANCH  18  21
HETATM   21  O2  UNL     1       8.466  61.070  16.075  1.00  0.00    -0.396 OA
ATOM     22  H2  UNL     1       8.603  61.820  15.509  1.00  0.00     0.210 HD
ENDBRANCH  18  21
ENDBRANCH  13  15
ENDBRANCH  10  13
ENDBRANCH   4   7
BRANCH   1  23
HETATM   23  O1  UNL     1       3.675  55.741  21.226  1.00  0.00    -0.346 OA
BRANCH  23  24
HETATM   24  C7  UNL     1       2.817  54.694  21.373  1.00  0.00     0.069 A 
HETATM   25  C6  UNL     1       2.821  53.543  20.625  1.00  0.00     0.037 A 
HETATM   26  C5  UNL     1       1.877  52.557  20.894  1.00  0.00     0.003 A 
HETATM   27  C4  UNL     1       0.934  52.685  21.883  1.00  0.00     0.007 A 
HETATM   28  C3  UNL     1       0.916  53.835  22.643  1.00  0.00    -0.054 A 
HETATM   29  C25 UNL     1       1.844  54.806  22.379  1.00  0.00     0.044 A 
BRANCH  28  30
HETATM   30  C2  UNL     1      -0.105  54.002  23.737  1.00  0.00     0.066 C 
BRANCH  30  31
HETATM   31  C1  UNL     1      -1.309  53.178  23.342  1.00  0.00     0.234 C 
BRANCH  31  32
HETATM   32  N1  UNL     1      -2.506  53.886  23.701  1.00  0.00    -0.079 N 
ATOM     33  H13 UNL     1      -2.458  54.876  23.455  1.00  0.00     0.274 HD
ATOM     34  H12 UNL     1      -3.298  53.630  23.112  1.00  0.00     0.274 HD
ATOM     35  H11 UNL     1      -2.696  53.742  24.692  1.00  0.00     0.274 HD
ENDBRANCH  31  32
ENDBRANCH  30  31
ENDBRANCH  28  30
ENDBRANCH  23  24
ENDBRANCH   1  23
TORSDOF 9
ENDMDL
