MODEL 1
REMARK VINA RESULT: -5.997173374      0.000      0.000
REMARK  11 active torsions:
REMARK  status: ('A' for Active; 'I' for Inactive)
REMARK    1  A    between atoms: C2_2  and  C3_3 
REMARK    2  A    between atoms: C3_3  and  C4_4 
REMARK    3  A    between atoms: C4_4  and  N1_5 
REMARK    4  A    between atoms: N1_5  and  C5_6 
REMARK    5  A    between atoms: N1_5  and  C7_10 
REMARK    6  A    between atoms: C5_6  and  C6_7 
REMARK    7  A    between atoms: C6_7  and  O1_8 
REMARK    8  A    between atoms: C7_10  and  C8_11 
REMARK    9  A    between atoms: C8_11  and  O2_12 
REMARK   10  A    between atoms: C9_14  and  O3_15 
REMARK   11  A    between atoms: C14_21  and  C15_22 
ROOT
HETATM    1  C8  UNL     1       3.685  62.008  25.158  1.00  0.00     0.107 C 
HETATM    2  C9  UNL     1       4.192  61.443  26.410  1.00  0.00     0.155 C 
HETATM    3  C10 UNL     1       4.513  59.945  26.166  1.00  0.00     0.041 C 
HETATM    4  C11 UNL     1       4.136  59.732  24.787  1.00  0.00     0.004 C 
HETATM    5  C12 UNL     1       3.703  58.435  24.272  1.00  0.00    -0.001 C 
HETATM    6  C13 UNL     1       4.864  57.637  23.675  1.00  0.00     0.019 C 
HETATM    7  C14 UNL     1       4.361  56.851  22.470  1.00  0.00     0.075 C 
HETATM    8  C16 UNL     1       2.890  56.567  22.715  1.00  0.00     0.014 C 
HETATM    9  C17 UNL     1       2.590  56.310  24.159  1.00  0.00     0.010 C 
HETATM   10  C18 UNL     1       2.850  57.537  25.055  1.00  0.00    -0.040 C 
HETATM   11  C19 UNL     1       3.515  56.950  26.299  1.00  0.00     0.015 C 
HETATM   12  C20 UNL     1       1.501  58.073  25.387  1.00  0.00     0.009 C 
HETATM   13  C21 UNL     1       1.378  59.521  25.689  1.00  0.00     0.002 C 
HETATM   14  C22 UNL     1       1.744  60.455  24.576  1.00  0.00     0.012 C 
HETATM   15  C23 UNL     1       3.138  60.815  24.382  1.00  0.00    -0.005 C 
HETATM   16  C24 UNL     1       3.319  61.167  22.909  1.00  0.00     0.019 C 
ENDROOT
BRANCH   1  17
HETATM   17  C7  UNL     1       2.781  63.156  25.129  1.00  0.00     0.168 C 
BRANCH  17  18
HETATM   18  N1  UNL     1       2.553  63.962  26.277  1.00  0.00    -0.369 N 
BRANCH  18  19
HETATM   19  C4  UNL     1       1.362  63.887  26.969  1.00  0.00     0.063 C 
BRANCH  19  20
HETATM   20  C3  UNL     1       0.958  62.597  27.603  1.00  0.00     0.044 C 
BRANCH  20  21
HETATM   21  C2  UNL     1      -0.562  62.651  27.877  1.00  0.00     0.001 C 
HETATM   22  C1  UNL     1      -1.306  61.741  26.969  1.00  0.00     0.005 C 
ENDBRANCH  20  21
ENDBRANCH  19  20
ENDBRANCH  18  19
BRANCH  18  23
HETATM   23  C5  UNL     1       3.298  65.146  26.336  1.00  0.00     0.089 C 
BRANCH  23  24
HETATM   24  C6  UNL     1       4.370  65.347  27.325  1.00  0.00     0.208 C 
BRANCH  24  25
HETATM   25  O1  UNL     1       5.591  64.774  26.970  1.00  0.00    -0.396 OA
ATOM     26  H1  UNL     1       5.851  64.040  27.515  1.00  0.00     0.209 HD
ENDBRANCH  24  25
ENDBRANCH  23  24
ENDBRANCH  18  23
ENDBRANCH  17  18
ENDBRANCH   1  17
BRANCH   1  27
HETATM   27  O2  UNL     1       4.838  62.373  24.384  1.00  0.00    -0.385 OA
ATOM     28  H2  UNL     1       5.037  61.630  23.826  1.00  0.00     0.210 HD
ENDBRANCH   1  27
BRANCH   2  29
HETATM   29  O3  UNL     1       5.376  62.081  26.832  1.00  0.00    -0.392 OA
ATOM     30  H3  UNL     1       5.351  62.296  27.757  1.00  0.00     0.210 HD
ENDBRANCH   2  29
BRANCH   7  31
HETATM   31  C15 UNL     1       4.452  57.630  21.207  1.00  0.00     0.235 C 
HETATM   32  N2  UNL     1       3.716  57.309  20.045  1.00  0.00    -0.062 NA
HETATM   33  O4  UNL     1       5.215  58.652  21.102  1.00  0.00    -0.277 OA
ENDBRANCH   7  31
TORSDOF 11
ENDMDL
MODEL 2
REMARK VINA RESULT: -5.762625331      2.692      7.096
REMARK  11 active torsions:
REMARK  status: ('A' for Active; 'I' for Inactive)
REMARK    1  A    between atoms: C2_2  and  C3_3 
REMARK    2  A    between atoms: C3_3  and  C4_4 
REMARK    3  A    between atoms: C4_4  and  N1_5 
REMARK    4  A    between atoms: N1_5  and  C5_6 
REMARK    5  A    between atoms: N1_5  and  C7_10 
REMARK    6  A    between atoms: C5_6  and  C6_7 
REMARK    7  A    between atoms: C6_7  and  O1_8 
REMARK    8  A    between atoms: C7_10  and  C8_11 
REMARK    9  A    between atoms: C8_11  and  O2_12 
REMARK   10  A    between atoms: C9_14  and  O3_15 
REMARK   11  A    between atoms: C14_21  and  C15_22 
ROOT
HETATM    1  C8  UNL     1       3.762  58.822  23.709  1.00  0.00     0.107 C 
HETATM    2  C9  UNL     1       5.020  58.469  24.369  1.00  0.00     0.155 C 
HETATM    3  C10 UNL     1       4.968  59.005  25.823  1.00  0.00     0.041 C 
HETATM    4  C11 UNL     1       3.686  59.669  25.900  1.00  0.00     0.004 C 
HETATM    5  C12 UNL     1       3.420  60.784  26.805  1.00  0.00    -0.001 C 
HETATM    6  C13 UNL     1       2.824  60.316  28.134  1.00  0.00     0.019 C 
HETATM    7  C14 UNL     1       1.812  61.349  28.617  1.00  0.00     0.075 C 
HETATM    8  C16 UNL     1       2.258  62.691  28.065  1.00  0.00     0.014 C 
HETATM    9  C17 UNL     1       3.749  62.827  28.025  1.00  0.00     0.010 C 
HETATM   10  C18 UNL     1       4.418  61.827  27.061  1.00  0.00    -0.040 C 
HETATM   11  C19 UNL     1       5.654  61.353  27.824  1.00  0.00     0.015 C 
HETATM   12  C20 UNL     1       4.814  62.633  25.873  1.00  0.00     0.009 C 
HETATM   13  C21 UNL     1       4.908  61.945  24.562  1.00  0.00     0.002 C 
HETATM   14  C22 UNL     1       3.635  61.351  24.040  1.00  0.00     0.012 C 
HETATM   15  C23 UNL     1       3.237  60.026  24.484  1.00  0.00    -0.005 C 
HETATM   16  C24 UNL     1       1.718  59.947  24.382  1.00  0.00     0.019 C 
ENDROOT
BRANCH   1  17
HETATM   17  C7  UNL     1       3.662  59.003  22.262  1.00  0.00     0.168 C 
BRANCH  17  18
HETATM   18  N1  UNL     1       4.574  58.385  21.363  1.00  0.00    -0.369 N 
BRANCH  18  19
HETATM   19  C4  UNL     1       5.560  59.121  20.738  1.00  0.00     0.063 C 
BRANCH  19  20
HETATM   20  C3  UNL     1       5.711  60.572  21.058  1.00  0.00     0.044 C 
BRANCH  20  21
HETATM   21  C2  UNL     1       6.954  61.102  20.307  1.00  0.00     0.001 C 
HETATM   22  C1  UNL     1       6.981  62.587  20.291  1.00  0.00     0.005 C 
ENDBRANCH  20  21
ENDBRANCH  19  20
ENDBRANCH  18  19
BRANCH  18  23
HETATM   23  C5  UNL     1       4.112  57.214  20.752  1.00  0.00     0.089 C 
BRANCH  23  24
HETATM   24  C6  UNL     1       3.516  57.217  19.405  1.00  0.00     0.208 C 
BRANCH  24  25
HETATM   25  O1  UNL     1       4.264  56.533  18.447  1.00  0.00    -0.396 OA
ATOM     26  H1  UNL     1       4.982  57.036  18.080  1.00  0.00     0.209 HD
ENDBRANCH  24  25
ENDBRANCH  23  24
ENDBRANCH  18  23
ENDBRANCH  17  18
ENDBRANCH   1  17
BRANCH   1  27
HETATM   27  O2  UNL     1       2.820  57.798  24.061  1.00  0.00    -0.385 OA
ATOM     28  H2  UNL     1       2.625  57.322  23.263  1.00  0.00     0.210 HD
ENDBRANCH   1  27
BRANCH   2  29
HETATM   29  O3  UNL     1       5.209  57.073  24.424  1.00  0.00    -0.392 OA
ATOM     30  H3  UNL     1       6.035  56.813  24.033  1.00  0.00     0.210 HD
ENDBRANCH   2  29
BRANCH   7  31
HETATM   31  C15 UNL     1       0.446  61.092  28.092  1.00  0.00     0.235 C 
HETATM   32  N2  UNL     1      -0.438  60.149  28.661  1.00  0.00    -0.062 NA
HETATM   33  O4  UNL     1      -0.014  61.723  27.077  1.00  0.00    -0.277 OA
ENDBRANCH   7  31
TORSDOF 11
ENDMDL
MODEL 3
REMARK VINA RESULT: -5.750034631      0.970      1.183
REMARK  11 active torsions:
REMARK  status: ('A' for Active; 'I' for Inactive)
REMARK    1  A    between atoms: C2_2  and  C3_3 
REMARK    2  A    between atoms: C3_3  and  C4_4 
REMARK    3  A    between atoms: C4_4  and  N1_5 
REMARK    4  A    between atoms: N1_5  and  C5_6 
REMARK    5  A    between atoms: N1_5  and  C7_10 
REMARK    6  A    between atoms: C5_6  and  C6_7 
REMARK    7  A    between atoms: C6_7  and  O1_8 
REMARK    8  A    between atoms: C7_10  and  C8_11 
REMARK    9  A    between atoms: C8_11  and  O2_12 
REMARK   10  A    between atoms: C9_14  and  O3_15 
REMARK   11  A    between atoms: C14_21  and  C15_22 
ROOT
HETATM    1  C8  UNL     1       3.843  61.974  25.207  1.00  0.00     0.107 C 
HETATM    2  C9  UNL     1       4.351  61.379  26.445  1.00  0.00     0.155 C 
HETATM    3  C10 UNL     1       4.617  59.874  26.181  1.00  0.00     0.041 C 
HETATM    4  C11 UNL     1       4.210  59.688  24.807  1.00  0.00     0.004 C 
HETATM    5  C12 UNL     1       3.725  58.412  24.286  1.00  0.00    -0.001 C 
HETATM    6  C13 UNL     1       4.848  57.582  23.661  1.00  0.00     0.019 C 
HETATM    7  C14 UNL     1       4.298  56.825  22.457  1.00  0.00     0.075 C 
HETATM    8  C16 UNL     1       2.823  56.588  22.725  1.00  0.00     0.014 C 
HETATM    9  C17 UNL     1       2.539  56.326  24.172  1.00  0.00     0.010 C 
HETATM   10  C18 UNL     1       2.855  57.535  25.075  1.00  0.00    -0.040 C 
HETATM   11  C19 UNL     1       3.521  56.913  26.302  1.00  0.00     0.015 C 
HETATM   12  C20 UNL     1       1.531  58.112  25.436  1.00  0.00     0.009 C 
HETATM   13  C21 UNL     1       1.462  59.560  25.753  1.00  0.00     0.002 C 
HETATM   14  C22 UNL     1       1.840  60.493  24.644  1.00  0.00     0.012 C 
HETATM   15  C23 UNL     1       3.243  60.808  24.429  1.00  0.00    -0.005 C 
HETATM   16  C24 UNL     1       3.410  61.169  22.957  1.00  0.00     0.019 C 
ENDROOT
BRANCH   1  17
HETATM   17  C7  UNL     1       2.978  63.152  25.205  1.00  0.00     0.168 C 
BRANCH  17  18
HETATM   18  N1  UNL     1       2.598  63.808  26.407  1.00  0.00    -0.369 N 
BRANCH  18  19
HETATM   19  C4  UNL     1       1.381  63.549  27.001  1.00  0.00     0.063 C 
BRANCH  19  20
HETATM   20  C3  UNL     1       0.786  64.553  27.934  1.00  0.00     0.044 C 
BRANCH  20  21
HETATM   21  C2  UNL     1      -0.577  64.996  27.358  1.00  0.00     0.001 C 
HETATM   22  C1  UNL     1      -0.453  66.265  26.596  1.00  0.00     0.005 C 
ENDBRANCH  20  21
ENDBRANCH  19  20
ENDBRANCH  18  19
BRANCH  18  23
HETATM   23  C5  UNL     1       3.214  65.044  26.635  1.00  0.00     0.089 C 
BRANCH  23  24
HETATM   24  C6  UNL     1       4.377  65.186  27.527  1.00  0.00     0.208 C 
BRANCH  24  25
HETATM   25  O1  UNL     1       5.580  64.752  26.971  1.00  0.00    -0.396 OA
ATOM     26  H1  UNL     1       6.341  64.906  27.520  1.00  0.00     0.209 HD
ENDBRANCH  24  25
ENDBRANCH  23  24
ENDBRANCH  18  23
ENDBRANCH  17  18
ENDBRANCH   1  17
BRANCH   1  27
HETATM   27  O2  UNL     1       4.994  62.308  24.417  1.00  0.00    -0.385 OA
ATOM     28  H2  UNL     1       4.952  63.243  24.257  1.00  0.00     0.210 HD
ENDBRANCH   1  27
BRANCH   2  29
HETATM   29  O3  UNL     1       5.563  61.972  26.853  1.00  0.00    -0.392 OA
ATOM     30  H3  UNL     1       6.310  61.419  26.659  1.00  0.00     0.210 HD
ENDBRANCH   2  29
BRANCH   7  31
HETATM   31  C15 UNL     1       4.394  57.614  21.201  1.00  0.00     0.235 C 
HETATM   32  N2  UNL     1       5.217  58.753  21.063  1.00  0.00    -0.062 NA
HETATM   33  O4  UNL     1       3.722  57.299  20.157  1.00  0.00    -0.277 OA
ENDBRANCH   7  31
TORSDOF 11
ENDMDL
MODEL 4
REMARK VINA RESULT: -5.631062355      3.422      5.898
REMARK  11 active torsions:
REMARK  status: ('A' for Active; 'I' for Inactive)
REMARK    1  A    between atoms: C2_2  and  C3_3 
REMARK    2  A    between atoms: C3_3  and  C4_4 
REMARK    3  A    between atoms: C4_4  and  N1_5 
REMARK    4  A    between atoms: N1_5  and  C5_6 
REMARK    5  A    between atoms: N1_5  and  C7_10 
REMARK    6  A    between atoms: C5_6  and  C6_7 
REMARK    7  A    between atoms: C6_7  and  O1_8 
REMARK    8  A    between atoms: C7_10  and  C8_11 
REMARK    9  A    between atoms: C8_11  and  O2_12 
REMARK   10  A    between atoms: C9_14  and  O3_15 
REMARK   11  A    between atoms: C14_21  and  C15_22 
ROOT
HETATM    1  C8  UNL     1       3.550  57.519  26.086  1.00  0.00     0.107 C 
HETATM    2  C9  UNL     1       2.342  58.290  26.382  1.00  0.00     0.155 C 
HETATM    3  C10 UNL     1       2.214  59.412  25.318  1.00  0.00     0.041 C 
HETATM    4  C11 UNL     1       3.385  59.236  24.490  1.00  0.00     0.004 C 
HETATM    5  C12 UNL     1       4.014  60.332  23.757  1.00  0.00    -0.001 C 
HETATM    6  C13 UNL     1       3.490  60.440  22.324  1.00  0.00     0.019 C 
HETATM    7  C14 UNL     1       4.631  60.869  21.408  1.00  0.00     0.075 C 
HETATM    8  C16 UNL     1       5.590  61.687  22.255  1.00  0.00     0.014 C 
HETATM    9  C17 UNL     1       4.882  62.520  23.278  1.00  0.00     0.010 C 
HETATM   10  C18 UNL     1       4.138  61.675  24.331  1.00  0.00    -0.040 C 
HETATM   11  C19 UNL     1       2.813  62.411  24.524  1.00  0.00     0.015 C 
HETATM   12  C20 UNL     1       4.969  61.765  25.563  1.00  0.00     0.009 C 
HETATM   13  C21 UNL     1       4.907  60.642  26.532  1.00  0.00     0.002 C 
HETATM   14  C22 UNL     1       5.369  59.310  26.023  1.00  0.00     0.012 C 
HETATM   15  C23 UNL     1       4.437  58.470  25.290  1.00  0.00    -0.005 C 
HETATM   16  C24 UNL     1       5.257  57.583  24.360  1.00  0.00     0.019 C 
ENDROOT
BRANCH   1  17
HETATM   17  C7  UNL     1       4.290  56.798  27.120  1.00  0.00     0.168 C 
BRANCH  17  18
HETATM   18  N1  UNL     1       3.661  56.326  28.303  1.00  0.00    -0.369 N 
BRANCH  18  19
HETATM   19  C4  UNL     1       3.843  56.972  29.508  1.00  0.00     0.063 C 
BRANCH  19  20
HETATM   20  C3  UNL     1       4.909  58.011  29.634  1.00  0.00     0.044 C 
BRANCH  20  21
HETATM   21  C2  UNL     1       4.229  59.359  29.966  1.00  0.00     0.001 C 
HETATM   22  C1  UNL     1       5.234  60.407  30.275  1.00  0.00     0.005 C 
ENDBRANCH  20  21
ENDBRANCH  19  20
ENDBRANCH  18  19
BRANCH  18  23
HETATM   23  C5  UNL     1       3.336  54.965  28.307  1.00  0.00     0.089 C 
BRANCH  23  24
HETATM   24  C6  UNL     1       1.984  54.482  27.978  1.00  0.00     0.208 C 
BRANCH  24  25
HETATM   25  O1  UNL     1       1.693  54.480  26.614  1.00  0.00    -0.396 OA
ATOM     26  H1  UNL     1       1.427  53.634  26.273  1.00  0.00     0.209 HD
ENDBRANCH  24  25
ENDBRANCH  23  24
ENDBRANCH  18  23
ENDBRANCH  17  18
ENDBRANCH   1  17
BRANCH   1  27
HETATM   27  O2  UNL     1       3.177  56.549  25.096  1.00  0.00    -0.385 OA
ATOM     28  H2  UNL     1       3.145  57.007  24.264  1.00  0.00     0.210 HD
ENDBRANCH   1  27
BRANCH   2  29
HETATM   29  O3  UNL     1       1.181  57.492  26.317  1.00  0.00    -0.392 OA
ATOM     30  H3  UNL     1       0.684  57.656  25.526  1.00  0.00     0.210 HD
ENDBRANCH   2  29
BRANCH   7  31
HETATM   31  C15 UNL     1       5.396  59.712  20.875  1.00  0.00     0.235 C 
HETATM   32  N2  UNL     1       6.665  59.835  20.268  1.00  0.00    -0.062 NA
HETATM   33  O4  UNL     1       4.938  58.518  20.938  1.00  0.00    -0.277 OA
ENDBRANCH   7  31
TORSDOF 11
ENDMDL
MODEL 5
REMARK VINA RESULT: -5.535898686      2.304      3.339
REMARK  11 active torsions:
REMARK  status: ('A' for Active; 'I' for Inactive)
REMARK    1  A    between atoms: C2_2  and  C3_3 
REMARK    2  A    between atoms: C3_3  and  C4_4 
REMARK    3  A    between atoms: C4_4  and  N1_5 
REMARK    4  A    between atoms: N1_5  and  C5_6 
REMARK    5  A    between atoms: N1_5  and  C7_10 
REMARK    6  A    between atoms: C5_6  and  C6_7 
REMARK    7  A    between atoms: C6_7  and  O1_8 
REMARK    8  A    between atoms: C7_10  and  C8_11 
REMARK    9  A    between atoms: C8_11  and  O2_12 
REMARK   10  A    between atoms: C9_14  and  O3_15 
REMARK   11  A    between atoms: C14_21  and  C15_22 
ROOT
HETATM    1  C8  UNL     1       4.020  62.516  26.726  1.00  0.00     0.107 C 
HETATM    2  C9  UNL     1       4.679  61.355  27.326  1.00  0.00     0.155 C 
HETATM    3  C10 UNL     1       5.157  60.427  26.178  1.00  0.00     0.041 C 
HETATM    4  C11 UNL     1       4.710  61.102  24.981  1.00  0.00     0.004 C 
HETATM    5  C12 UNL     1       4.398  60.397  23.740  1.00  0.00    -0.001 C 
HETATM    6  C13 UNL     1       5.600  60.339  22.794  1.00  0.00     0.019 C 
HETATM    7  C14 UNL     1       5.107  60.453  21.356  1.00  0.00     0.075 C 
HETATM    8  C16 UNL     1       3.702  59.880  21.327  1.00  0.00     0.014 C 
HETATM    9  C17 UNL     1       3.539  58.715  22.255  1.00  0.00     0.010 C 
HETATM   10  C18 UNL     1       3.716  59.100  23.737  1.00  0.00    -0.040 C 
HETATM   11  C19 UNL     1       4.534  57.949  24.321  1.00  0.00     0.015 C 
HETATM   12  C20 UNL     1       2.340  59.105  24.307  1.00  0.00     0.009 C 
HETATM   13  C21 UNL     1       2.068  59.985  25.471  1.00  0.00     0.002 C 
HETATM   14  C22 UNL     1       2.240  61.455  25.235  1.00  0.00     0.012 C 
HETATM   15  C23 UNL     1       3.564  62.042  25.351  1.00  0.00    -0.005 C 
HETATM   16  C24 UNL     1       3.595  63.279  24.460  1.00  0.00     0.019 C 
ENDROOT
BRANCH   1  17
HETATM   17  C7  UNL     1       2.987  63.276  27.427  1.00  0.00     0.168 C 
BRANCH  17  18
HETATM   18  N1  UNL     1       3.263  64.522  28.051  1.00  0.00    -0.369 N 
BRANCH  18  19
HETATM   19  C4  UNL     1       3.480  64.600  29.412  1.00  0.00     0.063 C 
BRANCH  19  20
HETATM   20  C3  UNL     1       4.877  64.696  29.932  1.00  0.00     0.044 C 
BRANCH  20  21
HETATM   21  C2  UNL     1       5.027  63.693  31.097  1.00  0.00     0.001 C 
HETATM   22  C1  UNL     1       6.413  63.169  31.182  1.00  0.00     0.005 C 
ENDBRANCH  20  21
ENDBRANCH  19  20
ENDBRANCH  18  19
BRANCH  18  23
HETATM   23  C5  UNL     1       2.784  65.651  27.376  1.00  0.00     0.089 C 
BRANCH  23  24
HETATM   24  C6  UNL     1       3.686  66.689  26.850  1.00  0.00     0.208 C 
BRANCH  24  25
HETATM   25  O1  UNL     1       5.001  66.264  26.664  1.00  0.00    -0.396 OA
ATOM     26  H1  UNL     1       5.347  66.434  25.795  1.00  0.00     0.209 HD
ENDBRANCH  24  25
ENDBRANCH  23  24
ENDBRANCH  18  23
ENDBRANCH  17  18
ENDBRANCH   1  17
BRANCH   1  27
HETATM   27  O2  UNL     1       5.063  63.447  26.398  1.00  0.00    -0.385 OA
ATOM     28  H2  UNL     1       4.952  63.666  25.480  1.00  0.00     0.210 HD
ENDBRANCH   1  27
BRANCH   2  29
HETATM   29  O3  UNL     1       5.807  61.726  28.087  1.00  0.00    -0.392 OA
ATOM     30  H3  UNL     1       5.650  61.634  29.019  1.00  0.00     0.210 HD
ENDBRANCH   2  29
BRANCH   7  31
HETATM   31  C15 UNL     1       5.014  61.864  20.899  1.00  0.00     0.235 C 
HETATM   32  N2  UNL     1       6.112  62.584  20.378  1.00  0.00    -0.062 NA
HETATM   33  O4  UNL     1       3.914  62.517  20.955  1.00  0.00    -0.277 OA
ENDBRANCH   7  31
TORSDOF 11
ENDMDL
