MODEL 1
REMARK VINA RESULT: -6.704485785      0.000      0.000
REMARK  11 active torsions:
REMARK  status: ('A' for Active; 'I' for Inactive)
REMARK    1  A    between atoms: O1_2  and  C2_3 
REMARK    2  A    between atoms: C2_3  and  C3_5 
REMARK    3  A    between atoms: C3_5  and  C5_7 
REMARK    4  A    between atoms: C5_7  and  N1_8 
REMARK    5  A    between atoms: C5_7  and  C16_25 
REMARK       I    between atoms: N1_8  and  C6_10 
REMARK    6  A    between atoms: C6_10  and  C7_12 
REMARK    7  A    between atoms: C7_12  and  N2_13 
REMARK    8  A    between atoms: C7_12  and  C13_22 
REMARK       I    between atoms: N2_13  and  C8_15 
REMARK    9  A    between atoms: C8_15  and  O5_17 
REMARK   10  A    between atoms: O5_17  and  C9_18 
REMARK       I    between atoms: C16_25  and  N3_27 
REMARK   11  A    between atoms: N3_27  and  C17_29 
ROOT
HETATM    1  N1  UNL     1       5.278  59.242  21.669  1.00  0.00    -0.345 N 
ATOM      2  H1  UNL     1       5.797  59.148  22.541  1.00  0.00     0.163 HD
HETATM    3  C6  UNL     1       4.353  58.242  21.350  1.00  0.00     0.241 C 
HETATM    4  O3  UNL     1       3.704  58.359  20.270  1.00  0.00    -0.271 OA
ENDROOT
BRANCH   1   5
HETATM    5  C5  UNL     1       5.554  60.423  20.831  1.00  0.00     0.190 C 
BRANCH   5   6
HETATM    6  C3  UNL     1       5.886  61.593  21.700  1.00  0.00     0.113 C 
HETATM    7  C4  UNL     1       5.569  62.886  20.980  1.00  0.00     0.023 C 
BRANCH   6   8
HETATM    8  C2  UNL     1       4.990  61.633  22.921  1.00  0.00     0.264 C 
HETATM    9  O2  UNL     1       4.051  62.452  22.911  1.00  0.00    -0.265 OA
BRANCH   8  10
HETATM   10  O1  UNL     1       5.191  60.815  23.991  1.00  0.00    -0.326 OA
HETATM   11  C1  UNL     1       4.719  61.099  25.284  1.00  0.00     0.213 C 
ENDBRANCH   8  10
ENDBRANCH   6   8
ENDBRANCH   5   6
BRANCH   5  12
HETATM   12  C16 UNL     1       6.699  60.120  19.942  1.00  0.00     0.241 C 
HETATM   13  O6  UNL     1       7.626  59.370  20.443  1.00  0.00    -0.271 OA
HETATM   14  N3  UNL     1       6.919  60.526  18.632  1.00  0.00    -0.355 N 
ATOM     15  H3  UNL     1       6.217  61.113  18.181  1.00  0.00     0.162 HD
BRANCH  14  16
HETATM   16  C17 UNL     1       8.109  60.155  17.867  1.00  0.00     0.084 C 
HETATM   17  C18 UNL     1       8.458  61.373  17.002  1.00  0.00     0.025 C 
HETATM   18  C19 UNL     1       7.386  61.337  15.961  1.00  0.00     0.002 C 
HETATM   19  C20 UNL     1       6.886  59.931  15.870  1.00  0.00     0.002 C 
HETATM   20  C21 UNL     1       7.796  59.127  16.803  1.00  0.00     0.025 C 
ENDBRANCH  14  16
ENDBRANCH   5  12
ENDBRANCH   1   5
BRANCH   3  21
HETATM   21  C7  UNL     1       4.083  57.057  22.184  1.00  0.00     0.182 C 
BRANCH  21  22
HETATM   22  N2  UNL     1       2.988  56.274  21.698  1.00  0.00    -0.323 N 
HETATM   23  C8  UNL     1       3.147  55.045  21.006  1.00  0.00     0.362 C 
HETATM   24  O4  UNL     1       4.328  54.647  20.823  1.00  0.00    -0.238 OA
ATOM     25  H2  UNL     1       2.042  56.618  21.859  1.00  0.00     0.165 HD
BRANCH  23  26
HETATM   26  O5  UNL     1       2.123  54.276  20.531  1.00  0.00    -0.294 OA
BRANCH  26  27
HETATM   27  C9  UNL     1       1.307  54.613  19.429  1.00  0.00     0.061 C 
HETATM   28  C10 UNL     1       1.130  53.365  18.584  1.00  0.00     0.046 C 
HETATM   29  C11 UNL     1      -0.065  55.060  19.859  1.00  0.00     0.046 C 
HETATM   30  C12 UNL     1       1.903  55.679  18.544  1.00  0.00     0.046 C 
ENDBRANCH  26  27
ENDBRANCH  23  26
ENDBRANCH  21  22
BRANCH  21  31
HETATM   31  C13 UNL     1       3.911  57.494  23.610  1.00  0.00     0.009 C 
HETATM   32  C14 UNL     1       2.802  56.784  24.314  1.00  0.00     0.012 C 
HETATM   33  C15 UNL     1       5.217  57.231  24.376  1.00  0.00     0.012 C 
ENDBRANCH  21  31
ENDBRANCH   3  21
TORSDOF 11
ENDMDL
MODEL 2
REMARK VINA RESULT: -6.184905192      2.767      7.017
REMARK  11 active torsions:
REMARK  status: ('A' for Active; 'I' for Inactive)
REMARK    1  A    between atoms: O1_2  and  C2_3 
REMARK    2  A    between atoms: C2_3  and  C3_5 
REMARK    3  A    between atoms: C3_5  and  C5_7 
REMARK    4  A    between atoms: C5_7  and  N1_8 
REMARK    5  A    between atoms: C5_7  and  C16_25 
REMARK       I    between atoms: N1_8  and  C6_10 
REMARK    6  A    between atoms: C6_10  and  C7_12 
REMARK    7  A    between atoms: C7_12  and  N2_13 
REMARK    8  A    between atoms: C7_12  and  C13_22 
REMARK       I    between atoms: N2_13  and  C8_15 
REMARK    9  A    between atoms: C8_15  and  O5_17 
REMARK   10  A    between atoms: O5_17  and  C9_18 
REMARK       I    between atoms: C16_25  and  N3_27 
REMARK   11  A    between atoms: N3_27  and  C17_29 
ROOT
HETATM    1  N1  UNL     1       4.518  60.299  23.176  1.00  0.00    -0.345 N 
ATOM      2  H1  UNL     1       5.484  60.609  23.288  1.00  0.00     0.163 HD
HETATM    3  C6  UNL     1       3.818  59.927  24.328  1.00  0.00     0.241 C 
HETATM    4  O3  UNL     1       2.618  59.547  24.194  1.00  0.00    -0.271 OA
ENDROOT
BRANCH   1   5
HETATM    5  C5  UNL     1       3.959  60.274  21.813  1.00  0.00     0.190 C 
BRANCH   5   6
HETATM    6  C3  UNL     1       4.477  61.439  21.033  1.00  0.00     0.113 C 
HETATM    7  C4  UNL     1       3.646  62.671  21.319  1.00  0.00     0.023 C 
BRANCH   6   8
HETATM    8  C2  UNL     1       5.866  61.828  21.497  1.00  0.00     0.264 C 
HETATM    9  O2  UNL     1       5.947  62.542  22.516  1.00  0.00    -0.265 OA
BRANCH   8  10
HETATM   10  O1  UNL     1       6.987  61.422  20.840  1.00  0.00    -0.326 OA
HETATM   11  C1  UNL     1       7.714  62.246  19.964  1.00  0.00     0.213 C 
ENDBRANCH   8  10
ENDBRANCH   6   8
ENDBRANCH   5   6
BRANCH   5  12
HETATM   12  C16 UNL     1       4.366  59.012  21.154  1.00  0.00     0.241 C 
HETATM   13  O6  UNL     1       5.627  58.730  21.190  1.00  0.00    -0.271 OA
HETATM   14  N3  UNL     1       3.575  58.074  20.500  1.00  0.00    -0.355 N 
ATOM     15  H3  UNL     1       2.570  58.239  20.448  1.00  0.00     0.162 HD
BRANCH  14  16
HETATM   16  C17 UNL     1       4.115  56.863  19.883  1.00  0.00     0.084 C 
HETATM   17  C18 UNL     1       3.278  56.619  18.619  1.00  0.00     0.025 C 
HETATM   18  C19 UNL     1       1.983  56.137  19.189  1.00  0.00     0.002 C 
HETATM   19  C20 UNL     1       2.263  55.573  20.545  1.00  0.00     0.002 C 
HETATM   20  C21 UNL     1       3.787  55.627  20.689  1.00  0.00     0.025 C 
ENDBRANCH  14  16
ENDBRANCH   5  12
ENDBRANCH   1   5
BRANCH   3  21
HETATM   21  C7  UNL     1       4.380  59.944  25.691  1.00  0.00     0.182 C 
BRANCH  21  22
HETATM   22  N2  UNL     1       4.629  61.268  26.172  1.00  0.00    -0.323 N 
HETATM   23  C8  UNL     1       3.726  61.987  26.998  1.00  0.00     0.362 C 
HETATM   24  O4  UNL     1       2.654  61.401  27.308  1.00  0.00    -0.238 OA
ATOM     25  H2  UNL     1       5.504  61.721  25.907  1.00  0.00     0.165 HD
BRANCH  23  26
HETATM   26  O5  UNL     1       3.935  63.250  27.472  1.00  0.00    -0.294 OA
BRANCH  26  27
HETATM   27  C9  UNL     1       3.394  64.424  26.905  1.00  0.00     0.061 C 
HETATM   28  C10 UNL     1       2.104  64.743  27.638  1.00  0.00     0.046 C 
HETATM   29  C11 UNL     1       4.309  65.607  27.076  1.00  0.00     0.046 C 
HETATM   30  C12 UNL     1       3.060  64.283  25.441  1.00  0.00     0.046 C 
ENDBRANCH  26  27
ENDBRANCH  23  26
ENDBRANCH  21  22
BRANCH  21  31
HETATM   31  C13 UNL     1       5.595  59.063  25.728  1.00  0.00     0.009 C 
HETATM   32  C14 UNL     1       6.306  59.094  27.041  1.00  0.00     0.012 C 
HETATM   33  C15 UNL     1       5.173  57.614  25.439  1.00  0.00     0.012 C 
ENDBRANCH  21  31
ENDBRANCH   3  21
TORSDOF 11
ENDMDL
MODEL 3
REMARK VINA RESULT: -6.150427902      2.793      6.438
REMARK  11 active torsions:
REMARK  status: ('A' for Active; 'I' for Inactive)
REMARK    1  A    between atoms: O1_2  and  C2_3 
REMARK    2  A    between atoms: C2_3  and  C3_5 
REMARK    3  A    between atoms: C3_5  and  C5_7 
REMARK    4  A    between atoms: C5_7  and  N1_8 
REMARK    5  A    between atoms: C5_7  and  C16_25 
REMARK       I    between atoms: N1_8  and  C6_10 
REMARK    6  A    between atoms: C6_10  and  C7_12 
REMARK    7  A    between atoms: C7_12  and  N2_13 
REMARK    8  A    between atoms: C7_12  and  C13_22 
REMARK       I    between atoms: N2_13  and  C8_15 
REMARK    9  A    between atoms: C8_15  and  O5_17 
REMARK   10  A    between atoms: O5_17  and  C9_18 
REMARK       I    between atoms: C16_25  and  N3_27 
REMARK   11  A    between atoms: N3_27  and  C17_29 
ROOT
HETATM    1  N1  UNL     1       4.594  60.567  23.356  1.00  0.00    -0.345 N 
ATOM      2  H1  UNL     1       5.604  60.443  23.425  1.00  0.00     0.163 HD
HETATM    3  C6  UNL     1       3.903  60.927  24.518  1.00  0.00     0.241 C 
HETATM    4  O3  UNL     1       2.650  61.087  24.436  1.00  0.00    -0.271 OA
ENDROOT
BRANCH   1   5
HETATM    5  C5  UNL     1       3.963  60.354  22.041  1.00  0.00     0.190 C 
BRANCH   5   6
HETATM    6  C3  UNL     1       4.417  61.410  21.086  1.00  0.00     0.113 C 
HETATM    7  C4  UNL     1       3.688  62.708  21.357  1.00  0.00     0.023 C 
BRANCH   6   8
HETATM    8  C2  UNL     1       5.872  61.762  21.318  1.00  0.00     0.264 C 
HETATM    9  O2  UNL     1       6.120  62.610  22.196  1.00  0.00    -0.265 OA
BRANCH   8  10
HETATM   10  O1  UNL     1       6.877  61.182  20.605  1.00  0.00    -0.326 OA
HETATM   11  C1  UNL     1       7.848  61.912  19.898  1.00  0.00     0.213 C 
ENDBRANCH   8  10
ENDBRANCH   6   8
ENDBRANCH   5   6
BRANCH   5  12
HETATM   12  C16 UNL     1       4.358  59.020  21.534  1.00  0.00     0.241 C 
HETATM   13  O6  UNL     1       5.471  58.544  21.989  1.00  0.00    -0.271 OA
HETATM   14  N3  UNL     1       3.693  58.196  20.634  1.00  0.00    -0.355 N 
ATOM     15  H3  UNL     1       2.805  58.516  20.248  1.00  0.00     0.162 HD
BRANCH  14  16
HETATM   16  C17 UNL     1       4.206  56.893  20.211  1.00  0.00     0.084 C 
HETATM   17  C18 UNL     1       3.626  56.639  18.813  1.00  0.00     0.025 C 
HETATM   18  C19 UNL     1       2.195  56.335  19.117  1.00  0.00     0.002 C 
HETATM   19  C20 UNL     1       2.121  55.851  20.530  1.00  0.00     0.002 C 
HETATM   20  C21 UNL     1       3.578  55.761  20.993  1.00  0.00     0.025 C 
ENDBRANCH  14  16
ENDBRANCH   5  12
ENDBRANCH   1   5
BRANCH   3  21
HETATM   21  C7  UNL     1       4.532  61.132  25.835  1.00  0.00     0.182 C 
BRANCH  21  22
HETATM   22  N2  UNL     1       4.518  59.954  26.647  1.00  0.00    -0.323 N 
HETATM   23  C8  UNL     1       5.587  59.575  27.501  1.00  0.00     0.362 C 
HETATM   24  O4  UNL     1       6.590  60.337  27.524  1.00  0.00    -0.238 OA
ATOM     25  H2  UNL     1       3.695  59.353  26.610  1.00  0.00     0.165 HD
BRANCH  23  26
HETATM   26  O5  UNL     1       5.604  58.458  28.286  1.00  0.00    -0.294 OA
BRANCH  26  27
HETATM   27  C9  UNL     1       5.790  57.142  27.811  1.00  0.00     0.061 C 
HETATM   28  C10 UNL     1       6.688  56.416  28.796  1.00  0.00     0.046 C 
HETATM   29  C11 UNL     1       4.494  56.379  27.741  1.00  0.00     0.046 C 
HETATM   30  C12 UNL     1       6.456  57.081  26.459  1.00  0.00     0.046 C 
ENDBRANCH  26  27
ENDBRANCH  23  26
ENDBRANCH  21  22
BRANCH  21  31
HETATM   31  C13 UNL     1       3.894  62.316  26.501  1.00  0.00     0.009 C 
HETATM   32  C14 UNL     1       3.098  61.954  27.712  1.00  0.00     0.012 C 
HETATM   33  C15 UNL     1       4.990  63.307  26.921  1.00  0.00     0.012 C 
ENDBRANCH  21  31
ENDBRANCH   3  21
TORSDOF 11
ENDMDL
MODEL 4
REMARK VINA RESULT: -6.131552436      4.156      9.144
REMARK  11 active torsions:
REMARK  status: ('A' for Active; 'I' for Inactive)
REMARK    1  A    between atoms: O1_2  and  C2_3 
REMARK    2  A    between atoms: C2_3  and  C3_5 
REMARK    3  A    between atoms: C3_5  and  C5_7 
REMARK    4  A    between atoms: C5_7  and  N1_8 
REMARK    5  A    between atoms: C5_7  and  C16_25 
REMARK       I    between atoms: N1_8  and  C6_10 
REMARK    6  A    between atoms: C6_10  and  C7_12 
REMARK    7  A    between atoms: C7_12  and  N2_13 
REMARK    8  A    between atoms: C7_12  and  C13_22 
REMARK       I    between atoms: N2_13  and  C8_15 
REMARK    9  A    between atoms: C8_15  and  O5_17 
REMARK   10  A    between atoms: O5_17  and  C9_18 
REMARK       I    between atoms: C16_25  and  N3_27 
REMARK   11  A    between atoms: N3_27  and  C17_29 
ROOT
HETATM    1  N1  UNL     1       4.282  61.826  24.259  1.00  0.00    -0.345 N 
ATOM      2  H1  UNL     1       5.205  62.245  24.376  1.00  0.00     0.163 HD
HETATM    3  C6  UNL     1       3.251  62.283  25.087  1.00  0.00     0.241 C 
HETATM    4  O3  UNL     1       2.104  61.770  24.941  1.00  0.00    -0.271 OA
ENDROOT
BRANCH   1   5
HETATM    5  C5  UNL     1       4.127  60.783  23.230  1.00  0.00     0.190 C 
BRANCH   5   6
HETATM    6  C3  UNL     1       5.206  60.920  22.205  1.00  0.00     0.113 C 
HETATM    7  C4  UNL     1       4.931  60.007  21.030  1.00  0.00     0.023 C 
BRANCH   6   8
HETATM    8  C2  UNL     1       5.197  62.305  21.591  1.00  0.00     0.264 C 
HETATM    9  O2  UNL     1       4.085  62.819  21.360  1.00  0.00    -0.265 OA
BRANCH   8  10
HETATM   10  O1  UNL     1       6.347  62.973  21.298  1.00  0.00    -0.326 OA
HETATM   11  C1  UNL     1       7.079  62.777  20.114  1.00  0.00     0.213 C 
ENDBRANCH   8  10
ENDBRANCH   6   8
ENDBRANCH   5   6
BRANCH   5  12
HETATM   12  C16 UNL     1       4.223  59.456  23.880  1.00  0.00     0.241 C 
HETATM   13  O6  UNL     1       3.294  58.607  23.583  1.00  0.00    -0.271 OA
HETATM   14  N3  UNL     1       5.182  58.986  24.769  1.00  0.00    -0.355 N 
ATOM     15  H3  UNL     1       5.946  59.609  25.033  1.00  0.00     0.162 HD
BRANCH  14  16
HETATM   16  C17 UNL     1       5.151  57.642  25.345  1.00  0.00     0.084 C 
HETATM   17  C18 UNL     1       4.464  57.778  26.710  1.00  0.00     0.025 C 
HETATM   18  C19 UNL     1       5.519  58.451  27.527  1.00  0.00     0.002 C 
HETATM   19  C20 UNL     1       6.842  58.153  26.898  1.00  0.00     0.002 C 
HETATM   20  C21 UNL     1       6.528  57.176  25.761  1.00  0.00     0.025 C 
ENDBRANCH  14  16
ENDBRANCH   5  12
ENDBRANCH   1   5
BRANCH   3  21
HETATM   21  C7  UNL     1       3.408  63.321  26.122  1.00  0.00     0.182 C 
BRANCH  21  22
HETATM   22  N2  UNL     1       3.320  64.649  25.595  1.00  0.00    -0.323 N 
HETATM   23  C8  UNL     1       2.248  65.536  25.875  1.00  0.00     0.362 C 
HETATM   24  O4  UNL     1       1.339  65.103  26.632  1.00  0.00    -0.238 OA
ATOM     25  H2  UNL     1       4.069  64.975  24.984  1.00  0.00     0.165 HD
BRANCH  23  26
HETATM   26  O5  UNL     1       2.136  66.807  25.387  1.00  0.00    -0.294 OA
BRANCH  26  27
HETATM   27  C9  UNL     1       2.852  67.922  25.873  1.00  0.00     0.061 C 
HETATM   28  C10 UNL     1       2.518  69.109  24.989  1.00  0.00     0.046 C 
HETATM   29  C11 UNL     1       2.446  68.283  27.278  1.00  0.00     0.046 C 
HETATM   30  C12 UNL     1       4.348  67.737  25.839  1.00  0.00     0.046 C 
ENDBRANCH  26  27
ENDBRANCH  23  26
ENDBRANCH  21  22
BRANCH  21  31
HETATM   31  C13 UNL     1       4.681  63.068  26.877  1.00  0.00     0.009 C 
HETATM   32  C14 UNL     1       5.200  64.279  27.581  1.00  0.00     0.012 C 
HETATM   33  C15 UNL     1       4.434  61.969  27.922  1.00  0.00     0.012 C 
ENDBRANCH  21  31
ENDBRANCH   3  21
TORSDOF 11
ENDMDL
MODEL 5
REMARK VINA RESULT: -6.096886304      2.811      6.350
REMARK  11 active torsions:
REMARK  status: ('A' for Active; 'I' for Inactive)
REMARK    1  A    between atoms: O1_2  and  C2_3 
REMARK    2  A    between atoms: C2_3  and  C3_5 
REMARK    3  A    between atoms: C3_5  and  C5_7 
REMARK    4  A    between atoms: C5_7  and  N1_8 
REMARK    5  A    between atoms: C5_7  and  C16_25 
REMARK       I    between atoms: N1_8  and  C6_10 
REMARK    6  A    between atoms: C6_10  and  C7_12 
REMARK    7  A    between atoms: C7_12  and  N2_13 
REMARK    8  A    between atoms: C7_12  and  C13_22 
REMARK       I    between atoms: N2_13  and  C8_15 
REMARK    9  A    between atoms: C8_15  and  O5_17 
REMARK   10  A    between atoms: O5_17  and  C9_18 
REMARK       I    between atoms: C16_25  and  N3_27 
REMARK   11  A    between atoms: N3_27  and  C17_29 
ROOT
HETATM    1  N1  UNL     1       4.945  60.186  23.092  1.00  0.00    -0.345 N 
ATOM      2  H1  UNL     1       5.926  60.466  23.076  1.00  0.00     0.163 HD
HETATM    3  C6  UNL     1       4.392  59.824  24.325  1.00  0.00     0.241 C 
HETATM    4  O3  UNL     1       3.174  59.481  24.350  1.00  0.00    -0.271 OA
ENDROOT
BRANCH   1   5
HETATM    5  C5  UNL     1       4.209  60.190  21.815  1.00  0.00     0.190 C 
BRANCH   5   6
HETATM    6  C3  UNL     1       4.624  61.370  20.997  1.00  0.00     0.113 C 
HETATM    7  C4  UNL     1       3.696  62.537  21.255  1.00  0.00     0.023 C 
BRANCH   6   8
HETATM    8  C2  UNL     1       5.979  61.886  21.437  1.00  0.00     0.264 C 
HETATM    9  O2  UNL     1       6.002  62.682  22.395  1.00  0.00    -0.265 OA
BRANCH   8  10
HETATM   10  O1  UNL     1       7.132  61.503  20.822  1.00  0.00    -0.326 OA
HETATM   11  C1  UNL     1       7.685  62.178  19.720  1.00  0.00     0.213 C 
ENDBRANCH   8  10
ENDBRANCH   6   8
ENDBRANCH   5   6
BRANCH   5  12
HETATM   12  C16 UNL     1       4.520  58.941  21.083  1.00  0.00     0.241 C 
HETATM   13  O6  UNL     1       5.738  58.809  20.671  1.00  0.00    -0.271 OA
HETATM   14  N3  UNL     1       3.679  57.877  20.776  1.00  0.00    -0.355 N 
ATOM     15  H3  UNL     1       2.708  57.922  21.083  1.00  0.00     0.162 HD
BRANCH  14  16
HETATM   16  C17 UNL     1       4.120  56.697  20.033  1.00  0.00     0.084 C 
HETATM   17  C18 UNL     1       3.239  56.628  18.779  1.00  0.00     0.025 C 
HETATM   18  C19 UNL     1       1.928  56.180  19.340  1.00  0.00     0.002 C 
HETATM   19  C20 UNL     1       2.201  55.474  20.630  1.00  0.00     0.002 C 
HETATM   20  C21 UNL     1       3.728  55.414  20.732  1.00  0.00     0.025 C 
ENDBRANCH  14  16
ENDBRANCH   5  12
ENDBRANCH   1   5
BRANCH   3  21
HETATM   21  C7  UNL     1       5.130  59.812  25.601  1.00  0.00     0.182 C 
BRANCH  21  22
HETATM   22  N2  UNL     1       5.064  58.548  26.269  1.00  0.00    -0.323 N 
HETATM   23  C8  UNL     1       6.198  57.877  26.795  1.00  0.00     0.362 C 
HETATM   24  O4  UNL     1       7.311  58.449  26.651  1.00  0.00    -0.238 OA
ATOM     25  H2  UNL     1       4.151  58.106  26.373  1.00  0.00     0.165 HD
BRANCH  23  26
HETATM   26  O5  UNL     1       6.167  56.672  27.436  1.00  0.00    -0.294 OA
BRANCH  26  27
HETATM   27  C9  UNL     1       5.609  56.454  28.714  1.00  0.00     0.061 C 
HETATM   28  C10 UNL     1       4.314  55.685  28.530  1.00  0.00     0.046 C 
HETATM   29  C11 UNL     1       6.506  55.614  29.586  1.00  0.00     0.046 C 
HETATM   30  C12 UNL     1       5.280  57.728  29.451  1.00  0.00     0.046 C 
ENDBRANCH  26  27
ENDBRANCH  23  26
ENDBRANCH  21  22
BRANCH  21  31
HETATM   31  C13 UNL     1       4.655  60.955  26.450  1.00  0.00     0.009 C 
HETATM   32  C14 UNL     1       5.459  61.140  27.695  1.00  0.00     0.012 C 
HETATM   33  C15 UNL     1       4.725  62.253  25.630  1.00  0.00     0.012 C 
ENDBRANCH  21  31
ENDBRANCH   3  21
TORSDOF 11
ENDMDL
