MODEL 1
REMARK VINA RESULT: -7.924643341      0.000      0.000
REMARK  9 active torsions:
REMARK  status: ('A' for Active; 'I' for Inactive)
REMARK    1  A    between atoms: C2_2  and  N1_3 
REMARK    2  A    between atoms: C2_2  and  C15_26 
REMARK       I    between atoms: N1_3  and  C3_5 
REMARK    3  A    between atoms: C3_5  and  C4_7 
REMARK    4  A    between atoms: C4_7  and  C5_8 
REMARK    5  A    between atoms: C4_7  and  N4_16 
REMARK    6  A    between atoms: C5_8  and  C6_9 
REMARK       I    between atoms: N4_16  and  C9_18 
REMARK    7  A    between atoms: C9_18  and  O3_20 
REMARK    8  A    between atoms: O3_20  and  C10_21 
REMARK       I    between atoms: C15_26  and  N5_28 
REMARK    9  A    between atoms: N5_28  and  C16_30 
ROOT
HETATM    1  C4  UNL     1       4.810  60.480  22.229  1.00  0.00     0.087 C 
ENDROOT
BRANCH   1   2
HETATM    2  C3  UNL     1       4.631  59.043  22.429  1.00  0.00     0.265 C 
HETATM    3  N1  UNL     1       4.083  58.117  21.536  1.00  0.00    -0.343 N 
ATOM      4  H1  UNL     1       3.763  58.442  20.623  1.00  0.00     0.163 HD
HETATM    5  O1  UNL     1       5.027  58.572  23.558  1.00  0.00    -0.266 OA
BRANCH   3   6
HETATM    6  C2  UNL     1       3.955  56.717  21.860  1.00  0.00     0.172 C 
HETATM    7  C1  UNL     1       2.988  56.481  23.012  1.00  0.00     0.042 C 
BRANCH   6   8
HETATM    8  C15 UNL     1       3.480  55.932  20.696  1.00  0.00     0.240 C 
HETATM    9  O4  UNL     1       4.102  55.972  19.614  1.00  0.00    -0.271 OA
HETATM   10  N5  UNL     1       2.317  55.126  20.789  1.00  0.00    -0.355 N 
ATOM     11  H5  UNL     1       1.799  55.084  21.666  1.00  0.00     0.162 HD
BRANCH  10  12
HETATM   12  C16 UNL     1       1.854  54.353  19.631  1.00  0.00     0.084 C 
HETATM   13  C17 UNL     1       0.609  54.926  19.032  1.00  0.00     0.025 C 
HETATM   14  C18 UNL     1      -0.541  53.961  19.028  1.00  0.00     0.002 C 
HETATM   15  C19 UNL     1      -0.206  52.613  18.483  1.00  0.00     0.000 C 
HETATM   16  C20 UNL     1       1.177  52.135  18.865  1.00  0.00     0.002 C 
HETATM   17  C21 UNL     1       1.612  52.909  20.092  1.00  0.00     0.025 C 
ENDBRANCH  10  12
ENDBRANCH   6   8
ENDBRANCH   3   6
ENDBRANCH   1   2
BRANCH   1  18
HETATM   18  C5  UNL     1       3.740  61.355  22.772  1.00  0.00     0.121 C 
BRANCH  18  19
HETATM   19  C6  UNL     1       4.044  62.005  24.059  1.00  0.00     0.031 A 
HETATM   20  C7  UNL     1       3.572  63.236  24.450  1.00  0.00     0.114 A 
HETATM   21  N2  UNL     1       4.097  63.492  25.665  1.00  0.00    -0.360 N 
HETATM   22  C8  UNL     1       4.875  62.471  26.045  1.00  0.00     0.180 A 
ATOM     23  H2  UNL     1       3.927  64.337  26.212  1.00  0.00     0.166 HD
HETATM   24  N3  UNL     1       4.832  61.570  25.050  1.00  0.00    -0.354 N 
ATOM     25  H3  UNL     1       5.330  60.679  25.050  1.00  0.00     0.166 HD
ENDBRANCH  18  19
ENDBRANCH   1  18
BRANCH   1  26
HETATM   26  N4  UNL     1       5.298  60.856  20.929  1.00  0.00    -0.301 N 
HETATM   27  C9  UNL     1       6.215  61.909  20.766  1.00  0.00     0.365 C 
HETATM   28  O2  UNL     1       6.660  62.580  21.744  1.00  0.00    -0.238 OA
ATOM     29  H4  UNL     1       4.971  60.348  20.108  1.00  0.00     0.171 HD
BRANCH  27  30
HETATM   30  O3  UNL     1       6.707  62.295  19.514  1.00  0.00    -0.298 OA
BRANCH  30  31
HETATM   31  C10 UNL     1       7.937  61.759  19.009  1.00  0.00     0.133 C 
HETATM   32  C11 UNL     1       7.569  60.474  18.303  1.00  0.00     0.032 C 
HETATM   33  C12 UNL     1       8.280  60.455  16.984  1.00  0.00     0.002 C 
HETATM   34  C13 UNL     1       9.225  61.635  17.039  1.00  0.00     0.002 C 
HETATM   35  C14 UNL     1       8.560  62.634  17.975  1.00  0.00     0.032 C 
ENDBRANCH  30  31
ENDBRANCH  27  30
ENDBRANCH   1  26
TORSDOF 9
ENDMDL
MODEL 2
REMARK VINA RESULT: -7.876821099      1.372      2.045
REMARK  9 active torsions:
REMARK  status: ('A' for Active; 'I' for Inactive)
REMARK    1  A    between atoms: C2_2  and  N1_3 
REMARK    2  A    between atoms: C2_2  and  C15_26 
REMARK       I    between atoms: N1_3  and  C3_5 
REMARK    3  A    between atoms: C3_5  and  C4_7 
REMARK    4  A    between atoms: C4_7  and  C5_8 
REMARK    5  A    between atoms: C4_7  and  N4_16 
REMARK    6  A    between atoms: C5_8  and  C6_9 
REMARK       I    between atoms: N4_16  and  C9_18 
REMARK    7  A    between atoms: C9_18  and  O3_20 
REMARK    8  A    between atoms: O3_20  and  C10_21 
REMARK       I    between atoms: C15_26  and  N5_28 
REMARK    9  A    between atoms: N5_28  and  C16_30 
ROOT
HETATM    1  C4  UNL     1       4.884  61.240  22.093  1.00  0.00     0.087 C 
ENDROOT
BRANCH   1   2
HETATM    2  C3  UNL     1       4.951  59.802  22.346  1.00  0.00     0.265 C 
HETATM    3  N1  UNL     1       4.654  59.129  23.536  1.00  0.00    -0.343 N 
ATOM      4  H1  UNL     1       4.346  59.669  24.345  1.00  0.00     0.163 HD
HETATM    5  O1  UNL     1       5.321  59.067  21.359  1.00  0.00    -0.266 OA
BRANCH   3   6
HETATM    6  C2  UNL     1       4.768  57.696  23.659  1.00  0.00     0.172 C 
HETATM    7  C1  UNL     1       4.913  57.254  25.108  1.00  0.00     0.042 C 
BRANCH   6   8
HETATM    8  C15 UNL     1       3.587  57.007  23.086  1.00  0.00     0.240 C 
HETATM    9  O4  UNL     1       2.508  56.979  23.715  1.00  0.00    -0.271 OA
HETATM   10  N5  UNL     1       3.660  56.370  21.821  1.00  0.00    -0.355 N 
ATOM     11  H5  UNL     1       4.535  56.385  21.297  1.00  0.00     0.162 HD
BRANCH  10  12
HETATM   12  C16 UNL     1       2.487  55.689  21.263  1.00  0.00     0.084 C 
HETATM   13  C17 UNL     1       2.387  54.268  21.721  1.00  0.00     0.025 C 
HETATM   14  C18 UNL     1       2.405  53.283  20.590  1.00  0.00     0.002 C 
HETATM   15  C19 UNL     1       1.452  53.600  19.486  1.00  0.00     0.000 C 
HETATM   16  C20 UNL     1       1.341  55.080  19.194  1.00  0.00     0.002 C 
HETATM   17  C21 UNL     1       2.587  55.753  19.732  1.00  0.00     0.025 C 
ENDBRANCH  10  12
ENDBRANCH   6   8
ENDBRANCH   3   6
ENDBRANCH   1   2
BRANCH   1  18
HETATM   18  C5  UNL     1       3.648  61.928  22.544  1.00  0.00     0.121 C 
BRANCH  18  19
HETATM   19  C6  UNL     1       3.751  62.635  23.833  1.00  0.00     0.031 A 
HETATM   20  C7  UNL     1       4.763  62.462  24.748  1.00  0.00     0.114 A 
HETATM   21  N2  UNL     1       4.483  63.255  25.801  1.00  0.00    -0.360 N 
HETATM   22  C8  UNL     1       3.339  63.915  25.578  1.00  0.00     0.180 A 
ATOM     23  H2  UNL     1       5.056  63.340  26.641  1.00  0.00     0.166 HD
HETATM   24  N3  UNL     1       2.904  63.523  24.370  1.00  0.00    -0.354 N 
ATOM     25  H3  UNL     1       2.049  63.855  23.923  1.00  0.00     0.166 HD
ENDBRANCH  18  19
ENDBRANCH   1  18
BRANCH   1  26
HETATM   26  N4  UNL     1       5.370  61.653  20.803  1.00  0.00    -0.301 N 
HETATM   27  C9  UNL     1       6.598  62.320  20.660  1.00  0.00     0.365 C 
HETATM   28  O2  UNL     1       7.341  62.595  21.649  1.00  0.00    -0.238 OA
ATOM     29  H4  UNL     1       4.810  61.457  19.974  1.00  0.00     0.171 HD
BRANCH  27  30
HETATM   30  O3  UNL     1       7.095  62.732  19.418  1.00  0.00    -0.298 OA
BRANCH  30  31
HETATM   31  C10 UNL     1       8.186  62.041  18.796  1.00  0.00     0.133 C 
HETATM   32  C11 UNL     1       7.665  60.661  18.466  1.00  0.00     0.032 C 
HETATM   33  C12 UNL     1       8.082  60.336  17.063  1.00  0.00     0.002 C 
HETATM   34  C13 UNL     1       9.028  61.451  16.675  1.00  0.00     0.002 C 
HETATM   35  C14 UNL     1       8.584  62.653  17.496  1.00  0.00     0.032 C 
ENDBRANCH  30  31
ENDBRANCH  27  30
ENDBRANCH   1  26
TORSDOF 9
ENDMDL
MODEL 3
REMARK VINA RESULT: -7.798279787      2.722      4.409
REMARK  9 active torsions:
REMARK  status: ('A' for Active; 'I' for Inactive)
REMARK    1  A    between atoms: C2_2  and  N1_3 
REMARK    2  A    between atoms: C2_2  and  C15_26 
REMARK       I    between atoms: N1_3  and  C3_5 
REMARK    3  A    between atoms: C3_5  and  C4_7 
REMARK    4  A    between atoms: C4_7  and  C5_8 
REMARK    5  A    between atoms: C4_7  and  N4_16 
REMARK    6  A    between atoms: C5_8  and  C6_9 
REMARK       I    between atoms: N4_16  and  C9_18 
REMARK    7  A    between atoms: C9_18  and  O3_20 
REMARK    8  A    between atoms: O3_20  and  C10_21 
REMARK       I    between atoms: C15_26  and  N5_28 
REMARK    9  A    between atoms: N5_28  and  C16_30 
ROOT
HETATM    1  C4  UNL     1       4.700  61.859  21.723  1.00  0.00     0.087 C 
ENDROOT
BRANCH   1   2
HETATM    2  C3  UNL     1       4.046  60.552  21.707  1.00  0.00     0.265 C 
HETATM    3  N1  UNL     1       4.481  59.386  21.070  1.00  0.00    -0.343 N 
ATOM      4  H1  UNL     1       5.357  59.407  20.547  1.00  0.00     0.163 HD
HETATM    5  O1  UNL     1       2.942  60.460  22.360  1.00  0.00    -0.266 OA
BRANCH   3   6
HETATM    6  C2  UNL     1       3.733  58.153  21.125  1.00  0.00     0.172 C 
HETATM    7  C1  UNL     1       3.933  57.303  19.879  1.00  0.00     0.042 C 
BRANCH   6   8
HETATM    8  C15 UNL     1       4.119  57.338  22.302  1.00  0.00     0.240 C 
HETATM    9  O4  UNL     1       4.138  56.092  22.225  1.00  0.00    -0.271 OA
HETATM   10  N5  UNL     1       4.470  57.954  23.529  1.00  0.00    -0.355 N 
ATOM     11  H5  UNL     1       4.459  58.971  23.606  1.00  0.00     0.162 HD
BRANCH  10  12
HETATM   12  C16 UNL     1       4.849  57.140  24.689  1.00  0.00     0.084 C 
HETATM   13  C17 UNL     1       3.695  56.896  25.609  1.00  0.00     0.025 C 
HETATM   14  C18 UNL     1       3.932  57.410  26.999  1.00  0.00     0.002 C 
HETATM   15  C19 UNL     1       5.239  56.996  27.590  1.00  0.00     0.000 C 
HETATM   16  C20 UNL     1       6.373  56.978  26.590  1.00  0.00     0.002 C 
HETATM   17  C21 UNL     1       5.981  57.867  25.428  1.00  0.00     0.025 C 
ENDBRANCH  10  12
ENDBRANCH   6   8
ENDBRANCH   3   6
ENDBRANCH   1   2
BRANCH   1  18
HETATM   18  C5  UNL     1       3.950  62.958  22.382  1.00  0.00     0.121 C 
BRANCH  18  19
HETATM   19  C6  UNL     1       3.967  62.944  23.855  1.00  0.00     0.031 A 
HETATM   20  C7  UNL     1       2.948  63.399  24.659  1.00  0.00     0.114 A 
HETATM   21  N2  UNL     1       3.354  63.247  25.935  1.00  0.00    -0.360 N 
HETATM   22  C8  UNL     1       4.583  62.716  25.958  1.00  0.00     0.180 A 
ATOM     23  H2  UNL     1       2.808  63.500  26.759  1.00  0.00     0.166 HD
HETATM   24  N3  UNL     1       4.943  62.537  24.677  1.00  0.00    -0.354 N 
ATOM     25  H3  UNL     1       5.835  62.147  24.372  1.00  0.00     0.166 HD
ENDBRANCH  18  19
ENDBRANCH   1  18
BRANCH   1  26
HETATM   26  N4  UNL     1       5.357  62.225  20.497  1.00  0.00    -0.301 N 
HETATM   27  C9  UNL     1       6.711  62.598  20.472  1.00  0.00     0.365 C 
HETATM   28  O2  UNL     1       7.425  62.634  21.518  1.00  0.00    -0.238 OA
ATOM     29  H4  UNL     1       4.828  62.213  19.625  1.00  0.00     0.171 HD
BRANCH  27  30
HETATM   30  O3  UNL     1       7.376  62.958  19.293  1.00  0.00    -0.298 OA
BRANCH  30  31
HETATM   31  C10 UNL     1       8.357  62.091  18.709  1.00  0.00     0.133 C 
HETATM   32  C11 UNL     1       7.674  60.753  18.534  1.00  0.00     0.032 C 
HETATM   33  C12 UNL     1       7.992  60.252  17.158  1.00  0.00     0.002 C 
HETATM   34  C13 UNL     1       9.036  61.211  16.631  1.00  0.00     0.002 C 
HETATM   35  C14 UNL     1       8.762  62.528  17.342  1.00  0.00     0.032 C 
ENDBRANCH  30  31
ENDBRANCH  27  30
ENDBRANCH   1  26
TORSDOF 9
ENDMDL
MODEL 4
REMARK VINA RESULT: -7.628652777      2.146      7.441
REMARK  9 active torsions:
REMARK  status: ('A' for Active; 'I' for Inactive)
REMARK    1  A    between atoms: C2_2  and  N1_3 
REMARK    2  A    between atoms: C2_2  and  C15_26 
REMARK       I    between atoms: N1_3  and  C3_5 
REMARK    3  A    between atoms: C3_5  and  C4_7 
REMARK    4  A    between atoms: C4_7  and  C5_8 
REMARK    5  A    between atoms: C4_7  and  N4_16 
REMARK    6  A    between atoms: C5_8  and  C6_9 
REMARK       I    between atoms: N4_16  and  C9_18 
REMARK    7  A    between atoms: C9_18  and  O3_20 
REMARK    8  A    between atoms: O3_20  and  C10_21 
REMARK       I    between atoms: C15_26  and  N5_28 
REMARK    9  A    between atoms: N5_28  and  C16_30 
ROOT
HETATM    1  C4  UNL     1       3.704  57.162  21.955  1.00  0.00     0.087 C 
ENDROOT
BRANCH   1   2
HETATM    2  C3  UNL     1       3.950  57.137  23.396  1.00  0.00     0.265 C 
HETATM    3  N1  UNL     1       5.033  57.688  24.088  1.00  0.00    -0.343 N 
ATOM      4  H1  UNL     1       5.756  58.179  23.562  1.00  0.00     0.163 HD
HETATM    5  O1  UNL     1       3.065  56.542  24.114  1.00  0.00    -0.266 OA
BRANCH   3   6
HETATM    6  C2  UNL     1       5.162  57.588  25.521  1.00  0.00     0.172 C 
HETATM    7  C1  UNL     1       6.584  57.249  25.947  1.00  0.00     0.042 C 
BRANCH   6   8
HETATM    8  C15 UNL     1       4.773  58.852  26.191  1.00  0.00     0.240 C 
HETATM    9  O4  UNL     1       4.966  59.000  27.416  1.00  0.00    -0.271 OA
HETATM   10  N5  UNL     1       4.177  59.909  25.458  1.00  0.00    -0.355 N 
ATOM     11  H5  UNL     1       4.015  59.801  24.457  1.00  0.00     0.162 HD
BRANCH  10  12
HETATM   12  C16 UNL     1       3.794  61.155  26.129  1.00  0.00     0.084 C 
HETATM   13  C17 UNL     1       2.519  61.720  25.586  1.00  0.00     0.025 C 
HETATM   14  C18 UNL     1       2.681  63.101  25.023  1.00  0.00     0.002 C 
HETATM   15  C19 UNL     1       3.393  64.052  25.927  1.00  0.00     0.000 C 
HETATM   16  C20 UNL     1       4.529  63.414  26.695  1.00  0.00     0.002 C 
HETATM   17  C21 UNL     1       4.942  62.159  25.955  1.00  0.00     0.025 C 
ENDBRANCH  10  12
ENDBRANCH   6   8
ENDBRANCH   3   6
ENDBRANCH   1   2
BRANCH   1  18
HETATM   18  C5  UNL     1       3.816  55.860  21.250  1.00  0.00     0.121 C 
BRANCH  18  19
HETATM   19  C6  UNL     1       2.853  55.647  20.155  1.00  0.00     0.031 A 
HETATM   20  C7  UNL     1       2.989  56.144  18.879  1.00  0.00     0.114 A 
HETATM   21  N2  UNL     1       1.896  55.763  18.189  1.00  0.00    -0.360 N 
HETATM   22  C8  UNL     1       1.086  55.050  18.982  1.00  0.00     0.180 A 
ATOM     23  H2  UNL     1       1.713  55.985  17.210  1.00  0.00     0.166 HD
HETATM   24  N3  UNL     1       1.687  54.989  20.182  1.00  0.00    -0.354 N 
ATOM     25  H3  UNL     1       1.309  54.510  20.999  1.00  0.00     0.166 HD
ENDBRANCH  18  19
ENDBRANCH   1  18
BRANCH   1  26
HETATM   26  N4  UNL     1       4.283  58.279  21.259  1.00  0.00    -0.301 N 
HETATM   27  C9  UNL     1       4.003  59.604  21.635  1.00  0.00     0.365 C 
HETATM   28  O2  UNL     1       3.232  59.888  22.600  1.00  0.00    -0.238 OA
ATOM     29  H4  UNL     1       4.911  58.107  20.474  1.00  0.00     0.171 HD
BRANCH  27  30
HETATM   30  O3  UNL     1       4.553  60.710  20.976  1.00  0.00    -0.298 OA
BRANCH  30  31
HETATM   31  C10 UNL     1       5.915  61.096  21.199  1.00  0.00     0.133 C 
HETATM   32  C11 UNL     1       6.737  60.301  20.210  1.00  0.00     0.032 C 
HETATM   33  C12 UNL     1       7.715  61.237  19.568  1.00  0.00     0.002 C 
HETATM   34  C13 UNL     1       7.590  62.523  20.355  1.00  0.00     0.002 C 
HETATM   35  C14 UNL     1       6.162  62.531  20.879  1.00  0.00     0.032 C 
ENDBRANCH  30  31
ENDBRANCH  27  30
ENDBRANCH   1  26
TORSDOF 9
ENDMDL
MODEL 5
REMARK VINA RESULT: -7.617623057      3.552      9.158
REMARK  9 active torsions:
REMARK  status: ('A' for Active; 'I' for Inactive)
REMARK    1  A    between atoms: C2_2  and  N1_3 
REMARK    2  A    between atoms: C2_2  and  C15_26 
REMARK       I    between atoms: N1_3  and  C3_5 
REMARK    3  A    between atoms: C3_5  and  C4_7 
REMARK    4  A    between atoms: C4_7  and  C5_8 
REMARK    5  A    between atoms: C4_7  and  N4_16 
REMARK    6  A    between atoms: C5_8  and  C6_9 
REMARK       I    between atoms: N4_16  and  C9_18 
REMARK    7  A    between atoms: C9_18  and  O3_20 
REMARK    8  A    between atoms: O3_20  and  C10_21 
REMARK       I    between atoms: C15_26  and  N5_28 
REMARK    9  A    between atoms: N5_28  and  C16_30 
ROOT
HETATM    1  C4  UNL     1       3.990  61.463  23.977  1.00  0.00     0.087 C 
ENDROOT
BRANCH   1   2
HETATM    2  C3  UNL     1       4.084  61.831  25.388  1.00  0.00     0.265 C 
HETATM    3  N1  UNL     1       4.879  62.829  25.960  1.00  0.00    -0.343 N 
ATOM      4  H1  UNL     1       5.476  63.393  25.353  1.00  0.00     0.163 HD
HETATM    5  O1  UNL     1       3.345  61.163  26.201  1.00  0.00    -0.266 OA
BRANCH   3   6
HETATM    6  C2  UNL     1       4.886  63.089  27.379  1.00  0.00     0.172 C 
HETATM    7  C1  UNL     1       6.240  62.797  28.010  1.00  0.00     0.042 C 
BRANCH   6   8
HETATM    8  C15 UNL     1       4.539  64.501  27.673  1.00  0.00     0.240 C 
HETATM    9  O4  UNL     1       4.574  64.925  28.847  1.00  0.00    -0.271 OA
HETATM   10  N5  UNL     1       4.162  65.388  26.634  1.00  0.00    -0.355 N 
ATOM     11  H5  UNL     1       4.129  65.054  25.671  1.00  0.00     0.162 HD
BRANCH  10  12
HETATM   12  C16 UNL     1       3.819  66.782  26.934  1.00  0.00     0.084 C 
HETATM   13  C17 UNL     1       2.470  67.157  26.407  1.00  0.00     0.025 C 
HETATM   14  C18 UNL     1       2.515  68.298  25.433  1.00  0.00     0.002 C 
HETATM   15  C19 UNL     1       3.297  69.477  25.908  1.00  0.00     0.000 C 
HETATM   16  C20 UNL     1       4.538  69.103  26.686  1.00  0.00     0.002 C 
HETATM   17  C21 UNL     1       4.903  67.679  26.320  1.00  0.00     0.025 C 
ENDBRANCH  10  12
ENDBRANCH   6   8
ENDBRANCH   3   6
ENDBRANCH   1   2
BRANCH   1  18
HETATM   18  C5  UNL     1       3.127  60.297  23.660  1.00  0.00     0.121 C 
BRANCH  18  19
HETATM   19  C6  UNL     1       3.655  59.375  22.640  1.00  0.00     0.031 A 
HETATM   20  C7  UNL     1       4.250  58.163  22.906  1.00  0.00     0.114 A 
HETATM   21  N2  UNL     1       4.625  57.640  21.722  1.00  0.00    -0.360 N 
HETATM   22  C8  UNL     1       4.289  58.475  20.732  1.00  0.00     0.180 A 
ATOM     23  H2  UNL     1       5.096  56.742  21.600  1.00  0.00     0.166 HD
HETATM   24  N3  UNL     1       3.697  59.532  21.311  1.00  0.00    -0.354 N 
ATOM     25  H3  UNL     1       3.330  60.341  20.809  1.00  0.00     0.166 HD
ENDBRANCH  18  19
ENDBRANCH   1  18
BRANCH   1  26
HETATM   26  N4  UNL     1       5.232  61.511  23.252  1.00  0.00    -0.301 N 
HETATM   27  C9  UNL     1       5.430  62.413  22.192  1.00  0.00     0.365 C 
HETATM   28  O2  UNL     1       4.534  63.227  21.817  1.00  0.00    -0.238 OA
ATOM     29  H4  UNL     1       5.986  60.876  23.513  1.00  0.00     0.171 HD
BRANCH  27  30
HETATM   30  O3  UNL     1       6.628  62.481  21.471  1.00  0.00    -0.298 OA
BRANCH  30  31
HETATM   31  C10 UNL     1       6.663  62.168  20.073  1.00  0.00     0.133 C 
HETATM   32  C11 UNL     1       7.683  63.104  19.466  1.00  0.00     0.032 C 
HETATM   33  C12 UNL     1       8.564  62.299  18.560  1.00  0.00     0.002 C 
HETATM   34  C13 UNL     1       7.903  60.940  18.489  1.00  0.00     0.002 C 
HETATM   35  C14 UNL     1       7.163  60.788  19.809  1.00  0.00     0.032 C 
ENDBRANCH  30  31
ENDBRANCH  27  30
ENDBRANCH   1  26
TORSDOF 9
ENDMDL
