MODEL 1
REMARK VINA RESULT: -7.420493819      0.000      0.000
REMARK  16 active torsions:
REMARK  status: ('A' for Active; 'I' for Inactive)
REMARK    1  A    between atoms: N1_1  and  C1_4 
REMARK    2  A    between atoms: C2_7  and  N3_8 
REMARK    3  A    between atoms: N3_8  and  C3_10 
REMARK    4  A    between atoms: C3_10  and  C4_11 
REMARK    5  A    between atoms: C5_15  and  N5_16 
REMARK    6  A    between atoms: N5_16  and  C6_18 
REMARK    7  A    between atoms: C6_18  and  C7_19 
REMARK    8  A    between atoms: C7_19  and  C8_20 
REMARK       I    between atoms: C8_20  and  N6_22 
REMARK    9  A    between atoms: N6_22  and  C9_24 
REMARK   10  A    between atoms: C9_24  and  C10_25 
REMARK   11  A    between atoms: C10_25  and  C11_26 
REMARK   12  A    between atoms: C11_26  and  C12_27 
REMARK   13  A    between atoms: C12_27  and  C13_28 
REMARK   14  A    between atoms: C13_28  and  C14_29 
REMARK   15  A    between atoms: C14_29  and  C15_30 
REMARK   16  A    between atoms: C15_30  and  N7_31 
ROOT
HETATM    1  N5  UNL     1       2.196  20.626  -5.472  1.00  0.00    -0.225 N 
ATOM      2  H5  UNL     1       3.159  20.759  -5.783  1.00  0.00     0.177 HD
ENDROOT
BRANCH   1   3
HETATM    3  C5  UNL     1       1.505  19.607  -5.859  1.00  0.00     0.707 A 
HETATM    4  N4  UNL     1       0.250  19.717  -6.335  1.00  0.00    -0.022 N 
HETATM    5  C2  UNL     1      -0.470  18.653  -6.738  1.00  0.00     0.707 A 
ATOM      6  H4  UNL     1      -0.172  20.644  -6.393  1.00  0.00     0.203 HD
HETATM    7  N2  UNL     1       0.054  17.415  -6.678  1.00  0.00    -0.022 N 
HETATM    8  C1  UNL     1       1.306  17.289  -6.204  1.00  0.00     0.705 A 
ATOM      9  H2  UNL     1      -0.481  16.601  -6.981  1.00  0.00     0.203 HD
HETATM   10  N10 UNL     1       2.022  18.360  -5.802  1.00  0.00    -0.022 N 
ATOM     11  H10 UNL     1       2.970  18.225  -5.450  1.00  0.00     0.203 HD
BRANCH   5  12
HETATM   12  N3  UNL     1      -1.654  18.860  -7.174  1.00  0.00    -0.219 N 
ATOM     13  H3  UNL     1      -1.792  18.759  -8.181  1.00  0.00     0.178 HD
BRANCH  12  14
HETATM   14  C3  UNL     1      -2.799  19.214  -6.409  1.00  0.00     0.207 C 
BRANCH  14  15
HETATM   15  C4  UNL     1      -3.686  20.079  -7.224  1.00  0.00     0.251 C 
HETATM   16  O1  UNL     1      -4.534  20.810  -6.735  1.00  0.00    -0.305 OA
ENDBRANCH  14  15
ENDBRANCH  12  14
ENDBRANCH   5  12
BRANCH   8  17
HETATM   17  N1  UNL     1       1.845  16.100  -6.133  1.00  0.00    -0.234 N 
ATOM     18  H12 UNL     1       1.417  15.396  -5.531  1.00  0.00     0.174 HD
ATOM     19  H11 UNL     1       2.682  15.899  -6.679  1.00  0.00     0.174 HD
ENDBRANCH   8  17
ENDBRANCH   1   3
BRANCH   1  20
HETATM   20  C6  UNL     1       1.554  21.580  -4.577  1.00  0.00     0.147 C 
BRANCH  20  21
HETATM   21  C7  UNL     1       1.522  22.962  -5.167  1.00  0.00     0.123 C 
BRANCH  21  22
HETATM   22  C8  UNL     1       0.161  23.421  -5.488  1.00  0.00     0.219 C 
HETATM   23  O2  UNL     1      -0.620  23.752  -4.574  1.00  0.00    -0.274 OA
HETATM   24  N6  UNL     1      -0.267  23.489  -6.829  1.00  0.00    -0.361 N 
ATOM     25  H6  UNL     1       0.376  23.218  -7.572  1.00  0.00     0.162 HD
BRANCH  24  26
HETATM   26  C9  UNL     1      -1.608  23.940  -7.174  1.00  0.00     0.122 C 
BRANCH  26  27
HETATM   27  C10 UNL     1      -1.724  25.449  -7.143  1.00  0.00     0.020 C 
BRANCH  27  28
HETATM   28  C11 UNL     1      -0.615  26.118  -7.916  1.00  0.00     0.002 C 
BRANCH  28  29
HETATM   29  C12 UNL     1       0.146  27.060  -7.039  1.00  0.00     0.000 C 
BRANCH  29  30
HETATM   30  C13 UNL     1       0.904  28.105  -7.797  1.00  0.00     0.002 C 
BRANCH  30  31
HETATM   31  C14 UNL     1       0.157  28.542  -9.051  1.00  0.00     0.020 C 
BRANCH  31  32
HETATM   32  C15 UNL     1       0.105  30.065  -8.996  1.00  0.00     0.122 C 
BRANCH  32  33
HETATM   33  N7  UNL     1      -1.195  30.514  -8.579  1.00  0.00    -0.367 N 
HETATM   34  C16 UNL     1      -1.483  30.904  -7.383  1.00  0.00     0.196 C 
HETATM   35  N8  UNL     1      -2.807  31.317  -7.126  1.00  0.00    -0.067 NA
HETATM   36  N9  UNL     1      -0.543  30.938  -6.329  1.00  0.00    -0.067 NA
ATOM     37  H7  UNL     1      -1.940  30.525  -9.275  1.00  0.00     0.161 HD
ENDBRANCH  32  33
ENDBRANCH  31  32
ENDBRANCH  30  31
ENDBRANCH  29  30
ENDBRANCH  28  29
ENDBRANCH  27  28
ENDBRANCH  26  27
ENDBRANCH  24  26
ENDBRANCH  21  22
ENDBRANCH  20  21
ENDBRANCH   1  20
TORSDOF 16
ENDMDL
MODEL 2
REMARK VINA RESULT: -7.262575586      2.150      3.358
REMARK  16 active torsions:
REMARK  status: ('A' for Active; 'I' for Inactive)
REMARK    1  A    between atoms: N1_1  and  C1_4 
REMARK    2  A    between atoms: C2_7  and  N3_8 
REMARK    3  A    between atoms: N3_8  and  C3_10 
REMARK    4  A    between atoms: C3_10  and  C4_11 
REMARK    5  A    between atoms: C5_15  and  N5_16 
REMARK    6  A    between atoms: N5_16  and  C6_18 
REMARK    7  A    between atoms: C6_18  and  C7_19 
REMARK    8  A    between atoms: C7_19  and  C8_20 
REMARK       I    between atoms: C8_20  and  N6_22 
REMARK    9  A    between atoms: N6_22  and  C9_24 
REMARK   10  A    between atoms: C9_24  and  C10_25 
REMARK   11  A    between atoms: C10_25  and  C11_26 
REMARK   12  A    between atoms: C11_26  and  C12_27 
REMARK   13  A    between atoms: C12_27  and  C13_28 
REMARK   14  A    between atoms: C13_28  and  C14_29 
REMARK   15  A    between atoms: C14_29  and  C15_30 
REMARK   16  A    between atoms: C15_30  and  N7_31 
ROOT
HETATM    1  N5  UNL     1       0.778  20.623  -5.730  1.00  0.00    -0.225 N 
ATOM      2  H5  UNL     1       0.025  21.016  -6.295  1.00  0.00     0.177 HD
ENDROOT
BRANCH   1   3
HETATM    3  C5  UNL     1       1.161  19.400  -5.884  1.00  0.00     0.707 A 
HETATM    4  N4  UNL     1       1.968  18.774  -5.006  1.00  0.00    -0.022 N 
HETATM    5  C2  UNL     1       2.366  17.498  -5.169  1.00  0.00     0.707 A 
ATOM      6  H4  UNL     1       2.289  19.287  -4.185  1.00  0.00     0.203 HD
HETATM    7  N2  UNL     1       1.961  16.790  -6.238  1.00  0.00    -0.022 N 
HETATM    8  C1  UNL     1       1.155  17.402  -7.124  1.00  0.00     0.705 A 
ATOM      9  H2  UNL     1       2.255  15.822  -6.373  1.00  0.00     0.203 HD
HETATM   10  N10 UNL     1       0.759  18.680  -6.955  1.00  0.00    -0.022 N 
ATOM     11  H10 UNL     1       0.146  19.111  -7.648  1.00  0.00     0.203 HD
BRANCH   5  12
HETATM   12  N3  UNL     1       3.133  16.991  -4.280  1.00  0.00    -0.219 N 
ATOM     13  H3  UNL     1       3.605  17.648  -3.658  1.00  0.00     0.178 HD
BRANCH  12  14
HETATM   14  C3  UNL     1       3.401  15.611  -4.067  1.00  0.00     0.207 C 
BRANCH  14  15
HETATM   15  C4  UNL     1       2.839  15.198  -2.758  1.00  0.00     0.251 C 
HETATM   16  O1  UNL     1       2.794  15.942  -1.790  1.00  0.00    -0.305 OA
ENDBRANCH  14  15
ENDBRANCH  12  14
ENDBRANCH   5  12
BRANCH   8  17
HETATM   17  N1  UNL     1       0.743  16.742  -8.174  1.00  0.00    -0.234 N 
ATOM     18  H12 UNL     1       1.395  16.568  -8.940  1.00  0.00     0.174 HD
ATOM     19  H11 UNL     1      -0.222  16.413  -8.209  1.00  0.00     0.174 HD
ENDBRANCH   8  17
ENDBRANCH   1   3
BRANCH   1  20
HETATM   20  C6  UNL     1       1.460  21.424  -4.721  1.00  0.00     0.147 C 
BRANCH  20  21
HETATM   21  C7  UNL     1       1.532  22.873  -5.115  1.00  0.00     0.123 C 
BRANCH  21  22
HETATM   22  C8  UNL     1       0.216  23.453  -5.423  1.00  0.00     0.219 C 
HETATM   23  O2  UNL     1      -0.551  23.791  -4.500  1.00  0.00    -0.274 OA
HETATM   24  N6  UNL     1      -0.185  23.632  -6.762  1.00  0.00    -0.361 N 
ATOM     25  H6  UNL     1       0.446  23.355  -7.513  1.00  0.00     0.162 HD
BRANCH  24  26
HETATM   26  C9  UNL     1      -1.483  24.204  -7.094  1.00  0.00     0.122 C 
BRANCH  26  27
HETATM   27  C10 UNL     1      -1.352  25.422  -7.984  1.00  0.00     0.020 C 
BRANCH  27  28
HETATM   28  C11 UNL     1      -0.978  26.657  -7.203  1.00  0.00     0.002 C 
BRANCH  28  29
HETATM   29  C12 UNL     1       0.499  26.885  -7.250  1.00  0.00     0.000 C 
BRANCH  29  30
HETATM   30  C13 UNL     1       0.880  28.256  -7.715  1.00  0.00     0.002 C 
BRANCH  30  31
HETATM   31  C14 UNL     1       0.166  28.628  -9.009  1.00  0.00     0.020 C 
BRANCH  31  32
HETATM   32  C15 UNL     1       0.072  30.150  -9.010  1.00  0.00     0.122 C 
BRANCH  32  33
HETATM   33  N7  UNL     1      -1.226  30.579  -8.565  1.00  0.00    -0.367 N 
HETATM   34  C16 UNL     1      -1.497  30.949  -7.359  1.00  0.00     0.196 C 
HETATM   35  N8  UNL     1      -2.821  31.343  -7.074  1.00  0.00    -0.067 NA
HETATM   36  N9  UNL     1      -0.540  30.977  -6.320  1.00  0.00    -0.067 NA
ATOM     37  H7  UNL     1      -1.983  30.592  -9.248  1.00  0.00     0.161 HD
ENDBRANCH  32  33
ENDBRANCH  31  32
ENDBRANCH  30  31
ENDBRANCH  29  30
ENDBRANCH  28  29
ENDBRANCH  27  28
ENDBRANCH  26  27
ENDBRANCH  24  26
ENDBRANCH  21  22
ENDBRANCH  20  21
ENDBRANCH   1  20
TORSDOF 16
ENDMDL
MODEL 3
REMARK VINA RESULT: -7.161656267      2.143      2.816
REMARK  16 active torsions:
REMARK  status: ('A' for Active; 'I' for Inactive)
REMARK    1  A    between atoms: N1_1  and  C1_4 
REMARK    2  A    between atoms: C2_7  and  N3_8 
REMARK    3  A    between atoms: N3_8  and  C3_10 
REMARK    4  A    between atoms: C3_10  and  C4_11 
REMARK    5  A    between atoms: C5_15  and  N5_16 
REMARK    6  A    between atoms: N5_16  and  C6_18 
REMARK    7  A    between atoms: C6_18  and  C7_19 
REMARK    8  A    between atoms: C7_19  and  C8_20 
REMARK       I    between atoms: C8_20  and  N6_22 
REMARK    9  A    between atoms: N6_22  and  C9_24 
REMARK   10  A    between atoms: C9_24  and  C10_25 
REMARK   11  A    between atoms: C10_25  and  C11_26 
REMARK   12  A    between atoms: C11_26  and  C12_27 
REMARK   13  A    between atoms: C12_27  and  C13_28 
REMARK   14  A    between atoms: C13_28  and  C14_29 
REMARK   15  A    between atoms: C14_29  and  C15_30 
REMARK   16  A    between atoms: C15_30  and  N7_31 
ROOT
HETATM    1  N5  UNL     1       2.011  20.441  -5.340  1.00  0.00    -0.225 N 
ATOM      2  H5  UNL     1       3.004  20.378  -5.567  1.00  0.00     0.177 HD
ENDROOT
BRANCH   1   3
HETATM    3  C5  UNL     1       1.164  19.582  -5.801  1.00  0.00     0.707 A 
HETATM    4  N4  UNL     1       1.509  18.618  -6.675  1.00  0.00    -0.022 N 
HETATM    5  C2  UNL     1       0.625  17.723  -7.154  1.00  0.00     0.707 A 
ATOM      6  H4  UNL     1       2.479  18.563  -6.985  1.00  0.00     0.203 HD
HETATM    7  N2  UNL     1      -0.663  17.763  -6.765  1.00  0.00    -0.022 N 
HETATM    8  C1  UNL     1      -1.022  18.721  -5.892  1.00  0.00     0.705 A 
ATOM      9  H2  UNL     1      -1.343  17.090  -7.120  1.00  0.00     0.203 HD
HETATM   10  N10 UNL     1      -0.130  19.615  -5.416  1.00  0.00    -0.022 N 
ATOM     11  H10 UNL     1      -0.440  20.327  -4.754  1.00  0.00     0.203 HD
BRANCH   5  12
HETATM   12  N3  UNL     1       1.048  16.844  -7.981  1.00  0.00    -0.219 N 
ATOM     13  H3  UNL     1       1.860  16.299  -7.690  1.00  0.00     0.178 HD
BRANCH  12  14
HETATM   14  C3  UNL     1       0.509  16.545  -9.262  1.00  0.00     0.207 C 
BRANCH  14  15
HETATM   15  C4  UNL     1       1.611  16.462 -10.252  1.00  0.00     0.251 C 
HETATM   16  O1  UNL     1       2.318  15.474 -10.377  1.00  0.00    -0.305 OA
ENDBRANCH  14  15
ENDBRANCH  12  14
ENDBRANCH   5  12
BRANCH   8  17
HETATM   17  N1  UNL     1      -2.265  18.788  -5.494  1.00  0.00    -0.234 N 
ATOM     18  H12 UNL     1      -3.006  18.883  -6.190  1.00  0.00     0.174 HD
ATOM     19  H11 UNL     1      -2.472  18.746  -4.496  1.00  0.00     0.174 HD
ENDBRANCH   8  17
ENDBRANCH   1   3
BRANCH   1  20
HETATM   20  C6  UNL     1       1.500  21.504  -4.485  1.00  0.00     0.147 C 
BRANCH  20  21
HETATM   21  C7  UNL     1       1.509  22.835  -5.184  1.00  0.00     0.123 C 
BRANCH  21  22
HETATM   22  C8  UNL     1       0.159  23.345  -5.471  1.00  0.00     0.219 C 
HETATM   23  O2  UNL     1      -0.562  23.765  -4.544  1.00  0.00    -0.274 OA
HETATM   24  N6  UNL     1      -0.326  23.362  -6.793  1.00  0.00    -0.361 N 
ATOM     25  H6  UNL     1       0.267  23.019  -7.548  1.00  0.00     0.162 HD
BRANCH  24  26
HETATM   26  C9  UNL     1      -1.659  23.862  -7.105  1.00  0.00     0.122 C 
BRANCH  26  27
HETATM   27  C10 UNL     1      -1.656  25.352  -7.373  1.00  0.00     0.020 C 
BRANCH  27  28
HETATM   28  C11 UNL     1      -0.281  25.861  -7.728  1.00  0.00     0.002 C 
BRANCH  28  29
HETATM   29  C12 UNL     1      -0.023  27.182  -7.077  1.00  0.00     0.000 C 
BRANCH  29  30
HETATM   30  C13 UNL     1       0.887  28.071  -7.866  1.00  0.00     0.002 C 
BRANCH  30  31
HETATM   31  C14 UNL     1       0.218  28.571  -9.140  1.00  0.00     0.020 C 
BRANCH  31  32
HETATM   32  C15 UNL     1       0.147  30.089  -9.007  1.00  0.00     0.122 C 
BRANCH  32  33
HETATM   33  N7  UNL     1      -1.166  30.501  -8.592  1.00  0.00    -0.367 N 
HETATM   34  C16 UNL     1      -1.467  30.879  -7.395  1.00  0.00     0.196 C 
HETATM   35  N8  UNL     1      -2.802  31.256  -7.140  1.00  0.00    -0.067 NA
HETATM   36  N9  UNL     1      -0.531  30.934  -6.338  1.00  0.00    -0.067 NA
ATOM     37  H7  UNL     1      -1.909  30.495  -9.290  1.00  0.00     0.161 HD
ENDBRANCH  32  33
ENDBRANCH  31  32
ENDBRANCH  30  31
ENDBRANCH  29  30
ENDBRANCH  28  29
ENDBRANCH  27  28
ENDBRANCH  26  27
ENDBRANCH  24  26
ENDBRANCH  21  22
ENDBRANCH  20  21
ENDBRANCH   1  20
TORSDOF 16
ENDMDL
MODEL 4
REMARK VINA RESULT: -7.144560734      2.667      3.530
REMARK  16 active torsions:
REMARK  status: ('A' for Active; 'I' for Inactive)
REMARK    1  A    between atoms: N1_1  and  C1_4 
REMARK    2  A    between atoms: C2_7  and  N3_8 
REMARK    3  A    between atoms: N3_8  and  C3_10 
REMARK    4  A    between atoms: C3_10  and  C4_11 
REMARK    5  A    between atoms: C5_15  and  N5_16 
REMARK    6  A    between atoms: N5_16  and  C6_18 
REMARK    7  A    between atoms: C6_18  and  C7_19 
REMARK    8  A    between atoms: C7_19  and  C8_20 
REMARK       I    between atoms: C8_20  and  N6_22 
REMARK    9  A    between atoms: N6_22  and  C9_24 
REMARK   10  A    between atoms: C9_24  and  C10_25 
REMARK   11  A    between atoms: C10_25  and  C11_26 
REMARK   12  A    between atoms: C11_26  and  C12_27 
REMARK   13  A    between atoms: C12_27  and  C13_28 
REMARK   14  A    between atoms: C13_28  and  C14_29 
REMARK   15  A    between atoms: C14_29  and  C15_30 
REMARK   16  A    between atoms: C15_30  and  N7_31 
ROOT
HETATM    1  N5  UNL     1       1.040  19.161  -5.796  1.00  0.00    -0.225 N 
ATOM      2  H5  UNL     1       0.651  18.667  -4.992  1.00  0.00     0.177 HD
ENDROOT
BRANCH   1   3
HETATM    3  C5  UNL     1       0.661  18.884  -6.998  1.00  0.00     0.707 A 
HETATM    4  N4  UNL     1       1.446  18.232  -7.877  1.00  0.00    -0.022 N 
HETATM    5  C2  UNL     1       1.048  17.944  -9.131  1.00  0.00     0.707 A 
ATOM      6  H4  UNL     1       2.378  17.945  -7.581  1.00  0.00     0.203 HD
HETATM    7  N2  UNL     1      -0.176  18.305  -9.556  1.00  0.00    -0.022 N 
HETATM    8  C1  UNL     1      -0.971  18.957  -8.690  1.00  0.00     0.705 A 
ATOM      9  H2  UNL     1      -0.490  18.092 -10.504  1.00  0.00     0.203 HD
HETATM   10  N10 UNL     1      -0.567  19.243  -7.435  1.00  0.00    -0.022 N 
ATOM     11  H10 UNL     1      -1.199  19.738  -6.805  1.00  0.00     0.203 HD
BRANCH   5  12
HETATM   12  N3  UNL     1       1.866  17.322  -9.892  1.00  0.00    -0.219 N 
ATOM     13  H3  UNL     1       2.828  17.661  -9.899  1.00  0.00     0.178 HD
BRANCH  12  14
HETATM   14  C3  UNL     1       1.578  16.210 -10.730  1.00  0.00     0.207 C 
BRANCH  14  15
HETATM   15  C4  UNL     1       2.303  15.016 -10.229  1.00  0.00     0.251 C 
HETATM   16  O1  UNL     1       2.614  14.871  -9.057  1.00  0.00    -0.305 OA
ENDBRANCH  14  15
ENDBRANCH  12  14
ENDBRANCH   5  12
BRANCH   8  17
HETATM   17  N1  UNL     1      -2.167  19.322  -9.071  1.00  0.00    -0.234 N 
ATOM     18  H12 UNL     1      -2.534  18.975  -9.958  1.00  0.00     0.174 HD
ATOM     19  H11 UNL     1      -2.711  19.948  -8.477  1.00  0.00     0.174 HD
ENDBRANCH   8  17
ENDBRANCH   1   3
BRANCH   1  20
HETATM   20  C6  UNL     1       2.044  20.204  -5.626  1.00  0.00     0.147 C 
BRANCH  20  21
HETATM   21  C7  UNL     1       1.627  21.216  -4.596  1.00  0.00     0.123 C 
BRANCH  21  22
HETATM   22  C8  UNL     1       0.698  22.227  -5.123  1.00  0.00     0.219 C 
HETATM   23  O2  UNL     1      -0.445  21.895  -5.494  1.00  0.00    -0.274 OA
HETATM   24  N6  UNL     1       1.094  23.576  -5.212  1.00  0.00    -0.361 N 
ATOM     25  H6  UNL     1       2.030  23.843  -4.908  1.00  0.00     0.162 HD
BRANCH  24  26
HETATM   26  C9  UNL     1       0.194  24.598  -5.731  1.00  0.00     0.122 C 
BRANCH  26  27
HETATM   27  C10 UNL     1       0.028  24.496  -7.232  1.00  0.00     0.020 C 
BRANCH  27  28
HETATM   28  C11 UNL     1      -0.791  25.632  -7.791  1.00  0.00     0.002 C 
BRANCH  28  29
HETATM   29  C12 UNL     1      -0.533  26.893  -7.029  1.00  0.00     0.000 C 
BRANCH  29  30
HETATM   30  C13 UNL     1       0.576  27.721  -7.599  1.00  0.00     0.002 C 
BRANCH  30  31
HETATM   31  C14 UNL     1       0.221  28.261  -8.979  1.00  0.00     0.020 C 
BRANCH  31  32
HETATM   32  C15 UNL     1       0.220  29.780  -8.846  1.00  0.00     0.122 C 
BRANCH  32  33
HETATM   33  N7  UNL     1      -1.088  30.258  -8.490  1.00  0.00    -0.367 N 
HETATM   34  C16 UNL     1      -1.382  30.803  -7.359  1.00  0.00     0.196 C 
HETATM   35  N8  UNL     1      -2.713  31.223  -7.156  1.00  0.00    -0.067 NA
HETATM   36  N9  UNL     1      -0.442  31.000  -6.322  1.00  0.00    -0.067 NA
ATOM     37  H7  UNL     1      -1.834  30.158  -9.178  1.00  0.00     0.161 HD
ENDBRANCH  32  33
ENDBRANCH  31  32
ENDBRANCH  30  31
ENDBRANCH  29  30
ENDBRANCH  28  29
ENDBRANCH  27  28
ENDBRANCH  26  27
ENDBRANCH  24  26
ENDBRANCH  21  22
ENDBRANCH  20  21
ENDBRANCH   1  20
TORSDOF 16
ENDMDL
MODEL 5
REMARK VINA RESULT: -7.023389891      2.137      3.167
REMARK  16 active torsions:
REMARK  status: ('A' for Active; 'I' for Inactive)
REMARK    1  A    between atoms: N1_1  and  C1_4 
REMARK    2  A    between atoms: C2_7  and  N3_8 
REMARK    3  A    between atoms: N3_8  and  C3_10 
REMARK    4  A    between atoms: C3_10  and  C4_11 
REMARK    5  A    between atoms: C5_15  and  N5_16 
REMARK    6  A    between atoms: N5_16  and  C6_18 
REMARK    7  A    between atoms: C6_18  and  C7_19 
REMARK    8  A    between atoms: C7_19  and  C8_20 
REMARK       I    between atoms: C8_20  and  N6_22 
REMARK    9  A    between atoms: N6_22  and  C9_24 
REMARK   10  A    between atoms: C9_24  and  C10_25 
REMARK   11  A    between atoms: C10_25  and  C11_26 
REMARK   12  A    between atoms: C11_26  and  C12_27 
REMARK   13  A    between atoms: C12_27  and  C13_28 
REMARK   14  A    between atoms: C13_28  and  C14_29 
REMARK   15  A    between atoms: C14_29  and  C15_30 
REMARK   16  A    between atoms: C15_30  and  N7_31 
ROOT
HETATM    1  N5  UNL     1       1.984  20.598  -5.532  1.00  0.00    -0.225 N 
ATOM      2  H5  UNL     1       2.889  20.699  -5.993  1.00  0.00     0.177 HD
ENDROOT
BRANCH   1   3
HETATM    3  C5  UNL     1       1.186  19.628  -5.831  1.00  0.00     0.707 A 
HETATM    4  N4  UNL     1       1.392  18.363  -5.417  1.00  0.00    -0.022 N 
HETATM    5  C2  UNL     1       0.559  17.353  -5.729  1.00  0.00     0.707 A 
ATOM      6  H4  UNL     1       2.212  18.163  -4.843  1.00  0.00     0.203 HD
HETATM    7  N2  UNL     1      -0.533  17.579  -6.482  1.00  0.00    -0.022 N 
HETATM    8  C1  UNL     1      -0.752  18.837  -6.902  1.00  0.00     0.705 A 
ATOM      9  H2  UNL     1      -1.173  16.822  -6.725  1.00  0.00     0.203 HD
HETATM   10  N10 UNL     1       0.087  19.845  -6.586  1.00  0.00    -0.022 N 
ATOM     11  H10 UNL     1      -0.112  20.788  -6.922  1.00  0.00     0.203 HD
BRANCH   5  12
HETATM   12  N3  UNL     1       0.840  16.185  -5.289  1.00  0.00    -0.219 N 
ATOM     13  H3  UNL     1       0.667  16.019  -4.297  1.00  0.00     0.178 HD
BRANCH  12  14
HETATM   14  C3  UNL     1       1.367  15.094  -6.033  1.00  0.00     0.207 C 
BRANCH  14  15
HETATM   15  C4  UNL     1       2.458  14.453  -5.260  1.00  0.00     0.251 C 
HETATM   16  O1  UNL     1       3.583  14.292  -5.706  1.00  0.00    -0.305 OA
ENDBRANCH  14  15
ENDBRANCH  12  14
ENDBRANCH   5  12
BRANCH   8  17
HETATM   17  N1  UNL     1      -1.804  19.091  -7.636  1.00  0.00    -0.234 N 
ATOM     18  H12 UNL     1      -1.755  18.940  -8.644  1.00  0.00     0.174 HD
ATOM     19  H11 UNL     1      -2.652  19.437  -7.187  1.00  0.00     0.174 HD
ENDBRANCH   8  17
ENDBRANCH   1   3
BRANCH   1  20
HETATM   20  C6  UNL     1       1.548  21.545  -4.514  1.00  0.00     0.147 C 
BRANCH  20  21
HETATM   21  C7  UNL     1       1.524  22.954  -5.036  1.00  0.00     0.123 C 
BRANCH  21  22
HETATM   22  C8  UNL     1       0.182  23.393  -5.449  1.00  0.00     0.219 C 
HETATM   23  O2  UNL     1      -0.648  23.761  -4.593  1.00  0.00    -0.274 OA
HETATM   24  N6  UNL     1      -0.173  23.403  -6.812  1.00  0.00    -0.361 N 
ATOM     25  H6  UNL     1       0.509  23.102  -7.508  1.00  0.00     0.162 HD
BRANCH  24  26
HETATM   26  C9  UNL     1      -1.495  23.833  -7.248  1.00  0.00     0.122 C 
BRANCH  26  27
HETATM   27  C10 UNL     1      -1.684  25.327  -7.089  1.00  0.00     0.020 C 
BRANCH  27  28
HETATM   28  C11 UNL     1      -0.701  26.114  -7.918  1.00  0.00     0.002 C 
BRANCH  28  29
HETATM   29  C12 UNL     1       0.166  26.963  -7.044  1.00  0.00     0.000 C 
BRANCH  29  30
HETATM   30  C13 UNL     1       0.894  28.040  -7.787  1.00  0.00     0.002 C 
BRANCH  30  31
HETATM   31  C14 UNL     1       0.133  28.475  -9.033  1.00  0.00     0.020 C 
BRANCH  31  32
HETATM   32  C15 UNL     1       0.070  29.998  -8.973  1.00  0.00     0.122 C 
BRANCH  32  33
HETATM   33  N7  UNL     1      -1.222  30.435  -8.520  1.00  0.00    -0.367 N 
HETATM   34  C16 UNL     1      -1.466  30.877  -7.332  1.00  0.00     0.196 C 
HETATM   35  N8  UNL     1      -2.788  31.269  -7.035  1.00  0.00    -0.067 NA
HETATM   36  N9  UNL     1      -0.482  30.985  -6.325  1.00  0.00    -0.067 NA
ATOM     37  H7  UNL     1      -1.997  30.394  -9.180  1.00  0.00     0.161 HD
ENDBRANCH  32  33
ENDBRANCH  31  32
ENDBRANCH  30  31
ENDBRANCH  29  30
ENDBRANCH  28  29
ENDBRANCH  27  28
ENDBRANCH  26  27
ENDBRANCH  24  26
ENDBRANCH  21  22
ENDBRANCH  20  21
ENDBRANCH   1  20
TORSDOF 16
ENDMDL
