MODEL 1
REMARK VINA RESULT: -6.995580970      0.000      0.000
REMARK  15 active torsions:
REMARK  status: ('A' for Active; 'I' for Inactive)
REMARK    1  A    between atoms: C4_4  and  N1_5 
REMARK    2  A    between atoms: C6_11  and  N3_12 
REMARK       I    between atoms: N3_12  and  C7_14 
REMARK    3  A    between atoms: C7_14  and  C8_16 
REMARK    4  A    between atoms: C8_16  and  N4_17 
REMARK    5  A    between atoms: N4_17  and  C9_20 
REMARK    6  A    between atoms: C9_20  and  C10_21 
REMARK    7  A    between atoms: C10_21  and  N5_22 
REMARK    8  A    between atoms: N5_22  and  C11_24 
REMARK    9  A    between atoms: C11_24  and  C12_25 
REMARK   10  A    between atoms: C12_25  and  N6_26 
REMARK   11  A    between atoms: N6_26  and  C13_29 
REMARK   12  A    between atoms: C13_29  and  C14_30 
REMARK   13  A    between atoms: C14_30  and  C15_31 
REMARK   14  A    between atoms: C15_31  and  N7_32 
REMARK   15  A    between atoms: N7_32  and  C16_34 
ROOT
HETATM    1  N3  UNL     1       0.242  19.777  -5.902  1.00  0.00    -0.312 N 
ATOM      2  H3  UNL     1      -0.572  20.117  -5.391  1.00  0.00     0.170 HD
HETATM    3  C7  UNL     1       1.445  19.884  -5.244  1.00  0.00     0.248 C 
HETATM    4  O1  UNL     1       2.450  19.090  -5.383  1.00  0.00    -0.271 OA
ENDROOT
BRANCH   3   5
HETATM    5  C8  UNL     1       1.624  21.033  -4.273  1.00  0.00     0.335 C 
BRANCH   5   6
HETATM    6  N4  UNL     1       1.999  22.201  -5.010  1.00  0.00    -0.065 N 
ATOM      7  H42 UNL     1       2.909  22.552  -4.711  1.00  0.00     0.277 HD
ATOM      8  H41 UNL     1       2.224  21.972  -5.978  1.00  0.00     0.277 HD
BRANCH   6   9
HETATM    9  C9  UNL     1       0.990  23.232  -4.936  1.00  0.00     0.252 C 
BRANCH   9  10
HETATM   10  C10 UNL     1       0.302  23.352  -6.278  1.00  0.00     0.141 C 
BRANCH  10  11
HETATM   11  N5  UNL     1       0.518  24.616  -6.875  1.00  0.00    -0.418 N 
ATOM     12  H5  UNL     1       1.410  25.106  -6.805  1.00  0.00     0.153 HD
BRANCH  11  13
HETATM   13  C11 UNL     1      -0.604  25.164  -7.588  1.00  0.00     0.141 C 
BRANCH  13  14
HETATM   14  C12 UNL     1      -0.554  26.682  -7.610  1.00  0.00     0.251 C 
BRANCH  14  15
HETATM   15  N6  UNL     1       0.708  27.190  -7.228  1.00  0.00    -0.074 N 
ATOM     16  H62 UNL     1       0.861  27.060  -6.228  1.00  0.00     0.277 HD
ATOM     17  H61 UNL     1       1.458  26.603  -7.591  1.00  0.00     0.277 HD
BRANCH  15  18
HETATM   18  C13 UNL     1       0.911  28.559  -7.599  1.00  0.00     0.234 C 
BRANCH  18  19
HETATM   19  C14 UNL     1       0.215  28.834  -8.912  1.00  0.00     0.047 C 
BRANCH  19  20
HETATM   20  C15 UNL     1      -0.261  30.259  -9.030  1.00  0.00     0.123 C 
BRANCH  20  21
HETATM   21  N7  UNL     1      -0.699  30.756  -7.762  1.00  0.00    -0.368 N 
ATOM     22  H7  UNL     1      -0.024  31.118  -7.089  1.00  0.00     0.161 HD
BRANCH  21  23
HETATM   23  C16 UNL     1      -2.086  30.741  -7.452  1.00  0.00     0.348 C 
HETATM   24  O2  UNL     1      -2.531  31.464  -6.508  1.00  0.00    -0.284 OA
ENDBRANCH  21  23
ENDBRANCH  20  21
ENDBRANCH  19  20
ENDBRANCH  18  19
ENDBRANCH  15  18
ENDBRANCH  14  15
ENDBRANCH  13  14
ENDBRANCH  11  13
ENDBRANCH  10  11
ENDBRANCH   9  10
ENDBRANCH   6   9
ENDBRANCH   5   6
ENDBRANCH   3   5
BRANCH   1  25
HETATM   25  C6  UNL     1       0.009  19.312  -7.055  1.00  0.00     0.108 A 
HETATM   26  N2  UNL     1       0.750  18.413  -7.719  1.00  0.00    -0.339 N 
HETATM   27  C5  UNL     1       0.470  17.935  -8.957  1.00  0.00     0.087 A 
ATOM     28  H2  UNL     1       1.589  18.062  -7.257  1.00  0.00     0.167 HD
HETATM   29  C4  UNL     1       1.253  17.004  -9.603  1.00  0.00     0.057 A 
HETATM   30  C19 UNL     1      -0.678  18.427  -9.576  1.00  0.00     0.061 A 
HETATM   31  C3  UNL     1       0.838  16.590 -10.884  1.00  0.00     0.056 A 
HETATM   32  C2  UNL     1      -0.290  17.076 -11.486  1.00  0.00     0.008 A 
HETATM   33  C1  UNL     1      -0.712  16.621 -12.855  1.00  0.00     0.068 C 
HETATM   34  N8  UNL     1      -1.004  17.980 -10.800  1.00  0.00    -0.358 N 
ATOM     35  H8  UNL     1      -1.849  18.352 -11.236  1.00  0.00     0.166 HD
HETATM   36  C18 UNL     1      -1.461  19.353  -8.919  1.00  0.00     0.036 A 
HETATM   37  C17 UNL     1      -1.161  19.819  -7.674  1.00  0.00     0.051 A 
BRANCH  29  38
HETATM   38  N1  UNL     1       2.286  16.519  -9.075  1.00  0.00    -0.397 N 
ATOM     39  H12 UNL     1       3.223  16.824  -9.340  1.00  0.00     0.156 HD
ATOM     40  H11 UNL     1       2.214  15.809  -8.346  1.00  0.00     0.156 HD
ENDBRANCH  29  38
ENDBRANCH   1  25
TORSDOF 15
ENDMDL
MODEL 2
REMARK VINA RESULT: -6.630018383      1.619      2.353
REMARK  15 active torsions:
REMARK  status: ('A' for Active; 'I' for Inactive)
REMARK    1  A    between atoms: C4_4  and  N1_5 
REMARK    2  A    between atoms: C6_11  and  N3_12 
REMARK       I    between atoms: N3_12  and  C7_14 
REMARK    3  A    between atoms: C7_14  and  C8_16 
REMARK    4  A    between atoms: C8_16  and  N4_17 
REMARK    5  A    between atoms: N4_17  and  C9_20 
REMARK    6  A    between atoms: C9_20  and  C10_21 
REMARK    7  A    between atoms: C10_21  and  N5_22 
REMARK    8  A    between atoms: N5_22  and  C11_24 
REMARK    9  A    between atoms: C11_24  and  C12_25 
REMARK   10  A    between atoms: C12_25  and  N6_26 
REMARK   11  A    between atoms: N6_26  and  C13_29 
REMARK   12  A    between atoms: C13_29  and  C14_30 
REMARK   13  A    between atoms: C14_30  and  C15_31 
REMARK   14  A    between atoms: C15_31  and  N7_32 
REMARK   15  A    between atoms: N7_32  and  C16_34 
ROOT
HETATM    1  N3  UNL     1       0.746  18.264  -5.397  1.00  0.00    -0.312 N 
ATOM      2  H3  UNL     1      -0.206  18.143  -5.050  1.00  0.00     0.170 HD
HETATM    3  C7  UNL     1       1.473  19.267  -4.802  1.00  0.00     0.248 C 
HETATM    4  O1  UNL     1       2.751  19.272  -4.638  1.00  0.00    -0.271 OA
ENDROOT
BRANCH   3   5
HETATM    5  C8  UNL     1       0.725  20.483  -4.293  1.00  0.00     0.335 C 
BRANCH   5   6
HETATM    6  N4  UNL     1       1.634  21.586  -4.232  1.00  0.00    -0.065 N 
ATOM      7  H42 UNL     1       1.397  22.220  -3.468  1.00  0.00     0.277 HD
ATOM      8  H41 UNL     1       2.556  21.290  -3.915  1.00  0.00     0.277 HD
BRANCH   6   9
HETATM    9  C9  UNL     1       1.713  22.290  -5.491  1.00  0.00     0.252 C 
BRANCH   9  10
HETATM   10  C10 UNL     1       0.431  23.060  -5.713  1.00  0.00     0.141 C 
BRANCH  10  11
HETATM   11  N5  UNL     1       0.629  24.199  -6.529  1.00  0.00    -0.418 N 
ATOM     12  H5  UNL     1       1.502  24.725  -6.526  1.00  0.00     0.153 HD
BRANCH  11  13
HETATM   13  C11 UNL     1      -0.484  24.565  -7.362  1.00  0.00     0.141 C 
BRANCH  13  14
HETATM   14  C12 UNL     1      -0.484  26.055  -7.657  1.00  0.00     0.251 C 
BRANCH  14  15
HETATM   15  N6  UNL     1       0.496  26.755  -6.919  1.00  0.00    -0.074 N 
ATOM     16  H62 UNL     1       0.202  26.872  -5.949  1.00  0.00     0.277 HD
ATOM     17  H61 UNL     1       1.322  26.176  -6.776  1.00  0.00     0.277 HD
BRANCH  15  18
HETATM   18  C13 UNL     1       0.855  28.017  -7.496  1.00  0.00     0.234 C 
BRANCH  18  19
HETATM   19  C14 UNL     1      -0.308  28.554  -8.298  1.00  0.00     0.047 C 
BRANCH  19  20
HETATM   20  C15 UNL     1      -0.079  29.963  -8.780  1.00  0.00     0.123 C 
BRANCH  20  21
HETATM   21  N7  UNL     1      -1.130  30.829  -8.339  1.00  0.00    -0.368 N 
ATOM     22  H7  UNL     1      -1.714  31.317  -9.017  1.00  0.00     0.161 HD
BRANCH  21  23
HETATM   23  C16 UNL     1      -1.349  31.001  -6.945  1.00  0.00     0.348 C 
HETATM   24  O2  UNL     1      -2.488  31.373  -6.525  1.00  0.00    -0.284 OA
ENDBRANCH  21  23
ENDBRANCH  20  21
ENDBRANCH  19  20
ENDBRANCH  18  19
ENDBRANCH  15  18
ENDBRANCH  14  15
ENDBRANCH  13  14
ENDBRANCH  11  13
ENDBRANCH  10  11
ENDBRANCH   9  10
ENDBRANCH   6   9
ENDBRANCH   5   6
ENDBRANCH   3   5
BRANCH   1  25
HETATM   25  C6  UNL     1       1.097  17.470  -6.317  1.00  0.00     0.108 A 
HETATM   26  N2  UNL     1       1.024  17.694  -7.636  1.00  0.00    -0.339 N 
HETATM   27  C5  UNL     1       1.410  16.819  -8.597  1.00  0.00     0.087 A 
ATOM     28  H2  UNL     1       0.648  18.592  -7.941  1.00  0.00     0.167 HD
HETATM   29  C4  UNL     1       1.327  17.089  -9.946  1.00  0.00     0.057 A 
HETATM   30  C19 UNL     1       1.919  15.595  -8.165  1.00  0.00     0.061 A 
HETATM   31  C3  UNL     1       1.773  16.091 -10.833  1.00  0.00     0.056 A 
HETATM   32  C2  UNL     1       2.271  14.892 -10.403  1.00  0.00     0.008 A 
HETATM   33  C1  UNL     1       2.740  13.840 -11.369  1.00  0.00     0.068 C 
HETATM   34  N8  UNL     1       2.323  14.695  -9.078  1.00  0.00    -0.358 N 
ATOM     35  H8  UNL     1       2.693  13.805  -8.741  1.00  0.00     0.166 HD
HETATM   36  C18 UNL     1       2.007  15.334  -6.814  1.00  0.00     0.036 A 
HETATM   37  C17 UNL     1       1.613  16.229  -5.865  1.00  0.00     0.051 A 
BRANCH  29  38
HETATM   38  N1  UNL     1       0.893  18.186 -10.380  1.00  0.00    -0.397 N 
ATOM     39  H12 UNL     1       1.517  18.917 -10.724  1.00  0.00     0.156 HD
ATOM     40  H11 UNL     1      -0.110  18.373 -10.416  1.00  0.00     0.156 HD
ENDBRANCH  29  38
ENDBRANCH   1  25
TORSDOF 15
ENDMDL
MODEL 3
REMARK VINA RESULT: -6.601954678      2.613      3.451
REMARK  15 active torsions:
REMARK  status: ('A' for Active; 'I' for Inactive)
REMARK    1  A    between atoms: C4_4  and  N1_5 
REMARK    2  A    between atoms: C6_11  and  N3_12 
REMARK       I    between atoms: N3_12  and  C7_14 
REMARK    3  A    between atoms: C7_14  and  C8_16 
REMARK    4  A    between atoms: C8_16  and  N4_17 
REMARK    5  A    between atoms: N4_17  and  C9_20 
REMARK    6  A    between atoms: C9_20  and  C10_21 
REMARK    7  A    between atoms: C10_21  and  N5_22 
REMARK    8  A    between atoms: N5_22  and  C11_24 
REMARK    9  A    between atoms: C11_24  and  C12_25 
REMARK   10  A    between atoms: C12_25  and  N6_26 
REMARK   11  A    between atoms: N6_26  and  C13_29 
REMARK   12  A    between atoms: C13_29  and  C14_30 
REMARK   13  A    between atoms: C14_30  and  C15_31 
REMARK   14  A    between atoms: C15_31  and  N7_32 
REMARK   15  A    between atoms: N7_32  and  C16_34 
ROOT
HETATM    1  N3  UNL     1       1.030  19.982  -6.168  1.00  0.00    -0.312 N 
ATOM      2  H3  UNL     1       0.603  20.407  -6.991  1.00  0.00     0.170 HD
HETATM    3  C7  UNL     1       1.311  20.842  -5.133  1.00  0.00     0.248 C 
HETATM    4  O1  UNL     1       1.310  20.534  -3.881  1.00  0.00    -0.271 OA
ENDROOT
BRANCH   3   5
HETATM    5  C8  UNL     1       1.658  22.276  -5.473  1.00  0.00     0.335 C 
BRANCH   5   6
HETATM    6  N4  UNL     1       1.024  23.138  -4.522  1.00  0.00    -0.065 N 
ATOM      7  H42 UNL     1       0.711  22.618  -3.702  1.00  0.00     0.277 HD
ATOM      8  H41 UNL     1       1.701  23.754  -4.073  1.00  0.00     0.277 HD
BRANCH   6   9
HETATM    9  C9  UNL     1      -0.058  23.890  -5.113  1.00  0.00     0.252 C 
BRANCH   9  10
HETATM   10  C10 UNL     1      -0.064  23.664  -6.608  1.00  0.00     0.141 C 
BRANCH  10  11
HETATM   11  N5  UNL     1      -1.163  24.296  -7.237  1.00  0.00    -0.418 N 
ATOM     12  H5  UNL     1      -1.785  23.798  -7.873  1.00  0.00     0.153 HD
BRANCH  11  13
HETATM   13  C11 UNL     1      -1.343  25.686  -6.919  1.00  0.00     0.141 C 
BRANCH  13  14
HETATM   14  C12 UNL     1      -0.497  26.571  -7.817  1.00  0.00     0.251 C 
BRANCH  14  15
HETATM   15  N6  UNL     1       0.571  27.184  -7.126  1.00  0.00    -0.074 N 
ATOM     16  H62 UNL     1       0.423  27.137  -6.118  1.00  0.00     0.277 HD
ATOM     17  H61 UNL     1       1.418  26.622  -7.199  1.00  0.00     0.277 HD
BRANCH  15  18
HETATM   18  C13 UNL     1       0.821  28.534  -7.540  1.00  0.00     0.234 C 
BRANCH  18  19
HETATM   19  C14 UNL     1       0.165  28.781  -8.880  1.00  0.00     0.047 C 
BRANCH  19  20
HETATM   20  C15 UNL     1      -0.240  30.219  -9.072  1.00  0.00     0.123 C 
BRANCH  20  21
HETATM   21  N7  UNL     1      -0.688  30.791  -7.839  1.00  0.00    -0.368 N 
ATOM     22  H7  UNL     1      -0.020  31.215  -7.195  1.00  0.00     0.161 HD
BRANCH  21  23
HETATM   23  C16 UNL     1      -2.073  30.763  -7.524  1.00  0.00     0.348 C 
HETATM   24  O2  UNL     1      -2.502  31.381  -6.502  1.00  0.00    -0.284 OA
ENDBRANCH  21  23
ENDBRANCH  20  21
ENDBRANCH  19  20
ENDBRANCH  18  19
ENDBRANCH  15  18
ENDBRANCH  14  15
ENDBRANCH  13  14
ENDBRANCH  11  13
ENDBRANCH  10  11
ENDBRANCH   9  10
ENDBRANCH   6   9
ENDBRANCH   5   6
ENDBRANCH   3   5
BRANCH   1  25
HETATM   25  C6  UNL     1       1.231  18.735  -6.239  1.00  0.00     0.108 A 
HETATM   26  N2  UNL     1       2.004  18.003  -5.425  1.00  0.00    -0.339 N 
HETATM   27  C5  UNL     1       2.197  16.665  -5.528  1.00  0.00     0.087 A 
ATOM     28  H2  UNL     1       2.484  18.490  -4.668  1.00  0.00     0.167 HD
HETATM   29  C4  UNL     1       2.993  15.945  -4.665  1.00  0.00     0.057 A 
HETATM   30  C19 UNL     1       1.535  16.013  -6.569  1.00  0.00     0.061 A 
HETATM   31  C3  UNL     1       3.096  14.558  -4.887  1.00  0.00     0.056 A 
HETATM   32  C2  UNL     1       2.445  13.925  -5.909  1.00  0.00     0.008 A 
HETATM   33  C1  UNL     1       2.572  12.443  -6.127  1.00  0.00     0.068 C 
HETATM   34  N8  UNL     1       1.687  14.686  -6.712  1.00  0.00    -0.358 N 
ATOM     35  H8  UNL     1       1.195  14.228  -7.479  1.00  0.00     0.166 HD
HETATM   36  C18 UNL     1       0.733  16.738  -7.424  1.00  0.00     0.036 A 
HETATM   37  C17 UNL     1       0.553  18.083  -7.300  1.00  0.00     0.051 A 
BRANCH  29  38
HETATM   38  N1  UNL     1       3.592  16.487  -3.702  1.00  0.00    -0.397 N 
ATOM     39  H12 UNL     1       3.255  16.410  -2.742  1.00  0.00     0.156 HD
ATOM     40  H11 UNL     1       4.454  17.013  -3.853  1.00  0.00     0.156 HD
ENDBRANCH  29  38
ENDBRANCH   1  25
TORSDOF 15
ENDMDL
MODEL 4
REMARK VINA RESULT: -6.417249325      2.443      8.902
REMARK  15 active torsions:
REMARK  status: ('A' for Active; 'I' for Inactive)
REMARK    1  A    between atoms: C4_4  and  N1_5 
REMARK    2  A    between atoms: C6_11  and  N3_12 
REMARK       I    between atoms: N3_12  and  C7_14 
REMARK    3  A    between atoms: C7_14  and  C8_16 
REMARK    4  A    between atoms: C8_16  and  N4_17 
REMARK    5  A    between atoms: N4_17  and  C9_20 
REMARK    6  A    between atoms: C9_20  and  C10_21 
REMARK    7  A    between atoms: C10_21  and  N5_22 
REMARK    8  A    between atoms: N5_22  and  C11_24 
REMARK    9  A    between atoms: C11_24  and  C12_25 
REMARK   10  A    between atoms: C12_25  and  N6_26 
REMARK   11  A    between atoms: N6_26  and  C13_29 
REMARK   12  A    between atoms: C13_29  and  C14_30 
REMARK   13  A    between atoms: C14_30  and  C15_31 
REMARK   14  A    between atoms: C15_31  and  N7_32 
REMARK   15  A    between atoms: N7_32  and  C16_34 
ROOT
HETATM    1  N3  UNL     1       0.454  23.412  -6.573  1.00  0.00    -0.312 N 
ATOM      2  H3  UNL     1       0.400  22.724  -7.324  1.00  0.00     0.170 HD
HETATM    3  C7  UNL     1       1.064  22.983  -5.417  1.00  0.00     0.248 C 
HETATM    4  O1  UNL     1       1.730  23.725  -4.600  1.00  0.00    -0.271 OA
ENDROOT
BRANCH   3   5
HETATM    5  C8  UNL     1       0.949  21.517  -5.054  1.00  0.00     0.335 C 
BRANCH   5   6
HETATM    6  N4  UNL     1       0.040  20.890  -5.964  1.00  0.00    -0.065 N 
ATOM      7  H42 UNL     1      -0.927  21.005  -5.660  1.00  0.00     0.277 HD
ATOM      8  H41 UNL     1      -0.007  21.396  -6.848  1.00  0.00     0.277 HD
BRANCH   6   9
HETATM    9  C9  UNL     1       0.361  19.497  -6.173  1.00  0.00     0.252 C 
BRANCH   9  10
HETATM   10  C10 UNL     1       1.786  19.244  -5.734  1.00  0.00     0.141 C 
BRANCH  10  11
HETATM   11  N5  UNL     1       2.387  18.190  -6.463  1.00  0.00    -0.418 N 
ATOM     12  H5  UNL     1       3.315  17.833  -6.238  1.00  0.00     0.153 HD
BRANCH  11  13
HETATM   13  C11 UNL     1       1.602  17.656  -7.542  1.00  0.00     0.141 C 
BRANCH  13  14
HETATM   14  C12 UNL     1       2.366  17.703  -8.854  1.00  0.00     0.251 C 
BRANCH  14  15
HETATM   15  N6  UNL     1       1.513  17.764  -9.978  1.00  0.00    -0.074 N 
ATOM     16  H62 UNL     1       1.900  18.382 -10.691  1.00  0.00     0.277 HD
ATOM     17  H61 UNL     1       1.528  16.884 -10.491  1.00  0.00     0.277 HD
BRANCH  15  18
HETATM   18  C13 UNL     1       0.168  18.140  -9.657  1.00  0.00     0.234 C 
BRANCH  18  19
HETATM   19  C14 UNL     1      -0.565  18.521 -10.923  1.00  0.00     0.047 C 
BRANCH  19  20
HETATM   20  C15 UNL     1      -1.737  19.432 -10.664  1.00  0.00     0.123 C 
BRANCH  20  21
HETATM   21  N7  UNL     1      -2.036  19.493  -9.266  1.00  0.00    -0.368 N 
ATOM     22  H7  UNL     1      -1.983  18.652  -8.690  1.00  0.00     0.161 HD
BRANCH  21  23
HETATM   23  C16 UNL     1      -2.407  20.737  -8.689  1.00  0.00     0.348 C 
HETATM   24  O2  UNL     1      -1.511  21.565  -8.340  1.00  0.00    -0.284 OA
ENDBRANCH  21  23
ENDBRANCH  20  21
ENDBRANCH  19  20
ENDBRANCH  18  19
ENDBRANCH  15  18
ENDBRANCH  14  15
ENDBRANCH  13  14
ENDBRANCH  11  13
ENDBRANCH  10  11
ENDBRANCH   9  10
ENDBRANCH   6   9
ENDBRANCH   5   6
ENDBRANCH   3   5
BRANCH   1  25
HETATM   25  C6  UNL     1      -0.048  24.544  -6.830  1.00  0.00     0.108 A 
HETATM   26  N2  UNL     1       0.619  25.693  -7.001  1.00  0.00    -0.339 N 
HETATM   27  C5  UNL     1       0.048  26.892  -7.277  1.00  0.00     0.087 A 
ATOM     28  H2  UNL     1       1.635  25.664  -6.916  1.00  0.00     0.167 HD
HETATM   29  C4  UNL     1       0.770  28.052  -7.455  1.00  0.00     0.057 A 
HETATM   30  C19 UNL     1      -1.342  26.916  -7.387  1.00  0.00     0.061 A 
HETATM   31  C3  UNL     1       0.046  29.224  -7.745  1.00  0.00     0.056 A 
HETATM   32  C2  UNL     1      -1.318  29.241  -7.851  1.00  0.00     0.008 A 
HETATM   33  C1  UNL     1      -2.069  30.505  -8.160  1.00  0.00     0.068 C 
HETATM   34  N8  UNL     1      -1.957  28.077  -7.666  1.00  0.00    -0.358 N 
ATOM     35  H8  UNL     1      -2.974  28.073  -7.743  1.00  0.00     0.166 HD
HETATM   36  C18 UNL     1      -2.057  25.750  -7.216  1.00  0.00     0.036 A 
HETATM   37  C17 UNL     1      -1.462  24.555  -6.939  1.00  0.00     0.051 A 
BRANCH  29  38
HETATM   38  N1  UNL     1       2.025  28.073  -7.384  1.00  0.00    -0.397 N 
ATOM     39  H12 UNL     1       2.515  28.197  -6.497  1.00  0.00     0.156 HD
ATOM     40  H11 UNL     1       2.597  27.950  -8.220  1.00  0.00     0.156 HD
ENDBRANCH  29  38
ENDBRANCH   1  25
TORSDOF 15
ENDMDL
MODEL 5
REMARK VINA RESULT: -6.389505904      3.170      8.112
REMARK  15 active torsions:
REMARK  status: ('A' for Active; 'I' for Inactive)
REMARK    1  A    between atoms: C4_4  and  N1_5 
REMARK    2  A    between atoms: C6_11  and  N3_12 
REMARK       I    between atoms: N3_12  and  C7_14 
REMARK    3  A    between atoms: C7_14  and  C8_16 
REMARK    4  A    between atoms: C8_16  and  N4_17 
REMARK    5  A    between atoms: N4_17  and  C9_20 
REMARK    6  A    between atoms: C9_20  and  C10_21 
REMARK    7  A    between atoms: C10_21  and  N5_22 
REMARK    8  A    between atoms: N5_22  and  C11_24 
REMARK    9  A    between atoms: C11_24  and  C12_25 
REMARK   10  A    between atoms: C12_25  and  N6_26 
REMARK   11  A    between atoms: N6_26  and  C13_29 
REMARK   12  A    between atoms: C13_29  and  C14_30 
REMARK   13  A    between atoms: C14_30  and  C15_31 
REMARK   14  A    between atoms: C15_31  and  N7_32 
REMARK   15  A    between atoms: N7_32  and  C16_34 
ROOT
HETATM    1  N3  UNL     1       0.866  19.660  -5.017  1.00  0.00    -0.312 N 
ATOM      2  H3  UNL     1       1.814  19.344  -4.816  1.00  0.00     0.170 HD
HETATM    3  C7  UNL     1      -0.119  18.712  -4.873  1.00  0.00     0.248 C 
HETATM    4  O1  UNL     1      -1.339  18.943  -4.525  1.00  0.00    -0.271 OA
ENDROOT
BRANCH   3   5
HETATM    5  C8  UNL     1       0.239  17.266  -5.147  1.00  0.00     0.335 C 
BRANCH   5   6
HETATM    6  N4  UNL     1       0.351  17.083  -6.562  1.00  0.00    -0.065 N 
ATOM      7  H42 UNL     1      -0.393  16.482  -6.918  1.00  0.00     0.277 HD
ATOM      8  H41 UNL     1       0.121  17.939  -7.066  1.00  0.00     0.277 HD
BRANCH   6   9
HETATM    9  C9  UNL     1       1.653  16.586  -6.940  1.00  0.00     0.252 C 
BRANCH   9  10
HETATM   10  C10 UNL     1       2.382  17.650  -7.730  1.00  0.00     0.141 C 
BRANCH  10  11
HETATM   11  N5  UNL     1       1.787  17.875  -8.994  1.00  0.00    -0.418 N 
ATOM     12  H5  UNL     1       1.486  18.800  -9.297  1.00  0.00     0.153 HD
BRANCH  11  13
HETATM   13  C11 UNL     1       1.637  16.710  -9.823  1.00  0.00     0.141 C 
BRANCH  13  14
HETATM   14  C12 UNL     1       0.428  16.835 -10.734  1.00  0.00     0.251 C 
BRANCH  14  15
HETATM   15  N6  UNL     1       0.197  18.165 -11.151  1.00  0.00    -0.074 N 
ATOM     16  H62 UNL     1      -0.145  18.732 -10.376  1.00  0.00     0.277 HD
ATOM     17  H61 UNL     1       1.078  18.644 -11.335  1.00  0.00     0.277 HD
BRANCH  15  18
HETATM   18  C13 UNL     1      -0.679  18.267 -12.281  1.00  0.00     0.234 C 
BRANCH  18  19
HETATM   19  C14 UNL     1      -2.074  18.611 -11.808  1.00  0.00     0.047 C 
BRANCH  19  20
HETATM   20  C15 UNL     1      -2.084  19.715 -10.783  1.00  0.00     0.123 C 
BRANCH  20  21
HETATM   21  N7  UNL     1      -2.713  19.283  -9.573  1.00  0.00    -0.368 N 
ATOM     22  H7  UNL     1      -3.727  19.185  -9.526  1.00  0.00     0.161 HD
BRANCH  21  23
HETATM   23  C16 UNL     1      -1.909  18.991  -8.439  1.00  0.00     0.348 C 
HETATM   24  O2  UNL     1      -0.724  19.441  -8.371  1.00  0.00    -0.284 OA
ENDBRANCH  21  23
ENDBRANCH  20  21
ENDBRANCH  19  20
ENDBRANCH  18  19
ENDBRANCH  15  18
ENDBRANCH  14  15
ENDBRANCH  13  14
ENDBRANCH  11  13
ENDBRANCH  10  11
ENDBRANCH   9  10
ENDBRANCH   6   9
ENDBRANCH   5   6
ENDBRANCH   3   5
BRANCH   1  25
HETATM   25  C6  UNL     1       0.755  20.871  -5.365  1.00  0.00     0.108 A 
HETATM   26  N2  UNL     1      -0.144  21.377  -6.221  1.00  0.00    -0.339 N 
HETATM   27  C5  UNL     1      -0.236  22.683  -6.572  1.00  0.00     0.087 A 
ATOM     28  H2  UNL     1      -0.811  20.729  -6.639  1.00  0.00     0.167 HD
HETATM   29  C4  UNL     1      -1.181  23.167  -7.450  1.00  0.00     0.057 A 
HETATM   30  C19 UNL     1       0.685  23.556  -5.993  1.00  0.00     0.061 A 
HETATM   31  C3  UNL     1      -1.165  24.549  -7.718  1.00  0.00     0.056 A 
HETATM   32  C2  UNL     1      -0.260  25.400  -7.147  1.00  0.00     0.008 A 
HETATM   33  C1  UNL     1      -0.260  26.872  -7.450  1.00  0.00     0.068 C 
HETATM   34  N8  UNL     1       0.632  24.862  -6.302  1.00  0.00    -0.358 N 
ATOM     35  H8  UNL     1       1.314  25.485  -5.867  1.00  0.00     0.166 HD
HETATM   36  C18 UNL     1       1.622  23.066  -5.109  1.00  0.00     0.036 A 
HETATM   37  C17 UNL     1       1.696  21.749  -4.769  1.00  0.00     0.051 A 
BRANCH  29  38
HETATM   38  N1  UNL     1      -2.042  22.420  -7.980  1.00  0.00    -0.397 N 
ATOM     39  H12 UNL     1      -2.971  22.294  -7.578  1.00  0.00     0.156 HD
ATOM     40  H11 UNL     1      -1.839  21.925  -8.849  1.00  0.00     0.156 HD
ENDBRANCH  29  38
ENDBRANCH   1  25
TORSDOF 15
ENDMDL
