MODEL 1
REMARK VINA RESULT: -7.365688169      0.000      0.000
REMARK  14 active torsions:
REMARK  status: ('A' for Active; 'I' for Inactive)
REMARK       I    between atoms: C1_4  and  N3_6 
REMARK    1  A    between atoms: N3_6  and  C2_7 
REMARK    2  A    between atoms: N3_6  and  C12_28 
REMARK    3  A    between atoms: C2_7  and  C3_8 
REMARK    4  A    between atoms: C3_8  and  C4_9 
REMARK    5  A    between atoms: C4_9  and  C5_10 
REMARK    6  A    between atoms: C5_10  and  C6_11 
REMARK    7  A    between atoms: C6_11  and  N4_12 
REMARK    8  A    between atoms: N4_12  and  C7_14 
REMARK    9  A    between atoms: C12_28  and  C13_29 
REMARK       I    between atoms: C13_29  and  N9_31 
REMARK   10  A    between atoms: N9_31  and  C14_33 
REMARK   11  A    between atoms: C14_33  and  C15_34 
REMARK   12  A    between atoms: C15_34  and  C16_35 
REMARK   13  A    between atoms: C16_35  and  C17_36 
REMARK   14  A    between atoms: C17_36  and  N10_37 
ROOT
HETATM    1  C2  UNL     1      -0.484  22.712  -6.919  1.00  0.00     0.126 C 
ENDROOT
BRANCH   1   2
HETATM    2  N3  UNL     1      -0.052  23.265  -5.670  1.00  0.00    -0.347 N 
HETATM    3  C1  UNL     1       1.068  22.761  -4.981  1.00  0.00     0.184 C 
HETATM    4  N1  UNL     1       1.949  23.655  -4.587  1.00  0.00    -0.374 N 
HETATM    5  N2  UNL     1       1.314  21.404  -4.672  1.00  0.00    -0.064 NA
ATOM      6  H12 UNL     1       2.761  23.290  -4.088  1.00  0.00     0.158 HD
ATOM      7  H11 UNL     1       1.772  24.634  -4.810  1.00  0.00     0.158 HD
BRANCH   2   8
HETATM    8  C12 UNL     1      -0.786  24.363  -5.084  1.00  0.00     0.228 C 
BRANCH   8   9
HETATM    9  C13 UNL     1      -1.108  25.489  -5.945  1.00  0.00     0.235 C 
HETATM   10  O2  UNL     1      -2.350  25.841  -5.930  1.00  0.00    -0.272 OA
HETATM   11  N9  UNL     1      -0.286  26.244  -6.781  1.00  0.00    -0.360 N 
ATOM     12  H9  UNL     1       0.709  26.024  -6.840  1.00  0.00     0.162 HD
BRANCH  11  13
HETATM   13  C14 UNL     1      -0.833  27.354  -7.580  1.00  0.00     0.122 C 
BRANCH  13  14
HETATM   14  C15 UNL     1       0.251  28.104  -8.265  1.00  0.00     0.021 C 
BRANCH  14  15
HETATM   15  C16 UNL     1       0.012  29.534  -8.578  1.00  0.00     0.029 C 
BRANCH  15  16
HETATM   16  C17 UNL     1      -0.747  30.326  -7.587  1.00  0.00     0.229 C 
BRANCH  16  17
HETATM   17  N10 UNL     1      -2.024  30.822  -8.011  1.00  0.00    -0.079 N 
ATOM     18 3H10 UNL     1      -1.902  31.451  -8.806  1.00  0.00     0.274 HD
ATOM     19 2H10 UNL     1      -2.557  30.070  -8.449  1.00  0.00     0.274 HD
ATOM     20 1H10 UNL     1      -2.594  31.277  -7.298  1.00  0.00     0.274 HD
ENDBRANCH  16  17
ENDBRANCH  15  16
ENDBRANCH  14  15
ENDBRANCH  13  14
ENDBRANCH  11  13
ENDBRANCH   8   9
ENDBRANCH   2   8
ENDBRANCH   1   2
BRANCH   1  21
HETATM   21  C3  UNL     1      -1.201  21.421  -6.921  1.00  0.00     0.020 C 
BRANCH  21  22
HETATM   22  C4  UNL     1      -2.099  21.145  -8.073  1.00  0.00     0.003 C 
BRANCH  22  23
HETATM   23  C5  UNL     1      -1.734  19.867  -8.804  1.00  0.00     0.020 C 
BRANCH  23  24
HETATM   24  C6  UNL     1      -2.402  19.874 -10.170  1.00  0.00     0.138 C 
BRANCH  24  25
HETATM   25  N4  UNL     1      -1.488  19.798 -11.256  1.00  0.00    -0.226 N 
ATOM     26  H4  UNL     1      -0.886  18.975 -11.300  1.00  0.00     0.177 HD
BRANCH  25  27
HETATM   27  C7  UNL     1      -1.353  20.665 -12.179  1.00  0.00     0.682 A 
HETATM   28  N5  UNL     1      -2.298  21.576 -12.406  1.00  0.00    -0.154 N 
HETATM   29  C8  UNL     1      -2.172  22.509 -13.390  1.00  0.00     0.290 A 
ATOM     30  H5  UNL     1      -3.139  21.575 -11.828  1.00  0.00     0.187 HD
HETATM   31  O1  UNL     1      -3.064  23.361 -13.597  1.00  0.00    -0.265 OA
HETATM   32  C9  UNL     1      -1.016  22.474 -14.148  1.00  0.00     0.147 A 
HETATM   33  N6  UNL     1      -0.630  23.271 -15.180  1.00  0.00    -0.345 N 
HETATM   34  C11 UNL     1      -0.038  21.543 -13.921  1.00  0.00     0.154 A 
HETATM   35  C10 UNL     1       0.582  22.809 -15.564  1.00  0.00     0.182 A 
ATOM     36  H6  UNL     1      -1.147  24.054 -15.580  1.00  0.00     0.167 HD
HETATM   37  N7  UNL     1       0.935  21.757 -14.795  1.00  0.00    -0.336 N 
ATOM     38  H7  UNL     1       1.800  21.221 -14.873  1.00  0.00     0.168 HD
HETATM   39  N8  UNL     1      -0.235  20.645 -12.923  1.00  0.00    -0.174 N 
ATOM     40  H8  UNL     1       0.479  19.942 -12.735  1.00  0.00     0.186 HD
ENDBRANCH  25  27
ENDBRANCH  24  25
ENDBRANCH  23  24
ENDBRANCH  22  23
ENDBRANCH  21  22
ENDBRANCH   1  21
TORSDOF 14
ENDMDL
MODEL 2
REMARK VINA RESULT: -7.167525517      0.763      1.004
REMARK  14 active torsions:
REMARK  status: ('A' for Active; 'I' for Inactive)
REMARK       I    between atoms: C1_4  and  N3_6 
REMARK    1  A    between atoms: N3_6  and  C2_7 
REMARK    2  A    between atoms: N3_6  and  C12_28 
REMARK    3  A    between atoms: C2_7  and  C3_8 
REMARK    4  A    between atoms: C3_8  and  C4_9 
REMARK    5  A    between atoms: C4_9  and  C5_10 
REMARK    6  A    between atoms: C5_10  and  C6_11 
REMARK    7  A    between atoms: C6_11  and  N4_12 
REMARK    8  A    between atoms: N4_12  and  C7_14 
REMARK    9  A    between atoms: C12_28  and  C13_29 
REMARK       I    between atoms: C13_29  and  N9_31 
REMARK   10  A    between atoms: N9_31  and  C14_33 
REMARK   11  A    between atoms: C14_33  and  C15_34 
REMARK   12  A    between atoms: C15_34  and  C16_35 
REMARK   13  A    between atoms: C16_35  and  C17_36 
REMARK   14  A    between atoms: C17_36  and  N10_37 
ROOT
HETATM    1  C2  UNL     1      -0.441  22.749  -6.922  1.00  0.00     0.126 C 
ENDROOT
BRANCH   1   2
HETATM    2  N3  UNL     1      -0.019  23.298  -5.667  1.00  0.00    -0.347 N 
HETATM    3  C1  UNL     1       1.089  22.786  -4.966  1.00  0.00     0.184 C 
HETATM    4  N1  UNL     1       1.972  23.674  -4.562  1.00  0.00    -0.374 N 
HETATM    5  N2  UNL     1       1.323  21.427  -4.656  1.00  0.00    -0.064 NA
ATOM      6  H12 UNL     1       2.775  23.303  -4.055  1.00  0.00     0.158 HD
ATOM      7  H11 UNL     1       1.804  24.655  -4.786  1.00  0.00     0.158 HD
BRANCH   2   8
HETATM    8  C12 UNL     1      -0.753  24.400  -5.089  1.00  0.00     0.228 C 
BRANCH   8   9
HETATM    9  C13 UNL     1      -1.092  25.511  -5.963  1.00  0.00     0.235 C 
HETATM   10  O2  UNL     1      -2.342  25.832  -5.966  1.00  0.00    -0.272 OA
HETATM   11  N9  UNL     1      -0.278  26.281  -6.794  1.00  0.00    -0.360 N 
ATOM     12  H9  UNL     1       0.723  26.086  -6.838  1.00  0.00     0.162 HD
BRANCH  11  13
HETATM   13  C14 UNL     1      -0.842  27.371  -7.608  1.00  0.00     0.122 C 
BRANCH  13  14
HETATM   14  C15 UNL     1       0.227  28.108  -8.329  1.00  0.00     0.021 C 
BRANCH  14  15
HETATM   15  C16 UNL     1       0.026  29.557  -8.574  1.00  0.00     0.029 C 
BRANCH  15  16
HETATM   16  C17 UNL     1      -0.739  30.315  -7.560  1.00  0.00     0.229 C 
BRANCH  16  17
HETATM   17  N10 UNL     1      -2.025  30.802  -7.966  1.00  0.00    -0.079 N 
ATOM     18 3H10 UNL     1      -2.015  31.822  -7.991  1.00  0.00     0.274 HD
ATOM     19 2H10 UNL     1      -2.176  30.594  -8.953  1.00  0.00     0.274 HD
ATOM     20 1H10 UNL     1      -2.825  30.481  -7.421  1.00  0.00     0.274 HD
ENDBRANCH  16  17
ENDBRANCH  15  16
ENDBRANCH  14  15
ENDBRANCH  13  14
ENDBRANCH  11  13
ENDBRANCH   8   9
ENDBRANCH   2   8
ENDBRANCH   1   2
BRANCH   1  21
HETATM   21  C3  UNL     1      -1.464  21.683  -6.929  1.00  0.00     0.020 C 
BRANCH  21  22
HETATM   22  C4  UNL     1      -0.988  20.288  -7.119  1.00  0.00     0.003 C 
BRANCH  22  23
HETATM   23  C5  UNL     1      -1.770  19.544  -8.186  1.00  0.00     0.020 C 
BRANCH  23  24
HETATM   24  C6  UNL     1      -2.792  20.491  -8.794  1.00  0.00     0.138 C 
BRANCH  24  25
HETATM   25  N4  UNL     1      -3.108  20.198 -10.150  1.00  0.00    -0.226 N 
ATOM     26  H4  UNL     1      -3.767  19.438 -10.320  1.00  0.00     0.177 HD
BRANCH  25  27
HETATM   27  C7  UNL     1      -2.642  20.802 -11.170  1.00  0.00     0.682 A 
HETATM   28  N5  UNL     1      -3.249  21.879 -11.666  1.00  0.00    -0.154 N 
HETATM   29  C8  UNL     1      -2.766  22.535 -12.757  1.00  0.00     0.290 A 
ATOM     30  H5  UNL     1      -4.097  22.222 -11.216  1.00  0.00     0.187 HD
HETATM   31  O1  UNL     1      -3.341  23.546 -13.216  1.00  0.00    -0.265 OA
HETATM   32  C9  UNL     1      -1.613  22.035 -13.334  1.00  0.00     0.147 A 
HETATM   33  N6  UNL     1      -0.919  22.481 -14.415  1.00  0.00    -0.345 N 
HETATM   34  C11 UNL     1      -0.981  20.929 -12.831  1.00  0.00     0.154 A 
HETATM   35  C10 UNL     1       0.128  21.635 -14.551  1.00  0.00     0.182 A 
ATOM     36  H6  UNL     1      -1.141  23.286 -15.001  1.00  0.00     0.167 HD
HETATM   37  N7  UNL     1       0.083  20.693 -13.585  1.00  0.00    -0.336 N 
ATOM     38  H7  UNL     1       0.751  19.933 -13.458  1.00  0.00     0.168 HD
HETATM   39  N8  UNL     1      -1.522  20.329 -11.741  1.00  0.00    -0.174 N 
ATOM     40  H8  UNL     1      -1.069  19.504 -11.348  1.00  0.00     0.186 HD
ENDBRANCH  25  27
ENDBRANCH  24  25
ENDBRANCH  23  24
ENDBRANCH  22  23
ENDBRANCH  21  22
ENDBRANCH   1  21
TORSDOF 14
ENDMDL
MODEL 3
REMARK VINA RESULT: -7.154434014      1.988      2.305
REMARK  14 active torsions:
REMARK  status: ('A' for Active; 'I' for Inactive)
REMARK       I    between atoms: C1_4  and  N3_6 
REMARK    1  A    between atoms: N3_6  and  C2_7 
REMARK    2  A    between atoms: N3_6  and  C12_28 
REMARK    3  A    between atoms: C2_7  and  C3_8 
REMARK    4  A    between atoms: C3_8  and  C4_9 
REMARK    5  A    between atoms: C4_9  and  C5_10 
REMARK    6  A    between atoms: C5_10  and  C6_11 
REMARK    7  A    between atoms: C6_11  and  N4_12 
REMARK    8  A    between atoms: N4_12  and  C7_14 
REMARK    9  A    between atoms: C12_28  and  C13_29 
REMARK       I    between atoms: C13_29  and  N9_31 
REMARK   10  A    between atoms: N9_31  and  C14_33 
REMARK   11  A    between atoms: C14_33  and  C15_34 
REMARK   12  A    between atoms: C15_34  and  C16_35 
REMARK   13  A    between atoms: C16_35  and  C17_36 
REMARK   14  A    between atoms: C17_36  and  N10_37 
ROOT
HETATM    1  C2  UNL     1      -0.476  22.693  -6.915  1.00  0.00     0.126 C 
ENDROOT
BRANCH   1   2
HETATM    2  N3  UNL     1      -0.055  23.260  -5.668  1.00  0.00    -0.347 N 
HETATM    3  C1  UNL     1       1.074  22.783  -4.976  1.00  0.00     0.184 C 
HETATM    4  N1  UNL     1       1.937  23.696  -4.586  1.00  0.00    -0.374 N 
HETATM    5  N2  UNL     1       1.347  21.432  -4.660  1.00  0.00    -0.064 NA
ATOM      6  H12 UNL     1       2.755  23.349  -4.085  1.00  0.00     0.158 HD
ATOM      7  H11 UNL     1       1.740  24.670  -4.814  1.00  0.00     0.158 HD
BRANCH   2   8
HETATM    8  C12 UNL     1      -0.811  24.346  -5.088  1.00  0.00     0.228 C 
BRANCH   8   9
HETATM    9  C13 UNL     1      -1.107  25.487  -5.939  1.00  0.00     0.235 C 
HETATM   10  O2  UNL     1      -2.333  25.887  -5.897  1.00  0.00    -0.272 OA
HETATM   11  N9  UNL     1      -0.273  26.212  -6.790  1.00  0.00    -0.360 N 
ATOM     12  H9  UNL     1       0.711  25.954  -6.870  1.00  0.00     0.162 HD
BRANCH  11  13
HETATM   13  C14 UNL     1      -0.792  27.345  -7.574  1.00  0.00     0.122 C 
BRANCH  13  14
HETATM   14  C15 UNL     1       0.308  28.064  -8.267  1.00  0.00     0.021 C 
BRANCH  14  15
HETATM   15  C16 UNL     1       0.059  29.461  -8.698  1.00  0.00     0.029 C 
BRANCH  15  16
HETATM   16  C17 UNL     1      -0.682  30.336  -7.764  1.00  0.00     0.229 C 
BRANCH  16  17
HETATM   17  N10 UNL     1      -2.004  30.720  -8.164  1.00  0.00    -0.079 N 
ATOM     18 3H10 UNL     1      -1.975  31.136  -9.095  1.00  0.00     0.274 HD
ATOM     19 2H10 UNL     1      -2.563  29.887  -8.350  1.00  0.00     0.274 HD
ATOM     20 1H10 UNL     1      -2.509  31.337  -7.528  1.00  0.00     0.274 HD
ENDBRANCH  16  17
ENDBRANCH  15  16
ENDBRANCH  14  15
ENDBRANCH  13  14
ENDBRANCH  11  13
ENDBRANCH   8   9
ENDBRANCH   2   8
ENDBRANCH   1   2
BRANCH   1  21
HETATM   21  C3  UNL     1      -1.128  21.368  -6.914  1.00  0.00     0.020 C 
BRANCH  21  22
HETATM   22  C4  UNL     1      -2.167  21.123  -7.950  1.00  0.00     0.003 C 
BRANCH  22  23
HETATM   23  C5  UNL     1      -2.058  19.744  -8.572  1.00  0.00     0.020 C 
BRANCH  23  24
HETATM   24  C6  UNL     1      -2.783  19.749  -9.908  1.00  0.00     0.138 C 
BRANCH  24  25
HETATM   25  N4  UNL     1      -3.513  20.943 -10.159  1.00  0.00    -0.226 N 
ATOM     26  H4  UNL     1      -3.979  21.379  -9.364  1.00  0.00     0.177 HD
BRANCH  25  27
HETATM   27  C7  UNL     1      -3.637  21.517 -11.290  1.00  0.00     0.682 A 
HETATM   28  N5  UNL     1      -2.973  22.639 -11.565  1.00  0.00    -0.154 N 
HETATM   29  C8  UNL     1      -3.095  23.267 -12.767  1.00  0.00     0.290 A 
ATOM     30  H5  UNL     1      -2.356  23.037 -10.857  1.00  0.00     0.187 HD
HETATM   31  O1  UNL     1      -2.467  24.319 -13.018  1.00  0.00    -0.265 OA
HETATM   32  C9  UNL     1      -3.940  22.690 -13.697  1.00  0.00     0.147 A 
HETATM   33  N6  UNL     1      -4.249  23.094 -14.958  1.00  0.00    -0.345 N 
HETATM   34  C11 UNL     1      -4.626  21.537 -13.424  1.00  0.00     0.154 A 
HETATM   35  C10 UNL     1      -5.121  22.176 -15.432  1.00  0.00     0.182 A 
ATOM     36  H6  UNL     1      -3.896  23.919 -15.445  1.00  0.00     0.167 HD
HETATM   37  N7  UNL     1      -5.347  21.232 -14.494  1.00  0.00    -0.336 N 
ATOM     38  H7  UNL     1      -5.964  20.425 -14.591  1.00  0.00     0.168 HD
HETATM   39  N8  UNL     1      -4.454  20.969 -12.204  1.00  0.00    -0.174 N 
ATOM     40  H8  UNL     1      -4.954  20.109 -11.977  1.00  0.00     0.186 HD
ENDBRANCH  25  27
ENDBRANCH  24  25
ENDBRANCH  23  24
ENDBRANCH  22  23
ENDBRANCH  21  22
ENDBRANCH   1  21
TORSDOF 14
ENDMDL
MODEL 4
REMARK VINA RESULT: -7.135456773      4.638      6.689
REMARK  14 active torsions:
REMARK  status: ('A' for Active; 'I' for Inactive)
REMARK       I    between atoms: C1_4  and  N3_6 
REMARK    1  A    between atoms: N3_6  and  C2_7 
REMARK    2  A    between atoms: N3_6  and  C12_28 
REMARK    3  A    between atoms: C2_7  and  C3_8 
REMARK    4  A    between atoms: C3_8  and  C4_9 
REMARK    5  A    between atoms: C4_9  and  C5_10 
REMARK    6  A    between atoms: C5_10  and  C6_11 
REMARK    7  A    between atoms: C6_11  and  N4_12 
REMARK    8  A    between atoms: N4_12  and  C7_14 
REMARK    9  A    between atoms: C12_28  and  C13_29 
REMARK       I    between atoms: C13_29  and  N9_31 
REMARK   10  A    between atoms: N9_31  and  C14_33 
REMARK   11  A    between atoms: C14_33  and  C15_34 
REMARK   12  A    between atoms: C15_34  and  C16_35 
REMARK   13  A    between atoms: C16_35  and  C17_36 
REMARK   14  A    between atoms: C17_36  and  N10_37 
ROOT
HETATM    1  C2  UNL     1      -0.416  22.849  -6.982  1.00  0.00     0.126 C 
ENDROOT
BRANCH   1   2
HETATM    2  N3  UNL     1      -0.021  23.354  -5.701  1.00  0.00    -0.347 N 
HETATM    3  C1  UNL     1       1.068  22.813  -4.991  1.00  0.00     0.184 C 
HETATM    4  N1  UNL     1       1.946  23.681  -4.537  1.00  0.00    -0.374 N 
HETATM    5  N2  UNL     1       1.287  21.443  -4.720  1.00  0.00    -0.064 NA
ATOM      6  H12 UNL     1       2.735  23.289  -4.024  1.00  0.00     0.158 HD
ATOM      7  H11 UNL     1       1.788  24.670  -4.733  1.00  0.00     0.158 HD
BRANCH   2   8
HETATM    8  C12 UNL     1      -0.761  24.441  -5.104  1.00  0.00     0.228 C 
BRANCH   8   9
HETATM    9  C13 UNL     1      -1.103  25.567  -5.957  1.00  0.00     0.235 C 
HETATM   10  O2  UNL     1      -2.361  25.860  -5.985  1.00  0.00    -0.272 OA
HETATM   11  N9  UNL     1      -0.287  26.376  -6.747  1.00  0.00    -0.360 N 
ATOM     12  H9  UNL     1       0.719  26.204  -6.771  1.00  0.00     0.162 HD
BRANCH  11  13
HETATM   13  C14 UNL     1      -0.855  27.474  -7.548  1.00  0.00     0.122 C 
BRANCH  13  14
HETATM   14  C15 UNL     1       0.194  28.140  -8.361  1.00  0.00     0.021 C 
BRANCH  14  15
HETATM   15  C16 UNL     1       0.052  29.594  -8.618  1.00  0.00     0.029 C 
BRANCH  15  16
HETATM   16  C17 UNL     1      -0.780  30.370  -7.673  1.00  0.00     0.229 C 
BRANCH  16  17
HETATM   17  N10 UNL     1      -2.061  30.797  -8.155  1.00  0.00    -0.079 N 
ATOM     18 3H10 UNL     1      -2.116  30.649  -9.163  1.00  0.00     0.274 HD
ATOM     19 2H10 UNL     1      -2.782  30.152  -7.833  1.00  0.00     0.274 HD
ATOM     20 1H10 UNL     1      -2.332  31.755  -7.933  1.00  0.00     0.274 HD
ENDBRANCH  16  17
ENDBRANCH  15  16
ENDBRANCH  14  15
ENDBRANCH  13  14
ENDBRANCH  11  13
ENDBRANCH   8   9
ENDBRANCH   2   8
ENDBRANCH   1   2
BRANCH   1  21
HETATM   21  C3  UNL     1      -1.625  22.007  -7.078  1.00  0.00     0.020 C 
BRANCH  21  22
HETATM   22  C4  UNL     1      -1.424  20.557  -7.338  1.00  0.00     0.003 C 
BRANCH  22  23
HETATM   23  C5  UNL     1      -2.554  19.704  -6.794  1.00  0.00     0.020 C 
BRANCH  23  24
HETATM   24  C6  UNL     1      -1.971  18.650  -5.865  1.00  0.00     0.138 C 
BRANCH  24  25
HETATM   25  N4  UNL     1      -0.737  19.031  -5.270  1.00  0.00    -0.226 N 
ATOM     26  H4  UNL     1      -0.687  19.964  -4.862  1.00  0.00     0.177 HD
BRANCH  25  27
HETATM   27  C7  UNL     1       0.311  18.310  -5.202  1.00  0.00     0.682 A 
HETATM   28  N5  UNL     1       1.275  18.414  -6.115  1.00  0.00    -0.154 N 
HETATM   29  C8  UNL     1       2.400  17.650  -6.060  1.00  0.00     0.290 A 
ATOM     30  H5  UNL     1       1.167  19.085  -6.877  1.00  0.00     0.187 HD
HETATM   31  O1  UNL     1       3.301  17.755  -6.921  1.00  0.00    -0.265 OA
HETATM   32  C9  UNL     1       2.504  16.756  -5.010  1.00  0.00     0.147 A 
HETATM   33  N6  UNL     1       3.501  15.882  -4.710  1.00  0.00    -0.345 N 
HETATM   34  C11 UNL     1       1.519  16.643  -4.065  1.00  0.00     0.154 A 
HETATM   35  C10 UNL     1       3.103  15.248  -3.582  1.00  0.00     0.182 A 
ATOM     36  H6  UNL     1       4.367  15.733  -5.227  1.00  0.00     0.167 HD
HETATM   37  N7  UNL     1       1.897  15.715  -3.196  1.00  0.00    -0.336 N 
ATOM     38  H7  UNL     1       1.369  15.409  -2.380  1.00  0.00     0.168 HD
HETATM   39  N8  UNL     1       0.427  17.438  -4.187  1.00  0.00    -0.174 N 
ATOM     40  H8  UNL     1      -0.320  17.372  -3.496  1.00  0.00     0.186 HD
ENDBRANCH  25  27
ENDBRANCH  24  25
ENDBRANCH  23  24
ENDBRANCH  22  23
ENDBRANCH  21  22
ENDBRANCH   1  21
TORSDOF 14
ENDMDL
MODEL 5
REMARK VINA RESULT: -7.126835719      3.982      5.051
REMARK  14 active torsions:
REMARK  status: ('A' for Active; 'I' for Inactive)
REMARK       I    between atoms: C1_4  and  N3_6 
REMARK    1  A    between atoms: N3_6  and  C2_7 
REMARK    2  A    between atoms: N3_6  and  C12_28 
REMARK    3  A    between atoms: C2_7  and  C3_8 
REMARK    4  A    between atoms: C3_8  and  C4_9 
REMARK    5  A    between atoms: C4_9  and  C5_10 
REMARK    6  A    between atoms: C5_10  and  C6_11 
REMARK    7  A    between atoms: C6_11  and  N4_12 
REMARK    8  A    between atoms: N4_12  and  C7_14 
REMARK    9  A    between atoms: C12_28  and  C13_29 
REMARK       I    between atoms: C13_29  and  N9_31 
REMARK   10  A    between atoms: N9_31  and  C14_33 
REMARK   11  A    between atoms: C14_33  and  C15_34 
REMARK   12  A    between atoms: C15_34  and  C16_35 
REMARK   13  A    between atoms: C16_35  and  C17_36 
REMARK   14  A    between atoms: C17_36  and  N10_37 
ROOT
HETATM    1  C2  UNL     1      -0.458  22.794  -6.982  1.00  0.00     0.126 C 
ENDROOT
BRANCH   1   2
HETATM    2  N3  UNL     1      -0.028  23.299  -5.712  1.00  0.00    -0.347 N 
HETATM    3  C1  UNL     1       1.063  22.739  -5.020  1.00  0.00     0.184 C 
HETATM    4  N1  UNL     1       1.967  23.592  -4.588  1.00  0.00    -0.374 N 
HETATM    5  N2  UNL     1       1.258  21.367  -4.743  1.00  0.00    -0.064 NA
ATOM      6  H12 UNL     1       2.757  23.186  -4.087  1.00  0.00     0.158 HD
ATOM      7  H11 UNL     1       1.826  24.582  -4.787  1.00  0.00     0.158 HD
BRANCH   2   8
HETATM    8  C12 UNL     1      -0.734  24.405  -5.109  1.00  0.00     0.228 C 
BRANCH   8   9
HETATM    9  C13 UNL     1      -1.089  25.522  -5.967  1.00  0.00     0.235 C 
HETATM   10  O2  UNL     1      -2.336  25.855  -5.932  1.00  0.00    -0.272 OA
HETATM   11  N9  UNL     1      -0.294  26.287  -6.821  1.00  0.00    -0.360 N 
ATOM     12  H9  UNL     1       0.703  26.082  -6.897  1.00  0.00     0.162 HD
BRANCH  11  13
HETATM   13  C14 UNL     1      -0.872  27.385  -7.614  1.00  0.00     0.122 C 
BRANCH  13  14
HETATM   14  C15 UNL     1       0.177  28.092  -8.393  1.00  0.00     0.021 C 
BRANCH  14  15
HETATM   15  C16 UNL     1       0.090  29.569  -8.489  1.00  0.00     0.029 C 
BRANCH  15  16
HETATM   16  C17 UNL     1      -0.765  30.263  -7.502  1.00  0.00     0.229 C 
BRANCH  16  17
HETATM   17  N10 UNL     1      -1.986  30.825  -8.002  1.00  0.00    -0.079 N 
ATOM     18 3H10 UNL     1      -2.655  30.079  -8.194  1.00  0.00     0.274 HD
ATOM     19 2H10 UNL     1      -2.469  31.321  -7.253  1.00  0.00     0.274 HD
ATOM     20 1H10 UNL     1      -1.905  31.432  -8.819  1.00  0.00     0.274 HD
ENDBRANCH  16  17
ENDBRANCH  15  16
ENDBRANCH  14  15
ENDBRANCH  13  14
ENDBRANCH  11  13
ENDBRANCH   8   9
ENDBRANCH   2   8
ENDBRANCH   1   2
BRANCH   1  21
HETATM   21  C3  UNL     1      -1.698  21.996  -7.053  1.00  0.00     0.020 C 
BRANCH  21  22
HETATM   22  C4  UNL     1      -1.595  20.632  -7.636  1.00  0.00     0.003 C 
BRANCH  22  23
HETATM   23  C5  UNL     1      -2.027  19.548  -6.667  1.00  0.00     0.020 C 
BRANCH  23  24
HETATM   24  C6  UNL     1      -0.789  18.914  -6.054  1.00  0.00     0.138 C 
BRANCH  24  25
HETATM   25  N4  UNL     1       0.362  18.984  -6.886  1.00  0.00    -0.226 N 
ATOM     26  H4  UNL     1       0.830  19.887  -6.958  1.00  0.00     0.177 HD
BRANCH  25  27
HETATM   27  C7  UNL     1       0.860  18.018  -7.551  1.00  0.00     0.682 A 
HETATM   28  N5  UNL     1       1.366  16.951  -6.934  1.00  0.00    -0.154 N 
HETATM   29  C8  UNL     1       1.905  15.911  -7.627  1.00  0.00     0.290 A 
ATOM     30  H5  UNL     1       1.350  16.912  -5.915  1.00  0.00     0.187 HD
HETATM   31  O1  UNL     1       2.378  14.912  -7.041  1.00  0.00    -0.265 OA
HETATM   32  C9  UNL     1       1.905  16.006  -9.007  1.00  0.00     0.147 A 
HETATM   33  N6  UNL     1       2.371  15.131  -9.938  1.00  0.00    -0.345 N 
HETATM   34  C11 UNL     1       1.387  17.098  -9.651  1.00  0.00     0.154 A 
HETATM   35  C10 UNL     1       2.126  15.708 -11.136  1.00  0.00     0.182 A 
ATOM     36  H6  UNL     1       2.814  14.227  -9.767  1.00  0.00     0.167 HD
HETATM   37  N7  UNL     1       1.528  16.904 -10.954  1.00  0.00    -0.336 N 
ATOM     38  H7  UNL     1       1.236  17.546 -11.691  1.00  0.00     0.168 HD
HETATM   39  N8  UNL     1       0.867  18.095  -8.892  1.00  0.00    -0.174 N 
ATOM     40  H8  UNL     1       0.474  18.918  -9.348  1.00  0.00     0.186 HD
ENDBRANCH  25  27
ENDBRANCH  24  25
ENDBRANCH  23  24
ENDBRANCH  22  23
ENDBRANCH  21  22
ENDBRANCH   1  21
TORSDOF 14
ENDMDL
