MODEL 1
REMARK VINA RESULT: -8.671619701      0.000      0.000
REMARK  21 active torsions:
REMARK  status: ('A' for Active; 'I' for Inactive)
REMARK    1  A    between atoms: C2_2  and  C4_4 
REMARK    2  A    between atoms: C4_4  and  C5_5 
REMARK    3  A    between atoms: C5_5  and  N3_11 
REMARK    4  A    between atoms: N1_6  and  N2_8 
REMARK    5  A    between atoms: N3_11  and  C6_13 
REMARK    6  A    between atoms: C6_13  and  N4_14 
REMARK    7  A    between atoms: C6_13  and  S2_34 
REMARK    8  A    between atoms: N4_14  and  C7_16 
REMARK    9  A    between atoms: C7_16  and  C8_17 
REMARK   10  A    between atoms: C11_20  and  O1_21 
REMARK   11  A    between atoms: C11_20  and  C12_23 
REMARK   12  A    between atoms: C12_23  and  N5_24 
REMARK   13  A    between atoms: N5_24  and  C13_26 
REMARK   14  A    between atoms: S2_34  and  C18_37 
REMARK   15  A    between atoms: C18_37  and  C19_38 
REMARK   16  A    between atoms: C19_38  and  C20_39 
REMARK   17  A    between atoms: C20_39  and  C21_40 
REMARK   18  A    between atoms: C21_40  and  N7_41 
REMARK       I    between atoms: N7_41  and  C22_43 
REMARK       I    between atoms: C22_43  and  N8_45 
REMARK   19  A    between atoms: N8_45  and  C23_47 
REMARK   20  A    between atoms: C23_47  and  C24_48 
REMARK   21  A    between atoms: C24_48  and  C25_49 
ROOT
HETATM    1  C6  UNL     1       9.086  26.612   0.274  1.00  0.00     0.309 C 
ENDROOT
BRANCH   1   2
HETATM    2  N3  UNL     1      10.260  25.957  -0.362  1.00  0.00    -0.345 N 
ATOM      3  H3  UNL     1      11.060  25.639   0.186  1.00  0.00     0.163 HD
BRANCH   2   4
HETATM    4  C5  UNL     1      10.211  25.791  -1.808  1.00  0.00     0.093 C 
HETATM    5  N1  UNL     1       9.311  25.044  -2.282  1.00  0.00    -0.296 N 
ATOM      6  H1  UNL     1       8.698  24.647  -1.569  1.00  0.00     0.187 HD
BRANCH   4   7
HETATM    7  C4  UNL     1      11.222  26.486  -2.607  1.00  0.00     0.081 C 
BRANCH   7   8
HETATM    8  C2  UNL     1      11.227  27.975  -2.433  1.00  0.00    -0.016 C 
HETATM    9  C1  UNL     1      12.593  28.561  -2.740  1.00  0.00     0.010 C 
HETATM   10  C3  UNL     1      10.272  28.551  -3.504  1.00  0.00     0.010 C 
ENDBRANCH   7   8
ENDBRANCH   4   7
BRANCH   5  11
HETATM   11  N2  UNL     1       8.990  24.660  -3.536  1.00  0.00    -0.344 N 
ATOM     12  H22 UNL     1       9.202  25.382  -4.223  1.00  0.00     0.176 HD
ATOM     13  H21 UNL     1       8.586  23.808  -3.926  1.00  0.00     0.176 HD
ENDBRANCH   5  11
ENDBRANCH   2   4
ENDBRANCH   1   2
BRANCH   1  14
HETATM   14  N4  UNL     1       9.513  27.851   0.893  1.00  0.00    -0.358 N 
ATOM     15  H4  UNL     1      10.446  28.047   1.257  1.00  0.00     0.162 HD
BRANCH  14  16
HETATM   16  C7  UNL     1       8.351  28.791   0.906  1.00  0.00     0.042 C 
HETATM   17  C11 UNL     1       8.174  29.412   2.169  1.00  0.00     0.083 C 
BRANCH  16  18
HETATM   18  C8  UNL     1       8.297  29.442  -0.417  1.00  0.00     0.030 C 
HETATM   19  C9  UNL     1       9.187  30.648  -0.616  1.00  0.00     0.016 C 
HETATM   20  C10 UNL     1       6.929  29.671  -0.968  1.00  0.00     0.016 C 
ENDBRANCH  16  18
BRANCH  17  21
HETATM   21  O1  UNL     1       7.013  30.247   2.211  1.00  0.00    -0.361 OA
ATOM     22  H1  UNL     1       6.594  30.245   3.063  1.00  0.00     0.217 HD
ENDBRANCH  17  21
BRANCH  17  23
HETATM   23  C12 UNL     1       9.191  30.109   2.967  1.00  0.00     0.188 C 
BRANCH  23  24
HETATM   24  N5  UNL     1       9.265  29.613   4.326  1.00  0.00    -0.364 N 
ATOM     25  H5  UNL     1       9.953  28.885   4.518  1.00  0.00     0.162 HD
BRANCH  24  26
HETATM   26  C13 UNL     1       8.477  30.043   5.400  1.00  0.00     0.141 C 
HETATM   27  N6  UNL     1       8.623  31.066   6.121  1.00  0.00    -0.349 N 
HETATM   28  C14 UNL     1       7.711  31.323   7.163  1.00  0.00     0.083 C 
ATOM     29  H6  UNL     1       9.398  31.706   5.950  1.00  0.00     0.167 HD
HETATM   30  C15 UNL     1       7.080  30.047   7.674  1.00  0.00     0.040 C 
HETATM   31  C16 UNL     1       7.981  29.280   8.607  1.00  0.00     0.032 C 
HETATM   32  C17 UNL     1       5.695  30.217   8.206  1.00  0.00     0.032 C 
HETATM   33  S1  UNL     1       7.042  29.183   6.037  1.00  0.00    -0.079 SA
ENDBRANCH  24  26
ENDBRANCH  23  24
ENDBRANCH  17  23
ENDBRANCH  14  16
ENDBRANCH   1  14
BRANCH   1  34
HETATM   34  S2  UNL     1       8.335  25.465   1.320  1.00  0.00     0.184 S 
HETATM   35  O2  UNL     1       8.590  24.068   0.719  1.00  0.00    -0.224 OA
HETATM   36  O3  UNL     1       6.821  25.619   1.275  1.00  0.00    -0.224 OA
BRANCH  34  37
HETATM   37  C18 UNL     1       8.888  25.331   2.990  1.00  0.00     0.144 C 
BRANCH  37  38
HETATM   38  C19 UNL     1       8.094  26.181   3.893  1.00  0.00     0.017 C 
BRANCH  38  39
HETATM   39  C20 UNL     1       7.382  25.536   5.024  1.00  0.00     0.021 C 
BRANCH  39  40
HETATM   40  C21 UNL     1       6.232  24.690   4.669  1.00  0.00     0.124 C 
BRANCH  40  41
HETATM   41  N7  UNL     1       5.937  23.630   5.558  1.00  0.00    -0.343 N 
HETATM   42  C22 UNL     1       4.620  23.043   5.646  1.00  0.00     0.316 C 
HETATM   43  O4  UNL     1       3.767  23.521   4.851  1.00  0.00    -0.247 OA
HETATM   44  N8  UNL     1       4.282  22.029   6.531  1.00  0.00    -0.343 N 
ATOM     45  H8  UNL     1       4.999  21.675   7.165  1.00  0.00     0.164 HD
ATOM     46  H7  UNL     1       6.679  23.267   6.156  1.00  0.00     0.164 HD
BRANCH  44  47
HETATM   47  C23 UNL     1       2.969  21.459   6.590  1.00  0.00     0.129 C 
BRANCH  47  48
HETATM   48  C24 UNL     1       2.166  21.835   7.806  1.00  0.00     0.061 C 
BRANCH  48  49
HETATM   49  C25 UNL     1       0.717  21.955   7.553  1.00  0.00    -0.018 A 
HETATM   50  C26 UNL     1      -0.125  20.955   7.984  1.00  0.00     0.010 A 
HETATM   51  C27 UNL     1      -1.500  21.011   7.769  1.00  0.00     0.001 A 
HETATM   52  C28 UNL     1      -2.003  22.113   7.104  1.00  0.00     0.003 A 
HETATM   53  C29 UNL     1      -1.157  23.101   6.680  1.00  0.00     0.043 A 
HETATM   54  C30 UNL     1       0.218  23.039   6.898  1.00  0.00     0.122 A 
HETATM   55  F1  UNL     1       0.979  24.066   6.443  1.00  0.00    -0.206 F 
ENDBRANCH  48  49
ENDBRANCH  47  48
ENDBRANCH  44  47
ENDBRANCH  40  41
ENDBRANCH  39  40
ENDBRANCH  38  39
ENDBRANCH  37  38
ENDBRANCH  34  37
ENDBRANCH   1  34
TORSDOF 21
ENDMDL
MODEL 2
REMARK VINA RESULT: -8.587768474      1.094      1.295
REMARK  21 active torsions:
REMARK  status: ('A' for Active; 'I' for Inactive)
REMARK    1  A    between atoms: C2_2  and  C4_4 
REMARK    2  A    between atoms: C4_4  and  C5_5 
REMARK    3  A    between atoms: C5_5  and  N3_11 
REMARK    4  A    between atoms: N1_6  and  N2_8 
REMARK    5  A    between atoms: N3_11  and  C6_13 
REMARK    6  A    between atoms: C6_13  and  N4_14 
REMARK    7  A    between atoms: C6_13  and  S2_34 
REMARK    8  A    between atoms: N4_14  and  C7_16 
REMARK    9  A    between atoms: C7_16  and  C8_17 
REMARK   10  A    between atoms: C11_20  and  O1_21 
REMARK   11  A    between atoms: C11_20  and  C12_23 
REMARK   12  A    between atoms: C12_23  and  N5_24 
REMARK   13  A    between atoms: N5_24  and  C13_26 
REMARK   14  A    between atoms: S2_34  and  C18_37 
REMARK   15  A    between atoms: C18_37  and  C19_38 
REMARK   16  A    between atoms: C19_38  and  C20_39 
REMARK   17  A    between atoms: C20_39  and  C21_40 
REMARK   18  A    between atoms: C21_40  and  N7_41 
REMARK       I    between atoms: N7_41  and  C22_43 
REMARK       I    between atoms: C22_43  and  N8_45 
REMARK   19  A    between atoms: N8_45  and  C23_47 
REMARK   20  A    between atoms: C23_47  and  C24_48 
REMARK   21  A    between atoms: C24_48  and  C25_49 
ROOT
HETATM    1  C6  UNL     1       9.170  26.306   0.077  1.00  0.00     0.309 C 
ENDROOT
BRANCH   1   2
HETATM    2  N3  UNL     1      10.374  25.555  -0.371  1.00  0.00    -0.345 N 
ATOM      3  H3  UNL     1      11.158  25.375   0.256  1.00  0.00     0.163 HD
BRANCH   2   4
HETATM    4  C5  UNL     1      10.375  25.089  -1.750  1.00  0.00     0.093 C 
HETATM    5  N1  UNL     1      10.322  23.844  -1.950  1.00  0.00    -0.296 N 
ATOM      6  H1  UNL     1      10.265  23.299  -1.089  1.00  0.00     0.187 HD
BRANCH   4   7
HETATM    7  C4  UNL     1      10.461  26.098  -2.809  1.00  0.00     0.081 C 
BRANCH   7   8
HETATM    8  C2  UNL     1      11.641  27.016  -2.689  1.00  0.00    -0.016 C 
HETATM    9  C1  UNL     1      12.948  26.249  -2.782  1.00  0.00     0.010 C 
HETATM   10  C3  UNL     1      11.609  27.945  -3.925  1.00  0.00     0.010 C 
ENDBRANCH   7   8
ENDBRANCH   4   7
BRANCH   5  11
HETATM   11  N2  UNL     1      10.324  23.082  -3.064  1.00  0.00    -0.344 N 
ATOM     12  H22 UNL     1       9.390  22.984  -3.461  1.00  0.00     0.176 HD
ATOM     13  H21 UNL     1      11.057  22.595  -3.578  1.00  0.00     0.176 HD
ENDBRANCH   5  11
ENDBRANCH   2   4
ENDBRANCH   1   2
BRANCH   1  14
HETATM   14  N4  UNL     1       9.568  27.641   0.478  1.00  0.00    -0.358 N 
ATOM     15  H4  UNL     1      10.394  27.879   1.026  1.00  0.00     0.162 HD
BRANCH  14  16
HETATM   16  C7  UNL     1       8.558  28.607  -0.051  1.00  0.00     0.042 C 
HETATM   17  C11 UNL     1       7.805  29.220   0.983  1.00  0.00     0.083 C 
BRANCH  16  18
HETATM   18  C8  UNL     1       9.156  29.271  -1.224  1.00  0.00     0.030 C 
HETATM   19  C9  UNL     1       9.928  30.545  -0.963  1.00  0.00     0.016 C 
HETATM   20  C10 UNL     1       8.266  29.403  -2.415  1.00  0.00     0.016 C 
ENDBRANCH  16  18
BRANCH  17  21
HETATM   21  O1  UNL     1       6.780  30.081   0.478  1.00  0.00    -0.361 OA
ATOM     22  H1  UNL     1       6.128  30.295   1.135  1.00  0.00     0.217 HD
ENDBRANCH  17  21
BRANCH  17  23
HETATM   23  C12 UNL     1       8.323  29.886   2.185  1.00  0.00     0.188 C 
BRANCH  23  24
HETATM   24  N5  UNL     1       7.280  30.197   3.141  1.00  0.00    -0.364 N 
ATOM     25  H5  UNL     1       6.387  30.517   2.766  1.00  0.00     0.162 HD
BRANCH  24  26
HETATM   26  C13 UNL     1       7.387  30.096   4.533  1.00  0.00     0.141 C 
HETATM   27  N6  UNL     1       6.840  29.263   5.304  1.00  0.00    -0.349 N 
HETATM   28  C14 UNL     1       7.079  29.331   6.691  1.00  0.00     0.083 C 
ATOM     29  H6  UNL     1       6.227  28.541   4.926  1.00  0.00     0.167 HD
HETATM   30  C15 UNL     1       7.429  30.738   7.123  1.00  0.00     0.040 C 
HETATM   31  C16 UNL     1       6.221  31.629   7.253  1.00  0.00     0.032 C 
HETATM   32  C17 UNL     1       8.338  30.808   8.306  1.00  0.00     0.032 C 
HETATM   33  S1  UNL     1       8.341  31.192   5.578  1.00  0.00    -0.079 SA
ENDBRANCH  24  26
ENDBRANCH  23  24
ENDBRANCH  17  23
ENDBRANCH  14  16
ENDBRANCH   1  14
BRANCH   1  34
HETATM   34  S2  UNL     1       8.368  25.364   1.278  1.00  0.00     0.184 S 
HETATM   35  O2  UNL     1       8.518  23.884   0.870  1.00  0.00    -0.224 OA
HETATM   36  O3  UNL     1       6.867  25.614   1.233  1.00  0.00    -0.224 OA
BRANCH  34  37
HETATM   37  C18 UNL     1       8.948  25.418   2.944  1.00  0.00     0.144 C 
BRANCH  37  38
HETATM   38  C19 UNL     1       8.134  26.324   3.772  1.00  0.00     0.017 C 
BRANCH  38  39
HETATM   39  C20 UNL     1       7.412  25.757   4.937  1.00  0.00     0.021 C 
BRANCH  39  40
HETATM   40  C21 UNL     1       6.240  24.921   4.631  1.00  0.00     0.124 C 
BRANCH  40  41
HETATM   41  N7  UNL     1       5.953  23.885   5.550  1.00  0.00    -0.343 N 
HETATM   42  C22 UNL     1       4.663  23.237   5.600  1.00  0.00     0.316 C 
HETATM   43  O4  UNL     1       3.829  23.637   4.745  1.00  0.00    -0.247 OA
HETATM   44  N8  UNL     1       4.331  22.244   6.512  1.00  0.00    -0.343 N 
ATOM     45  H8  UNL     1       5.031  21.953   7.195  1.00  0.00     0.164 HD
ATOM     46  H7  UNL     1       6.681  23.586   6.198  1.00  0.00     0.164 HD
BRANCH  44  47
HETATM   47  C23 UNL     1       3.046  21.612   6.533  1.00  0.00     0.129 C 
BRANCH  47  48
HETATM   48  C24 UNL     1       2.227  21.874   7.768  1.00  0.00     0.061 C 
BRANCH  48  49
HETATM   49  C25 UNL     1       0.776  21.970   7.514  1.00  0.00    -0.018 A 
HETATM   50  C26 UNL     1      -0.041  20.927   7.889  1.00  0.00     0.010 A 
HETATM   51  C27 UNL     1      -1.416  20.959   7.672  1.00  0.00     0.001 A 
HETATM   52  C28 UNL     1      -1.946  22.081   7.062  1.00  0.00     0.003 A 
HETATM   53  C29 UNL     1      -1.124  23.111   6.695  1.00  0.00     0.043 A 
HETATM   54  C30 UNL     1       0.251  23.073   6.915  1.00  0.00     0.122 A 
HETATM   55  F1  UNL     1       0.986  24.142   6.517  1.00  0.00    -0.206 F 
ENDBRANCH  48  49
ENDBRANCH  47  48
ENDBRANCH  44  47
ENDBRANCH  40  41
ENDBRANCH  39  40
ENDBRANCH  38  39
ENDBRANCH  37  38
ENDBRANCH  34  37
ENDBRANCH   1  34
TORSDOF 21
ENDMDL
MODEL 3
REMARK VINA RESULT: -8.374862272      1.197      1.719
REMARK  21 active torsions:
REMARK  status: ('A' for Active; 'I' for Inactive)
REMARK    1  A    between atoms: C2_2  and  C4_4 
REMARK    2  A    between atoms: C4_4  and  C5_5 
REMARK    3  A    between atoms: C5_5  and  N3_11 
REMARK    4  A    between atoms: N1_6  and  N2_8 
REMARK    5  A    between atoms: N3_11  and  C6_13 
REMARK    6  A    between atoms: C6_13  and  N4_14 
REMARK    7  A    between atoms: C6_13  and  S2_34 
REMARK    8  A    between atoms: N4_14  and  C7_16 
REMARK    9  A    between atoms: C7_16  and  C8_17 
REMARK   10  A    between atoms: C11_20  and  O1_21 
REMARK   11  A    between atoms: C11_20  and  C12_23 
REMARK   12  A    between atoms: C12_23  and  N5_24 
REMARK   13  A    between atoms: N5_24  and  C13_26 
REMARK   14  A    between atoms: S2_34  and  C18_37 
REMARK   15  A    between atoms: C18_37  and  C19_38 
REMARK   16  A    between atoms: C19_38  and  C20_39 
REMARK   17  A    between atoms: C20_39  and  C21_40 
REMARK   18  A    between atoms: C21_40  and  N7_41 
REMARK       I    between atoms: N7_41  and  C22_43 
REMARK       I    between atoms: C22_43  and  N8_45 
REMARK   19  A    between atoms: N8_45  and  C23_47 
REMARK   20  A    between atoms: C23_47  and  C24_48 
REMARK   21  A    between atoms: C24_48  and  C25_49 
ROOT
HETATM    1  C6  UNL     1       8.940  26.795   0.311  1.00  0.00     0.309 C 
ENDROOT
BRANCH   1   2
HETATM    2  N3  UNL     1       9.939  25.945  -0.393  1.00  0.00    -0.345 N 
ATOM      3  H3  UNL     1      10.437  25.195   0.086  1.00  0.00     0.163 HD
BRANCH   2   4
HETATM    4  C5  UNL     1      10.169  26.240  -1.800  1.00  0.00     0.093 C 
HETATM    5  N1  UNL     1      11.077  27.069  -2.085  1.00  0.00    -0.296 N 
ATOM      6  H1  UNL     1      11.566  27.430  -1.265  1.00  0.00     0.187 HD
BRANCH   4   7
HETATM    7  C4  UNL     1       9.315  25.571  -2.783  1.00  0.00     0.081 C 
BRANCH   7   8
HETATM    8  C2  UNL     1      10.026  24.549  -3.620  1.00  0.00    -0.016 C 
HETATM    9  C1  UNL     1      10.303  23.284  -2.827  1.00  0.00     0.010 C 
HETATM   10  C3  UNL     1       9.047  24.135  -4.743  1.00  0.00     0.010 C 
ENDBRANCH   7   8
ENDBRANCH   4   7
BRANCH   5  11
HETATM   11  N2  UNL     1      11.537  27.578  -3.247  1.00  0.00    -0.344 N 
ATOM     12  H22 UNL     1      11.081  27.156  -4.056  1.00  0.00     0.176 HD
ATOM     13  H21 UNL     1      12.235  28.285  -3.475  1.00  0.00     0.176 HD
ENDBRANCH   5  11
ENDBRANCH   2   4
ENDBRANCH   1   2
BRANCH   1  14
HETATM   14  N4  UNL     1       9.616  27.939   0.889  1.00  0.00    -0.358 N 
ATOM     15  H4  UNL     1      10.576  27.956   1.232  1.00  0.00     0.162 HD
BRANCH  14  16
HETATM   16  C7  UNL     1       8.662  29.090   0.896  1.00  0.00     0.042 C 
HETATM   17  C11 UNL     1       8.419  29.582   2.204  1.00  0.00     0.083 C 
BRANCH  16  18
HETATM   18  C8  UNL     1       8.927  29.888  -0.316  1.00  0.00     0.030 C 
HETATM   19  C9  UNL     1       8.147  29.515  -1.557  1.00  0.00     0.016 C 
HETATM   20  C10 UNL     1      10.365  30.136  -0.625  1.00  0.00     0.016 C 
ENDBRANCH  16  18
BRANCH  17  21
HETATM   21  O1  UNL     1       7.442  30.627   2.224  1.00  0.00    -0.361 OA
ATOM     22  H1  UNL     1       7.401  31.070   3.063  1.00  0.00     0.217 HD
ENDBRANCH  17  21
BRANCH  17  23
HETATM   23  C12 UNL     1       9.420  29.957   3.212  1.00  0.00     0.188 C 
BRANCH  23  24
HETATM   24  N5  UNL     1       9.252  29.233   4.456  1.00  0.00    -0.364 N 
ATOM     25  H5  UNL     1       9.747  28.346   4.547  1.00  0.00     0.162 HD
BRANCH  24  26
HETATM   26  C13 UNL     1       8.471  29.642   5.543  1.00  0.00     0.141 C 
HETATM   27  N6  UNL     1       8.422  30.776   6.092  1.00  0.00    -0.349 N 
HETATM   28  C14 UNL     1       7.561  30.986   7.187  1.00  0.00     0.083 C 
ATOM     29  H6  UNL     1       9.002  31.538   5.744  1.00  0.00     0.167 HD
HETATM   30  C15 UNL     1       7.302  29.701   7.942  1.00  0.00     0.040 C 
HETATM   31  C16 UNL     1       8.434  29.322   8.861  1.00  0.00     0.032 C 
HETATM   32  C17 UNL     1       5.964  29.636   8.602  1.00  0.00     0.032 C 
HETATM   33  S1  UNL     1       7.344  28.595   6.458  1.00  0.00    -0.079 SA
ENDBRANCH  24  26
ENDBRANCH  23  24
ENDBRANCH  17  23
ENDBRANCH  14  16
ENDBRANCH   1  14
BRANCH   1  34
HETATM   34  S2  UNL     1       8.070  25.794   1.414  1.00  0.00     0.184 S 
HETATM   35  O2  UNL     1       8.535  24.343   1.175  1.00  0.00    -0.224 OA
HETATM   36  O3  UNL     1       6.590  25.775   1.057  1.00  0.00    -0.224 OA
BRANCH  34  37
HETATM   37  C18 UNL     1       8.279  26.041   3.149  1.00  0.00     0.144 C 
BRANCH  37  38
HETATM   38  C19 UNL     1       9.247  25.089   3.719  1.00  0.00     0.017 C 
BRANCH  38  39
HETATM   39  C20 UNL     1       8.795  24.192   4.811  1.00  0.00     0.021 C 
BRANCH  39  40
HETATM   40  C21 UNL     1       7.435  24.424   5.321  1.00  0.00     0.124 C 
BRANCH  40  41
HETATM   41  N7  UNL     1       6.802  23.322   5.942  1.00  0.00    -0.343 N 
HETATM   42  C22 UNL     1       5.376  23.106   5.861  1.00  0.00     0.316 C 
HETATM   43  O4  UNL     1       4.746  23.950   5.168  1.00  0.00    -0.247 OA
HETATM   44  N8  UNL     1       4.715  22.060   6.487  1.00  0.00    -0.343 N 
ATOM     45  H8  UNL     1       5.259  21.403   7.047  1.00  0.00     0.164 HD
ATOM     46  H7  UNL     1       7.372  22.658   6.466  1.00  0.00     0.164 HD
BRANCH  44  47
HETATM   47  C23 UNL     1       3.300  21.865   6.381  1.00  0.00     0.129 C 
BRANCH  47  48
HETATM   48  C24 UNL     1       2.482  22.528   7.457  1.00  0.00     0.061 C 
BRANCH  48  49
HETATM   49  C25 UNL     1       1.042  22.213   7.393  1.00  0.00    -0.018 A 
HETATM   50  C26 UNL     1       0.555  21.144   8.111  1.00  0.00     0.010 A 
HETATM   51  C27 UNL     1      -0.792  20.796   8.086  1.00  0.00     0.001 A 
HETATM   52  C28 UNL     1      -1.642  21.565   7.313  1.00  0.00     0.003 A 
HETATM   53  C29 UNL     1      -1.147  22.626   6.604  1.00  0.00     0.043 A 
HETATM   54  C30 UNL     1       0.203  22.969   6.633  1.00  0.00     0.122 A 
HETATM   55  F1  UNL     1       0.601  24.037   5.898  1.00  0.00    -0.206 F 
ENDBRANCH  48  49
ENDBRANCH  47  48
ENDBRANCH  44  47
ENDBRANCH  40  41
ENDBRANCH  39  40
ENDBRANCH  38  39
ENDBRANCH  37  38
ENDBRANCH  34  37
ENDBRANCH   1  34
TORSDOF 21
ENDMDL
MODEL 4
REMARK VINA RESULT: -8.338157764      6.014     14.046
REMARK  21 active torsions:
REMARK  status: ('A' for Active; 'I' for Inactive)
REMARK    1  A    between atoms: C2_2  and  C4_4 
REMARK    2  A    between atoms: C4_4  and  C5_5 
REMARK    3  A    between atoms: C5_5  and  N3_11 
REMARK    4  A    between atoms: N1_6  and  N2_8 
REMARK    5  A    between atoms: N3_11  and  C6_13 
REMARK    6  A    between atoms: C6_13  and  N4_14 
REMARK    7  A    between atoms: C6_13  and  S2_34 
REMARK    8  A    between atoms: N4_14  and  C7_16 
REMARK    9  A    between atoms: C7_16  and  C8_17 
REMARK   10  A    between atoms: C11_20  and  O1_21 
REMARK   11  A    between atoms: C11_20  and  C12_23 
REMARK   12  A    between atoms: C12_23  and  N5_24 
REMARK   13  A    between atoms: N5_24  and  C13_26 
REMARK   14  A    between atoms: S2_34  and  C18_37 
REMARK   15  A    between atoms: C18_37  and  C19_38 
REMARK   16  A    between atoms: C19_38  and  C20_39 
REMARK   17  A    between atoms: C20_39  and  C21_40 
REMARK   18  A    between atoms: C21_40  and  N7_41 
REMARK       I    between atoms: N7_41  and  C22_43 
REMARK       I    between atoms: C22_43  and  N8_45 
REMARK   19  A    between atoms: N8_45  and  C23_47 
REMARK   20  A    between atoms: C23_47  and  C24_48 
REMARK   21  A    between atoms: C24_48  and  C25_49 
ROOT
HETATM    1  C6  UNL     1      -3.542  22.085   8.492  1.00  0.00     0.309 C 
ENDROOT
BRANCH   1   2
HETATM    2  N3  UNL     1      -3.849  20.630   8.519  1.00  0.00    -0.345 N 
ATOM      3  H3  UNL     1      -3.166  19.943   8.839  1.00  0.00     0.163 HD
BRANCH   2   4
HETATM    4  C5  UNL     1      -5.175  20.235   8.065  1.00  0.00     0.093 C 
HETATM    5  N1  UNL     1      -5.354  20.105   6.822  1.00  0.00    -0.296 N 
ATOM      6  H1  UNL     1      -4.514  20.283   6.272  1.00  0.00     0.187 HD
BRANCH   4   7
HETATM    7  C4  UNL     1      -6.211  20.037   9.080  1.00  0.00     0.081 C 
BRANCH   7   8
HETATM    8  C2  UNL     1      -6.090  18.751   9.840  1.00  0.00    -0.016 C 
HETATM    9  C1  UNL     1      -5.632  18.994  11.267  1.00  0.00     0.010 C 
HETATM   10  C3  UNL     1      -7.517  18.164   9.951  1.00  0.00     0.010 C 
ENDBRANCH   7   8
ENDBRANCH   4   7
BRANCH   5  11
HETATM   11  N2  UNL     1      -6.426  19.780   6.069  1.00  0.00    -0.344 N 
ATOM     12  H22 UNL     1      -6.680  20.527   5.423  1.00  0.00     0.176 HD
ATOM     13  H21 UNL     1      -7.022  18.953   6.017  1.00  0.00     0.176 HD
ENDBRANCH   5  11
ENDBRANCH   2   4
ENDBRANCH   1   2
BRANCH   1  14
HETATM   14  N4  UNL     1      -4.781  22.828   8.372  1.00  0.00    -0.358 N 
ATOM     15  H4  UNL     1      -5.398  22.834   7.559  1.00  0.00     0.162 HD
BRANCH  14  16
HETATM   16  C7  UNL     1      -4.999  23.581   9.644  1.00  0.00     0.042 C 
HETATM   17  C11 UNL     1      -4.381  24.858   9.627  1.00  0.00     0.083 C 
BRANCH  16  18
HETATM   18  C8  UNL     1      -6.358  23.261  10.118  1.00  0.00     0.030 C 
HETATM   19  C9  UNL     1      -7.431  24.291   9.848  1.00  0.00     0.016 C 
HETATM   20  C10 UNL     1      -6.448  22.727  11.509  1.00  0.00     0.016 C 
ENDBRANCH  16  18
BRANCH  17  21
HETATM   21  O1  UNL     1      -4.514  25.548  10.874  1.00  0.00    -0.361 OA
ATOM     22  H1  UNL     1      -3.821  26.182  11.014  1.00  0.00     0.217 HD
ENDBRANCH  17  21
BRANCH  17  23
HETATM   23  C12 UNL     1      -4.503  25.891   8.589  1.00  0.00     0.188 C 
BRANCH  23  24
HETATM   24  N5  UNL     1      -3.216  26.392   8.152  1.00  0.00    -0.364 N 
ATOM     25  H5  UNL     1      -2.557  25.712   7.775  1.00  0.00     0.162 HD
BRANCH  24  26
HETATM   26  C13 UNL     1      -2.796  27.727   8.202  1.00  0.00     0.141 C 
HETATM   27  N6  UNL     1      -3.218  28.655   8.943  1.00  0.00    -0.349 N 
HETATM   28  C14 UNL     1      -2.658  29.943   8.838  1.00  0.00     0.083 C 
ATOM     29  H6  UNL     1      -3.963  28.474   9.616  1.00  0.00     0.167 HD
HETATM   30  C15 UNL     1      -2.097  30.191   7.455  1.00  0.00     0.040 C 
HETATM   31  C16 UNL     1      -3.160  30.535   6.444  1.00  0.00     0.032 C 
HETATM   32  C17 UNL     1      -0.935  31.128   7.423  1.00  0.00     0.032 C 
HETATM   33  S1  UNL     1      -1.534  28.453   7.161  1.00  0.00    -0.079 SA
ENDBRANCH  24  26
ENDBRANCH  23  24
ENDBRANCH  17  23
ENDBRANCH  14  16
ENDBRANCH   1  14
BRANCH   1  34
HETATM   34  S2  UNL     1      -2.372  22.362   7.256  1.00  0.00     0.184 S 
HETATM   35  O2  UNL     1      -2.787  23.650   6.517  1.00  0.00    -0.224 OA
HETATM   36  O3  UNL     1      -2.458  21.276   6.193  1.00  0.00    -0.224 OA
BRANCH  34  37
HETATM   37  C18 UNL     1      -0.690  22.642   7.711  1.00  0.00     0.144 C 
BRANCH  37  38
HETATM   38  C19 UNL     1       0.010  21.379   8.002  1.00  0.00     0.017 C 
BRANCH  38  39
HETATM   39  C20 UNL     1       1.465  21.300   7.724  1.00  0.00     0.021 C 
BRANCH  39  40
HETATM   40  C21 UNL     1       1.985  22.229   6.708  1.00  0.00     0.124 C 
BRANCH  40  41
HETATM   41  N7  UNL     1       3.375  22.490   6.750  1.00  0.00    -0.343 N 
HETATM   42  C22 UNL     1       4.056  23.207   5.697  1.00  0.00     0.316 C 
HETATM   43  O4  UNL     1       3.316  23.611   4.760  1.00  0.00    -0.247 OA
HETATM   44  N8  UNL     1       5.422  23.448   5.684  1.00  0.00    -0.343 N 
ATOM     45  H8  UNL     1       5.988  23.098   6.457  1.00  0.00     0.164 HD
ATOM     46  H7  UNL     1       3.913  22.161   7.552  1.00  0.00     0.164 HD
BRANCH  44  47
HETATM   47  C23 UNL     1       6.070  24.171   4.630  1.00  0.00     0.129 C 
BRANCH  47  48
HETATM   48  C24 UNL     1       7.571  24.229   4.726  1.00  0.00     0.061 C 
BRANCH  48  49
HETATM   49  C25 UNL     1       8.161  25.449   4.143  1.00  0.00    -0.018 A 
HETATM   50  C26 UNL     1       8.415  26.529   4.959  1.00  0.00     0.010 A 
HETATM   51  C27 UNL     1       8.966  27.708   4.465  1.00  0.00     0.001 A 
HETATM   52  C28 UNL     1       9.257  27.766   3.115  1.00  0.00     0.003 A 
HETATM   53  C29 UNL     1       9.001  26.687   2.313  1.00  0.00     0.043 A 
HETATM   54  C30 UNL     1       8.448  25.510   2.814  1.00  0.00     0.122 A 
HETATM   55  F1  UNL     1       8.231  24.492   1.944  1.00  0.00    -0.206 F 
ENDBRANCH  48  49
ENDBRANCH  47  48
ENDBRANCH  44  47
ENDBRANCH  40  41
ENDBRANCH  39  40
ENDBRANCH  38  39
ENDBRANCH  37  38
ENDBRANCH  34  37
ENDBRANCH   1  34
TORSDOF 21
ENDMDL
MODEL 5
REMARK VINA RESULT: -8.332076497      2.400      3.727
REMARK  21 active torsions:
REMARK  status: ('A' for Active; 'I' for Inactive)
REMARK    1  A    between atoms: C2_2  and  C4_4 
REMARK    2  A    between atoms: C4_4  and  C5_5 
REMARK    3  A    between atoms: C5_5  and  N3_11 
REMARK    4  A    between atoms: N1_6  and  N2_8 
REMARK    5  A    between atoms: N3_11  and  C6_13 
REMARK    6  A    between atoms: C6_13  and  N4_14 
REMARK    7  A    between atoms: C6_13  and  S2_34 
REMARK    8  A    between atoms: N4_14  and  C7_16 
REMARK    9  A    between atoms: C7_16  and  C8_17 
REMARK   10  A    between atoms: C11_20  and  O1_21 
REMARK   11  A    between atoms: C11_20  and  C12_23 
REMARK   12  A    between atoms: C12_23  and  N5_24 
REMARK   13  A    between atoms: N5_24  and  C13_26 
REMARK   14  A    between atoms: S2_34  and  C18_37 
REMARK   15  A    between atoms: C18_37  and  C19_38 
REMARK   16  A    between atoms: C19_38  and  C20_39 
REMARK   17  A    between atoms: C20_39  and  C21_40 
REMARK   18  A    between atoms: C21_40  and  N7_41 
REMARK       I    between atoms: N7_41  and  C22_43 
REMARK       I    between atoms: C22_43  and  N8_45 
REMARK   19  A    between atoms: N8_45  and  C23_47 
REMARK   20  A    between atoms: C23_47  and  C24_48 
REMARK   21  A    between atoms: C24_48  and  C25_49 
ROOT
HETATM    1  C6  UNL     1       8.725  26.536   3.415  1.00  0.00     0.309 C 
ENDROOT
BRANCH   1   2
HETATM    2  N3  UNL     1       9.791  26.196   2.435  1.00  0.00    -0.345 N 
ATOM      3  H3  UNL     1      10.779  26.338   2.646  1.00  0.00     0.163 HD
BRANCH   2   4
HETATM    4  C5  UNL     1       9.353  25.650   1.158  1.00  0.00     0.093 C 
HETATM    5  N1  UNL     1       9.627  24.443   0.911  1.00  0.00    -0.296 N 
ATOM      6  H1  UNL     1      10.125  23.978   1.671  1.00  0.00     0.187 HD
BRANCH   4   7
HETATM    7  C4  UNL     1       8.645  26.547   0.242  1.00  0.00     0.081 C 
BRANCH   7   8
HETATM    8  C2  UNL     1       9.527  27.543  -0.447  1.00  0.00    -0.016 C 
HETATM    9  C1  UNL     1      10.115  26.969  -1.724  1.00  0.00     0.010 C 
HETATM   10  C3  UNL     1       8.616  28.711  -0.893  1.00  0.00     0.010 C 
ENDBRANCH   7   8
ENDBRANCH   4   7
BRANCH   5  11
HETATM   11  N2  UNL     1       9.399  23.639  -0.148  1.00  0.00    -0.344 N 
ATOM     12  H22 UNL     1       8.729  24.046  -0.800  1.00  0.00     0.176 HD
ATOM     13  H21 UNL     1       9.755  22.723  -0.423  1.00  0.00     0.176 HD
ENDBRANCH   5  11
ENDBRANCH   2   4
ENDBRANCH   1   2
BRANCH   1  14
HETATM   14  N4  UNL     1       9.263  27.452   4.401  1.00  0.00    -0.358 N 
ATOM     15  H4  UNL     1      10.028  27.256   5.046  1.00  0.00     0.162 HD
BRANCH  14  16
HETATM   16  C7  UNL     1       8.504  28.736   4.307  1.00  0.00     0.042 C 
HETATM   17  C11 UNL     1       7.477  28.827   5.282  1.00  0.00     0.083 C 
BRANCH  16  18
HETATM   18  C8  UNL     1       9.464  29.790   3.931  1.00  0.00     0.030 C 
HETATM   19  C9  UNL     1       9.183  31.182   4.452  1.00  0.00     0.016 C 
HETATM   20  C10 UNL     1       9.869  29.813   2.495  1.00  0.00     0.016 C 
ENDBRANCH  16  18
BRANCH  17  21
HETATM   21  O1  UNL     1       6.692  30.016   5.142  1.00  0.00    -0.361 OA
ATOM     22  H1  UNL     1       6.804  30.613   5.872  1.00  0.00     0.217 HD
ENDBRANCH  17  21
BRANCH  17  23
HETATM   23  C12 UNL     1       7.602  28.605   6.729  1.00  0.00     0.188 C 
BRANCH  23  24
HETATM   24  N5  UNL     1       8.303  29.683   7.396  1.00  0.00    -0.364 N 
ATOM     25  H5  UNL     1       8.634  30.452   6.814  1.00  0.00     0.162 HD
BRANCH  24  26
HETATM   26  C13 UNL     1       8.566  29.763   8.769  1.00  0.00     0.141 C 
HETATM   27  N6  UNL     1       9.680  29.743   9.357  1.00  0.00    -0.349 N 
HETATM   28  C14 UNL     1       9.731  29.837  10.762  1.00  0.00     0.083 C 
ATOM     29  H6  UNL     1      10.542  29.660   8.818  1.00  0.00     0.167 HD
HETATM   30  C15 UNL     1       8.462  29.316  11.398  1.00  0.00     0.040 C 
HETATM   31  C16 UNL     1       8.415  27.811  11.467  1.00  0.00     0.032 C 
HETATM   32  C17 UNL     1       8.109  29.972  12.692  1.00  0.00     0.032 C 
HETATM   33  S1  UNL     1       7.325  29.887  10.053  1.00  0.00    -0.079 SA
ENDBRANCH  24  26
ENDBRANCH  23  24
ENDBRANCH  17  23
ENDBRANCH  14  16
ENDBRANCH   1  14
BRANCH   1  34
HETATM   34  S2  UNL     1       8.075  25.061   4.030  1.00  0.00     0.184 S 
HETATM   35  O2  UNL     1       9.263  24.214   4.527  1.00  0.00    -0.224 OA
HETATM   36  O3  UNL     1       7.474  24.236   2.901  1.00  0.00    -0.224 OA
BRANCH  34  37
HETATM   37  C18 UNL     1       6.970  25.115   5.405  1.00  0.00     0.144 C 
BRANCH  37  38
HETATM   38  C19 UNL     1       6.018  23.992   5.379  1.00  0.00     0.017 C 
BRANCH  38  39
HETATM   39  C20 UNL     1       4.654  24.236   4.847  1.00  0.00     0.021 C 
BRANCH  39  40
HETATM   40  C21 UNL     1       3.600  23.323   5.317  1.00  0.00     0.124 C 
BRANCH  40  41
HETATM   41  N7  UNL     1       2.267  23.728   5.076  1.00  0.00    -0.343 N 
HETATM   42  C22 UNL     1       1.262  23.726   6.114  1.00  0.00     0.316 C 
HETATM   43  O4  UNL     1       1.670  23.371   7.252  1.00  0.00    -0.247 OA
HETATM   44  N8  UNL     1      -0.064  24.079   5.908  1.00  0.00    -0.343 N 
ATOM     45  H8  UNL     1      -0.357  24.353   4.970  1.00  0.00     0.164 HD
ATOM     46  H7  UNL     1       2.006  24.032   4.138  1.00  0.00     0.164 HD
BRANCH  44  47
HETATM   47  C23 UNL     1      -1.037  24.077   6.959  1.00  0.00     0.129 C 
BRANCH  47  48
HETATM   48  C24 UNL     1      -2.454  23.835   6.514  1.00  0.00     0.061 C 
BRANCH  48  49
HETATM   49  C25 UNL     1      -3.161  22.805   7.300  1.00  0.00    -0.018 A 
HETATM   50  C26 UNL     1      -4.255  23.167   8.053  1.00  0.00     0.010 A 
HETATM   51  C27 UNL     1      -4.958  22.241   8.818  1.00  0.00     0.001 A 
HETATM   52  C28 UNL     1      -4.523  20.929   8.800  1.00  0.00     0.003 A 
HETATM   53  C29 UNL     1      -3.435  20.580   8.048  1.00  0.00     0.043 A 
HETATM   54  C30 UNL     1      -2.735  21.512   7.284  1.00  0.00     0.122 A 
HETATM   55  F1  UNL     1      -1.669  21.074   6.570  1.00  0.00    -0.206 F 
ENDBRANCH  48  49
ENDBRANCH  47  48
ENDBRANCH  44  47
ENDBRANCH  40  41
ENDBRANCH  39  40
ENDBRANCH  38  39
ENDBRANCH  37  38
ENDBRANCH  34  37
ENDBRANCH   1  34
TORSDOF 21
ENDMDL
