MODEL 1
REMARK VINA RESULT: -8.914190209      0.000      0.000
REMARK  21 active torsions:
REMARK  status: ('A' for Active; 'I' for Inactive)
REMARK    1  A    between atoms: C2_2  and  C3_3 
REMARK    2  A    between atoms: C3_3  and  N1_4 
REMARK       I    between atoms: N1_4  and  C4_6 
REMARK    3  A    between atoms: C4_6  and  C5_8 
REMARK    4  A    between atoms: C5_8  and  C6_9 
REMARK    5  A    between atoms: C5_8  and  C13_16 
REMARK    6  A    between atoms: C6_9  and  C7_10 
REMARK    7  A    between atoms: C13_16  and  C14_17 
REMARK    8  A    between atoms: C14_17  and  O2_18 
REMARK    9  A    between atoms: C14_17  and  C15_20 
REMARK   10  A    between atoms: C15_20  and  O3_21 
REMARK   11  A    between atoms: C15_20  and  C16_23 
REMARK   12  A    between atoms: C16_23  and  O4_24 
REMARK   13  A    between atoms: C16_23  and  C17_26 
REMARK   14  A    between atoms: C17_26  and  O5_27 
REMARK   15  A    between atoms: C17_26  and  C18_29 
REMARK   16  A    between atoms: C20_34  and  N3_35 
REMARK   17  A    between atoms: N3_35  and  C21_37 
REMARK   18  A    between atoms: C21_37  and  C22_38 
REMARK   19  A    between atoms: C21_37  and  C26_42 
REMARK   20  A    between atoms: C22_38  and  C23_39 
REMARK   21  A    between atoms: C27_44  and  S1_45 
ROOT
HETATM    1  C16 UNL     1       6.346  24.431   5.291  1.00  0.00     0.181 C 
ENDROOT
BRANCH   1   2
HETATM    2  C15 UNL     1       7.353  24.871   4.299  1.00  0.00     0.178 C 
BRANCH   2   3
HETATM    3  C14 UNL     1       8.756  24.947   4.895  1.00  0.00     0.150 C 
BRANCH   3   4
HETATM    4  C13 UNL     1       9.640  25.844   4.062  1.00  0.00     0.048 C 
BRANCH   4   5
HETATM    5  C5  UNL     1       8.964  27.003   3.447  1.00  0.00     0.081 C 
BRANCH   5   6
HETATM    6  C4  UNL     1       9.076  26.901   1.964  1.00  0.00     0.222 C 
HETATM    7  N1  UNL     1       9.272  25.704   1.272  1.00  0.00    -0.357 N 
ATOM      8  H1  UNL     1       9.337  24.827   1.788  1.00  0.00     0.162 HD
HETATM    9  O1  UNL     1       8.991  27.973   1.313  1.00  0.00    -0.273 OA
BRANCH   7  10
HETATM   10  C3  UNL     1       9.382  25.696  -0.165  1.00  0.00     0.149 C 
BRANCH  10  11
HETATM   11  C2  UNL     1       9.703  24.310  -0.641  1.00  0.00    -0.018 C 
HETATM   12  C1  UNL     1      10.073  24.137  -1.908  1.00  0.00     0.008 C 
ENDBRANCH  10  11
ENDBRANCH   7  10
ENDBRANCH   5   6
BRANCH   5  13
HETATM   13  C6  UNL     1       9.159  28.348   3.985  1.00  0.00     0.018 C 
BRANCH  13  14
HETATM   14  C7  UNL     1       8.094  29.092   4.671  1.00  0.00    -0.014 C 
HETATM   15  C8  UNL     1       7.975  28.473   6.071  1.00  0.00     0.005 C 
HETATM   16  C9  UNL     1       6.937  29.173   6.893  1.00  0.00     0.000 C 
HETATM   17  C10 UNL     1       7.370  30.613   7.059  1.00  0.00     0.000 C 
HETATM   18  C11 UNL     1       7.302  31.231   5.685  1.00  0.00     0.000 C 
HETATM   19  C12 UNL     1       8.286  30.548   4.734  1.00  0.00     0.005 C 
ENDBRANCH  13  14
ENDBRANCH   5  13
ENDBRANCH   4   5
ENDBRANCH   3   4
BRANCH   3  20
HETATM   20  O2  UNL     1       9.334  23.658   4.782  1.00  0.00    -0.393 OA
ATOM     21  H2  UNL     1       8.889  23.132   5.436  1.00  0.00     0.210 HD
ENDBRANCH   3  20
ENDBRANCH   2   3
BRANCH   2  22
HETATM   22  O3  UNL     1       7.423  24.170   3.125  1.00  0.00    -0.390 OA
ATOM     23  H3  UNL     1       6.553  24.143   2.742  1.00  0.00     0.210 HD
ENDBRANCH   2  22
ENDBRANCH   1   2
BRANCH   1  24
HETATM   24  O4  UNL     1       6.937  23.547   6.193  1.00  0.00    -0.390 OA
ATOM     25  H4  UNL     1       7.077  23.988   7.023  1.00  0.00     0.210 HD
ENDBRANCH   1  24
BRANCH   1  26
HETATM   26  C17 UNL     1       5.127  23.847   4.677  1.00  0.00     0.182 C 
BRANCH  26  27
HETATM   27  O5  UNL     1       4.657  24.678   3.657  1.00  0.00    -0.390 OA
ATOM     28  H5  UNL     1       3.749  24.477   3.464  1.00  0.00     0.210 HD
ENDBRANCH  26  27
BRANCH  26  29
HETATM   29  C18 UNL     1       3.966  23.794   5.680  1.00  0.00     0.178 C 
HETATM   30  N2  UNL     1       2.760  24.053   4.917  1.00  0.00    -0.343 N 
HETATM   31  C19 UNL     1       1.434  24.013   5.359  1.00  0.00     0.248 C 
ATOM     32  H2  UNL     1       2.896  24.294   3.934  1.00  0.00     0.163 HD
HETATM   33  O6  UNL     1       0.609  24.133   4.381  1.00  0.00    -0.271 OA
HETATM   34  C20 UNL     1       0.853  23.862   6.720  1.00  0.00     0.245 C 
HETATM   35  C29 UNL     1       1.295  22.570   7.333  1.00  0.00     0.167 C 
HETATM   36  O7  UNL     1       0.495  21.673   7.470  1.00  0.00    -0.294 OA
HETATM   37  C30 UNL     1       2.663  22.250   7.810  1.00  0.00     0.157 C 
HETATM   38  S2  UNL     1       3.823  22.138   6.397  1.00  0.00    -0.134 SA
BRANCH  34  39
HETATM   39  N3  UNL     1      -0.565  23.938   6.586  1.00  0.00    -0.372 N 
ATOM     40  H3  UNL     1      -1.092  23.237   6.063  1.00  0.00     0.160 HD
BRANCH  39  41
HETATM   41  C21 UNL     1      -1.214  25.047   7.221  1.00  0.00     0.045 C 
BRANCH  41  42
HETATM   42  C22 UNL     1      -1.210  26.323   6.482  1.00  0.00     0.064 C 
BRANCH  42  43
HETATM   43  C23 UNL     1      -1.568  27.576   7.140  1.00  0.00    -0.017 C 
HETATM   44  C24 UNL     1      -2.587  28.456   6.465  1.00  0.00     0.010 C 
HETATM   45  C25 UNL     1      -0.440  28.474   7.588  1.00  0.00     0.010 C 
ENDBRANCH  42  43
ENDBRANCH  41  42
BRANCH  41  46
HETATM   46  C26 UNL     1      -2.472  24.626   7.849  1.00  0.00     0.144 C 
HETATM   47  F1  UNL     1      -2.789  25.231   9.049  1.00  0.00    -0.204 F 
HETATM   48  C27 UNL     1      -3.347  23.766   7.374  1.00  0.00     0.088 C 
BRANCH  48  49
HETATM   49  S1  UNL     1      -4.823  23.393   8.303  1.00  0.00    -0.143 SA
HETATM   50  C28 UNL     1      -4.932  21.597   8.606  1.00  0.00     0.095 C 
ENDBRANCH  48  49
ENDBRANCH  41  46
ENDBRANCH  39  41
ENDBRANCH  34  39
ENDBRANCH  26  29
ENDBRANCH   1  26
TORSDOF 21
ENDMDL
MODEL 2
REMARK VINA RESULT: -8.677092147      1.652      4.019
REMARK  21 active torsions:
REMARK  status: ('A' for Active; 'I' for Inactive)
REMARK    1  A    between atoms: C2_2  and  C3_3 
REMARK    2  A    between atoms: C3_3  and  N1_4 
REMARK       I    between atoms: N1_4  and  C4_6 
REMARK    3  A    between atoms: C4_6  and  C5_8 
REMARK    4  A    between atoms: C5_8  and  C6_9 
REMARK    5  A    between atoms: C5_8  and  C13_16 
REMARK    6  A    between atoms: C6_9  and  C7_10 
REMARK    7  A    between atoms: C13_16  and  C14_17 
REMARK    8  A    between atoms: C14_17  and  O2_18 
REMARK    9  A    between atoms: C14_17  and  C15_20 
REMARK   10  A    between atoms: C15_20  and  O3_21 
REMARK   11  A    between atoms: C15_20  and  C16_23 
REMARK   12  A    between atoms: C16_23  and  O4_24 
REMARK   13  A    between atoms: C16_23  and  C17_26 
REMARK   14  A    between atoms: C17_26  and  O5_27 
REMARK   15  A    between atoms: C17_26  and  C18_29 
REMARK   16  A    between atoms: C20_34  and  N3_35 
REMARK   17  A    between atoms: N3_35  and  C21_37 
REMARK   18  A    between atoms: C21_37  and  C22_38 
REMARK   19  A    between atoms: C21_37  and  C26_42 
REMARK   20  A    between atoms: C22_38  and  C23_39 
REMARK   21  A    between atoms: C27_44  and  S1_45 
ROOT
HETATM    1  C16 UNL     1       5.989  23.604   5.613  1.00  0.00     0.181 C 
ENDROOT
BRANCH   1   2
HETATM    2  C15 UNL     1       7.178  23.446   4.747  1.00  0.00     0.178 C 
BRANCH   2   3
HETATM    3  C14 UNL     1       8.222  24.532   4.997  1.00  0.00     0.150 C 
BRANCH   3   4
HETATM    4  C13 UNL     1       7.776  25.845   4.401  1.00  0.00     0.048 C 
BRANCH   4   5
HETATM    5  C5  UNL     1       8.660  26.996   4.674  1.00  0.00     0.081 C 
BRANCH   5   6
HETATM    6  C4  UNL     1       7.981  27.912   5.634  1.00  0.00     0.222 C 
HETATM    7  N1  UNL     1       8.625  28.937   6.331  1.00  0.00    -0.357 N 
ATOM      8  H1  UNL     1       9.622  29.097   6.187  1.00  0.00     0.162 HD
HETATM    9  O1  UNL     1       6.751  27.732   5.818  1.00  0.00    -0.273 OA
BRANCH   7  10
HETATM   10  C3  UNL     1       7.894  29.770   7.253  1.00  0.00     0.149 C 
BRANCH  10  11
HETATM   11  C2  UNL     1       8.204  29.360   8.662  1.00  0.00    -0.018 C 
HETATM   12  C1  UNL     1       7.204  28.976   9.452  1.00  0.00     0.008 C 
ENDBRANCH  10  11
ENDBRANCH   7  10
ENDBRANCH   5   6
BRANCH   5  13
HETATM   13  C6  UNL     1       9.368  27.665   3.584  1.00  0.00     0.018 C 
BRANCH  13  14
HETATM   14  C7  UNL     1       8.902  27.626   2.191  1.00  0.00    -0.014 C 
HETATM   15  C8  UNL     1       9.407  28.920   1.537  1.00  0.00     0.005 C 
HETATM   16  C9  UNL     1       9.026  28.986   0.090  1.00  0.00     0.000 C 
HETATM   17  C10 UNL     1       9.685  27.823  -0.617  1.00  0.00     0.000 C 
HETATM   18  C11 UNL     1       9.033  26.578  -0.070  1.00  0.00     0.000 C 
HETATM   19  C12 UNL     1       9.306  26.436   1.428  1.00  0.00     0.005 C 
ENDBRANCH  13  14
ENDBRANCH   5  13
ENDBRANCH   4   5
ENDBRANCH   3   4
BRANCH   3  20
HETATM   20  O2  UNL     1       9.385  24.177   4.269  1.00  0.00    -0.393 OA
ATOM     21  H2  UNL     1       9.641  23.330   4.614  1.00  0.00     0.210 HD
ENDBRANCH   3  20
ENDBRANCH   2   3
BRANCH   2  22
HETATM   22  O3  UNL     1       7.810  22.232   4.765  1.00  0.00    -0.390 OA
ATOM     23  H3  UNL     1       8.044  22.004   3.872  1.00  0.00     0.210 HD
ENDBRANCH   2  22
ENDBRANCH   1   2
BRANCH   1  24
HETATM   24  O4  UNL     1       6.066  22.706   6.677  1.00  0.00    -0.390 OA
ATOM     25  H4  UNL     1       5.198  22.561   7.034  1.00  0.00     0.210 HD
ENDBRANCH   1  24
BRANCH   1  26
HETATM   26  C17 UNL     1       4.703  23.472   4.883  1.00  0.00     0.182 C 
BRANCH  26  27
HETATM   27  O5  UNL     1       4.486  24.598   4.084  1.00  0.00    -0.390 OA
ATOM     28  H5  UNL     1       4.561  24.367   3.166  1.00  0.00     0.210 HD
ENDBRANCH  26  27
BRANCH  26  29
HETATM   29  C18 UNL     1       3.509  23.462   5.847  1.00  0.00     0.178 C 
HETATM   30  N2  UNL     1       2.378  23.972   5.096  1.00  0.00    -0.343 N 
HETATM   31  C19 UNL     1       1.043  24.064   5.503  1.00  0.00     0.248 C 
ATOM     32  H2  UNL     1       2.581  24.305   4.153  1.00  0.00     0.163 HD
HETATM   33  O6  UNL     1       0.279  24.409   4.530  1.00  0.00    -0.271 OA
HETATM   34  C20 UNL     1       0.397  23.836   6.823  1.00  0.00     0.245 C 
HETATM   35  C29 UNL     1       0.639  22.433   7.284  1.00  0.00     0.167 C 
HETATM   36  O7  UNL     1      -0.279  21.644   7.296  1.00  0.00    -0.294 OA
HETATM   37  C30 UNL     1       1.933  21.874   7.748  1.00  0.00     0.157 C 
HETATM   38  S2  UNL     1       3.119  21.769   6.356  1.00  0.00    -0.134 SA
BRANCH  34  39
HETATM   39  N3  UNL     1      -0.993  24.121   6.670  1.00  0.00    -0.372 N 
ATOM     40  H3  UNL     1      -1.602  23.528   6.105  1.00  0.00     0.160 HD
BRANCH  39  41
HETATM   41  C21 UNL     1      -1.491  25.281   7.348  1.00  0.00     0.045 C 
BRANCH  41  42
HETATM   42  C22 UNL     1      -1.427  26.555   6.607  1.00  0.00     0.064 C 
BRANCH  42  43
HETATM   43  C23 UNL     1      -1.686  27.828   7.273  1.00  0.00    -0.017 C 
HETATM   44  C24 UNL     1      -2.710  28.745   6.658  1.00  0.00     0.010 C 
HETATM   45  C25 UNL     1      -0.492  28.680   7.632  1.00  0.00     0.010 C 
ENDBRANCH  42  43
ENDBRANCH  41  42
BRANCH  41  46
HETATM   46  C26 UNL     1      -2.732  24.972   8.068  1.00  0.00     0.144 C 
HETATM   47  F1  UNL     1      -3.059  25.816   9.111  1.00  0.00    -0.204 F 
HETATM   48  C27 UNL     1      -3.583  24.005   7.804  1.00  0.00     0.088 C 
BRANCH  48  49
HETATM   49  S1  UNL     1      -5.041  23.802   8.809  1.00  0.00    -0.143 SA
HETATM   50  C28 UNL     1      -6.082  22.464   8.135  1.00  0.00     0.095 C 
ENDBRANCH  48  49
ENDBRANCH  41  46
ENDBRANCH  39  41
ENDBRANCH  34  39
ENDBRANCH  26  29
ENDBRANCH   1  26
TORSDOF 21
ENDMDL
MODEL 3
REMARK VINA RESULT: -8.671559892      1.753      3.387
REMARK  21 active torsions:
REMARK  status: ('A' for Active; 'I' for Inactive)
REMARK    1  A    between atoms: C2_2  and  C3_3 
REMARK    2  A    between atoms: C3_3  and  N1_4 
REMARK       I    between atoms: N1_4  and  C4_6 
REMARK    3  A    between atoms: C4_6  and  C5_8 
REMARK    4  A    between atoms: C5_8  and  C6_9 
REMARK    5  A    between atoms: C5_8  and  C13_16 
REMARK    6  A    between atoms: C6_9  and  C7_10 
REMARK    7  A    between atoms: C13_16  and  C14_17 
REMARK    8  A    between atoms: C14_17  and  O2_18 
REMARK    9  A    between atoms: C14_17  and  C15_20 
REMARK   10  A    between atoms: C15_20  and  O3_21 
REMARK   11  A    between atoms: C15_20  and  C16_23 
REMARK   12  A    between atoms: C16_23  and  O4_24 
REMARK   13  A    between atoms: C16_23  and  C17_26 
REMARK   14  A    between atoms: C17_26  and  O5_27 
REMARK   15  A    between atoms: C17_26  and  C18_29 
REMARK   16  A    between atoms: C20_34  and  N3_35 
REMARK   17  A    between atoms: N3_35  and  C21_37 
REMARK   18  A    between atoms: C21_37  and  C22_38 
REMARK   19  A    between atoms: C21_37  and  C26_42 
REMARK   20  A    between atoms: C22_38  and  C23_39 
REMARK   21  A    between atoms: C27_44  and  S1_45 
ROOT
HETATM    1  C16 UNL     1       4.348  23.197   5.525  1.00  0.00     0.181 C 
ENDROOT
BRANCH   1   2
HETATM    2  C15 UNL     1       5.766  23.141   5.105  1.00  0.00     0.178 C 
BRANCH   2   3
HETATM    3  C14 UNL     1       6.195  24.398   4.352  1.00  0.00     0.150 C 
BRANCH   3   4
HETATM    4  C13 UNL     1       7.603  24.249   3.828  1.00  0.00     0.048 C 
BRANCH   4   5
HETATM    5  C5  UNL     1       8.158  25.442   3.158  1.00  0.00     0.081 C 
BRANCH   5   6
HETATM    6  C4  UNL     1       8.261  25.175   1.696  1.00  0.00     0.222 C 
HETATM    7  N1  UNL     1       9.332  24.514   1.091  1.00  0.00    -0.357 N 
ATOM      8  H1  UNL     1      10.104  24.174   1.665  1.00  0.00     0.162 HD
HETATM    9  O1  UNL     1       7.313  25.582   0.977  1.00  0.00    -0.273 OA
BRANCH   7  10
HETATM   10  C3  UNL     1       9.358  24.308  -0.335  1.00  0.00     0.149 C 
BRANCH  10  11
HETATM   11  C2  UNL     1      10.372  25.220  -0.960  1.00  0.00    -0.018 C 
HETATM   12  C1  UNL     1       9.991  26.439  -1.339  1.00  0.00     0.008 C 
ENDBRANCH  10  11
ENDBRANCH   7  10
ENDBRANCH   5   6
BRANCH   5  13
HETATM   13  C6  UNL     1       9.298  26.154   3.734  1.00  0.00     0.018 C 
BRANCH  13  14
HETATM   14  C7  UNL     1       9.250  27.580   4.085  1.00  0.00    -0.014 C 
HETATM   15  C8  UNL     1       9.229  28.346   2.754  1.00  0.00     0.005 C 
HETATM   16  C9  UNL     1       9.143  29.824   2.974  1.00  0.00     0.000 C 
HETATM   17  C10 UNL     1       7.844  30.112   3.693  1.00  0.00     0.000 C 
HETATM   18  C11 UNL     1       7.978  29.491   5.062  1.00  0.00     0.000 C 
HETATM   19  C12 UNL     1       8.134  27.974   4.957  1.00  0.00     0.005 C 
ENDBRANCH  13  14
ENDBRANCH   5  13
ENDBRANCH   4   5
ENDBRANCH   3   4
BRANCH   3  20
HETATM   20  O2  UNL     1       6.267  25.452   5.297  1.00  0.00    -0.393 OA
ATOM     21  H2  UNL     1       5.371  25.586   5.583  1.00  0.00     0.210 HD
ENDBRANCH   3  20
ENDBRANCH   2   3
BRANCH   2  22
HETATM   22  O3  UNL     1       6.697  22.883   6.075  1.00  0.00    -0.390 OA
ATOM     23  H3  UNL     1       6.613  21.972   6.333  1.00  0.00     0.210 HD
ENDBRANCH   2  22
ENDBRANCH   1   2
BRANCH   1  24
HETATM   24  O4  UNL     1       3.810  24.438   5.185  1.00  0.00    -0.390 OA
ATOM     25  H4  UNL     1       3.680  24.954   5.972  1.00  0.00     0.210 HD
ENDBRANCH   1  24
BRANCH   1  26
HETATM   26  C17 UNL     1       4.144  22.892   6.963  1.00  0.00     0.182 C 
BRANCH  26  27
HETATM   27  O5  UNL     1       4.603  21.603   7.251  1.00  0.00    -0.390 OA
ATOM     28  H5  UNL     1       4.587  21.452   8.189  1.00  0.00     0.210 HD
ENDBRANCH  26  27
BRANCH  26  29
HETATM   29  C18 UNL     1       2.652  22.846   7.320  1.00  0.00     0.178 C 
HETATM   30  N2  UNL     1       1.968  23.613   6.297  1.00  0.00    -0.343 N 
HETATM   31  C19 UNL     1       0.590  23.784   6.125  1.00  0.00     0.248 C 
ATOM     32  H2  UNL     1       2.565  24.087   5.619  1.00  0.00     0.163 HD
HETATM   33  O6  UNL     1       0.328  24.389   5.022  1.00  0.00    -0.271 OA
HETATM   34  C20 UNL     1      -0.566  23.396   6.976  1.00  0.00     0.245 C 
HETATM   35  C29 UNL     1      -0.585  21.914   7.182  1.00  0.00     0.167 C 
HETATM   36  O7  UNL     1      -1.440  21.250   6.642  1.00  0.00    -0.294 OA
HETATM   37  C30 UNL     1       0.369  21.132   8.007  1.00  0.00     0.157 C 
HETATM   38  S2  UNL     1       2.035  21.146   7.245  1.00  0.00    -0.134 SA
BRANCH  34  39
HETATM   39  N3  UNL     1      -1.746  23.865   6.326  1.00  0.00    -0.372 N 
ATOM     40  H3  UNL     1      -1.891  23.742   5.324  1.00  0.00     0.160 HD
BRANCH  39  41
HETATM   41  C21 UNL     1      -2.720  24.518   7.152  1.00  0.00     0.045 C 
BRANCH  41  42
HETATM   42  C22 UNL     1      -3.263  23.733   8.276  1.00  0.00     0.064 C 
BRANCH  42  43
HETATM   43  C23 UNL     1      -4.443  22.891   8.106  1.00  0.00    -0.017 C 
HETATM   44  C24 UNL     1      -5.752  23.401   8.649  1.00  0.00     0.010 C 
HETATM   45  C25 UNL     1      -4.331  21.443   8.519  1.00  0.00     0.010 C 
ENDBRANCH  42  43
ENDBRANCH  41  42
BRANCH  41  46
HETATM   46  C26 UNL     1      -2.331  25.908   7.417  1.00  0.00     0.144 C 
HETATM   47  F1  UNL     1      -2.812  26.466   8.586  1.00  0.00    -0.204 F 
HETATM   48  C27 UNL     1      -1.545  26.666   6.684  1.00  0.00     0.088 C 
BRANCH  48  49
HETATM   49  S1  UNL     1      -1.198  28.340   7.189  1.00  0.00    -0.143 SA
HETATM   50  C28 UNL     1      -2.584  29.432   6.724  1.00  0.00     0.095 C 
ENDBRANCH  48  49
ENDBRANCH  41  46
ENDBRANCH  39  41
ENDBRANCH  34  39
ENDBRANCH  26  29
ENDBRANCH   1  26
TORSDOF 21
ENDMDL
MODEL 4
REMARK VINA RESULT: -8.621676754      1.224      4.097
REMARK  21 active torsions:
REMARK  status: ('A' for Active; 'I' for Inactive)
REMARK    1  A    between atoms: C2_2  and  C3_3 
REMARK    2  A    between atoms: C3_3  and  N1_4 
REMARK       I    between atoms: N1_4  and  C4_6 
REMARK    3  A    between atoms: C4_6  and  C5_8 
REMARK    4  A    between atoms: C5_8  and  C6_9 
REMARK    5  A    between atoms: C5_8  and  C13_16 
REMARK    6  A    between atoms: C6_9  and  C7_10 
REMARK    7  A    between atoms: C13_16  and  C14_17 
REMARK    8  A    between atoms: C14_17  and  O2_18 
REMARK    9  A    between atoms: C14_17  and  C15_20 
REMARK   10  A    between atoms: C15_20  and  O3_21 
REMARK   11  A    between atoms: C15_20  and  C16_23 
REMARK   12  A    between atoms: C16_23  and  O4_24 
REMARK   13  A    between atoms: C16_23  and  C17_26 
REMARK   14  A    between atoms: C17_26  and  O5_27 
REMARK   15  A    between atoms: C17_26  and  C18_29 
REMARK   16  A    between atoms: C20_34  and  N3_35 
REMARK   17  A    between atoms: N3_35  and  C21_37 
REMARK   18  A    between atoms: C21_37  and  C22_38 
REMARK   19  A    between atoms: C21_37  and  C26_42 
REMARK   20  A    between atoms: C22_38  and  C23_39 
REMARK   21  A    between atoms: C27_44  and  S1_45 
ROOT
HETATM    1  C16 UNL     1       6.269  24.014   5.623  1.00  0.00     0.181 C 
ENDROOT
BRANCH   1   2
HETATM    2  C15 UNL     1       7.406  24.305   4.720  1.00  0.00     0.178 C 
BRANCH   2   3
HETATM    3  C14 UNL     1       7.432  25.765   4.276  1.00  0.00     0.150 C 
BRANCH   3   4
HETATM    4  C13 UNL     1       8.818  26.342   4.431  1.00  0.00     0.048 C 
BRANCH   4   5
HETATM    5  C5  UNL     1       9.181  27.388   3.454  1.00  0.00     0.081 C 
BRANCH   5   6
HETATM    6  C4  UNL     1       9.049  28.725   4.101  1.00  0.00     0.222 C 
HETATM    7  N1  UNL     1       8.344  28.958   5.284  1.00  0.00    -0.357 N 
ATOM      8  H1  UNL     1       7.887  28.182   5.762  1.00  0.00     0.162 HD
HETATM    9  O1  UNL     1       9.612  29.691   3.527  1.00  0.00    -0.273 OA
BRANCH   7  10
HETATM   10  C3  UNL     1       8.256  30.287   5.835  1.00  0.00     0.149 C 
BRANCH  10  11
HETATM   11  C2  UNL     1       7.701  30.222   7.227  1.00  0.00    -0.018 C 
HETATM   12  C1  UNL     1       7.399  29.032   7.742  1.00  0.00     0.008 C 
ENDBRANCH  10  11
ENDBRANCH   7  10
ENDBRANCH   5   6
BRANCH   5  13
HETATM   13  C6  UNL     1       8.691  27.322   2.079  1.00  0.00     0.018 C 
BRANCH  13  14
HETATM   14  C7  UNL     1       9.465  26.715   0.987  1.00  0.00    -0.014 C 
HETATM   15  C8  UNL     1       8.945  25.277   0.845  1.00  0.00     0.005 C 
HETATM   16  C9  UNL     1       9.634  24.553  -0.270  1.00  0.00     0.000 C 
HETATM   17  C10 UNL     1       9.329  25.285  -1.558  1.00  0.00     0.000 C 
HETATM   18  C11 UNL     1      10.008  26.628  -1.447  1.00  0.00     0.000 C 
HETATM   19  C12 UNL     1       9.421  27.439  -0.291  1.00  0.00     0.005 C 
ENDBRANCH  13  14
ENDBRANCH   5  13
ENDBRANCH   4   5
ENDBRANCH   3   4
BRANCH   3  20
HETATM   20  O2  UNL     1       6.628  26.498   5.185  1.00  0.00    -0.393 OA
ATOM     21  H2  UNL     1       6.915  27.398   5.095  1.00  0.00     0.210 HD
ENDBRANCH   3  20
ENDBRANCH   2   3
BRANCH   2  22
HETATM   22  O3  UNL     1       8.657  23.967   5.161  1.00  0.00    -0.390 OA
ATOM     23  H3  UNL     1       8.949  23.204   4.675  1.00  0.00     0.210 HD
ENDBRANCH   2  22
ENDBRANCH   1   2
BRANCH   1  24
HETATM   24  O4  UNL     1       6.651  23.055   6.559  1.00  0.00    -0.390 OA
ATOM     25  H4  UNL     1       5.883  22.731   7.013  1.00  0.00     0.210 HD
ENDBRANCH   1  24
BRANCH   1  26
HETATM   26  C17 UNL     1       5.032  23.613   4.906  1.00  0.00     0.182 C 
BRANCH  26  27
HETATM   27  O5  UNL     1       4.692  24.580   3.956  1.00  0.00    -0.390 OA
ATOM     28  H5  UNL     1       3.984  24.263   3.407  1.00  0.00     0.210 HD
ENDBRANCH  26  27
BRANCH  26  29
HETATM   29  C18 UNL     1       3.824  23.577   5.852  1.00  0.00     0.178 C 
HETATM   30  N2  UNL     1       2.678  23.982   5.060  1.00  0.00    -0.343 N 
HETATM   31  C19 UNL     1       1.333  24.013   5.441  1.00  0.00     0.248 C 
ATOM     32  H2  UNL     1       2.878  24.281   4.105  1.00  0.00     0.163 HD
HETATM   33  O6  UNL     1       0.567  24.265   4.441  1.00  0.00    -0.271 OA
HETATM   34  C20 UNL     1       0.678  23.809   6.761  1.00  0.00     0.245 C 
HETATM   35  C29 UNL     1       0.994  22.447   7.294  1.00  0.00     0.167 C 
HETATM   36  O7  UNL     1       0.125  21.606   7.329  1.00  0.00    -0.294 OA
HETATM   37  C30 UNL     1       2.310  21.989   7.803  1.00  0.00     0.157 C 
HETATM   38  S2  UNL     1       3.526  21.891   6.437  1.00  0.00    -0.134 SA
BRANCH  34  39
HETATM   39  N3  UNL     1      -0.723  24.003   6.573  1.00  0.00    -0.372 N 
ATOM     40  H3  UNL     1      -1.279  23.368   5.998  1.00  0.00     0.160 HD
BRANCH  39  41
HETATM   41  C21 UNL     1      -1.312  25.132   7.231  1.00  0.00     0.045 C 
BRANCH  41  42
HETATM   42  C22 UNL     1      -1.261  26.416   6.507  1.00  0.00     0.064 C 
BRANCH  42  43
HETATM   43  C23 UNL     1      -1.602  27.670   7.172  1.00  0.00    -0.017 C 
HETATM   44  C24 UNL     1      -2.625  28.558   6.512  1.00  0.00     0.010 C 
HETATM   45  C25 UNL     1      -0.461  28.561   7.603  1.00  0.00     0.010 C 
ENDBRANCH  42  43
ENDBRANCH  41  42
BRANCH  41  46
HETATM   46  C26 UNL     1      -2.578  24.761   7.873  1.00  0.00     0.144 C 
HETATM   47  F1  UNL     1      -2.962  25.527   8.956  1.00  0.00    -0.204 F 
HETATM   48  C27 UNL     1      -3.403  23.805   7.507  1.00  0.00     0.088 C 
BRANCH  48  49
HETATM   49  S1  UNL     1      -4.900  23.517   8.431  1.00  0.00    -0.143 SA
HETATM   50  C28 UNL     1      -5.057  21.743   8.828  1.00  0.00     0.095 C 
ENDBRANCH  48  49
ENDBRANCH  41  46
ENDBRANCH  39  41
ENDBRANCH  34  39
ENDBRANCH  26  29
ENDBRANCH   1  26
TORSDOF 21
ENDMDL
MODEL 5
REMARK VINA RESULT: -8.603653513      1.338      1.707
REMARK  21 active torsions:
REMARK  status: ('A' for Active; 'I' for Inactive)
REMARK    1  A    between atoms: C2_2  and  C3_3 
REMARK    2  A    between atoms: C3_3  and  N1_4 
REMARK       I    between atoms: N1_4  and  C4_6 
REMARK    3  A    between atoms: C4_6  and  C5_8 
REMARK    4  A    between atoms: C5_8  and  C6_9 
REMARK    5  A    between atoms: C5_8  and  C13_16 
REMARK    6  A    between atoms: C6_9  and  C7_10 
REMARK    7  A    between atoms: C13_16  and  C14_17 
REMARK    8  A    between atoms: C14_17  and  O2_18 
REMARK    9  A    between atoms: C14_17  and  C15_20 
REMARK   10  A    between atoms: C15_20  and  O3_21 
REMARK   11  A    between atoms: C15_20  and  C16_23 
REMARK   12  A    between atoms: C16_23  and  O4_24 
REMARK   13  A    between atoms: C16_23  and  C17_26 
REMARK   14  A    between atoms: C17_26  and  O5_27 
REMARK   15  A    between atoms: C17_26  and  C18_29 
REMARK   16  A    between atoms: C20_34  and  N3_35 
REMARK   17  A    between atoms: N3_35  and  C21_37 
REMARK   18  A    between atoms: C21_37  and  C22_38 
REMARK   19  A    between atoms: C21_37  and  C26_42 
REMARK   20  A    between atoms: C22_38  and  C23_39 
REMARK   21  A    between atoms: C27_44  and  S1_45 
ROOT
HETATM    1  C16 UNL     1       6.310  24.340   5.285  1.00  0.00     0.181 C 
ENDROOT
BRANCH   1   2
HETATM    2  C15 UNL     1       7.293  24.853   4.305  1.00  0.00     0.178 C 
BRANCH   2   3
HETATM    3  C14 UNL     1       8.691  24.983   4.905  1.00  0.00     0.150 C 
BRANCH   3   4
HETATM    4  C13 UNL     1       9.468  26.075   4.210  1.00  0.00     0.048 C 
BRANCH   4   5
HETATM    5  C5  UNL     1       8.700  27.296   3.895  1.00  0.00     0.081 C 
BRANCH   5   6
HETATM    6  C4  UNL     1       8.622  27.453   2.415  1.00  0.00     0.222 C 
HETATM    7  N1  UNL     1       8.100  28.576   1.771  1.00  0.00    -0.357 N 
ATOM      8  H1  UNL     1       7.751  29.359   2.324  1.00  0.00     0.162 HD
HETATM    9  O1  UNL     1       9.055  26.499   1.720  1.00  0.00    -0.273 OA
BRANCH   7  10
HETATM   10  C3  UNL     1       8.050  28.640   0.332  1.00  0.00     0.149 C 
BRANCH  10  11
HETATM   11  C2  UNL     1       7.221  29.815  -0.095  1.00  0.00    -0.018 C 
HETATM   12  C1  UNL     1       6.782  30.661   0.835  1.00  0.00     0.008 C 
ENDBRANCH  10  11
ENDBRANCH   7  10
ENDBRANCH   5   6
BRANCH   5  13
HETATM   13  C6  UNL     1       8.940  28.535   4.632  1.00  0.00     0.018 C 
BRANCH  13  14
HETATM   14  C7  UNL     1       7.862  29.304   5.269  1.00  0.00    -0.014 C 
HETATM   15  C8  UNL     1       7.741  28.762   6.701  1.00  0.00     0.005 C 
HETATM   16  C9  UNL     1       6.691  29.494   7.477  1.00  0.00     0.000 C 
HETATM   17  C10 UNL     1       7.105  30.946   7.565  1.00  0.00     0.000 C 
HETATM   18  C11 UNL     1       7.039  31.486   6.158  1.00  0.00     0.000 C 
HETATM   19  C12 UNL     1       8.037  30.763   5.252  1.00  0.00     0.005 C 
ENDBRANCH  13  14
ENDBRANCH   5  13
ENDBRANCH   4   5
ENDBRANCH   3   4
BRANCH   3  20
HETATM   20  O2  UNL     1       9.393  23.789   4.605  1.00  0.00    -0.393 OA
ATOM     21  H2  UNL     1       9.012  23.131   5.175  1.00  0.00     0.210 HD
ENDBRANCH   3  20
ENDBRANCH   2   3
BRANCH   2  22
HETATM   22  O3  UNL     1       7.397  24.185   3.115  1.00  0.00    -0.390 OA
ATOM     23  H3  UNL     1       6.571  23.746   2.946  1.00  0.00     0.210 HD
ENDBRANCH   2  22
ENDBRANCH   1   2
BRANCH   1  24
HETATM   24  O4  UNL     1       6.908  23.358   6.075  1.00  0.00    -0.390 OA
ATOM     25  H4  UNL     1       6.270  22.686   6.283  1.00  0.00     0.210 HD
ENDBRANCH   1  24
BRANCH   1  26
HETATM   26  C17 UNL     1       5.056  23.847   4.662  1.00  0.00     0.182 C 
BRANCH  26  27
HETATM   27  O5  UNL     1       4.608  24.755   3.699  1.00  0.00    -0.390 OA
ATOM     28  H5  UNL     1       5.343  25.240   3.341  1.00  0.00     0.210 HD
ENDBRANCH  26  27
BRANCH  26  29
HETATM   29  C18 UNL     1       3.910  23.788   5.682  1.00  0.00     0.178 C 
HETATM   30  N2  UNL     1       2.693  24.052   4.937  1.00  0.00    -0.343 N 
HETATM   31  C19 UNL     1       1.373  24.011   5.399  1.00  0.00     0.248 C 
ATOM     32  H2  UNL     1       2.815  24.299   3.955  1.00  0.00     0.163 HD
HETATM   33  O6  UNL     1       0.535  24.137   4.434  1.00  0.00    -0.271 OA
HETATM   34  C20 UNL     1       0.812  23.851   6.767  1.00  0.00     0.245 C 
HETATM   35  C29 UNL     1       1.262  22.555   7.365  1.00  0.00     0.167 C 
HETATM   36  O7  UNL     1       0.464  21.658   7.509  1.00  0.00    -0.294 OA
HETATM   37  C30 UNL     1       2.636  22.231   7.821  1.00  0.00     0.157 C 
HETATM   38  S2  UNL     1       3.776  22.128   6.390  1.00  0.00    -0.134 SA
BRANCH  34  39
HETATM   39  N3  UNL     1      -0.608  23.928   6.654  1.00  0.00    -0.372 N 
ATOM     40  H3  UNL     1      -1.144  23.223   6.148  1.00  0.00     0.160 HD
BRANCH  39  41
HETATM   41  C21 UNL     1      -1.245  25.046   7.287  1.00  0.00     0.045 C 
BRANCH  41  42
HETATM   42  C22 UNL     1      -1.191  26.330   6.564  1.00  0.00     0.064 C 
BRANCH  42  43
HETATM   43  C23 UNL     1      -1.546  27.582   7.225  1.00  0.00    -0.017 C 
HETATM   44  C24 UNL     1      -2.624  28.426   6.596  1.00  0.00     0.010 C 
HETATM   45  C25 UNL     1      -0.419  28.516   7.597  1.00  0.00     0.010 C 
ENDBRANCH  42  43
ENDBRANCH  41  42
BRANCH  41  46
HETATM   46  C26 UNL     1      -2.528  24.649   7.879  1.00  0.00     0.144 C 
HETATM   47  F1  UNL     1      -2.935  25.362   8.990  1.00  0.00    -0.204 F 
HETATM   48  C27 UNL     1      -3.348  23.718   7.444  1.00  0.00     0.088 C 
BRANCH  48  49
HETATM   49  S1  UNL     1      -4.868  23.392   8.317  1.00  0.00    -0.143 SA
HETATM   50  C28 UNL     1      -5.084  21.594   8.544  1.00  0.00     0.095 C 
ENDBRANCH  48  49
ENDBRANCH  41  46
ENDBRANCH  39  41
ENDBRANCH  34  39
ENDBRANCH  26  29
ENDBRANCH   1  26
TORSDOF 21
ENDMDL
