MODEL 1
REMARK VINA RESULT: -6.126151582      0.000      0.000
REMARK  24 active torsions:
REMARK  status: ('A' for Active; 'I' for Inactive)
REMARK    1  A    between atoms: C2_2  and  C3_3 
REMARK    2  A    between atoms: C3_3  and  C4_4 
REMARK    3  A    between atoms: C4_4  and  C5_5 
REMARK       I    between atoms: C5_5  and  N1_7 
REMARK    4  A    between atoms: N1_7  and  C6_8 
REMARK    5  A    between atoms: C6_8  and  C7_9 
REMARK    6  A    between atoms: C6_8  and  C14_17 
REMARK    7  A    between atoms: C7_9  and  C8_10 
REMARK    8  A    between atoms: C8_10  and  C9_11 
REMARK    9  A    between atoms: C9_11  and  C10_12 
REMARK   10  A    between atoms: C10_12  and  C11_13 
REMARK   11  A    between atoms: C11_13  and  C12_14 
REMARK   12  A    between atoms: C12_14  and  O2_15 
REMARK   13  A    between atoms: C14_17  and  C15_19 
REMARK   14  A    between atoms: C15_19  and  C16_20 
REMARK   15  A    between atoms: C16_20  and  O4_21 
REMARK   16  A    between atoms: C16_20  and  C17_23 
REMARK   17  A    between atoms: C17_23  and  C18_24 
REMARK   18  A    between atoms: C18_24  and  C19_25 
REMARK   19  A    between atoms: C19_25  and  C20_26 
REMARK   20  A    between atoms: C22_29  and  O5_30 
REMARK   21  A    between atoms: C25_34  and  O6_35 
REMARK   22  A    between atoms: C26_37  and  O7_38 
REMARK   23  A    between atoms: C27_40  and  O8_41 
REMARK   24  A    between atoms: C28_43  and  O9_44 
ROOT
HETATM    1  C15 UNL     1       7.195  30.561   7.211  1.00  0.00     0.084 C 
HETATM    2  C22 UNL     1       5.795  30.598   7.673  1.00  0.00     0.138 C 
HETATM    3  C23 UNL     1       5.156  31.851   8.113  1.00  0.00     0.041 C 
HETATM    4  C24 UNL     1       5.763  33.144   7.760  1.00  0.00     0.031 C 
HETATM    5  C25 UNL     1       5.174  34.238   8.604  1.00  0.00     0.154 C 
HETATM    6  C26 UNL     1       5.811  34.527   9.902  1.00  0.00     0.178 C 
HETATM    7  C27 UNL     1       7.296  34.507   9.721  1.00  0.00     0.178 C 
HETATM    8  C28 UNL     1       7.673  33.123   9.168  1.00  0.00     0.159 C 
HETATM    9  C29 UNL     1       7.240  33.024   7.813  1.00  0.00     0.004 C 
HETATM   10  C30 UNL     1       8.170  33.850   7.028  1.00  0.00     0.018 C 
HETATM   11  C31 UNL     1       8.882  32.482   6.744  1.00  0.00    -0.007 C 
HETATM   12  C32 UNL     1       9.675  32.770   5.540  1.00  0.00     0.011 C 
HETATM   13  C33 UNL     1       7.533  31.954   6.778  1.00  0.00    -0.011 C 
HETATM   14  C34 UNL     1       6.798  32.229   5.499  1.00  0.00     0.018 C 
ENDROOT
BRANCH   1  15
HETATM   15  C14 UNL     1       7.266  29.460   6.210  1.00  0.00     0.176 C 
HETATM   16  O3  UNL     1       6.423  28.592   6.192  1.00  0.00    -0.293 OA
BRANCH  15  17
HETATM   17  C6  UNL     1       8.228  29.139   5.176  1.00  0.00     0.237 C 
BRANCH  17  18
HETATM   18  N1  UNL     1       8.568  27.842   4.863  1.00  0.00    -0.402 NA
HETATM   19  C5  UNL     1       8.932  26.549   4.545  1.00  0.00     0.287 C 
HETATM   20  O1  UNL     1       9.944  26.000   4.202  1.00  0.00    -0.258 OA
BRANCH  19  21
HETATM   21  C4  UNL     1       7.551  25.785   4.743  1.00  0.00     0.119 C 
BRANCH  21  22
HETATM   22  C3  UNL     1       7.781  24.382   5.101  1.00  0.00     0.010 C 
BRANCH  22  23
HETATM   23  C2  UNL     1       6.365  23.746   5.141  1.00  0.00    -0.004 C 
HETATM   24  C1  UNL     1       5.376  24.602   4.413  1.00  0.00     0.005 C 
ENDBRANCH  22  23
ENDBRANCH  21  22
ENDBRANCH  19  21
ENDBRANCH  17  18
BRANCH  17  25
HETATM   25  C7  UNL     1       7.680  29.781   3.911  1.00  0.00     0.047 C 
BRANCH  25  26
HETATM   26  C8  UNL     1       8.781  30.167   2.936  1.00  0.00     0.004 C 
BRANCH  26  27
HETATM   27  C9  UNL     1       8.425  29.386   1.662  1.00  0.00     0.000 C 
BRANCH  27  28
HETATM   28  C10 UNL     1       9.603  28.666   1.074  1.00  0.00     0.002 C 
BRANCH  28  29
HETATM   29  C11 UNL     1       9.258  27.199   0.829  1.00  0.00     0.026 C 
BRANCH  29  30
HETATM   30  C12 UNL     1       7.787  26.931   1.015  1.00  0.00     0.167 C 
BRANCH  30  31
HETATM   31  O2  UNL     1       7.486  25.564   1.024  1.00  0.00    -0.396 OA
HETATM   32  C13 UNL     1       8.639  24.813   1.202  1.00  0.00     0.201 C 
ENDBRANCH  30  31
ENDBRANCH  29  30
ENDBRANCH  28  29
ENDBRANCH  27  28
ENDBRANCH  26  27
ENDBRANCH  25  26
ENDBRANCH  17  25
ENDBRANCH  15  17
ENDBRANCH   1  15
BRANCH   1  33
HETATM   33  C16 UNL     1       8.294  30.059   8.129  1.00  0.00     0.137 C 
BRANCH  33  34
HETATM   34  O4  UNL     1       8.813  28.915   7.436  1.00  0.00    -0.394 OA
ATOM     35  H4  UNL     1       8.955  28.281   8.129  1.00  0.00     0.210 HD
ENDBRANCH  33  34
BRANCH  33  36
HETATM   36  C17 UNL     1       7.993  29.652   9.491  1.00  0.00     0.033 C 
BRANCH  36  37
HETATM   37  C18 UNL     1       9.233  29.586  10.424  1.00  0.00     0.004 C 
BRANCH  37  38
HETATM   38  C19 UNL     1       8.724  29.548  11.865  1.00  0.00     0.020 C 
BRANCH  38  39
HETATM   39  C20 UNL     1       9.109  28.340  12.611  1.00  0.00     0.078 C 
HETATM   40  C21 UNL     1      10.645  28.233  12.585  1.00  0.00     0.026 C 
HETATM   41 CL1  UNL     1       8.440  26.889  11.863  1.00  0.00    -0.125 Cl
ENDBRANCH  38  39
ENDBRANCH  37  38
ENDBRANCH  36  37
ENDBRANCH  33  36
ENDBRANCH   1  33
BRANCH   2  42
HETATM   42  O5  UNL     1       5.330  29.542   8.452  1.00  0.00    -0.394 OA
ATOM     43  H5  UNL     1       5.709  29.420   9.315  1.00  0.00     0.210 HD
ENDBRANCH   2  42
BRANCH   8  44
HETATM   44  O9  UNL     1       7.085  32.385  10.197  1.00  0.00    -0.392 OA
ATOM     45  H9  UNL     1       7.655  31.629  10.119  1.00  0.00     0.210 HD
ENDBRANCH   8  44
BRANCH   5  46
HETATM   46  O6  UNL     1       5.097  35.451   7.867  1.00  0.00    -0.393 OA
ATOM     47  H6  UNL     1       4.790  35.286   6.983  1.00  0.00     0.210 HD
ENDBRANCH   5  46
BRANCH   7  48
HETATM   48  O8  UNL     1       7.697  35.593   9.035  1.00  0.00    -0.390 OA
ATOM     49  H8  UNL     1       7.286  36.375   9.386  1.00  0.00     0.210 HD
ENDBRANCH   7  48
BRANCH   6  50
HETATM   50  O7  UNL     1       5.360  33.820  10.971  1.00  0.00    -0.390 OA
ATOM     51  H7  UNL     1       5.434  32.874  10.916  1.00  0.00     0.210 HD
ENDBRANCH   6  50
TORSDOF 24
ENDMDL
MODEL 2
REMARK VINA RESULT: -5.906062071      4.267      6.328
REMARK  24 active torsions:
REMARK  status: ('A' for Active; 'I' for Inactive)
REMARK    1  A    between atoms: C2_2  and  C3_3 
REMARK    2  A    between atoms: C3_3  and  C4_4 
REMARK    3  A    between atoms: C4_4  and  C5_5 
REMARK       I    between atoms: C5_5  and  N1_7 
REMARK    4  A    between atoms: N1_7  and  C6_8 
REMARK    5  A    between atoms: C6_8  and  C7_9 
REMARK    6  A    between atoms: C6_8  and  C14_17 
REMARK    7  A    between atoms: C7_9  and  C8_10 
REMARK    8  A    between atoms: C8_10  and  C9_11 
REMARK    9  A    between atoms: C9_11  and  C10_12 
REMARK   10  A    between atoms: C10_12  and  C11_13 
REMARK   11  A    between atoms: C11_13  and  C12_14 
REMARK   12  A    between atoms: C12_14  and  O2_15 
REMARK   13  A    between atoms: C14_17  and  C15_19 
REMARK   14  A    between atoms: C15_19  and  C16_20 
REMARK   15  A    between atoms: C16_20  and  O4_21 
REMARK   16  A    between atoms: C16_20  and  C17_23 
REMARK   17  A    between atoms: C17_23  and  C18_24 
REMARK   18  A    between atoms: C18_24  and  C19_25 
REMARK   19  A    between atoms: C19_25  and  C20_26 
REMARK   20  A    between atoms: C22_29  and  O5_30 
REMARK   21  A    between atoms: C25_34  and  O6_35 
REMARK   22  A    between atoms: C26_37  and  O7_38 
REMARK   23  A    between atoms: C27_40  and  O8_41 
REMARK   24  A    between atoms: C28_43  and  O9_44 
ROOT
HETATM    1  C15 UNL     1       8.818  30.055   2.049  1.00  0.00     0.084 C 
HETATM    2  C22 UNL     1       7.558  30.797   2.248  1.00  0.00     0.138 C 
HETATM    3  C23 UNL     1       7.546  32.246   2.516  1.00  0.00     0.041 C 
HETATM    4  C24 UNL     1       8.741  33.053   2.228  1.00  0.00     0.031 C 
HETATM    5  C25 UNL     1       8.640  34.388   2.908  1.00  0.00     0.154 C 
HETATM    6  C26 UNL     1       9.148  34.502   4.287  1.00  0.00     0.178 C 
HETATM    7  C27 UNL     1      10.450  33.769   4.378  1.00  0.00     0.178 C 
HETATM    8  C28 UNL     1      10.189  32.313   3.957  1.00  0.00     0.159 C 
HETATM    9  C29 UNL     1       9.955  32.265   2.551  1.00  0.00     0.004 C 
HETATM   10  C30 UNL     1      11.267  32.460   1.915  1.00  0.00     0.018 C 
HETATM   11  C31 UNL     1      11.266  30.894   1.819  1.00  0.00    -0.007 C 
HETATM   12  C32 UNL     1      12.260  30.631   0.767  1.00  0.00     0.011 C 
HETATM   13  C33 UNL     1       9.839  31.066   1.629  1.00  0.00    -0.011 C 
HETATM   14  C34 UNL     1       9.514  31.495   0.229  1.00  0.00     0.018 C 
ENDROOT
BRANCH   1  15
HETATM   15  C14 UNL     1       8.490  28.937   1.121  1.00  0.00     0.176 C 
HETATM   16  O3  UNL     1       7.337  28.637   0.904  1.00  0.00    -0.293 OA
BRANCH  15  17
HETATM   17  C6  UNL     1       9.317  28.010   0.377  1.00  0.00     0.237 C 
BRANCH  17  18
HETATM   18  N1  UNL     1       9.122  26.648   0.422  1.00  0.00    -0.402 NA
HETATM   19  C5  UNL     1       8.908  25.285   0.483  1.00  0.00     0.287 C 
HETATM   20  O1  UNL     1       8.162  24.558   1.080  1.00  0.00    -0.258 OA
BRANCH  19  21
HETATM   21  C4  UNL     1      10.002  24.757  -0.543  1.00  0.00     0.119 C 
BRANCH  21  22
HETATM   22  C3  UNL     1       9.416  24.564  -1.873  1.00  0.00     0.010 C 
BRANCH  22  23
HETATM   23  C2  UNL     1      10.408  23.623  -2.610  1.00  0.00    -0.004 C 
HETATM   24  C1  UNL     1      10.000  23.433  -4.038  1.00  0.00     0.005 C 
ENDBRANCH  22  23
ENDBRANCH  21  22
ENDBRANCH  19  21
ENDBRANCH  17  18
BRANCH  17  25
HETATM   25  C7  UNL     1       9.181  28.438  -1.077  1.00  0.00     0.047 C 
BRANCH  25  26
HETATM   26  C8  UNL     1      10.528  28.544  -1.775  1.00  0.00     0.004 C 
BRANCH  26  27
HETATM   27  C9  UNL     1      10.303  27.814  -3.107  1.00  0.00     0.000 C 
BRANCH  27  28
HETATM   28  C10 UNL     1      11.534  27.115  -3.602  1.00  0.00     0.002 C 
BRANCH  28  29
HETATM   29  C11 UNL     1      12.526  26.918  -2.457  1.00  0.00     0.026 C 
BRANCH  29  30
HETATM   30  C12 UNL     1      13.857  27.559  -2.752  1.00  0.00     0.167 C 
BRANCH  30  31
HETATM   31  O2  UNL     1      14.908  26.967  -2.043  1.00  0.00    -0.396 OA
HETATM   32  C13 UNL     1      15.658  27.933  -1.387  1.00  0.00     0.201 C 
ENDBRANCH  30  31
ENDBRANCH  29  30
ENDBRANCH  28  29
ENDBRANCH  27  28
ENDBRANCH  26  27
ENDBRANCH  25  26
ENDBRANCH  17  25
ENDBRANCH  15  17
ENDBRANCH   1  15
BRANCH   1  33
HETATM   33  C16 UNL     1       9.399  29.214   3.170  1.00  0.00     0.137 C 
BRANCH  33  34
HETATM   34  O4  UNL     1       9.658  27.950   2.540  1.00  0.00    -0.394 OA
ATOM     35  H4  UNL     1      10.319  27.556   3.097  1.00  0.00     0.210 HD
ENDBRANCH  33  34
BRANCH  33  36
HETATM   36  C17 UNL     1       8.633  28.957   4.377  1.00  0.00     0.033 C 
BRANCH  36  37
HETATM   37  C18 UNL     1       8.908  27.571   5.022  1.00  0.00     0.004 C 
BRANCH  37  38
HETATM   38  C19 UNL     1       7.579  26.819   5.082  1.00  0.00     0.020 C 
BRANCH  38  39
HETATM   39  C20 UNL     1       7.622  25.467   4.501  1.00  0.00     0.078 C 
HETATM   40  C21 UNL     1       6.880  24.515   5.457  1.00  0.00     0.026 C 
HETATM   41 CL1  UNL     1       9.283  24.899   4.332  1.00  0.00    -0.125 Cl
ENDBRANCH  38  39
ENDBRANCH  37  38
ENDBRANCH  36  37
ENDBRANCH  33  36
ENDBRANCH   1  33
BRANCH   2  42
HETATM   42  O5  UNL     1       6.539  30.183   2.972  1.00  0.00    -0.394 OA
ATOM     43  H5  UNL     1       5.641  30.341   2.706  1.00  0.00     0.210 HD
ENDBRANCH   2  42
BRANCH   8  44
HETATM   44  O9  UNL     1       9.181  32.066   4.891  1.00  0.00    -0.392 OA
ATOM     45  H9  UNL     1       8.480  31.958   4.259  1.00  0.00     0.210 HD
ENDBRANCH   8  44
BRANCH   5  46
HETATM   46  O6  UNL     1       9.259  35.398   2.122  1.00  0.00    -0.393 OA
ATOM     47  H6  UNL     1      10.137  35.576   2.438  1.00  0.00     0.210 HD
ENDBRANCH   5  46
BRANCH   7  48
HETATM   48  O8  UNL     1      11.415  34.451   3.734  1.00  0.00    -0.390 OA
ATOM     49  H8  UNL     1      12.231  34.402   4.216  1.00  0.00     0.210 HD
ENDBRANCH   7  48
BRANCH   6  50
HETATM   50  O7  UNL     1       8.269  34.221   5.284  1.00  0.00    -0.390 OA
ATOM     51  H7  UNL     1       7.760  33.425   5.190  1.00  0.00     0.210 HD
ENDBRANCH   6  50
TORSDOF 24
ENDMDL
MODEL 3
REMARK VINA RESULT: -5.820123999      3.630      6.723
REMARK  24 active torsions:
REMARK  status: ('A' for Active; 'I' for Inactive)
REMARK    1  A    between atoms: C2_2  and  C3_3 
REMARK    2  A    between atoms: C3_3  and  C4_4 
REMARK    3  A    between atoms: C4_4  and  C5_5 
REMARK       I    between atoms: C5_5  and  N1_7 
REMARK    4  A    between atoms: N1_7  and  C6_8 
REMARK    5  A    between atoms: C6_8  and  C7_9 
REMARK    6  A    between atoms: C6_8  and  C14_17 
REMARK    7  A    between atoms: C7_9  and  C8_10 
REMARK    8  A    between atoms: C8_10  and  C9_11 
REMARK    9  A    between atoms: C9_11  and  C10_12 
REMARK   10  A    between atoms: C10_12  and  C11_13 
REMARK   11  A    between atoms: C11_13  and  C12_14 
REMARK   12  A    between atoms: C12_14  and  O2_15 
REMARK   13  A    between atoms: C14_17  and  C15_19 
REMARK   14  A    between atoms: C15_19  and  C16_20 
REMARK   15  A    between atoms: C16_20  and  O4_21 
REMARK   16  A    between atoms: C16_20  and  C17_23 
REMARK   17  A    between atoms: C17_23  and  C18_24 
REMARK   18  A    between atoms: C18_24  and  C19_25 
REMARK   19  A    between atoms: C19_25  and  C20_26 
REMARK   20  A    between atoms: C22_29  and  O5_30 
REMARK   21  A    between atoms: C25_34  and  O6_35 
REMARK   22  A    between atoms: C26_37  and  O7_38 
REMARK   23  A    between atoms: C27_40  and  O8_41 
REMARK   24  A    between atoms: C28_43  and  O9_44 
ROOT
HETATM    1  C15 UNL     1       8.747  30.494   2.384  1.00  0.00     0.084 C 
HETATM    2  C22 UNL     1       7.454  30.300   1.701  1.00  0.00     0.138 C 
HETATM    3  C23 UNL     1       7.127  30.999   0.446  1.00  0.00     0.041 C 
HETATM    4  C24 UNL     1       8.201  31.612  -0.350  1.00  0.00     0.031 C 
HETATM    5  C25 UNL     1       7.619  32.563  -1.356  1.00  0.00     0.154 C 
HETATM    6  C26 UNL     1       7.407  33.962  -0.943  1.00  0.00     0.178 C 
HETATM    7  C27 UNL     1       8.601  34.416  -0.163  1.00  0.00     0.178 C 
HETATM    8  C28 UNL     1       8.761  33.459   1.031  1.00  0.00     0.159 C 
HETATM    9  C29 UNL     1       9.217  32.192   0.561  1.00  0.00     0.004 C 
HETATM   10  C30 UNL     1      10.635  32.375   0.216  1.00  0.00     0.018 C 
HETATM   11  C31 UNL     1      10.886  31.769   1.642  1.00  0.00    -0.007 C 
HETATM   12  C32 UNL     1      12.280  31.308   1.560  1.00  0.00     0.011 C 
HETATM   13  C33 UNL     1       9.703  30.987   1.343  1.00  0.00    -0.011 C 
HETATM   14  C34 UNL     1      10.014  29.842   0.424  1.00  0.00     0.018 C 
ENDROOT
BRANCH   1  15
HETATM   15  C14 UNL     1       9.040  29.209   3.078  1.00  0.00     0.176 C 
HETATM   16  O3  UNL     1      10.118  29.024   3.597  1.00  0.00    -0.293 OA
BRANCH  15  17
HETATM   17  C6  UNL     1       8.268  27.998   3.259  1.00  0.00     0.237 C 
BRANCH  17  18
HETATM   18  N1  UNL     1       8.158  27.041   2.275  1.00  0.00    -0.402 NA
HETATM   19  C5  UNL     1       8.025  26.077   1.295  1.00  0.00     0.287 C 
HETATM   20  O1  UNL     1       7.166  25.308   0.957  1.00  0.00    -0.258 OA
BRANCH  19  21
HETATM   21  C4  UNL     1       9.438  26.175   0.573  1.00  0.00     0.119 C 
BRANCH  21  22
HETATM   22  C3  UNL     1       9.330  25.784  -0.835  1.00  0.00     0.010 C 
BRANCH  22  23
HETATM   23  C2  UNL     1      10.033  24.401  -0.917  1.00  0.00    -0.004 C 
HETATM   24  C1  UNL     1      10.033  23.885  -2.322  1.00  0.00     0.005 C 
ENDBRANCH  22  23
ENDBRANCH  21  22
ENDBRANCH  19  21
ENDBRANCH  17  18
BRANCH  17  25
HETATM   25  C7  UNL     1       8.872  27.322   4.480  1.00  0.00     0.047 C 
BRANCH  25  26
HETATM   26  C8  UNL     1       7.916  26.328   5.121  1.00  0.00     0.004 C 
BRANCH  26  27
HETATM   27  C9  UNL     1       8.536  24.963   4.786  1.00  0.00     0.000 C 
BRANCH  27  28
HETATM   28  C10 UNL     1       7.510  23.937   4.408  1.00  0.00     0.002 C 
BRANCH  28  29
HETATM   29  C11 UNL     1       6.125  24.577   4.332  1.00  0.00     0.026 C 
BRANCH  29  30
HETATM   30  C12 UNL     1       5.107  23.808   5.135  1.00  0.00     0.167 C 
BRANCH  30  31
HETATM   31  O2  UNL     1       3.797  24.036   4.702  1.00  0.00    -0.396 OA
HETATM   32  C13 UNL     1       2.888  23.432   5.560  1.00  0.00     0.201 C 
ENDBRANCH  30  31
ENDBRANCH  29  30
ENDBRANCH  28  29
ENDBRANCH  27  28
ENDBRANCH  26  27
ENDBRANCH  25  26
ENDBRANCH  17  25
ENDBRANCH  15  17
ENDBRANCH   1  15
BRANCH   1  33
HETATM   33  C16 UNL     1       8.846  31.398   3.599  1.00  0.00     0.137 C 
BRANCH  33  34
HETATM   34  O4  UNL     1       9.953  30.854   4.332  1.00  0.00    -0.394 OA
ATOM     35  H4  UNL     1       9.779  31.121   5.227  1.00  0.00     0.210 HD
ENDBRANCH  33  34
BRANCH  33  36
HETATM   36  C17 UNL     1       7.728  31.528   4.519  1.00  0.00     0.033 C 
BRANCH  36  37
HETATM   37  C18 UNL     1       7.977  30.897   5.916  1.00  0.00     0.004 C 
BRANCH  37  38
HETATM   38  C19 UNL     1       6.877  29.863   6.158  1.00  0.00     0.020 C 
BRANCH  38  39
HETATM   39  C20 UNL     1       6.955  29.191   7.465  1.00  0.00     0.078 C 
HETATM   40  C21 UNL     1       5.883  29.808   8.381  1.00  0.00     0.026 C 
HETATM   41 CL1  UNL     1       8.533  29.437   8.214  1.00  0.00    -0.125 Cl
ENDBRANCH  38  39
ENDBRANCH  37  38
ENDBRANCH  36  37
ENDBRANCH  33  36
ENDBRANCH   1  33
BRANCH   2  42
HETATM   42  O5  UNL     1       6.306  30.188   2.482  1.00  0.00    -0.394 OA
ATOM     43  H5  UNL     1       5.462  30.256   2.052  1.00  0.00     0.210 HD
ENDBRANCH   2  42
BRANCH   8  44
HETATM   44  O9  UNL     1       7.477  33.647   1.546  1.00  0.00    -0.392 OA
ATOM     45  H9  UNL     1       7.022  33.167   0.864  1.00  0.00     0.210 HD
ENDBRANCH   8  44
BRANCH   5  46
HETATM   46  O6  UNL     1       8.394  32.565  -2.549  1.00  0.00    -0.393 OA
ATOM     47  H6  UNL     1       9.259  32.921  -2.384  1.00  0.00     0.210 HD
ENDBRANCH   5  46
BRANCH   7  48
HETATM   48  O8  UNL     1       9.655  34.588  -0.981  1.00  0.00    -0.390 OA
ATOM     49  H8  UNL     1       9.790  33.811  -1.511  1.00  0.00     0.210 HD
ENDBRANCH   7  48
BRANCH   6  50
HETATM   50  O7  UNL     1       6.211  34.251  -0.368  1.00  0.00    -0.390 OA
ATOM     51  H7  UNL     1       5.994  35.172  -0.277  1.00  0.00     0.210 HD
ENDBRANCH   6  50
TORSDOF 24
ENDMDL
MODEL 4
REMARK VINA RESULT: -5.800135418      3.372      6.628
REMARK  24 active torsions:
REMARK  status: ('A' for Active; 'I' for Inactive)
REMARK    1  A    between atoms: C2_2  and  C3_3 
REMARK    2  A    between atoms: C3_3  and  C4_4 
REMARK    3  A    between atoms: C4_4  and  C5_5 
REMARK       I    between atoms: C5_5  and  N1_7 
REMARK    4  A    between atoms: N1_7  and  C6_8 
REMARK    5  A    between atoms: C6_8  and  C7_9 
REMARK    6  A    between atoms: C6_8  and  C14_17 
REMARK    7  A    between atoms: C7_9  and  C8_10 
REMARK    8  A    between atoms: C8_10  and  C9_11 
REMARK    9  A    between atoms: C9_11  and  C10_12 
REMARK   10  A    between atoms: C10_12  and  C11_13 
REMARK   11  A    between atoms: C11_13  and  C12_14 
REMARK   12  A    between atoms: C12_14  and  O2_15 
REMARK   13  A    between atoms: C14_17  and  C15_19 
REMARK   14  A    between atoms: C15_19  and  C16_20 
REMARK   15  A    between atoms: C16_20  and  O4_21 
REMARK   16  A    between atoms: C16_20  and  C17_23 
REMARK   17  A    between atoms: C17_23  and  C18_24 
REMARK   18  A    between atoms: C18_24  and  C19_25 
REMARK   19  A    between atoms: C19_25  and  C20_26 
REMARK   20  A    between atoms: C22_29  and  O5_30 
REMARK   21  A    between atoms: C25_34  and  O6_35 
REMARK   22  A    between atoms: C26_37  and  O7_38 
REMARK   23  A    between atoms: C27_40  and  O8_41 
REMARK   24  A    between atoms: C28_43  and  O9_44 
ROOT
HETATM    1  C15 UNL     1       8.398  29.431  12.040  1.00  0.00     0.084 C 
HETATM    2  C22 UNL     1       8.520  27.986  12.310  1.00  0.00     0.138 C 
HETATM    3  C23 UNL     1       7.647  27.302  13.280  1.00  0.00     0.041 C 
HETATM    4  C24 UNL     1       6.403  27.948  13.725  1.00  0.00     0.031 C 
HETATM    5  C25 UNL     1       5.879  27.266  14.956  1.00  0.00     0.154 C 
HETATM    6  C26 UNL     1       6.354  27.746  16.267  1.00  0.00     0.178 C 
HETATM    7  C27 UNL     1       6.370  29.242  16.251  1.00  0.00     0.178 C 
HETATM    8  C28 UNL     1       7.280  29.680  15.090  1.00  0.00     0.159 C 
HETATM    9  C29 UNL     1       6.626  29.408  13.852  1.00  0.00     0.004 C 
HETATM   10  C30 UNL     1       5.572  30.425  13.719  1.00  0.00     0.018 C 
HETATM   11  C31 UNL     1       6.630  31.164  12.827  1.00  0.00    -0.007 C 
HETATM   12  C32 UNL     1       5.804  32.094  12.043  1.00  0.00     0.011 C 
HETATM   13  C33 UNL     1       7.010  29.819  12.443  1.00  0.00    -0.011 C 
HETATM   14  C34 UNL     1       6.059  29.240  11.438  1.00  0.00     0.018 C 
ENDROOT
BRANCH   1  15
HETATM   15  C14 UNL     1       8.813  29.617  10.621  1.00  0.00     0.176 C 
HETATM   16  O3  UNL     1       9.903  29.249  10.247  1.00  0.00    -0.293 OA
BRANCH  15  17
HETATM   17  C6  UNL     1       8.160  30.234   9.485  1.00  0.00     0.237 C 
BRANCH  17  18
HETATM   18  N1  UNL     1       8.600  31.417   8.935  1.00  0.00    -0.402 NA
HETATM   19  C5  UNL     1       9.061  32.601   8.396  1.00  0.00     0.287 C 
HETATM   20  O1  UNL     1      10.048  33.275   8.518  1.00  0.00    -0.258 OA
BRANCH  19  21
HETATM   21  C4  UNL     1       7.861  32.985   7.425  1.00  0.00     0.119 C 
BRANCH  21  22
HETATM   22  C3  UNL     1       6.668  33.349   8.194  1.00  0.00     0.010 C 
BRANCH  22  23
HETATM   23  C2  UNL     1       5.498  32.617   7.480  1.00  0.00    -0.004 C 
HETATM   24  C1  UNL     1       4.669  31.851   8.464  1.00  0.00     0.005 C 
ENDBRANCH  22  23
ENDBRANCH  21  22
ENDBRANCH  19  21
ENDBRANCH  17  18
BRANCH  17  25
HETATM   25  C7  UNL     1       8.201  29.182   8.387  1.00  0.00     0.047 C 
BRANCH  25  26
HETATM   26  C8  UNL     1       6.922  29.158   7.564  1.00  0.00     0.004 C 
BRANCH  26  27
HETATM   27  C9  UNL     1       7.424  29.234   6.114  1.00  0.00     0.000 C 
BRANCH  27  28
HETATM   28  C10 UNL     1       7.627  27.882   5.498  1.00  0.00     0.002 C 
BRANCH  28  29
HETATM   29  C11 UNL     1       9.021  27.787   4.880  1.00  0.00     0.026 C 
BRANCH  29  30
HETATM   30  C12 UNL     1       9.093  26.718   3.821  1.00  0.00     0.167 C 
BRANCH  30  31
HETATM   31  O2  UNL     1       9.866  25.620   4.215  1.00  0.00    -0.396 OA
HETATM   32  C13 UNL     1       9.055  24.531   4.499  1.00  0.00     0.201 C 
ENDBRANCH  30  31
ENDBRANCH  29  30
ENDBRANCH  28  29
ENDBRANCH  27  28
ENDBRANCH  26  27
ENDBRANCH  25  26
ENDBRANCH  17  25
ENDBRANCH  15  17
ENDBRANCH   1  15
BRANCH   1  33
HETATM   33  C16 UNL     1       9.376  30.413  12.658  1.00  0.00     0.137 C 
BRANCH  33  34
HETATM   34  O4  UNL     1       9.442  31.472  11.692  1.00  0.00    -0.394 OA
ATOM     35  H4  UNL     1      10.168  32.004  11.996  1.00  0.00     0.210 HD
ENDBRANCH  33  34
BRANCH  33  36
HETATM   36  C17 UNL     1      10.738  30.009  12.965  1.00  0.00     0.033 C 
BRANCH  36  37
HETATM   37  C18 UNL     1      11.272  30.551  14.319  1.00  0.00     0.004 C 
BRANCH  37  38
HETATM   38  C19 UNL     1      12.239  29.510  14.883  1.00  0.00     0.020 C 
BRANCH  38  39
HETATM   39  C20 UNL     1      11.666  28.160  15.013  1.00  0.00     0.078 C 
HETATM   40  C21 UNL     1      11.648  27.793  16.508  1.00  0.00     0.026 C 
HETATM   41 CL1  UNL     1      12.648  26.968  14.162  1.00  0.00    -0.125 Cl
ENDBRANCH  38  39
ENDBRANCH  37  38
ENDBRANCH  36  37
ENDBRANCH  33  36
ENDBRANCH   1  33
BRANCH   2  42
HETATM   42  O5  UNL     1       9.797  27.431  12.364  1.00  0.00    -0.394 OA
ATOM     43  H5  UNL     1      10.020  26.758  11.731  1.00  0.00     0.210 HD
ENDBRANCH   2  42
BRANCH   8  44
HETATM   44  O9  UNL     1       8.408  28.973  15.510  1.00  0.00    -0.392 OA
ATOM     45  H9  UNL     1       8.048  28.107  15.361  1.00  0.00     0.210 HD
ENDBRANCH   8  44
BRANCH   5  46
HETATM   46  O6  UNL     1       4.457  27.278  14.968  1.00  0.00    -0.393 OA
ATOM     47  H6  UNL     1       4.125  26.747  15.682  1.00  0.00     0.210 HD
ENDBRANCH   5  46
BRANCH   7  48
HETATM   48  O8  UNL     1       5.114  29.722  16.286  1.00  0.00    -0.390 OA
ATOM     49  H8  UNL     1       4.634  29.447  15.513  1.00  0.00     0.210 HD
ENDBRANCH   7  48
BRANCH   6  50
HETATM   50  O7  UNL     1       7.487  27.172  16.750  1.00  0.00    -0.390 OA
ATOM     51  H7  UNL     1       8.289  27.673  16.662  1.00  0.00     0.210 HD
ENDBRANCH   6  50
TORSDOF 24
ENDMDL
MODEL 5
REMARK VINA RESULT: -5.784591682      4.178      7.993
REMARK  24 active torsions:
REMARK  status: ('A' for Active; 'I' for Inactive)
REMARK    1  A    between atoms: C2_2  and  C3_3 
REMARK    2  A    between atoms: C3_3  and  C4_4 
REMARK    3  A    between atoms: C4_4  and  C5_5 
REMARK       I    between atoms: C5_5  and  N1_7 
REMARK    4  A    between atoms: N1_7  and  C6_8 
REMARK    5  A    between atoms: C6_8  and  C7_9 
REMARK    6  A    between atoms: C6_8  and  C14_17 
REMARK    7  A    between atoms: C7_9  and  C8_10 
REMARK    8  A    between atoms: C8_10  and  C9_11 
REMARK    9  A    between atoms: C9_11  and  C10_12 
REMARK   10  A    between atoms: C10_12  and  C11_13 
REMARK   11  A    between atoms: C11_13  and  C12_14 
REMARK   12  A    between atoms: C12_14  and  O2_15 
REMARK   13  A    between atoms: C14_17  and  C15_19 
REMARK   14  A    between atoms: C15_19  and  C16_20 
REMARK   15  A    between atoms: C16_20  and  O4_21 
REMARK   16  A    between atoms: C16_20  and  C17_23 
REMARK   17  A    between atoms: C17_23  and  C18_24 
REMARK   18  A    between atoms: C18_24  and  C19_25 
REMARK   19  A    between atoms: C19_25  and  C20_26 
REMARK   20  A    between atoms: C22_29  and  O5_30 
REMARK   21  A    between atoms: C25_34  and  O6_35 
REMARK   22  A    between atoms: C26_37  and  O7_38 
REMARK   23  A    between atoms: C27_40  and  O8_41 
REMARK   24  A    between atoms: C28_43  and  O9_44 
ROOT
HETATM    1  C15 UNL     1       8.845  29.864   1.115  1.00  0.00     0.084 C 
HETATM    2  C22 UNL     1       7.980  29.169   0.143  1.00  0.00     0.138 C 
HETATM    3  C23 UNL     1       7.988  29.516  -1.289  1.00  0.00     0.041 C 
HETATM    4  C24 UNL     1       9.106  30.293  -1.846  1.00  0.00     0.031 C 
HETATM    5  C25 UNL     1       8.733  30.838  -3.195  1.00  0.00     0.154 C 
HETATM    6  C26 UNL     1       8.064  32.151  -3.249  1.00  0.00     0.178 C 
HETATM    7  C27 UNL     1       8.743  33.073  -2.286  1.00  0.00     0.178 C 
HETATM    8  C28 UNL     1       8.668  32.423  -0.895  1.00  0.00     0.159 C 
HETATM    9  C29 UNL     1       9.547  31.301  -0.852  1.00  0.00     0.004 C 
HETATM   10  C30 UNL     1      10.907  31.854  -0.778  1.00  0.00     0.018 C 
HETATM   11  C31 UNL     1      10.747  31.599   0.762  1.00  0.00    -0.007 C 
HETATM   12  C32 UNL     1      12.138  31.585   1.238  1.00  0.00     0.011 C 
HETATM   13  C33 UNL     1       9.975  30.450   0.329  1.00  0.00    -0.011 C 
HETATM   14  C34 UNL     1      10.861  29.323  -0.114  1.00  0.00     0.018 C 
ENDROOT
BRANCH   1  15
HETATM   15  C14 UNL     1       9.150  28.865   2.178  1.00  0.00     0.176 C 
HETATM   16  O3  UNL     1      10.042  29.067   2.971  1.00  0.00    -0.293 OA
BRANCH  15  17
HETATM   17  C6  UNL     1       8.596  27.564   2.484  1.00  0.00     0.237 C 
BRANCH  17  18
HETATM   18  N1  UNL     1       8.708  26.494   1.625  1.00  0.00    -0.402 NA
HETATM   19  C5  UNL     1       8.811  25.406   0.780  1.00  0.00     0.287 C 
HETATM   20  O1  UNL     1       8.561  24.234   0.854  1.00  0.00    -0.258 OA
BRANCH  19  21
HETATM   21  C4  UNL     1       9.420  26.086  -0.522  1.00  0.00     0.119 C 
BRANCH  21  22
HETATM   22  C3  UNL     1      10.448  25.231  -1.122  1.00  0.00     0.010 C 
BRANCH  22  23
HETATM   23  C2  UNL     1      11.197  26.153  -2.122  1.00  0.00    -0.004 C 
HETATM   24  C1  UNL     1      10.228  26.930  -2.959  1.00  0.00     0.005 C 
ENDBRANCH  22  23
ENDBRANCH  21  22
ENDBRANCH  19  21
ENDBRANCH  17  18
BRANCH  17  25
HETATM   25  C7  UNL     1       9.243  27.157   3.799  1.00  0.00     0.047 C 
BRANCH  25  26
HETATM   26  C8  UNL     1       8.293  26.374   4.692  1.00  0.00     0.004 C 
BRANCH  26  27
HETATM   27  C9  UNL     1       8.840  24.940   4.631  1.00  0.00     0.000 C 
BRANCH  27  28
HETATM   28  C10 UNL     1       7.755  23.905   4.607  1.00  0.00     0.002 C 
BRANCH  28  29
HETATM   29  C11 UNL     1       6.405  24.561   4.318  1.00  0.00     0.026 C 
BRANCH  29  30
HETATM   30  C12 UNL     1       5.286  23.897   5.078  1.00  0.00     0.167 C 
BRANCH  30  31
HETATM   31  O2  UNL     1       4.026  24.190   4.543  1.00  0.00    -0.396 OA
HETATM   32  C13 UNL     1       3.027  23.584   5.291  1.00  0.00     0.201 C 
ENDBRANCH  30  31
ENDBRANCH  29  30
ENDBRANCH  28  29
ENDBRANCH  27  28
ENDBRANCH  26  27
ENDBRANCH  25  26
ENDBRANCH  17  25
ENDBRANCH  15  17
ENDBRANCH   1  15
BRANCH   1  33
HETATM   33  C16 UNL     1       8.273  30.941   2.020  1.00  0.00     0.137 C 
BRANCH  33  34
HETATM   34  O4  UNL     1       9.317  31.160   2.980  1.00  0.00    -0.394 OA
ATOM     35  H4  UNL     1       8.847  31.270   3.798  1.00  0.00     0.210 HD
ENDBRANCH  33  34
BRANCH  33  36
HETATM   36  C17 UNL     1       7.039  30.714   2.753  1.00  0.00     0.033 C 
BRANCH  36  37
HETATM   37  C18 UNL     1       7.101  31.132   4.247  1.00  0.00     0.004 C 
BRANCH  37  38
HETATM   38  C19 UNL     1       7.009  29.858   5.087  1.00  0.00     0.020 C 
BRANCH  38  39
HETATM   39  C20 UNL     1       8.001  29.775   6.171  1.00  0.00     0.078 C 
HETATM   40  C21 UNL     1       7.372  28.980   7.330  1.00  0.00     0.026 C 
HETATM   41 CL1  UNL     1       8.428  31.379   6.768  1.00  0.00    -0.125 Cl
ENDBRANCH  38  39
ENDBRANCH  37  38
ENDBRANCH  36  37
ENDBRANCH  33  36
ENDBRANCH   1  33
BRANCH   2  42
HETATM   42  O5  UNL     1       6.684  28.838   0.533  1.00  0.00    -0.394 OA
ATOM     43  H5  UNL     1       6.006  29.496   0.442  1.00  0.00     0.210 HD
ENDBRANCH   2  42
BRANCH   8  44
HETATM   44  O9  UNL     1       7.279  32.285  -0.869  1.00  0.00    -0.392 OA
ATOM     45  H9  UNL     1       7.098  33.148  -0.515  1.00  0.00     0.210 HD
ENDBRANCH   8  44
BRANCH   5  46
HETATM   46  O6  UNL     1       9.871  30.884  -4.047  1.00  0.00    -0.393 OA
ATOM     47  H6  UNL     1      10.102  30.011  -4.342  1.00  0.00     0.210 HD
ENDBRANCH   5  46
BRANCH   7  48
HETATM   48  O8  UNL     1       9.954  33.427  -2.755  1.00  0.00    -0.390 OA
ATOM     49  H8  UNL     1      10.627  33.221  -2.117  1.00  0.00     0.210 HD
ENDBRANCH   7  48
BRANCH   6  50
HETATM   50  O7  UNL     1       6.708  32.145  -3.169  1.00  0.00    -0.390 OA
ATOM     51  H7  UNL     1       6.234  32.021  -3.983  1.00  0.00     0.210 HD
ENDBRANCH   6  50
TORSDOF 24
ENDMDL
