MODEL 1
REMARK VINA RESULT: -6.541836201      0.000      0.000
REMARK  12 active torsions:
REMARK  status: ('A' for Active; 'I' for Inactive)
REMARK    1  A    between atoms: C2_2  and  C4_4 
REMARK    2  A    between atoms: C4_4  and  C7_7 
REMARK    3  A    between atoms: C7_7  and  C8_8 
REMARK    4  A    between atoms: C8_8  and  O1_9 
REMARK    5  A    between atoms: C8_8  and  C9_11 
REMARK    6  A    between atoms: C9_11  and  C10_12 
REMARK    7  A    between atoms: C9_11  and  C23_31 
REMARK       I    between atoms: C10_12  and  N1_14 
REMARK    8  A    between atoms: C15_19  and  C16_20 
REMARK       I    between atoms: C16_20  and  N2_22 
REMARK    9  A    between atoms: N2_22  and  C17_24 
REMARK   10  A    between atoms: C17_24  and  C18_25 
REMARK   11  A    between atoms: C17_24  and  C20_28 
REMARK   12  A    between atoms: C23_31  and  O5_33 
ROOT
HETATM    1  C10 UNL     1       3.534  55.241  20.926  1.00  0.00     0.229 C 
HETATM    2  O2  UNL     1       4.369  55.376  19.957  1.00  0.00    -0.273 OA
HETATM    3  N1  UNL     1       3.820  56.000  22.062  1.00  0.00    -0.338 N 
HETATM    4  C11 UNL     1       2.897  55.922  23.174  1.00  0.00     0.127 C 
HETATM    5  C12 UNL     1       2.994  57.090  24.113  1.00  0.00     0.020 C 
HETATM    6  C13 UNL     1       4.337  57.616  24.412  1.00  0.00     0.004 C 
HETATM    7  C14 UNL     1       5.390  56.922  23.642  1.00  0.00     0.035 C 
HETATM    8  C15 UNL     1       5.011  56.821  22.139  1.00  0.00     0.179 C 
ENDROOT
BRANCH   1   9
HETATM    9  C9  UNL     1       2.435  54.323  20.695  1.00  0.00     0.135 C 
BRANCH   9  10
HETATM   10  C8  UNL     1       1.622  54.678  19.474  1.00  0.00     0.134 C 
BRANCH  10  11
HETATM   11  C7  UNL     1       1.760  53.643  18.394  1.00  0.00     0.046 C 
BRANCH  11  12
HETATM   12  C4  UNL     1       0.448  52.985  18.027  1.00  0.00    -0.023 C 
HETATM   13  C5  UNL     1       0.315  53.246  16.508  1.00  0.00     0.019 C 
HETATM   14  C6  UNL     1      -0.738  53.669  18.637  1.00  0.00     0.019 C 
BRANCH  12  15
HETATM   15  C2  UNL     1       0.454  51.516  18.163  1.00  0.00    -0.085 C 
HETATM   16  C1  UNL     1       0.011  50.922  19.241  1.00  0.00     0.014 C 
HETATM   17  C3  UNL     1       0.970  50.696  17.040  1.00  0.00     0.043 C 
ENDBRANCH  12  15
ENDBRANCH  11  12
ENDBRANCH  10  11
BRANCH  10  18
HETATM   18  O1  UNL     1       2.104  55.868  18.898  1.00  0.00    -0.395 OA
ATOM     19  H1  UNL     1       1.688  56.565  19.393  1.00  0.00     0.210 HD
ENDBRANCH  10  18
ENDBRANCH   9  10
BRANCH   9  20
HETATM   20  C23 UNL     1       2.845  52.866  20.639  1.00  0.00     0.129 C 
HETATM   21  C24 UNL     1       2.385  52.078  21.845  1.00  0.00     0.040 C 
BRANCH  20  22
HETATM   22  O5  UNL     1       4.259  52.790  20.686  1.00  0.00    -0.395 OA
ATOM     23  H5  UNL     1       4.507  52.008  21.164  1.00  0.00     0.210 HD
ENDBRANCH  20  22
ENDBRANCH   9  20
ENDBRANCH   1   9
BRANCH   8  24
HETATM   24  C16 UNL     1       4.905  58.161  21.565  1.00  0.00     0.241 C 
HETATM   25  O3  UNL     1       3.841  58.365  20.874  1.00  0.00    -0.271 OA
HETATM   26  N2  UNL     1       5.766  59.245  21.645  1.00  0.00    -0.348 N 
ATOM     27  H2  UNL     1       6.620  59.126  22.189  1.00  0.00     0.163 HD
BRANCH  26  28
HETATM   28  C17 UNL     1       5.546  60.544  21.013  1.00  0.00     0.157 C 
BRANCH  28  29
HETATM   29  C18 UNL     1       6.657  60.792  20.026  1.00  0.00     0.145 C 
HETATM   30  C19 UNL     1       7.692  59.815  19.636  1.00  0.00     0.093 C 
HETATM   31  O4  UNL     1       6.742  61.902  19.479  1.00  0.00    -0.296 OA
ENDBRANCH  28  29
BRANCH  28  32
HETATM   32  C20 UNL     1       5.303  61.632  21.970  1.00  0.00     0.007 C 
HETATM   33  C21 UNL     1       4.137  62.513  21.736  1.00  0.00     0.012 C 
HETATM   34  C22 UNL     1       5.338  61.139  23.384  1.00  0.00     0.012 C 
ENDBRANCH  28  32
ENDBRANCH  26  28
ENDBRANCH   8  24
TORSDOF 12
ENDMDL
MODEL 2
REMARK VINA RESULT: -6.464281378      6.109      9.071
REMARK  12 active torsions:
REMARK  status: ('A' for Active; 'I' for Inactive)
REMARK    1  A    between atoms: C2_2  and  C4_4 
REMARK    2  A    between atoms: C4_4  and  C7_7 
REMARK    3  A    between atoms: C7_7  and  C8_8 
REMARK    4  A    between atoms: C8_8  and  O1_9 
REMARK    5  A    between atoms: C8_8  and  C9_11 
REMARK    6  A    between atoms: C9_11  and  C10_12 
REMARK    7  A    between atoms: C9_11  and  C23_31 
REMARK       I    between atoms: C10_12  and  N1_14 
REMARK    8  A    between atoms: C15_19  and  C16_20 
REMARK       I    between atoms: C16_20  and  N2_22 
REMARK    9  A    between atoms: N2_22  and  C17_24 
REMARK   10  A    between atoms: C17_24  and  C18_25 
REMARK   11  A    between atoms: C17_24  and  C20_28 
REMARK   12  A    between atoms: C23_31  and  O5_33 
ROOT
HETATM    1  C10 UNL     1       4.114  61.829  25.987  1.00  0.00     0.229 C 
HETATM    2  O2  UNL     1       5.189  62.508  26.179  1.00  0.00    -0.273 OA
HETATM    3  N1  UNL     1       3.113  62.028  26.938  1.00  0.00    -0.338 N 
HETATM    4  C11 UNL     1       1.862  61.321  26.758  1.00  0.00     0.127 C 
HETATM    5  C12 UNL     1       0.714  61.940  27.502  1.00  0.00     0.020 C 
HETATM    6  C13 UNL     1       0.979  62.467  28.851  1.00  0.00     0.004 C 
HETATM    7  C14 UNL     1       2.407  62.360  29.219  1.00  0.00     0.035 C 
HETATM    8  C15 UNL     1       3.321  62.892  28.082  1.00  0.00     0.179 C 
ENDROOT
BRANCH   1   9
HETATM    9  C9  UNL     1       4.108  60.962  24.824  1.00  0.00     0.135 C 
BRANCH   9  10
HETATM   10  C8  UNL     1       4.212  61.723  23.524  1.00  0.00     0.134 C 
BRANCH  10  11
HETATM   11  C7  UNL     1       5.546  61.521  22.866  1.00  0.00     0.046 C 
BRANCH  11  12
HETATM   12  C4  UNL     1       5.448  61.306  21.372  1.00  0.00    -0.023 C 
HETATM   13  C5  UNL     1       6.362  62.403  20.778  1.00  0.00     0.019 C 
HETATM   14  C6  UNL     1       4.085  61.610  20.828  1.00  0.00     0.019 C 
BRANCH  12  15
HETATM   15  C2  UNL     1       6.030  60.032  20.909  1.00  0.00    -0.085 C 
HETATM   16  C1  UNL     1       5.479  58.878  21.193  1.00  0.00     0.014 C 
HETATM   17  C3  UNL     1       7.268  60.064  20.094  1.00  0.00     0.043 C 
ENDBRANCH  12  15
ENDBRANCH  11  12
ENDBRANCH  10  11
BRANCH  10  18
HETATM   18  O1  UNL     1       4.133  63.108  23.765  1.00  0.00    -0.395 OA
ATOM     19  H1  UNL     1       3.532  63.195  24.495  1.00  0.00     0.210 HD
ENDBRANCH  10  18
ENDBRANCH   9  10
BRANCH   9  20
HETATM   20  C23 UNL     1       5.150  59.863  24.864  1.00  0.00     0.129 C 
HETATM   21  C24 UNL     1       4.562  58.485  24.662  1.00  0.00     0.040 C 
BRANCH  20  22
HETATM   22  O5  UNL     1       5.714  59.820  26.164  1.00  0.00    -0.395 OA
ATOM     23  H5  UNL     1       6.580  59.434  26.107  1.00  0.00     0.210 HD
ENDBRANCH  20  22
ENDBRANCH   9  20
ENDBRANCH   1   9
BRANCH   8  24
HETATM   24  C16 UNL     1       3.064  64.315  27.866  1.00  0.00     0.241 C 
HETATM   25  O3  UNL     1       3.226  65.053  28.905  1.00  0.00    -0.271 OA
HETATM   26  N2  UNL     1       2.674  64.994  26.722  1.00  0.00    -0.348 N 
ATOM     27  H2  UNL     1       2.539  64.446  25.873  1.00  0.00     0.163 HD
BRANCH  26  28
HETATM   28  C17 UNL     1       2.440  66.435  26.637  1.00  0.00     0.157 C 
BRANCH  28  29
HETATM   29  C18 UNL     1       0.991  66.666  26.292  1.00  0.00     0.145 C 
HETATM   30  C19 UNL     1       0.049  67.503  27.060  1.00  0.00     0.093 C 
HETATM   31  O4  UNL     1       0.516  66.120  25.285  1.00  0.00    -0.296 OA
ENDBRANCH  28  29
BRANCH  28  32
HETATM   32  C20 UNL     1       3.407  67.140  25.784  1.00  0.00     0.007 C 
HETATM   33  C21 UNL     1       3.018  68.463  25.246  1.00  0.00     0.012 C 
HETATM   34  C22 UNL     1       4.765  67.185  26.414  1.00  0.00     0.012 C 
ENDBRANCH  28  32
ENDBRANCH  26  28
ENDBRANCH   8  24
TORSDOF 12
ENDMDL
MODEL 3
REMARK VINA RESULT: -6.148789172      2.491      7.975
REMARK  12 active torsions:
REMARK  status: ('A' for Active; 'I' for Inactive)
REMARK    1  A    between atoms: C2_2  and  C4_4 
REMARK    2  A    between atoms: C4_4  and  C7_7 
REMARK    3  A    between atoms: C7_7  and  C8_8 
REMARK    4  A    between atoms: C8_8  and  O1_9 
REMARK    5  A    between atoms: C8_8  and  C9_11 
REMARK    6  A    between atoms: C9_11  and  C10_12 
REMARK    7  A    between atoms: C9_11  and  C23_31 
REMARK       I    between atoms: C10_12  and  N1_14 
REMARK    8  A    between atoms: C15_19  and  C16_20 
REMARK       I    between atoms: C16_20  and  N2_22 
REMARK    9  A    between atoms: N2_22  and  C17_24 
REMARK   10  A    between atoms: C17_24  and  C18_25 
REMARK   11  A    between atoms: C17_24  and  C20_28 
REMARK   12  A    between atoms: C23_31  and  O5_33 
ROOT
HETATM    1  C10 UNL     1       3.382  59.442  24.235  1.00  0.00     0.229 C 
HETATM    2  O2  UNL     1       2.618  59.453  23.201  1.00  0.00    -0.273 OA
HETATM    3  N1  UNL     1       3.416  58.232  24.931  1.00  0.00    -0.338 N 
HETATM    4  C11 UNL     1       4.287  58.142  26.084  1.00  0.00     0.127 C 
HETATM    5  C12 UNL     1       4.635  56.730  26.460  1.00  0.00     0.020 C 
HETATM    6  C13 UNL     1       3.574  55.716  26.361  1.00  0.00     0.004 C 
HETATM    7  C14 UNL     1       2.320  56.274  25.811  1.00  0.00     0.035 C 
HETATM    8  C15 UNL     1       2.593  57.110  24.530  1.00  0.00     0.179 C 
ENDROOT
BRANCH   1   9
HETATM    9  C9  UNL     1       4.081  60.680  24.524  1.00  0.00     0.135 C 
BRANCH   9  10
HETATM   10  C8  UNL     1       4.365  61.495  23.286  1.00  0.00     0.134 C 
BRANCH  10  11
HETATM   11  C7  UNL     1       5.731  61.206  22.731  1.00  0.00     0.046 C 
BRANCH  11  12
HETATM   12  C4  UNL     1       5.699  60.668  21.318  1.00  0.00    -0.023 C 
HETATM   13  C5  UNL     1       4.416  61.285  20.714  1.00  0.00     0.019 C 
HETATM   14  C6  UNL     1       5.472  59.187  21.263  1.00  0.00     0.019 C 
BRANCH  12  15
HETATM   15  C2  UNL     1       6.797  61.159  20.464  1.00  0.00    -0.085 C 
HETATM   16  C1  UNL     1       6.972  62.435  20.231  1.00  0.00     0.014 C 
HETATM   17  C3  UNL     1       7.730  60.176  19.862  1.00  0.00     0.043 C 
ENDBRANCH  12  15
ENDBRANCH  11  12
ENDBRANCH  10  11
BRANCH  10  18
HETATM   18  O1  UNL     1       4.386  62.867  23.602  1.00  0.00    -0.395 OA
ATOM     19  H1  UNL     1       4.526  62.899  24.540  1.00  0.00     0.210 HD
ENDBRANCH  10  18
ENDBRANCH   9  10
BRANCH   9  20
HETATM   20  C23 UNL     1       3.405  61.544  25.569  1.00  0.00     0.129 C 
HETATM   21  C24 UNL     1       4.076  61.466  26.921  1.00  0.00     0.040 C 
BRANCH  20  22
HETATM   22  O5  UNL     1       2.097  61.046  25.793  1.00  0.00    -0.395 OA
ATOM     23  H5  UNL     1       2.112  60.487  26.561  1.00  0.00     0.210 HD
ENDBRANCH  20  22
ENDBRANCH   9  20
ENDBRANCH   1   9
BRANCH   8  24
HETATM   24  C16 UNL     1       3.146  56.249  23.486  1.00  0.00     0.241 C 
HETATM   25  O3  UNL     1       4.411  56.379  23.298  1.00  0.00    -0.271 OA
HETATM   26  N2  UNL     1       2.527  55.316  22.668  1.00  0.00    -0.348 N 
ATOM     27  H2  UNL     1       1.524  55.179  22.788  1.00  0.00     0.163 HD
BRANCH  26  28
HETATM   28  C17 UNL     1       3.199  54.515  21.646  1.00  0.00     0.157 C 
BRANCH  28  29
HETATM   29  C18 UNL     1       3.218  55.298  20.358  1.00  0.00     0.145 C 
HETATM   30  C19 UNL     1       2.197  55.228  19.296  1.00  0.00     0.093 C 
HETATM   31  O4  UNL     1       4.160  56.075  20.139  1.00  0.00    -0.296 OA
ENDBRANCH  28  29
BRANCH  28  32
HETATM   32  C20 UNL     1       2.681  53.144  21.537  1.00  0.00     0.007 C 
HETATM   33  C21 UNL     1       3.586  52.104  20.999  1.00  0.00     0.012 C 
HETATM   34  C22 UNL     1       2.035  52.697  22.813  1.00  0.00     0.012 C 
ENDBRANCH  28  32
ENDBRANCH  26  28
ENDBRANCH   8  24
TORSDOF 12
ENDMDL
MODEL 4
REMARK VINA RESULT: -6.136950021      3.171      8.539
REMARK  12 active torsions:
REMARK  status: ('A' for Active; 'I' for Inactive)
REMARK    1  A    between atoms: C2_2  and  C4_4 
REMARK    2  A    between atoms: C4_4  and  C7_7 
REMARK    3  A    between atoms: C7_7  and  C8_8 
REMARK    4  A    between atoms: C8_8  and  O1_9 
REMARK    5  A    between atoms: C8_8  and  C9_11 
REMARK    6  A    between atoms: C9_11  and  C10_12 
REMARK    7  A    between atoms: C9_11  and  C23_31 
REMARK       I    between atoms: C10_12  and  N1_14 
REMARK    8  A    between atoms: C15_19  and  C16_20 
REMARK       I    between atoms: C16_20  and  N2_22 
REMARK    9  A    between atoms: N2_22  and  C17_24 
REMARK   10  A    between atoms: C17_24  and  C18_25 
REMARK   11  A    between atoms: C17_24  and  C20_28 
REMARK   12  A    between atoms: C23_31  and  O5_33 
ROOT
HETATM    1  C10 UNL     1       4.881  57.914  24.946  1.00  0.00     0.229 C 
HETATM    2  O2  UNL     1       5.185  56.697  25.227  1.00  0.00    -0.273 OA
HETATM    3  N1  UNL     1       4.790  58.201  23.584  1.00  0.00    -0.338 N 
HETATM    4  C11 UNL     1       4.412  59.545  23.201  1.00  0.00     0.127 C 
HETATM    5  C12 UNL     1       3.871  59.638  21.803  1.00  0.00     0.020 C 
HETATM    6  C13 UNL     1       4.518  58.820  20.765  1.00  0.00     0.004 C 
HETATM    7  C14 UNL     1       5.581  57.955  21.320  1.00  0.00     0.035 C 
HETATM    8  C15 UNL     1       5.085  57.197  22.582  1.00  0.00     0.179 C 
ENDROOT
BRANCH   1   9
HETATM    9  C9  UNL     1       4.685  58.799  26.080  1.00  0.00     0.135 C 
BRANCH   9  10
HETATM   10  C8  UNL     1       3.347  58.606  26.751  1.00  0.00     0.134 C 
BRANCH  10  11
HETATM   11  C7  UNL     1       2.863  59.870  27.401  1.00  0.00     0.046 C 
BRANCH  11  12
HETATM   12  C4  UNL     1       2.127  60.787  26.448  1.00  0.00    -0.023 C 
HETATM   13  C5  UNL     1       0.928  61.300  27.279  1.00  0.00     0.019 C 
HETATM   14  C6  UNL     1       1.508  60.055  25.296  1.00  0.00     0.019 C 
BRANCH  12  15
HETATM   15  C2  UNL     1       2.882  61.999  26.079  1.00  0.00    -0.085 C 
HETATM   16  C1  UNL     1       2.952  62.417  24.840  1.00  0.00     0.014 C 
HETATM   17  C3  UNL     1       3.572  62.765  27.145  1.00  0.00     0.043 C 
ENDBRANCH  12  15
ENDBRANCH  11  12
ENDBRANCH  10  11
BRANCH  10  18
HETATM   18  O1  UNL     1       3.461  57.678  27.803  1.00  0.00    -0.395 OA
ATOM     19  H1  UNL     1       3.938  56.945  27.432  1.00  0.00     0.210 HD
ENDBRANCH  10  18
ENDBRANCH   9  10
BRANCH   9  20
HETATM   20  C23 UNL     1       5.794  58.741  27.110  1.00  0.00     0.129 C 
HETATM   21  C24 UNL     1       6.165  60.101  27.655  1.00  0.00     0.040 C 
BRANCH  20  22
HETATM   22  O5  UNL     1       6.976  58.279  26.479  1.00  0.00    -0.395 OA
ATOM     23  H5  UNL     1       7.714  58.772  26.817  1.00  0.00     0.210 HD
ENDBRANCH  20  22
ENDBRANCH   9  20
ENDBRANCH   1   9
BRANCH   8  24
HETATM   24  C16 UNL     1       3.984  56.306  22.222  1.00  0.00     0.241 C 
HETATM   25  O3  UNL     1       2.972  56.357  23.014  1.00  0.00    -0.271 OA
HETATM   26  N2  UNL     1       3.855  55.416  21.168  1.00  0.00    -0.348 N 
ATOM     27  H2  UNL     1       4.634  55.348  20.513  1.00  0.00     0.163 HD
BRANCH  26  28
HETATM   28  C17 UNL     1       2.691  54.567  20.919  1.00  0.00     0.157 C 
BRANCH  28  29
HETATM   29  C18 UNL     1       3.023  53.160  21.346  1.00  0.00     0.145 C 
HETATM   30  C19 UNL     1       2.313  52.387  22.382  1.00  0.00     0.093 C 
HETATM   31  O4  UNL     1       3.971  52.573  20.801  1.00  0.00    -0.296 OA
ENDBRANCH  28  29
BRANCH  28  32
HETATM   32  C20 UNL     1       2.145  54.697  19.561  1.00  0.00     0.007 C 
HETATM   33  C21 UNL     1       0.675  54.630  19.397  1.00  0.00     0.012 C 
HETATM   34  C22 UNL     1       2.719  55.883  18.849  1.00  0.00     0.012 C 
ENDBRANCH  28  32
ENDBRANCH  26  28
ENDBRANCH   8  24
TORSDOF 12
ENDMDL
MODEL 5
REMARK VINA RESULT: -6.132932302      3.435      7.079
REMARK  12 active torsions:
REMARK  status: ('A' for Active; 'I' for Inactive)
REMARK    1  A    between atoms: C2_2  and  C4_4 
REMARK    2  A    between atoms: C4_4  and  C7_7 
REMARK    3  A    between atoms: C7_7  and  C8_8 
REMARK    4  A    between atoms: C8_8  and  O1_9 
REMARK    5  A    between atoms: C8_8  and  C9_11 
REMARK    6  A    between atoms: C9_11  and  C10_12 
REMARK    7  A    between atoms: C9_11  and  C23_31 
REMARK       I    between atoms: C10_12  and  N1_14 
REMARK    8  A    between atoms: C15_19  and  C16_20 
REMARK       I    between atoms: C16_20  and  N2_22 
REMARK    9  A    between atoms: N2_22  and  C17_24 
REMARK   10  A    between atoms: C17_24  and  C18_25 
REMARK   11  A    between atoms: C17_24  and  C20_28 
REMARK   12  A    between atoms: C23_31  and  O5_33 
ROOT
HETATM    1  C10 UNL     1       3.537  57.207  23.276  1.00  0.00     0.229 C 
HETATM    2  O2  UNL     1       4.061  56.137  23.759  1.00  0.00    -0.273 OA
HETATM    3  N1  UNL     1       2.733  57.924  24.163  1.00  0.00    -0.338 N 
HETATM    4  C11 UNL     1       2.144  59.160  23.692  1.00  0.00     0.127 C 
HETATM    5  C12 UNL     1       1.728  60.084  24.800  1.00  0.00     0.020 C 
HETATM    6  C13 UNL     1       1.117  59.482  25.997  1.00  0.00     0.004 C 
HETATM    7  C14 UNL     1       1.091  58.006  25.926  1.00  0.00     0.035 C 
HETATM    8  C15 UNL     1       2.475  57.441  25.504  1.00  0.00     0.179 C 
ENDROOT
BRANCH   1   9
HETATM    9  C9  UNL     1       3.853  57.501  21.891  1.00  0.00     0.135 C 
BRANCH   9  10
HETATM   10  C8  UNL     1       5.050  58.409  21.742  1.00  0.00     0.134 C 
BRANCH  10  11
HETATM   11  C7  UNL     1       4.808  59.486  20.724  1.00  0.00     0.046 C 
BRANCH  11  12
HETATM   12  C4  UNL     1       5.146  60.871  21.229  1.00  0.00    -0.023 C 
HETATM   13  C5  UNL     1       5.462  60.654  22.727  1.00  0.00     0.019 C 
HETATM   14  C6  UNL     1       3.970  61.799  21.217  1.00  0.00     0.019 C 
BRANCH  12  15
HETATM   15  C2  UNL     1       6.384  61.433  20.656  1.00  0.00    -0.085 C 
HETATM   16  C1  UNL     1       6.624  62.720  20.660  1.00  0.00     0.014 C 
HETATM   17  C3  UNL     1       7.384  60.509  20.068  1.00  0.00     0.043 C 
ENDBRANCH  12  15
ENDBRANCH  11  12
ENDBRANCH  10  11
BRANCH  10  18
HETATM   18  O1  UNL     1       6.151  57.684  21.248  1.00  0.00    -0.395 OA
ATOM     19  H1  UNL     1       6.729  57.578  21.995  1.00  0.00     0.210 HD
ENDBRANCH  10  18
ENDBRANCH   9  10
BRANCH   9  20
HETATM   20  C23 UNL     1       4.024  56.273  21.020  1.00  0.00     0.129 C 
HETATM   21  C24 UNL     1       3.656  56.520  19.574  1.00  0.00     0.040 C 
BRANCH  20  22
HETATM   22  O5  UNL     1       3.111  55.279  21.453  1.00  0.00    -0.395 OA
ATOM     23  H5  UNL     1       2.258  55.466  21.079  1.00  0.00     0.210 HD
ENDBRANCH  20  22
ENDBRANCH   9  20
ENDBRANCH   1   9
BRANCH   8  24
HETATM   24  C16 UNL     1       3.477  57.781  26.513  1.00  0.00     0.241 C 
HETATM   25  O3  UNL     1       3.226  57.332  27.690  1.00  0.00    -0.271 OA
HETATM   26  N2  UNL     1       4.651  58.510  26.404  1.00  0.00    -0.348 N 
ATOM     27  H2  UNL     1       4.890  58.881  25.484  1.00  0.00     0.163 HD
BRANCH  26  28
HETATM   28  C17 UNL     1       5.574  58.790  27.503  1.00  0.00     0.157 C 
BRANCH  28  29
HETATM   29  C18 UNL     1       5.995  60.235  27.420  1.00  0.00     0.145 C 
HETATM   30  C19 UNL     1       5.371  61.262  26.564  1.00  0.00     0.093 C 
HETATM   31  O4  UNL     1       6.944  60.627  28.115  1.00  0.00    -0.296 OA
ENDBRANCH  28  29
BRANCH  28  32
HETATM   32  C20 UNL     1       6.674  57.822  27.609  1.00  0.00     0.007 C 
HETATM   33  C21 UNL     1       6.489  56.659  28.506  1.00  0.00     0.012 C 
HETATM   34  C22 UNL     1       7.164  57.396  26.259  1.00  0.00     0.012 C 
ENDBRANCH  28  32
ENDBRANCH  26  28
ENDBRANCH   8  24
TORSDOF 12
ENDMDL
