MODEL 1
REMARK VINA RESULT: -7.261046572      0.000      0.000
REMARK  11 active torsions:
REMARK  status: ('A' for Active; 'I' for Inactive)
REMARK    1  A    between atoms: C6_6  and  C7_7 
REMARK    2  A    between atoms: C7_7  and  N1_8 
REMARK    3  A    between atoms: C9_14  and  O1_15 
REMARK    4  A    between atoms: O1_15  and  C10_16 
REMARK    5  A    between atoms: C10_16  and  C11_17 
REMARK    6  A    between atoms: C11_17  and  O2_18 
REMARK    7  A    between atoms: C11_17  and  C12_20 
REMARK    8  A    between atoms: C12_20  and  N2_21 
REMARK    9  A    between atoms: N2_21  and  C13_23 
REMARK   10  A    between atoms: N3_26  and  C16_27 
REMARK   11  A    between atoms: C16_27  and  C17_28 
ROOT
HETATM    1  C1  UNL     1       2.226  59.373  24.040  1.00  0.00     0.018 C 
HETATM    2  C2  UNL     1       3.137  59.820  23.370  1.00  0.00    -0.075 C 
HETATM    3  C3  UNL     1       4.238  60.332  22.589  1.00  0.00     0.050 A 
HETATM    4  C4  UNL     1       4.729  61.556  22.937  1.00  0.00     0.024 A 
HETATM    5  C5  UNL     1       5.793  62.069  22.213  1.00  0.00     0.012 A 
HETATM    6  C6  UNL     1       6.359  61.385  21.163  1.00  0.00    -0.015 A 
HETATM    7  C8  UNL     1       5.840  60.149  20.833  1.00  0.00     0.048 A 
HETATM    8  C9  UNL     1       4.775  59.585  21.525  1.00  0.00     0.088 A 
ENDROOT
BRANCH   8   9
HETATM    9  O1  UNL     1       4.197  58.405  21.280  1.00  0.00    -0.347 OA
BRANCH   9  10
HETATM   10  C10 UNL     1       4.319  57.250  20.638  1.00  0.00     0.213 C 
BRANCH  10  11
HETATM   11  C11 UNL     1       3.828  55.950  21.246  1.00  0.00     0.180 C 
BRANCH  11  12
HETATM   12  O2  UNL     1       4.353  54.804  20.752  1.00  0.00    -0.388 OA
ATOM     13  H2  UNL     1       4.868  54.273  21.349  1.00  0.00     0.210 HD
ENDBRANCH  11  12
BRANCH  11  14
HETATM   14  C12 UNL     1       3.832  55.994  22.734  1.00  0.00     0.089 C 
BRANCH  14  15
HETATM   15  N2  UNL     1       4.931  56.431  23.466  1.00  0.00    -0.394 N 
ATOM     16  H2  UNL     1       5.857  56.249  23.078  1.00  0.00     0.159 HD
BRANCH  15  17
HETATM   17  C13 UNL     1       4.865  57.107  24.707  1.00  0.00     0.091 C 
HETATM   18  C14 UNL     1       4.050  56.440  25.727  1.00  0.00     0.069 C 
HETATM   19  C15 UNL     1       4.410  56.658  27.143  1.00  0.00     0.061 C 
HETATM   20  N3  UNL     1       5.496  57.465  27.494  1.00  0.00    -0.384 N 
HETATM   21  C23 UNL     1       6.490  57.726  26.550  1.00  0.00     0.090 A 
HETATM   22  C24 UNL     1       7.068  56.434  25.893  1.00  0.00     0.034 A 
HETATM   23  C25 UNL     1       6.270  57.413  25.164  1.00  0.00     0.033 A 
BRANCH  20  24
HETATM   24  C16 UNL     1       5.135  58.489  28.411  1.00  0.00     0.160 C 
BRANCH  24  25
HETATM   25  C17 UNL     1       5.221  59.864  27.901  1.00  0.00    -0.040 A 
HETATM   26  C18 UNL     1       6.207  60.700  28.384  1.00  0.00     0.009 A 
HETATM   27  C19 UNL     1       6.332  62.012  27.932  1.00  0.00     0.001 A 
HETATM   28  C20 UNL     1       5.460  62.492  26.986  1.00  0.00     0.000 A 
HETATM   29  C21 UNL     1       4.478  61.633  26.517  1.00  0.00     0.001 A 
HETATM   30  C22 UNL     1       4.359  60.340  26.966  1.00  0.00     0.009 A 
ENDBRANCH  24  25
ENDBRANCH  20  24
ENDBRANCH  15  17
ENDBRANCH  14  15
ENDBRANCH  11  14
ENDBRANCH  10  11
ENDBRANCH   9  10
ENDBRANCH   8   9
BRANCH   6  31
HETATM   31  C7  UNL     1       7.491  61.930  20.357  1.00  0.00     0.288 C 
HETATM   32  S1  UNL     1       7.662  60.971  18.824  1.00  0.00    -0.057 SA
BRANCH  31  33
HETATM   33  N1  UNL     1       7.281  63.337  20.038  1.00  0.00    -0.061 N 
ATOM     34  H13 UNL     1       6.411  63.479  19.525  1.00  0.00     0.276 HD
ATOM     35  H12 UNL     1       7.063  63.883  20.871  1.00  0.00     0.276 HD
ATOM     36  H11 UNL     1       8.080  63.723  19.534  1.00  0.00     0.276 HD
ENDBRANCH  31  33
ENDBRANCH   6  31
TORSDOF 11
ENDMDL
MODEL 2
REMARK VINA RESULT: -7.071302992      1.860      2.862
REMARK  11 active torsions:
REMARK  status: ('A' for Active; 'I' for Inactive)
REMARK    1  A    between atoms: C6_6  and  C7_7 
REMARK    2  A    between atoms: C7_7  and  N1_8 
REMARK    3  A    between atoms: C9_14  and  O1_15 
REMARK    4  A    between atoms: O1_15  and  C10_16 
REMARK    5  A    between atoms: C10_16  and  C11_17 
REMARK    6  A    between atoms: C11_17  and  O2_18 
REMARK    7  A    between atoms: C11_17  and  C12_20 
REMARK    8  A    between atoms: C12_20  and  N2_21 
REMARK    9  A    between atoms: N2_21  and  C13_23 
REMARK   10  A    between atoms: N3_26  and  C16_27 
REMARK   11  A    between atoms: C16_27  and  C17_28 
ROOT
HETATM    1  C1  UNL     1       5.234  61.926  22.716  1.00  0.00     0.018 C 
HETATM    2  C2  UNL     1       5.849  61.604  21.717  1.00  0.00    -0.075 C 
HETATM    3  C3  UNL     1       6.602  61.211  20.549  1.00  0.00     0.050 A 
HETATM    4  C4  UNL     1       7.281  62.193  19.890  1.00  0.00     0.024 A 
HETATM    5  C5  UNL     1       8.021  61.844  18.772  1.00  0.00     0.012 A 
HETATM    6  C6  UNL     1       8.087  60.549  18.314  1.00  0.00    -0.015 A 
HETATM    7  C8  UNL     1       7.388  59.577  19.002  1.00  0.00     0.048 A 
HETATM    8  C9  UNL     1       6.630  59.869  20.130  1.00  0.00     0.088 A 
ENDROOT
BRANCH   8   9
HETATM    9  O1  UNL     1       5.914  59.007  20.857  1.00  0.00    -0.347 OA
BRANCH   9  10
HETATM   10  C10 UNL     1       4.694  58.548  21.104  1.00  0.00     0.213 C 
BRANCH  10  11
HETATM   11  C11 UNL     1       4.249  57.181  20.621  1.00  0.00     0.180 C 
BRANCH  11  12
HETATM   12  O2  UNL     1       4.715  56.772  19.417  1.00  0.00    -0.388 OA
ATOM     13  H2  UNL     1       4.090  56.731  18.703  1.00  0.00     0.210 HD
ENDBRANCH  11  12
BRANCH  11  14
HETATM   14  C12 UNL     1       4.389  56.143  21.678  1.00  0.00     0.089 C 
BRANCH  14  15
HETATM   15  N2  UNL     1       3.569  56.104  22.801  1.00  0.00    -0.394 N 
ATOM     16  H2  UNL     1       2.615  55.764  22.675  1.00  0.00     0.159 HD
BRANCH  15  17
HETATM   17  C13 UNL     1       3.953  56.498  24.104  1.00  0.00     0.091 C 
HETATM   18  C14 UNL     1       5.377  56.816  24.253  1.00  0.00     0.069 C 
HETATM   19  C15 UNL     1       5.755  57.802  25.287  1.00  0.00     0.061 C 
HETATM   20  N3  UNL     1       4.785  58.415  26.086  1.00  0.00    -0.384 N 
HETATM   21  C23 UNL     1       3.458  58.437  25.658  1.00  0.00     0.090 A 
HETATM   22  C24 UNL     1       3.288  58.999  24.212  1.00  0.00     0.034 A 
HETATM   23  C25 UNL     1       3.038  57.606  24.562  1.00  0.00     0.033 A 
BRANCH  20  24
HETATM   24  C16 UNL     1       5.057  58.268  27.474  1.00  0.00     0.160 C 
BRANCH  24  25
HETATM   25  C17 UNL     1       5.496  59.483  28.171  1.00  0.00    -0.040 A 
HETATM   26  C18 UNL     1       5.459  59.519  29.550  1.00  0.00     0.009 A 
HETATM   27  C19 UNL     1       5.865  60.647  30.259  1.00  0.00     0.001 A 
HETATM   28  C20 UNL     1       6.314  61.753  29.578  1.00  0.00     0.000 A 
HETATM   29  C21 UNL     1       6.341  61.694  28.194  1.00  0.00     0.001 A 
HETATM   30  C22 UNL     1       5.939  60.578  27.500  1.00  0.00     0.009 A 
ENDBRANCH  24  25
ENDBRANCH  20  24
ENDBRANCH  15  17
ENDBRANCH  14  15
ENDBRANCH  11  14
ENDBRANCH  10  11
ENDBRANCH   9  10
ENDBRANCH   8   9
BRANCH   6  31
HETATM   31  C7  UNL     1       8.861  60.157  17.100  1.00  0.00     0.288 C 
HETATM   32  S1  UNL     1       8.090  58.702  16.332  1.00  0.00    -0.057 SA
BRANCH  31  33
HETATM   33  N1  UNL     1       8.919  61.250  16.136  1.00  0.00    -0.061 N 
ATOM     34  H13 UNL     1       8.263  61.995  16.374  1.00  0.00     0.276 HD
ATOM     35  H12 UNL     1       9.789  61.776  16.217  1.00  0.00     0.276 HD
ATOM     36  H11 UNL     1       8.772  60.911  15.186  1.00  0.00     0.276 HD
ENDBRANCH  31  33
ENDBRANCH   6  31
TORSDOF 11
ENDMDL
MODEL 3
REMARK VINA RESULT: -7.029374801      1.287      1.672
REMARK  11 active torsions:
REMARK  status: ('A' for Active; 'I' for Inactive)
REMARK    1  A    between atoms: C6_6  and  C7_7 
REMARK    2  A    between atoms: C7_7  and  N1_8 
REMARK    3  A    between atoms: C9_14  and  O1_15 
REMARK    4  A    between atoms: O1_15  and  C10_16 
REMARK    5  A    between atoms: C10_16  and  C11_17 
REMARK    6  A    between atoms: C11_17  and  O2_18 
REMARK    7  A    between atoms: C11_17  and  C12_20 
REMARK    8  A    between atoms: C12_20  and  N2_21 
REMARK    9  A    between atoms: N2_21  and  C13_23 
REMARK   10  A    between atoms: N3_26  and  C16_27 
REMARK   11  A    between atoms: C16_27  and  C17_28 
ROOT
HETATM    1  C1  UNL     1       4.400  60.465  23.479  1.00  0.00     0.018 C 
HETATM    2  C2  UNL     1       5.103  60.503  22.488  1.00  0.00    -0.075 C 
HETATM    3  C3  UNL     1       5.962  60.537  21.327  1.00  0.00     0.050 A 
HETATM    4  C4  UNL     1       6.483  61.748  20.976  1.00  0.00     0.024 A 
HETATM    5  C5  UNL     1       7.319  61.809  19.873  1.00  0.00     0.012 A 
HETATM    6  C6  UNL     1       7.633  60.694  19.131  1.00  0.00    -0.015 A 
HETATM    7  C8  UNL     1       7.089  59.483  19.511  1.00  0.00     0.048 A 
HETATM    8  C9  UNL     1       6.246  59.362  20.609  1.00  0.00     0.088 A 
ENDROOT
BRANCH   8   9
HETATM    9  O1  UNL     1       5.664  58.243  21.051  1.00  0.00    -0.347 OA
BRANCH   9  10
HETATM   10  C10 UNL     1       4.697  57.362  20.827  1.00  0.00     0.213 C 
BRANCH  10  11
HETATM   11  C11 UNL     1       4.278  56.361  21.886  1.00  0.00     0.180 C 
BRANCH  11  12
HETATM   12  O2  UNL     1       4.286  55.053  21.533  1.00  0.00    -0.388 OA
ATOM     13  H2  UNL     1       4.936  54.498  21.948  1.00  0.00     0.210 HD
ENDBRANCH  11  12
BRANCH  11  14
HETATM   14  C12 UNL     1       4.952  56.611  23.189  1.00  0.00     0.089 C 
BRANCH  14  15
HETATM   15  N2  UNL     1       4.289  56.500  24.407  1.00  0.00    -0.394 N 
ATOM     16  H2  UNL     1       3.594  55.759  24.498  1.00  0.00     0.159 HD
BRANCH  15  17
HETATM   17  C13 UNL     1       4.505  57.333  25.530  1.00  0.00     0.091 C 
HETATM   18  C14 UNL     1       3.979  56.808  26.794  1.00  0.00     0.069 C 
HETATM   19  C15 UNL     1       4.663  57.208  28.041  1.00  0.00     0.061 C 
HETATM   20  N3  UNL     1       5.777  58.051  28.011  1.00  0.00    -0.384 N 
HETATM   21  C23 UNL     1       6.506  58.183  26.829  1.00  0.00     0.090 A 
HETATM   22  C24 UNL     1       6.946  56.815  26.223  1.00  0.00     0.034 A 
HETATM   23  C25 UNL     1       5.969  57.692  25.590  1.00  0.00     0.033 A 
BRANCH  20  24
HETATM   24  C16 UNL     1       5.618  59.187  28.850  1.00  0.00     0.160 C 
BRANCH  24  25
HETATM   25  C17 UNL     1       5.258  60.439  28.171  1.00  0.00    -0.040 A 
HETATM   26  C18 UNL     1       6.198  61.444  28.068  1.00  0.00     0.009 A 
HETATM   27  C19 UNL     1       5.907  62.648  27.432  1.00  0.00     0.001 A 
HETATM   28  C20 UNL     1       4.660  62.849  26.892  1.00  0.00     0.000 A 
HETATM   29  C21 UNL     1       3.733  61.825  27.008  1.00  0.00     0.001 A 
HETATM   30  C22 UNL     1       4.025  60.639  27.637  1.00  0.00     0.009 A 
ENDBRANCH  24  25
ENDBRANCH  20  24
ENDBRANCH  15  17
ENDBRANCH  14  15
ENDBRANCH  11  14
ENDBRANCH  10  11
ENDBRANCH   9  10
ENDBRANCH   8   9
BRANCH   6  31
HETATM   31  C7  UNL     1       8.514  60.744  17.928  1.00  0.00     0.288 C 
HETATM   32  S1  UNL     1       8.058  59.407  16.786  1.00  0.00    -0.057 SA
BRANCH  31  33
HETATM   33  N1  UNL     1       8.407  62.029  17.249  1.00  0.00    -0.061 N 
ATOM     34  H13 UNL     1       8.647  62.803  17.870  1.00  0.00     0.276 HD
ATOM     35  H12 UNL     1       9.146  62.150  16.556  1.00  0.00     0.276 HD
ATOM     36  H11 UNL     1       7.483  62.152  16.836  1.00  0.00     0.276 HD
ENDBRANCH  31  33
ENDBRANCH   6  31
TORSDOF 11
ENDMDL
MODEL 4
REMARK VINA RESULT: -6.912809709      3.957      7.631
REMARK  11 active torsions:
REMARK  status: ('A' for Active; 'I' for Inactive)
REMARK    1  A    between atoms: C6_6  and  C7_7 
REMARK    2  A    between atoms: C7_7  and  N1_8 
REMARK    3  A    between atoms: C9_14  and  O1_15 
REMARK    4  A    between atoms: O1_15  and  C10_16 
REMARK    5  A    between atoms: C10_16  and  C11_17 
REMARK    6  A    between atoms: C11_17  and  O2_18 
REMARK    7  A    between atoms: C11_17  and  C12_20 
REMARK    8  A    between atoms: C12_20  and  N2_21 
REMARK    9  A    between atoms: N2_21  and  C13_23 
REMARK   10  A    between atoms: N3_26  and  C16_27 
REMARK   11  A    between atoms: C16_27  and  C17_28 
ROOT
HETATM    1  C1  UNL     1       5.147  61.850  22.858  1.00  0.00     0.018 C 
HETATM    2  C2  UNL     1       5.767  61.547  21.857  1.00  0.00    -0.075 C 
HETATM    3  C3  UNL     1       6.527  61.179  20.685  1.00  0.00     0.050 A 
HETATM    4  C4  UNL     1       7.094  62.193  19.970  1.00  0.00     0.024 A 
HETATM    5  C5  UNL     1       7.838  61.870  18.847  1.00  0.00     0.012 A 
HETATM    6  C6  UNL     1       8.017  60.570  18.438  1.00  0.00    -0.015 A 
HETATM    7  C8  UNL     1       7.430  59.565  19.182  1.00  0.00     0.048 A 
HETATM    8  C9  UNL     1       6.674  59.830  20.318  1.00  0.00     0.088 A 
ENDROOT
BRANCH   8   9
HETATM    9  O1  UNL     1       6.061  58.935  21.097  1.00  0.00    -0.347 OA
BRANCH   9  10
HETATM   10  C10 UNL     1       4.887  58.426  21.447  1.00  0.00     0.213 C 
BRANCH  10  11
HETATM   11  C11 UNL     1       4.309  57.211  20.746  1.00  0.00     0.180 C 
BRANCH  11  12
HETATM   12  O2  UNL     1       4.748  56.958  19.491  1.00  0.00    -0.388 OA
ATOM     13  H2  UNL     1       4.676  56.062  19.181  1.00  0.00     0.210 HD
ENDBRANCH  11  12
BRANCH  11  14
HETATM   14  C12 UNL     1       4.325  56.004  21.618  1.00  0.00     0.089 C 
BRANCH  14  15
HETATM   15  N2  UNL     1       3.160  55.367  22.033  1.00  0.00    -0.394 N 
ATOM     16  H2  UNL     1       2.533  55.886  22.648  1.00  0.00     0.159 HD
BRANCH  15  17
HETATM   17  C13 UNL     1       2.777  54.054  21.669  1.00  0.00     0.091 C 
HETATM   18  C14 UNL     1       1.778  53.440  22.549  1.00  0.00     0.069 C 
HETATM   19  C15 UNL     1       0.869  52.436  21.959  1.00  0.00     0.061 C 
HETATM   20  N3  UNL     1       0.956  52.093  20.606  1.00  0.00    -0.384 N 
HETATM   21  C23 UNL     1       1.585  52.964  19.717  1.00  0.00     0.090 A 
HETATM   22  C24 UNL     1       1.032  54.421  19.790  1.00  0.00     0.034 A 
HETATM   23  C25 UNL     1       2.378  54.055  20.214  1.00  0.00     0.033 A 
BRANCH  20  24
HETATM   24  C16 UNL     1       1.098  50.692  20.413  1.00  0.00     0.160 C 
BRANCH  24  25
HETATM   25  C17 UNL     1       2.369  50.110  20.863  1.00  0.00    -0.040 A 
HETATM   26  C18 UNL     1       3.515  50.346  20.130  1.00  0.00     0.009 A 
HETATM   27  C19 UNL     1       4.745  49.819  20.515  1.00  0.00     0.001 A 
HETATM   28  C20 UNL     1       4.829  49.045  21.647  1.00  0.00     0.000 A 
HETATM   29  C21 UNL     1       3.665  48.822  22.366  1.00  0.00     0.001 A 
HETATM   30  C22 UNL     1       2.455  49.345  21.981  1.00  0.00     0.009 A 
ENDBRANCH  24  25
ENDBRANCH  20  24
ENDBRANCH  15  17
ENDBRANCH  14  15
ENDBRANCH  11  14
ENDBRANCH  10  11
ENDBRANCH   9  10
ENDBRANCH   8   9
BRANCH   6  31
HETATM   31  C7  UNL     1       8.797  60.203  17.220  1.00  0.00     0.288 C 
HETATM   32  S1  UNL     1       7.984  58.817  16.373  1.00  0.00    -0.057 SA
BRANCH  31  33
HETATM   33  N1  UNL     1       8.916  61.336  16.309  1.00  0.00    -0.061 N 
ATOM     34  H13 UNL     1       8.223  61.290  15.562  1.00  0.00     0.276 HD
ATOM     35  H12 UNL     1       8.613  62.205  16.750  1.00  0.00     0.276 HD
ATOM     36  H11 UNL     1       9.862  61.413  15.938  1.00  0.00     0.276 HD
ENDBRANCH  31  33
ENDBRANCH   6  31
TORSDOF 11
ENDMDL
MODEL 5
REMARK VINA RESULT: -6.892812139      1.820      2.596
REMARK  11 active torsions:
REMARK  status: ('A' for Active; 'I' for Inactive)
REMARK    1  A    between atoms: C6_6  and  C7_7 
REMARK    2  A    between atoms: C7_7  and  N1_8 
REMARK    3  A    between atoms: C9_14  and  O1_15 
REMARK    4  A    between atoms: O1_15  and  C10_16 
REMARK    5  A    between atoms: C10_16  and  C11_17 
REMARK    6  A    between atoms: C11_17  and  O2_18 
REMARK    7  A    between atoms: C11_17  and  C12_20 
REMARK    8  A    between atoms: C12_20  and  N2_21 
REMARK    9  A    between atoms: N2_21  and  C13_23 
REMARK   10  A    between atoms: N3_26  and  C16_27 
REMARK   11  A    between atoms: C16_27  and  C17_28 
ROOT
HETATM    1  C1  UNL     1       5.271  61.983  22.718  1.00  0.00     0.018 C 
HETATM    2  C2  UNL     1       5.879  61.652  21.719  1.00  0.00    -0.075 C 
HETATM    3  C3  UNL     1       6.623  61.246  20.549  1.00  0.00     0.050 A 
HETATM    4  C4  UNL     1       7.325  62.215  19.894  1.00  0.00     0.024 A 
HETATM    5  C5  UNL     1       8.057  61.853  18.775  1.00  0.00     0.012 A 
HETATM    6  C6  UNL     1       8.093  60.559  18.312  1.00  0.00    -0.015 A 
HETATM    7  C8  UNL     1       7.371  59.601  18.995  1.00  0.00     0.048 A 
HETATM    8  C9  UNL     1       6.620  59.906  20.125  1.00  0.00     0.088 A 
ENDROOT
BRANCH   8   9
HETATM    9  O1  UNL     1       5.883  59.057  20.848  1.00  0.00    -0.347 OA
BRANCH   9  10
HETATM   10  C10 UNL     1       4.657  58.598  21.064  1.00  0.00     0.213 C 
BRANCH  10  11
HETATM   11  C11 UNL     1       4.304  57.142  20.828  1.00  0.00     0.180 C 
BRANCH  11  12
HETATM   12  O2  UNL     1       4.681  56.601  19.646  1.00  0.00    -0.388 OA
ATOM     13  H2  UNL     1       4.931  55.683  19.651  1.00  0.00     0.210 HD
ENDBRANCH  11  12
BRANCH  11  14
HETATM   14  C12 UNL     1       4.657  56.286  21.994  1.00  0.00     0.089 C 
BRANCH  14  15
HETATM   15  N2  UNL     1       3.823  56.146  23.099  1.00  0.00    -0.394 N 
ATOM     16  H2  UNL     1       3.181  55.353  23.106  1.00  0.00     0.159 HD
BRANCH  15  17
HETATM   17  C13 UNL     1       3.795  57.017  24.213  1.00  0.00     0.091 C 
HETATM   18  C14 UNL     1       3.177  56.453  25.417  1.00  0.00     0.069 C 
HETATM   19  C15 UNL     1       3.645  56.953  26.727  1.00  0.00     0.061 C 
HETATM   20  N3  UNL     1       4.648  57.923  26.810  1.00  0.00    -0.384 N 
HETATM   21  C23 UNL     1       5.502  58.122  25.725  1.00  0.00     0.090 A 
HETATM   22  C24 UNL     1       6.172  56.805  25.221  1.00  0.00     0.034 A 
HETATM   23  C25 UNL     1       5.188  57.549  24.444  1.00  0.00     0.033 A 
BRANCH  20  24
HETATM   24  C16 UNL     1       4.252  59.045  27.587  1.00  0.00     0.160 C 
BRANCH  24  25
HETATM   25  C17 UNL     1       3.807  60.222  26.829  1.00  0.00    -0.040 A 
HETATM   26  C18 UNL     1       4.497  61.409  26.963  1.00  0.00     0.009 A 
HETATM   27  C19 UNL     1       4.116  62.553  26.266  1.00  0.00     0.001 A 
HETATM   28  C20 UNL     1       3.032  62.507  25.424  1.00  0.00     0.000 A 
HETATM   29  C21 UNL     1       2.354  61.304  25.306  1.00  0.00     0.001 A 
HETATM   30  C22 UNL     1       2.735  60.179  25.997  1.00  0.00     0.009 A 
ENDBRANCH  24  25
ENDBRANCH  20  24
ENDBRANCH  15  17
ENDBRANCH  14  15
ENDBRANCH  11  14
ENDBRANCH  10  11
ENDBRANCH   9  10
ENDBRANCH   8   9
BRANCH   6  31
HETATM   31  C7  UNL     1       8.858  60.154  17.096  1.00  0.00     0.288 C 
HETATM   32  S1  UNL     1       8.056  58.719  16.324  1.00  0.00    -0.057 SA
BRANCH  31  33
HETATM   33  N1  UNL     1       8.940  61.248  16.136  1.00  0.00    -0.061 N 
ATOM     34  H13 UNL     1       8.571  62.117  16.525  1.00  0.00     0.276 HD
ATOM     35  H12 UNL     1       9.904  61.543  15.984  1.00  0.00     0.276 HD
ATOM     36  H11 UNL     1       8.479  61.005  15.260  1.00  0.00     0.276 HD
ENDBRANCH  31  33
ENDBRANCH   6  31
TORSDOF 11
ENDMDL
