MODEL 1
REMARK VINA RESULT: -8.391593735      0.000      0.000
REMARK  10 active torsions:
REMARK  status: ('A' for Active; 'I' for Inactive)
REMARK    1  A    between atoms: C3_6  and  N2_7 
REMARK    2  A    between atoms: N2_7  and  C4_9 
REMARK    3  A    between atoms: C4_9  and  C5_10 
REMARK    4  A    between atoms: C5_10  and  O1_11 
REMARK    5  A    between atoms: C5_10  and  C6_13 
REMARK    6  A    between atoms: C6_13  and  O2_14 
REMARK    7  A    between atoms: O2_14  and  C7_15 
REMARK    8  A    between atoms: C10_18  and  C11_19 
REMARK    9  A    between atoms: C14_22  and  C15_23 
REMARK   10  A    between atoms: C15_23  and  N3_24 
ROOT
HETATM    1  C7  UNL     1       5.154  60.086  22.359  1.00  0.00     0.069 A 
HETATM    2  C8  UNL     1       4.737  59.528  21.117  1.00  0.00     0.037 A 
HETATM    3  C9  UNL     1       4.273  58.246  21.113  1.00  0.00     0.015 A 
HETATM    4  C10 UNL     1       4.179  57.456  22.227  1.00  0.00    -0.026 A 
HETATM    5  C22 UNL     1       4.578  57.978  23.436  1.00  0.00     0.015 A 
HETATM    6  C23 UNL     1       5.050  59.274  23.460  1.00  0.00     0.037 A 
ENDROOT
BRANCH   1   7
HETATM    7  O2  UNL     1       5.599  61.352  22.304  1.00  0.00    -0.345 OA
BRANCH   7   8
HETATM    8  C6  UNL     1       5.712  62.350  21.401  1.00  0.00     0.241 C 
BRANCH   8   9
HETATM    9  C5  UNL     1       6.892  62.401  20.485  1.00  0.00     0.082 C 
BRANCH   9  10
HETATM   10  C4  UNL     1       6.891  61.330  19.441  1.00  0.00     0.117 C 
BRANCH  10  11
HETATM   11  N2  UNL     1       7.607  61.534  18.263  1.00  0.00    -0.392 N 
ATOM     12  H2  UNL     1       7.406  62.368  17.711  1.00  0.00     0.159 HD
BRANCH  11  13
HETATM   13  C3  UNL     1       8.590  60.648  17.800  1.00  0.00     0.089 C 
HETATM   14  C2  UNL     1       9.079  61.173  16.447  1.00  0.00     0.100 C 
HETATM   15  C1  UNL     1       7.818  61.268  15.624  1.00  0.00     0.072 C 
HETATM   16  N1  UNL     1       7.562  62.301  14.920  1.00  0.00    -0.389 N 
HETATM   17  N4  UNL     1       6.973  60.132  15.708  1.00  0.00    -0.380 N 
ATOM     18  H12 UNL     1       8.170  63.119  14.860  1.00  0.00     0.157 HD
ATOM     19  H11 UNL     1       6.710  62.366  14.364  1.00  0.00     0.157 HD
HETATM   20  C25 UNL     1       7.573  58.926  16.247  1.00  0.00     0.123 C 
ATOM     21  H4  UNL     1       5.999  60.160  15.406  1.00  0.00     0.160 HD
HETATM   22  C24 UNL     1       8.049  59.232  17.645  1.00  0.00     0.045 C 
ENDBRANCH  11  13
ENDBRANCH  10  11
ENDBRANCH   9  10
BRANCH   9  23
HETATM   23  O1  UNL     1       7.274  63.628  20.034  1.00  0.00    -0.361 OA
ATOM     24  H1  UNL     1       8.130  63.909  20.335  1.00  0.00     0.217 HD
ENDBRANCH   9  23
ENDBRANCH   8   9
ENDBRANCH   7   8
ENDBRANCH   1   7
BRANCH   4  25
HETATM   25  C11 UNL     1       3.656  56.105  22.097  1.00  0.00    -0.026 A 
HETATM   26  C12 UNL     1       3.990  55.326  20.986  1.00  0.00     0.013 A 
HETATM   27  C13 UNL     1       3.543  54.037  20.828  1.00  0.00     0.010 A 
HETATM   28  C14 UNL     1       2.723  53.442  21.783  1.00  0.00    -0.030 A 
HETATM   29  C20 UNL     1       2.388  54.203  22.879  1.00  0.00     0.010 A 
HETATM   30  C21 UNL     1       2.847  55.493  23.018  1.00  0.00     0.013 A 
BRANCH  28  31
HETATM   31  C15 UNL     1       2.246  52.048  21.620  1.00  0.00     0.311 C 
BRANCH  31  32
HETATM   32  N3  UNL     1       2.908  51.470  20.464  1.00  0.00     0.096 N 
HETATM   33  C16 UNL     1       2.038  51.069  19.415  1.00  0.00     0.299 C 
HETATM   34  C17 UNL     1       1.577  49.644  19.754  1.00  0.00     0.198 C 
HETATM   35  O3  UNL     1       2.645  48.791  19.654  1.00  0.00    -0.388 OA
HETATM   36  C18 UNL     1       3.883  49.359  19.837  1.00  0.00     0.198 C 
HETATM   37  C19 UNL     1       3.864  50.464  20.859  1.00  0.00     0.299 C 
ENDBRANCH  31  32
ENDBRANCH  28  31
ENDBRANCH   4  25
TORSDOF 10
ENDMDL
MODEL 2
REMARK VINA RESULT: -8.297624023      1.536      2.188
REMARK  10 active torsions:
REMARK  status: ('A' for Active; 'I' for Inactive)
REMARK    1  A    between atoms: C3_6  and  N2_7 
REMARK    2  A    between atoms: N2_7  and  C4_9 
REMARK    3  A    between atoms: C4_9  and  C5_10 
REMARK    4  A    between atoms: C5_10  and  O1_11 
REMARK    5  A    between atoms: C5_10  and  C6_13 
REMARK    6  A    between atoms: C6_13  and  O2_14 
REMARK    7  A    between atoms: O2_14  and  C7_15 
REMARK    8  A    between atoms: C10_18  and  C11_19 
REMARK    9  A    between atoms: C14_22  and  C15_23 
REMARK   10  A    between atoms: C15_23  and  N3_24 
ROOT
HETATM    1  C7  UNL     1       4.853  58.189  21.396  1.00  0.00     0.069 A 
HETATM    2  C8  UNL     1       4.362  57.864  20.099  1.00  0.00     0.037 A 
HETATM    3  C9  UNL     1       3.835  56.622  19.905  1.00  0.00     0.015 A 
HETATM    4  C10 UNL     1       3.745  55.662  20.877  1.00  0.00    -0.026 A 
HETATM    5  C22 UNL     1       4.214  55.957  22.136  1.00  0.00     0.015 A 
HETATM    6  C23 UNL     1       4.750  57.210  22.351  1.00  0.00     0.037 A 
ENDROOT
BRANCH   1   7
HETATM    7  O2  UNL     1       5.359  59.426  21.530  1.00  0.00    -0.345 OA
BRANCH   7   8
HETATM    8  C6  UNL     1       5.402  60.585  20.838  1.00  0.00     0.241 C 
BRANCH   8   9
HETATM    9  C5  UNL     1       6.564  61.511  21.001  1.00  0.00     0.082 C 
BRANCH   9  10
HETATM   10  C4  UNL     1       7.016  62.141  19.723  1.00  0.00     0.117 C 
BRANCH  10  11
HETATM   11  N2  UNL     1       7.183  61.340  18.596  1.00  0.00    -0.392 N 
ATOM     12  H2  UNL     1       6.496  61.408  17.845  1.00  0.00     0.159 HD
BRANCH  11  13
HETATM   13  C3  UNL     1       8.250  60.443  18.444  1.00  0.00     0.089 C 
HETATM   14  C2  UNL     1       9.126  60.963  17.300  1.00  0.00     0.100 C 
HETATM   15  C1  UNL     1       8.170  61.072  16.139  1.00  0.00     0.072 C 
HETATM   16  N1  UNL     1       8.146  62.109  15.394  1.00  0.00    -0.389 N 
HETATM   17  N4  UNL     1       7.326  59.946  15.962  1.00  0.00    -0.380 N 
ATOM     18  H12 UNL     1       8.753  62.919  15.522  1.00  0.00     0.157 HD
ATOM     19  H11 UNL     1       7.499  62.183  14.610  1.00  0.00     0.157 HD
HETATM   20  C25 UNL     1       7.725  58.733  16.652  1.00  0.00     0.123 C 
ATOM     21  H4  UNL     1       6.486  59.985  15.384  1.00  0.00     0.160 HD
HETATM   22  C24 UNL     1       7.765  59.033  18.129  1.00  0.00     0.045 C 
ENDBRANCH  11  13
ENDBRANCH  10  11
ENDBRANCH   9  10
BRANCH   9  23
HETATM   23  O1  UNL     1       6.537  62.356  22.069  1.00  0.00    -0.361 OA
ATOM     24  H1  UNL     1       5.839  62.185  22.689  1.00  0.00     0.217 HD
ENDBRANCH   9  23
ENDBRANCH   8   9
ENDBRANCH   7   8
ENDBRANCH   1   7
BRANCH   4  25
HETATM   25  C11 UNL     1       3.150  54.375  20.550  1.00  0.00    -0.026 A 
HETATM   26  C12 UNL     1       2.148  54.289  19.581  1.00  0.00     0.013 A 
HETATM   27  C13 UNL     1       1.573  53.096  19.218  1.00  0.00     0.010 A 
HETATM   28  C14 UNL     1       1.969  51.901  19.812  1.00  0.00    -0.030 A 
HETATM   29  C20 UNL     1       2.955  51.976  20.769  1.00  0.00     0.010 A 
HETATM   30  C21 UNL     1       3.518  53.183  21.117  1.00  0.00     0.013 A 
BRANCH  28  31
HETATM   31  C15 UNL     1       1.357  50.610  19.416  1.00  0.00     0.311 C 
BRANCH  31  32
HETATM   32  N3  UNL     1       2.069  50.103  18.257  1.00  0.00     0.096 N 
HETATM   33  C16 UNL     1       1.291  50.008  17.071  1.00  0.00     0.299 C 
HETATM   34  C17 UNL     1       0.584  48.646  17.124  1.00  0.00     0.198 C 
HETATM   35  O3  UNL     1       1.517  47.650  16.998  1.00  0.00    -0.388 OA
HETATM   36  C18 UNL     1       2.792  47.972  17.399  1.00  0.00     0.198 C 
HETATM   37  C19 UNL     1       2.806  48.905  18.580  1.00  0.00     0.299 C 
ENDBRANCH  31  32
ENDBRANCH  28  31
ENDBRANCH   4  25
TORSDOF 10
ENDMDL
MODEL 3
REMARK VINA RESULT: -8.294060342      1.432      1.976
REMARK  10 active torsions:
REMARK  status: ('A' for Active; 'I' for Inactive)
REMARK    1  A    between atoms: C3_6  and  N2_7 
REMARK    2  A    between atoms: N2_7  and  C4_9 
REMARK    3  A    between atoms: C4_9  and  C5_10 
REMARK    4  A    between atoms: C5_10  and  O1_11 
REMARK    5  A    between atoms: C5_10  and  C6_13 
REMARK    6  A    between atoms: C6_13  and  O2_14 
REMARK    7  A    between atoms: O2_14  and  C7_15 
REMARK    8  A    between atoms: C10_18  and  C11_19 
REMARK    9  A    between atoms: C14_22  and  C15_23 
REMARK   10  A    between atoms: C15_23  and  N3_24 
ROOT
HETATM    1  C7  UNL     1       5.247  58.409  21.293  1.00  0.00     0.069 A 
HETATM    2  C8  UNL     1       4.638  57.742  20.192  1.00  0.00     0.037 A 
HETATM    3  C9  UNL     1       4.048  56.534  20.419  1.00  0.00     0.015 A 
HETATM    4  C10 UNL     1       4.001  55.916  21.640  1.00  0.00    -0.026 A 
HETATM    5  C22 UNL     1       4.584  56.545  22.716  1.00  0.00     0.015 A 
HETATM    6  C23 UNL     1       5.185  57.768  22.505  1.00  0.00     0.037 A 
ENDROOT
BRANCH   1   7
HETATM    7  O2  UNL     1       5.809  59.595  21.012  1.00  0.00    -0.345 OA
BRANCH   7   8
HETATM    8  C6  UNL     1       5.425  60.859  20.729  1.00  0.00     0.241 C 
BRANCH   8   9
HETATM    9  C5  UNL     1       6.403  61.983  20.848  1.00  0.00     0.082 C 
BRANCH   9  10
HETATM   10  C4  UNL     1       7.183  62.238  19.598  1.00  0.00     0.117 C 
BRANCH  10  11
HETATM   11  N2  UNL     1       7.195  61.268  18.599  1.00  0.00    -0.392 N 
ATOM     12  H2  UNL     1       6.395  61.210  17.969  1.00  0.00     0.159 HD
BRANCH  11  13
HETATM   13  C3  UNL     1       8.254  60.367  18.417  1.00  0.00     0.089 C 
HETATM   14  C2  UNL     1       9.123  60.906  17.276  1.00  0.00     0.100 C 
HETATM   15  C1  UNL     1       8.156  61.049  16.127  1.00  0.00     0.072 C 
HETATM   16  N1  UNL     1       8.134  62.102  15.406  1.00  0.00    -0.389 N 
HETATM   17  N4  UNL     1       7.302  59.932  15.934  1.00  0.00    -0.380 N 
ATOM     18  H12 UNL     1       8.747  62.905  15.546  1.00  0.00     0.157 HD
ATOM     19  H11 UNL     1       7.480  62.198  14.630  1.00  0.00     0.157 HD
HETATM   20  C25 UNL     1       7.699  58.701  16.592  1.00  0.00     0.123 C 
ATOM     21  H4  UNL     1       6.458  59.991  15.364  1.00  0.00     0.160 HD
HETATM   22  C24 UNL     1       7.756  58.968  18.075  1.00  0.00     0.045 C 
ENDBRANCH  11  13
ENDBRANCH  10  11
ENDBRANCH   9  10
BRANCH   9  23
HETATM   23  O1  UNL     1       5.979  63.108  21.489  1.00  0.00    -0.361 OA
ATOM     24  H1  UNL     1       5.199  62.989  22.018  1.00  0.00     0.217 HD
ENDBRANCH   9  23
ENDBRANCH   8   9
ENDBRANCH   7   8
ENDBRANCH   1   7
BRANCH   4  25
HETATM   25  C11 UNL     1       3.333  54.629  21.759  1.00  0.00    -0.026 A 
HETATM   26  C12 UNL     1       2.294  54.459  22.676  1.00  0.00     0.013 A 
HETATM   27  C13 UNL     1       1.615  53.272  22.809  1.00  0.00     0.010 A 
HETATM   28  C14 UNL     1       1.939  52.170  22.024  1.00  0.00    -0.030 A 
HETATM   29  C20 UNL     1       2.963  52.329  21.118  1.00  0.00     0.010 A 
HETATM   30  C21 UNL     1       3.630  53.527  21.001  1.00  0.00     0.013 A 
BRANCH  28  31
HETATM   31  C15 UNL     1       1.202  50.891  22.158  1.00  0.00     0.311 C 
BRANCH  31  32
HETATM   32  N3  UNL     1       1.100  50.282  20.844  1.00  0.00     0.096 N 
HETATM   33  C16 UNL     1      -0.112  50.551  20.152  1.00  0.00     0.299 C 
HETATM   34  C17 UNL     1      -1.124  49.496  20.624  1.00  0.00     0.198 C 
HETATM   35  O3  UNL     1      -0.736  48.265  20.163  1.00  0.00    -0.388 OA
HETATM   36  C18 UNL     1       0.607  48.115  19.916  1.00  0.00     0.198 C 
HETATM   37  C19 UNL     1       1.462  48.885  20.887  1.00  0.00     0.299 C 
ENDBRANCH  31  32
ENDBRANCH  28  31
ENDBRANCH   4  25
TORSDOF 10
ENDMDL
MODEL 4
REMARK VINA RESULT: -8.282336893      1.761      2.011
REMARK  10 active torsions:
REMARK  status: ('A' for Active; 'I' for Inactive)
REMARK    1  A    between atoms: C3_6  and  N2_7 
REMARK    2  A    between atoms: N2_7  and  C4_9 
REMARK    3  A    between atoms: C4_9  and  C5_10 
REMARK    4  A    between atoms: C5_10  and  O1_11 
REMARK    5  A    between atoms: C5_10  and  C6_13 
REMARK    6  A    between atoms: C6_13  and  O2_14 
REMARK    7  A    between atoms: O2_14  and  C7_15 
REMARK    8  A    between atoms: C10_18  and  C11_19 
REMARK    9  A    between atoms: C14_22  and  C15_23 
REMARK   10  A    between atoms: C15_23  and  N3_24 
ROOT
HETATM    1  C7  UNL     1       5.225  58.475  21.279  1.00  0.00     0.069 A 
HETATM    2  C8  UNL     1       4.656  57.726  20.210  1.00  0.00     0.037 A 
HETATM    3  C9  UNL     1       4.046  56.544  20.508  1.00  0.00     0.015 A 
HETATM    4  C10 UNL     1       3.943  56.027  21.772  1.00  0.00    -0.026 A 
HETATM    5  C22 UNL     1       4.487  56.736  22.817  1.00  0.00     0.015 A 
HETATM    6  C23 UNL     1       5.107  57.935  22.534  1.00  0.00     0.037 A 
ENDROOT
BRANCH   1   7
HETATM    7  O2  UNL     1       5.811  59.631  20.927  1.00  0.00    -0.345 OA
BRANCH   7   8
HETATM    8  C6  UNL     1       5.455  60.901  20.633  1.00  0.00     0.241 C 
BRANCH   8   9
HETATM    9  C5  UNL     1       6.434  62.015  20.821  1.00  0.00     0.082 C 
BRANCH   9  10
HETATM   10  C4  UNL     1       7.290  62.273  19.623  1.00  0.00     0.117 C 
BRANCH  10  11
HETATM   11  N2  UNL     1       7.290  61.349  18.580  1.00  0.00    -0.392 N 
ATOM     12  H2  UNL     1       6.497  61.342  17.938  1.00  0.00     0.159 HD
BRANCH  11  13
HETATM   13  C3  UNL     1       8.327  60.429  18.370  1.00  0.00     0.089 C 
HETATM   14  C2  UNL     1       9.166  60.944  17.197  1.00  0.00     0.100 C 
HETATM   15  C1  UNL     1       8.163  61.094  16.080  1.00  0.00     0.072 C 
HETATM   16  N1  UNL     1       8.134  62.141  15.351  1.00  0.00    -0.389 N 
HETATM   17  N4  UNL     1       7.285  59.991  15.924  1.00  0.00    -0.380 N 
ATOM     18  H12 UNL     1       8.766  62.935  15.463  1.00  0.00     0.157 HD
ATOM     19  H11 UNL     1       7.456  62.243  14.596  1.00  0.00     0.157 HD
HETATM   20  C25 UNL     1       7.683  58.759  16.580  1.00  0.00     0.123 C 
ATOM     21  H4  UNL     1       6.423  60.059  15.383  1.00  0.00     0.160 HD
HETATM   22  C24 UNL     1       7.794  59.036  18.058  1.00  0.00     0.045 C 
ENDBRANCH  11  13
ENDBRANCH  10  11
ENDBRANCH   9  10
BRANCH   9  23
HETATM   23  O1  UNL     1       5.981  63.138  21.444  1.00  0.00    -0.361 OA
ATOM     24  H1  UNL     1       6.257  63.225  22.349  1.00  0.00     0.217 HD
ENDBRANCH   9  23
ENDBRANCH   8   9
ENDBRANCH   7   8
ENDBRANCH   1   7
BRANCH   4  25
HETATM   25  C11 UNL     1       3.257  54.758  21.965  1.00  0.00    -0.026 A 
HETATM   26  C12 UNL     1       3.498  53.690  21.099  1.00  0.00     0.013 A 
HETATM   27  C13 UNL     1       2.896  52.465  21.253  1.00  0.00     0.010 A 
HETATM   28  C14 UNL     1       2.003  52.233  22.295  1.00  0.00    -0.030 A 
HETATM   29  C20 UNL     1       1.758  53.280  23.152  1.00  0.00     0.010 A 
HETATM   30  C21 UNL     1       2.373  54.500  22.980  1.00  0.00     0.013 A 
BRANCH  28  31
HETATM   31  C15 UNL     1       1.358  50.909  22.470  1.00  0.00     0.311 C 
BRANCH  31  32
HETATM   32  N3  UNL     1       2.394  49.892  22.466  1.00  0.00     0.096 N 
HETATM   33  C16 UNL     1       2.031  48.672  21.833  1.00  0.00     0.299 C 
HETATM   34  C17 UNL     1       1.323  47.824  22.900  1.00  0.00     0.198 C 
HETATM   35  O3  UNL     1       2.234  47.453  23.855  1.00  0.00    -0.388 OA
HETATM   36  C18 UNL     1       3.319  48.283  24.000  1.00  0.00     0.198 C 
HETATM   37  C19 UNL     1       2.972  49.731  23.778  1.00  0.00     0.299 C 
ENDBRANCH  31  32
ENDBRANCH  28  31
ENDBRANCH   4  25
TORSDOF 10
ENDMDL
MODEL 5
REMARK VINA RESULT: -8.184567865      0.830      1.225
REMARK  10 active torsions:
REMARK  status: ('A' for Active; 'I' for Inactive)
REMARK    1  A    between atoms: C3_6  and  N2_7 
REMARK    2  A    between atoms: N2_7  and  C4_9 
REMARK    3  A    between atoms: C4_9  and  C5_10 
REMARK    4  A    between atoms: C5_10  and  O1_11 
REMARK    5  A    between atoms: C5_10  and  C6_13 
REMARK    6  A    between atoms: C6_13  and  O2_14 
REMARK    7  A    between atoms: O2_14  and  C7_15 
REMARK    8  A    between atoms: C10_18  and  C11_19 
REMARK    9  A    between atoms: C14_22  and  C15_23 
REMARK   10  A    between atoms: C15_23  and  N3_24 
ROOT
HETATM    1  C7  UNL     1       5.244  59.809  22.346  1.00  0.00     0.069 A 
HETATM    2  C8  UNL     1       5.397  59.009  21.177  1.00  0.00     0.037 A 
HETATM    3  C9  UNL     1       4.871  57.752  21.187  1.00  0.00     0.015 A 
HETATM    4  C10 UNL     1       4.202  57.203  22.248  1.00  0.00    -0.026 A 
HETATM    5  C22 UNL     1       4.045  57.960  23.386  1.00  0.00     0.015 A 
HETATM    6  C23 UNL     1       4.570  59.236  23.394  1.00  0.00     0.037 A 
ENDROOT
BRANCH   1   7
HETATM    7  O2  UNL     1       5.779  61.039  22.279  1.00  0.00    -0.345 OA
BRANCH   7   8
HETATM    8  C6  UNL     1       5.788  62.098  21.440  1.00  0.00     0.241 C 
BRANCH   8   9
HETATM    9  C5  UNL     1       6.909  62.272  20.467  1.00  0.00     0.082 C 
BRANCH   9  10
HETATM   10  C4  UNL     1       6.881  61.295  19.335  1.00  0.00     0.117 C 
BRANCH  10  11
HETATM   11  N2  UNL     1       7.636  61.561  18.195  1.00  0.00    -0.392 N 
ATOM     12  H2  UNL     1       7.452  62.423  17.681  1.00  0.00     0.159 HD
BRANCH  11  13
HETATM   13  C3  UNL     1       8.636  60.701  17.719  1.00  0.00     0.089 C 
HETATM   14  C2  UNL     1       9.088  61.233  16.356  1.00  0.00     0.100 C 
HETATM   15  C1  UNL     1       7.812  61.289  15.554  1.00  0.00     0.072 C 
HETATM   16  N1  UNL     1       7.515  62.311  14.849  1.00  0.00    -0.389 N 
HETATM   17  N4  UNL     1       7.001  60.129  15.656  1.00  0.00    -0.380 N 
ATOM     18  H12 UNL     1       8.099  63.145  14.776  1.00  0.00     0.157 HD
ATOM     19  H11 UNL     1       6.652  62.349  14.307  1.00  0.00     0.157 HD
HETATM   20  C25 UNL     1       7.643  58.944  16.190  1.00  0.00     0.123 C 
ATOM     21  H4  UNL     1       6.021  60.129  15.370  1.00  0.00     0.160 HD
HETATM   22  C24 UNL     1       8.133  59.269  17.579  1.00  0.00     0.045 C 
ENDBRANCH  11  13
ENDBRANCH  10  11
ENDBRANCH   9  10
BRANCH   9  23
HETATM   23  O1  UNL     1       7.222  63.547  20.105  1.00  0.00    -0.361 OA
ATOM     24  H1  UNL     1       8.008  63.624  19.576  1.00  0.00     0.217 HD
ENDBRANCH   9  23
ENDBRANCH   8   9
ENDBRANCH   7   8
ENDBRANCH   1   7
BRANCH   4  25
HETATM   25  C11 UNL     1       3.676  55.851  22.134  1.00  0.00    -0.026 A 
HETATM   26  C12 UNL     1       2.744  55.379  23.060  1.00  0.00     0.013 A 
HETATM   27  C13 UNL     1       2.199  54.121  22.982  1.00  0.00     0.010 A 
HETATM   28  C14 UNL     1       2.560  53.247  21.960  1.00  0.00    -0.030 A 
HETATM   29  C20 UNL     1       3.479  53.703  21.044  1.00  0.00     0.010 A 
HETATM   30  C21 UNL     1       4.013  54.969  21.141  1.00  0.00     0.013 A 
BRANCH  28  31
HETATM   31  C15 UNL     1       1.967  51.891  21.867  1.00  0.00     0.311 C 
BRANCH  31  32
HETATM   32  N3  UNL     1       3.047  50.925  21.777  1.00  0.00     0.096 N 
HETATM   33  C16 UNL     1       3.153  50.262  20.524  1.00  0.00     0.299 C 
HETATM   34  C17 UNL     1       2.199  49.060  20.588  1.00  0.00     0.198 C 
HETATM   35  O3  UNL     1       2.681  48.152  21.494  1.00  0.00    -0.388 OA
HETATM   36  C18 UNL     1       3.482  48.665  22.486  1.00  0.00     0.198 C 
HETATM   37  C19 UNL     1       3.054  50.042  22.918  1.00  0.00     0.299 C 
ENDBRANCH  31  32
ENDBRANCH  28  31
ENDBRANCH   4  25
TORSDOF 10
ENDMDL
