MODEL 1
REMARK VINA RESULT: -8.118342270      0.000      0.000
REMARK  9 active torsions:
REMARK  status: ('A' for Active; 'I' for Inactive)
REMARK    1  A    between atoms: C1_2  and  C2_4 
REMARK    2  A    between atoms: C2_4  and  N1_5 
REMARK    3  A    between atoms: N1_5  and  C3_7 
REMARK    4  A    between atoms: C3_7  and  C4_8 
REMARK    5  A    between atoms: C3_7  and  C16_23 
REMARK    6  A    between atoms: C4_8  and  C5_9 
REMARK    7  A    between atoms: C5_9  and  O3_10 
REMARK    8  A    between atoms: C6_12  and  C7_13 
REMARK       I    between atoms: C16_23  and  N2_25 
REMARK    9  A    between atoms: C19_28  and  C20_29 
ROOT
HETATM    1  C3  UNL     1       4.956  58.002  22.016  1.00  0.00     0.179 C 
ENDROOT
BRANCH   1   2
HETATM    2  N1  UNL     1       4.785  56.980  21.145  1.00  0.00    -0.380 N 
ATOM      3  H1  UNL     1       5.292  56.122  21.363  1.00  0.00     0.160 HD
BRANCH   2   4
HETATM    4  C2  UNL     1       4.005  56.947  19.986  1.00  0.00     0.169 C 
BRANCH   4   5
HETATM    5  C1  UNL     1       3.715  55.484  19.734  1.00  0.00     0.214 C 
HETATM    6  O1  UNL     1       4.224  54.638  20.467  1.00  0.00    -0.644 OA
HETATM    7  O2  UNL     1       2.891  55.145  18.688  1.00  0.00    -0.644 OA
ENDBRANCH   4   5
ENDBRANCH   2   4
ENDBRANCH   1   2
BRANCH   1   8
HETATM    8  C4  UNL     1       4.249  57.945  23.391  1.00  0.00     0.099 C 
BRANCH   8   9
HETATM    9  C5  UNL     1       5.036  57.511  24.525  1.00  0.00     0.048 C 
HETATM   10  C6  UNL     1       4.978  57.574  25.932  1.00  0.00     0.064 C 
BRANCH   9  11
HETATM   11  O3  UNL     1       5.881  56.385  24.086  1.00  0.00    -0.365 OA
ATOM     12  H3  UNL     1       6.788  56.666  24.128  1.00  0.00     0.217 HD
ENDBRANCH   9  11
BRANCH  10  13
HETATM   13  C7  UNL     1       4.994  58.806  26.731  1.00  0.00     0.050 C 
HETATM   14  C8  UNL     1       6.251  59.282  27.249  1.00  0.00     0.065 C 
HETATM   15  C9  UNL     1       6.254  60.719  27.742  1.00  0.00     0.009 C 
HETATM   16  C10 UNL     1       5.189  61.578  27.158  1.00  0.00     0.039 C 
HETATM   17  C11 UNL     1       4.392  60.981  26.053  1.00  0.00     0.067 C 
HETATM   18  C12 UNL     1       5.051  61.264  24.735  1.00  0.00     0.038 C 
HETATM   19  C15 UNL     1       3.048  61.747  25.992  1.00  0.00     0.038 C 
HETATM   20  O4  UNL     1       4.058  59.683  26.229  1.00  0.00    -0.344 OA
HETATM   21  C13 UNL     1       4.259  62.391  24.095  1.00  0.00     0.003 C 
HETATM   22  C14 UNL     1       2.853  62.116  24.537  1.00  0.00     0.003 C 
ENDBRANCH  10  13
ENDBRANCH   8   9
ENDBRANCH   1   8
BRANCH   1  23
HETATM   23  C16 UNL     1       4.751  59.375  21.467  1.00  0.00     0.242 C 
HETATM   24  O5  UNL     1       3.632  59.917  21.611  1.00  0.00    -0.271 OA
HETATM   25  N2  UNL     1       5.854  59.984  20.795  1.00  0.00    -0.350 N 
HETATM   26  C17 UNL     1       6.892  59.122  20.275  1.00  0.00     0.127 C 
HETATM   27  C22 UNL     1       5.915  61.422  20.728  1.00  0.00     0.127 C 
HETATM   28  C18 UNL     1       7.750  59.731  19.204  1.00  0.00     0.035 C 
HETATM   29  C19 UNL     1       7.354  61.134  18.818  1.00  0.00     0.090 C 
HETATM   30  C21 UNL     1       7.256  61.874  20.167  1.00  0.00     0.035 C 
BRANCH  29  31
HETATM   31  C20 UNL     1       8.381  61.691  17.950  1.00  0.00     0.177 C 
HETATM   32  O6  UNL     1       8.529  62.946  17.831  1.00  0.00    -0.648 OA
HETATM   33  O7  UNL     1       9.236  60.886  17.222  1.00  0.00    -0.648 OA
ENDBRANCH  29  31
ENDBRANCH   1  23
TORSDOF 9
ENDMDL
MODEL 2
REMARK VINA RESULT: -7.927948384      1.076      1.570
REMARK  9 active torsions:
REMARK  status: ('A' for Active; 'I' for Inactive)
REMARK    1  A    between atoms: C1_2  and  C2_4 
REMARK    2  A    between atoms: C2_4  and  N1_5 
REMARK    3  A    between atoms: N1_5  and  C3_7 
REMARK    4  A    between atoms: C3_7  and  C4_8 
REMARK    5  A    between atoms: C3_7  and  C16_23 
REMARK    6  A    between atoms: C4_8  and  C5_9 
REMARK    7  A    between atoms: C5_9  and  O3_10 
REMARK    8  A    between atoms: C6_12  and  C7_13 
REMARK       I    between atoms: C16_23  and  N2_25 
REMARK    9  A    between atoms: C19_28  and  C20_29 
ROOT
HETATM    1  C3  UNL     1       4.688  58.027  21.813  1.00  0.00     0.179 C 
ENDROOT
BRANCH   1   2
HETATM    2  N1  UNL     1       4.735  57.060  20.867  1.00  0.00    -0.380 N 
ATOM      3  H1  UNL     1       5.456  56.350  20.994  1.00  0.00     0.160 HD
BRANCH   2   4
HETATM    4  C2  UNL     1       3.924  56.907  19.739  1.00  0.00     0.169 C 
BRANCH   4   5
HETATM    5  C1  UNL     1       3.647  55.424  19.637  1.00  0.00     0.214 C 
HETATM    6  O1  UNL     1       4.204  54.656  20.419  1.00  0.00    -0.644 OA
HETATM    7  O2  UNL     1       2.779  54.979  18.669  1.00  0.00    -0.644 OA
ENDBRANCH   4   5
ENDBRANCH   2   4
ENDBRANCH   1   2
BRANCH   1   8
HETATM    8  C4  UNL     1       3.682  57.889  22.981  1.00  0.00     0.099 C 
BRANCH   8   9
HETATM    9  C5  UNL     1       3.830  56.742  23.852  1.00  0.00     0.048 C 
HETATM   10  C6  UNL     1       3.840  56.466  25.234  1.00  0.00     0.064 C 
BRANCH   9  11
HETATM   11  O3  UNL     1       3.476  55.537  23.079  1.00  0.00    -0.365 OA
ATOM     12  H3  UNL     1       3.069  54.919  23.674  1.00  0.00     0.217 HD
ENDBRANCH   9  11
BRANCH  10  13
HETATM   13  C7  UNL     1       4.812  56.991  26.201  1.00  0.00     0.050 C 
HETATM   14  C8  UNL     1       6.218  56.831  25.930  1.00  0.00     0.065 C 
HETATM   15  C9  UNL     1       7.147  57.697  26.763  1.00  0.00     0.009 C 
HETATM   16  C10 UNL     1       6.519  58.923  27.324  1.00  0.00     0.039 C 
HETATM   17  C11 UNL     1       5.141  59.232  26.854  1.00  0.00     0.067 C 
HETATM   18  C12 UNL     1       5.200  60.080  25.617  1.00  0.00     0.038 C 
HETATM   19  C15 UNL     1       4.486  60.140  27.922  1.00  0.00     0.038 C 
HETATM   20  O4  UNL     1       4.324  58.160  26.742  1.00  0.00    -0.344 OA
HETATM   21  C13 UNL     1       4.884  61.498  26.058  1.00  0.00     0.003 C 
HETATM   22  C14 UNL     1       3.885  61.301  27.159  1.00  0.00     0.003 C 
ENDBRANCH  10  13
ENDBRANCH   8   9
ENDBRANCH   1   8
BRANCH   1  23
HETATM   23  C16 UNL     1       4.598  59.431  21.314  1.00  0.00     0.242 C 
HETATM   24  O5  UNL     1       3.521  60.052  21.459  1.00  0.00    -0.271 OA
HETATM   25  N2  UNL     1       5.757  59.979  20.683  1.00  0.00    -0.350 N 
HETATM   26  C17 UNL     1       6.737  59.059  20.148  1.00  0.00     0.127 C 
HETATM   27  C22 UNL     1       5.929  61.409  20.673  1.00  0.00     0.127 C 
HETATM   28  C18 UNL     1       7.660  59.640  19.117  1.00  0.00     0.035 C 
HETATM   29  C19 UNL     1       7.379  61.083  18.778  1.00  0.00     0.090 C 
HETATM   30  C21 UNL     1       7.311  61.778  20.153  1.00  0.00     0.035 C 
BRANCH  29  31
HETATM   31  C20 UNL     1       8.463  61.591  17.949  1.00  0.00     0.177 C 
HETATM   32  O6  UNL     1       8.656  62.838  17.816  1.00  0.00    -0.648 OA
HETATM   33  O7  UNL     1       9.324  60.746  17.276  1.00  0.00    -0.648 OA
ENDBRANCH  29  31
ENDBRANCH   1  23
TORSDOF 9
ENDMDL
MODEL 3
REMARK VINA RESULT: -7.845563752      1.092      2.138
REMARK  9 active torsions:
REMARK  status: ('A' for Active; 'I' for Inactive)
REMARK    1  A    between atoms: C1_2  and  C2_4 
REMARK    2  A    between atoms: C2_4  and  N1_5 
REMARK    3  A    between atoms: N1_5  and  C3_7 
REMARK    4  A    between atoms: C3_7  and  C4_8 
REMARK    5  A    between atoms: C3_7  and  C16_23 
REMARK    6  A    between atoms: C4_8  and  C5_9 
REMARK    7  A    between atoms: C5_9  and  O3_10 
REMARK    8  A    between atoms: C6_12  and  C7_13 
REMARK       I    between atoms: C16_23  and  N2_25 
REMARK    9  A    between atoms: C19_28  and  C20_29 
ROOT
HETATM    1  C3  UNL     1       4.937  57.549  21.666  1.00  0.00     0.179 C 
ENDROOT
BRANCH   1   2
HETATM    2  N1  UNL     1       4.707  56.627  20.702  1.00  0.00    -0.380 N 
ATOM      3  H1  UNL     1       5.434  56.536  19.992  1.00  0.00     0.160 HD
BRANCH   2   4
HETATM    4  C2  UNL     1       3.602  55.785  20.551  1.00  0.00     0.169 C 
BRANCH   4   5
HETATM    5  C1  UNL     1       3.262  55.821  19.078  1.00  0.00     0.214 C 
HETATM    6  O1  UNL     1       4.172  55.914  18.256  1.00  0.00    -0.644 OA
HETATM    7  O2  UNL     1       1.941  55.753  18.703  1.00  0.00    -0.644 OA
ENDBRANCH   4   5
ENDBRANCH   2   4
ENDBRANCH   1   2
BRANCH   1   8
HETATM    8  C4  UNL     1       4.328  57.335  23.072  1.00  0.00     0.099 C 
BRANCH   8   9
HETATM    9  C5  UNL     1       5.085  57.823  24.205  1.00  0.00     0.048 C 
HETATM   10  C6  UNL     1       4.922  58.737  25.265  1.00  0.00     0.064 C 
BRANCH   9  11
HETATM   11  O3  UNL     1       6.101  56.807  24.542  1.00  0.00    -0.365 OA
ATOM     12  H3  UNL     1       5.771  56.296  25.272  1.00  0.00     0.217 HD
ENDBRANCH   9  11
BRANCH  10  13
HETATM   13  C7  UNL     1       4.719  60.184  25.117  1.00  0.00     0.050 C 
HETATM   14  C8  UNL     1       3.448  60.662  24.635  1.00  0.00     0.065 C 
HETATM   15  C9  UNL     1       3.182  62.143  24.850  1.00  0.00     0.009 C 
HETATM   16  C10 UNL     1       3.967  62.762  25.951  1.00  0.00     0.039 C 
HETATM   17  C11 UNL     1       4.758  61.833  26.801  1.00  0.00     0.067 C 
HETATM   18  C12 UNL     1       3.921  61.353  27.951  1.00  0.00     0.038 C 
HETATM   19  C15 UNL     1       5.888  62.661  27.458  1.00  0.00     0.038 C 
HETATM   20  O4  UNL     1       5.384  60.839  26.130  1.00  0.00    -0.344 OA
HETATM   21  C13 UNL     1       4.377  62.138  29.168  1.00  0.00     0.003 C 
HETATM   22  C14 UNL     1       5.848  62.314  28.931  1.00  0.00     0.003 C 
ENDBRANCH  10  13
ENDBRANCH   8   9
ENDBRANCH   1   8
BRANCH   1  23
HETATM   23  C16 UNL     1       4.693  58.972  21.288  1.00  0.00     0.242 C 
HETATM   24  O5  UNL     1       3.556  59.458  21.482  1.00  0.00    -0.271 OA
HETATM   25  N2  UNL     1       5.782  59.693  20.710  1.00  0.00    -0.350 N 
HETATM   26  C17 UNL     1       6.852  58.934  20.102  1.00  0.00     0.127 C 
HETATM   27  C22 UNL     1       5.798  61.130  20.822  1.00  0.00     0.127 C 
HETATM   28  C18 UNL     1       7.701  59.697  19.126  1.00  0.00     0.035 C 
HETATM   29  C19 UNL     1       7.264  61.124  18.910  1.00  0.00     0.090 C 
HETATM   30  C21 UNL     1       7.129  61.689  20.339  1.00  0.00     0.035 C 
BRANCH  29  31
HETATM   31  C20 UNL     1       8.280  61.815  18.131  1.00  0.00     0.177 C 
HETATM   32  O6  UNL     1       8.374  63.081  18.151  1.00  0.00    -0.648 OA
HETATM   33  O7  UNL     1       9.184  61.131  17.341  1.00  0.00    -0.648 OA
ENDBRANCH  29  31
ENDBRANCH   1  23
TORSDOF 9
ENDMDL
MODEL 4
REMARK VINA RESULT: -7.786356383      1.399      2.037
REMARK  9 active torsions:
REMARK  status: ('A' for Active; 'I' for Inactive)
REMARK    1  A    between atoms: C1_2  and  C2_4 
REMARK    2  A    between atoms: C2_4  and  N1_5 
REMARK    3  A    between atoms: N1_5  and  C3_7 
REMARK    4  A    between atoms: C3_7  and  C4_8 
REMARK    5  A    between atoms: C3_7  and  C16_23 
REMARK    6  A    between atoms: C4_8  and  C5_9 
REMARK    7  A    between atoms: C5_9  and  O3_10 
REMARK    8  A    between atoms: C6_12  and  C7_13 
REMARK       I    between atoms: C16_23  and  N2_25 
REMARK    9  A    between atoms: C19_28  and  C20_29 
ROOT
HETATM    1  C3  UNL     1       4.895  57.413  21.751  1.00  0.00     0.179 C 
ENDROOT
BRANCH   1   2
HETATM    2  N1  UNL     1       4.677  56.534  20.745  1.00  0.00    -0.380 N 
ATOM      3  H1  UNL     1       5.412  56.476  20.040  1.00  0.00     0.160 HD
BRANCH   2   4
HETATM    4  C2  UNL     1       3.578  55.695  20.546  1.00  0.00     0.169 C 
BRANCH   4   5
HETATM    5  C1  UNL     1       3.226  55.827  19.081  1.00  0.00     0.214 C 
HETATM    6  O1  UNL     1       4.126  56.019  18.265  1.00  0.00    -0.644 OA
HETATM    7  O2  UNL     1       1.907  55.732  18.707  1.00  0.00    -0.644 OA
ENDBRANCH   4   5
ENDBRANCH   2   4
ENDBRANCH   1   2
BRANCH   1   8
HETATM    8  C4  UNL     1       4.284  57.129  23.144  1.00  0.00     0.099 C 
BRANCH   8   9
HETATM    9  C5  UNL     1       5.061  57.519  24.301  1.00  0.00     0.048 C 
HETATM   10  C6  UNL     1       4.854  58.164  25.537  1.00  0.00     0.064 C 
BRANCH   9  11
HETATM   11  O3  UNL     1       6.262  56.664  24.350  1.00  0.00    -0.365 OA
ATOM     12  H3  UNL     1       7.012  57.225  24.506  1.00  0.00     0.217 HD
ENDBRANCH   9  11
BRANCH  10  13
HETATM   13  C7  UNL     1       4.396  59.548  25.710  1.00  0.00     0.050 C 
HETATM   14  C8  UNL     1       4.674  60.507  24.671  1.00  0.00     0.065 C 
HETATM   15  C9  UNL     1       3.875  61.797  24.740  1.00  0.00     0.009 C 
HETATM   16  C10 UNL     1       2.594  61.695  25.490  1.00  0.00     0.039 C 
HETATM   17  C11 UNL     1       2.181  60.329  25.908  1.00  0.00     0.067 C 
HETATM   18  C12 UNL     1       1.358  59.690  24.828  1.00  0.00     0.038 C 
HETATM   19  C15 UNL     1       1.208  60.488  27.100  1.00  0.00     0.038 C 
HETATM   20  O4  UNL     1       3.184  59.545  26.364  1.00  0.00    -0.344 OA
HETATM   21  C13 UNL     1      -0.088  59.779  25.284  1.00  0.00     0.003 C 
HETATM   22  C14 UNL     1       0.012  59.620  26.772  1.00  0.00     0.003 C 
ENDBRANCH  10  13
ENDBRANCH   8   9
ENDBRANCH   1   8
BRANCH   1  23
HETATM   23  C16 UNL     1       4.634  58.849  21.436  1.00  0.00     0.242 C 
HETATM   24  O5  UNL     1       3.500  59.320  21.679  1.00  0.00    -0.271 OA
HETATM   25  N2  UNL     1       5.705  59.599  20.862  1.00  0.00    -0.350 N 
HETATM   26  C17 UNL     1       6.764  58.871  20.197  1.00  0.00     0.127 C 
HETATM   27  C22 UNL     1       5.717  61.030  21.031  1.00  0.00     0.127 C 
HETATM   28  C18 UNL     1       7.584  59.678  19.232  1.00  0.00     0.035 C 
HETATM   29  C19 UNL     1       7.135  61.110  19.085  1.00  0.00     0.090 C 
HETATM   30  C21 UNL     1       7.033  61.616  20.539  1.00  0.00     0.035 C 
BRANCH  29  31
HETATM   31  C20 UNL     1       8.129  61.838  18.310  1.00  0.00     0.177 C 
HETATM   32  O6  UNL     1       8.184  63.106  18.340  1.00  0.00    -0.648 OA
HETATM   33  O7  UNL     1       9.051  61.188  17.512  1.00  0.00    -0.648 OA
ENDBRANCH  29  31
ENDBRANCH   1  23
TORSDOF 9
ENDMDL
MODEL 5
REMARK VINA RESULT: -7.720873629      1.335      1.538
REMARK  9 active torsions:
REMARK  status: ('A' for Active; 'I' for Inactive)
REMARK    1  A    between atoms: C1_2  and  C2_4 
REMARK    2  A    between atoms: C2_4  and  N1_5 
REMARK    3  A    between atoms: N1_5  and  C3_7 
REMARK    4  A    between atoms: C3_7  and  C4_8 
REMARK    5  A    between atoms: C3_7  and  C16_23 
REMARK    6  A    between atoms: C4_8  and  C5_9 
REMARK    7  A    between atoms: C5_9  and  O3_10 
REMARK    8  A    between atoms: C6_12  and  C7_13 
REMARK       I    between atoms: C16_23  and  N2_25 
REMARK    9  A    between atoms: C19_28  and  C20_29 
ROOT
HETATM    1  C3  UNL     1       5.050  57.415  21.660  1.00  0.00     0.179 C 
ENDROOT
BRANCH   1   2
HETATM    2  N1  UNL     1       4.363  56.549  20.878  1.00  0.00    -0.380 N 
ATOM      3  H1  UNL     1       4.154  55.643  21.297  1.00  0.00     0.160 HD
BRANCH   2   4
HETATM    4  C2  UNL     1       3.903  56.734  19.571  1.00  0.00     0.169 C 
BRANCH   4   5
HETATM    5  C1  UNL     1       2.966  55.578  19.304  1.00  0.00     0.214 C 
HETATM    6  O1  UNL     1       3.263  54.458  19.715  1.00  0.00    -0.644 OA
HETATM    7  O2  UNL     1       1.807  55.816  18.604  1.00  0.00    -0.644 OA
ENDBRANCH   4   5
ENDBRANCH   2   4
ENDBRANCH   1   2
BRANCH   1   8
HETATM    8  C4  UNL     1       5.046  57.209  23.194  1.00  0.00     0.099 C 
BRANCH   8   9
HETATM    9  C5  UNL     1       3.818  56.738  23.798  1.00  0.00     0.048 C 
HETATM   10  C6  UNL     1       2.611  57.279  24.283  1.00  0.00     0.064 C 
BRANCH   9  11
HETATM   11  O3  UNL     1       3.647  55.320  23.431  1.00  0.00    -0.365 OA
ATOM     12  H3  UNL     1       3.532  54.823  24.233  1.00  0.00     0.217 HD
ENDBRANCH   9  11
BRANCH  10  13
HETATM   13  C7  UNL     1       2.488  58.221  25.403  1.00  0.00     0.050 C 
HETATM   14  C8  UNL     1       3.100  57.885  26.663  1.00  0.00     0.065 C 
HETATM   15  C9  UNL     1       3.250  59.035  27.645  1.00  0.00     0.009 C 
HETATM   16  C10 UNL     1       3.257  60.386  27.024  1.00  0.00     0.039 C 
HETATM   17  C11 UNL     1       3.302  60.428  25.537  1.00  0.00     0.067 C 
HETATM   18  C12 UNL     1       4.728  60.434  25.069  1.00  0.00     0.038 C 
HETATM   19  C15 UNL     1       2.740  61.802  25.101  1.00  0.00     0.038 C 
HETATM   20  O4  UNL     1       2.529  59.509  24.918  1.00  0.00    -0.344 OA
HETATM   21  C13 UNL     1       5.040  61.866  24.671  1.00  0.00     0.003 C 
HETATM   22  C14 UNL     1       3.739  62.357  24.108  1.00  0.00     0.003 C 
ENDBRANCH  10  13
ENDBRANCH   8   9
ENDBRANCH   1   8
BRANCH   1  23
HETATM   23  C16 UNL     1       4.805  58.865  21.407  1.00  0.00     0.242 C 
HETATM   24  O5  UNL     1       3.695  59.351  21.721  1.00  0.00    -0.271 OA
HETATM   25  N2  UNL     1       5.862  59.613  20.803  1.00  0.00    -0.350 N 
HETATM   26  C17 UNL     1       6.870  58.887  20.062  1.00  0.00     0.127 C 
HETATM   27  C22 UNL     1       5.913  61.037  21.019  1.00  0.00     0.127 C 
HETATM   28  C18 UNL     1       7.658  59.709  19.085  1.00  0.00     0.035 C 
HETATM   29  C19 UNL     1       7.233  61.155  19.007  1.00  0.00     0.090 C 
HETATM   30  C21 UNL     1       7.215  61.613  20.480  1.00  0.00     0.035 C 
BRANCH  29  31
HETATM   31  C20 UNL     1       8.203  61.888  18.207  1.00  0.00     0.177 C 
HETATM   32  O6  UNL     1       8.280  63.153  18.268  1.00  0.00    -0.648 OA
HETATM   33  O7  UNL     1       9.077  61.246  17.352  1.00  0.00    -0.648 OA
ENDBRANCH  29  31
ENDBRANCH   1  23
TORSDOF 9
ENDMDL
