MODEL 1
REMARK VINA RESULT: -7.623566056      0.000      0.000
REMARK  12 active torsions:
REMARK  status: ('A' for Active; 'I' for Inactive)
REMARK    1  A    between atoms: C2_2  and  C4_4 
REMARK    2  A    between atoms: C5_5  and  C6_6 
REMARK    3  A    between atoms: C6_6  and  C7_7 
REMARK    4  A    between atoms: C7_7  and  O1_8 
REMARK    5  A    between atoms: C7_7  and  C8_10 
REMARK    6  A    between atoms: C9_11  and  C10_12 
REMARK    7  A    between atoms: C13_15  and  N1_16 
REMARK    8  A    between atoms: C15_18  and  C16_19 
REMARK    9  A    between atoms: C17_20  and  C18_21 
REMARK   10  A    between atoms: C18_21  and  C19_22 
REMARK   11  A    between atoms: C24_31  and  O4_32 
REMARK   12  A    between atoms: C25_34  and  O5_35 
ROOT
HETATM    1  C10 UNL     1       3.383  58.149  24.456  1.00  0.00     0.061 C 
HETATM    2  C11 UNL     1       3.532  57.828  22.988  1.00  0.00    -0.018 C 
HETATM    3  C12 UNL     1       4.028  58.826  22.251  1.00  0.00    -0.002 C 
HETATM    4  C13 UNL     1       4.354  60.087  22.972  1.00  0.00     0.147 C 
HETATM    5  C24 UNL     1       5.108  59.853  24.259  1.00  0.00     0.174 C 
HETATM    6  C25 UNL     1       4.735  58.553  24.938  1.00  0.00     0.160 C 
ENDROOT
BRANCH   4   7
HETATM    7  N1  UNL     1       5.171  60.885  22.078  1.00  0.00    -0.298 N 
HETATM    8  C14 UNL     1       6.022  60.252  21.266  1.00  0.00     0.113 A 
HETATM    9  C15 UNL     1       6.860  60.948  20.360  1.00  0.00     0.047 A 
HETATM   10  C22 UNL     1       6.721  62.302  20.393  1.00  0.00     0.261 A 
HETATM   11  O2  UNL     1       7.369  63.098  19.683  1.00  0.00    -0.267 OA
HETATM   12  N2  UNL     1       5.832  62.923  21.244  1.00  0.00    -0.275 N 
HETATM   13  C23 UNL     1       5.075  62.223  22.068  1.00  0.00     0.330 A 
ATOM     14  H2  UNL     1       5.759  63.940  21.238  1.00  0.00     0.173 HD
HETATM   15  O3  UNL     1       4.246  62.753  22.866  1.00  0.00    -0.246 OA
BRANCH   9  16
HETATM   16  C16 UNL     1       7.798  60.250  19.554  1.00  0.00     0.014 C 
HETATM   17  C17 UNL     1       8.172  60.124  18.353  1.00  0.00    -0.025 C 
BRANCH  17  18
HETATM   18  C18 UNL     1       7.809  60.660  17.063  1.00  0.00     0.031 C 
BRANCH  18  19
HETATM   19  C19 UNL     1       7.811  59.622  15.953  1.00  0.00    -0.011 A 
HETATM   20  C20 UNL     1       7.053  58.352  16.073  1.00  0.00     0.005 A 
HETATM   21  C21 UNL     1       8.561  58.362  16.268  1.00  0.00     0.005 A 
ENDBRANCH  18  19
ENDBRANCH  17  18
ENDBRANCH   9  16
ENDBRANCH   4   7
BRANCH   5  22
HETATM   22  O4  UNL     1       4.870  60.909  25.162  1.00  0.00    -0.391 OA
ATOM     23  H4  UNL     1       4.872  60.584  26.055  1.00  0.00     0.210 HD
ENDBRANCH   5  22
BRANCH   6  24
HETATM   24  O5  UNL     1       5.643  57.568  24.502  1.00  0.00    -0.392 OA
ATOM     25  H5  UNL     1       5.539  56.818  25.076  1.00  0.00     0.210 HD
ENDBRANCH   6  24
BRANCH   1  26
HETATM   26  C9  UNL     1       2.794  57.006  25.169  1.00  0.00    -0.017 C 
HETATM   27  C8  UNL     1       2.514  55.870  24.566  1.00  0.00     0.001 C 
BRANCH  27  28
HETATM   28  C7  UNL     1       1.920  54.745  25.323  1.00  0.00     0.144 C 
BRANCH  28  29
HETATM   29  C6  UNL     1       2.031  53.496  24.440  1.00  0.00     0.062 C 
BRANCH  29  30
HETATM   30  C5  UNL     1       1.119  53.552  23.300  1.00  0.00    -0.027 C 
HETATM   31  C4  UNL     1       1.308  53.568  22.020  1.00  0.00    -0.027 C 
BRANCH  31  32
HETATM   32  C2  UNL     1       2.454  53.535  21.142  1.00  0.00    -0.001 C 
HETATM   33  C1  UNL     1       3.462  54.614  21.176  1.00  0.00     0.013 C 
HETATM   34  C3  UNL     1       1.927  53.492  19.687  1.00  0.00     0.013 C 
ENDBRANCH  31  32
ENDBRANCH  29  30
ENDBRANCH  28  29
BRANCH  28  35
HETATM   35  O1  UNL     1       2.715  54.504  26.442  1.00  0.00    -0.391 OA
ATOM     36  H1  UNL     1       3.166  55.319  26.629  1.00  0.00     0.210 HD
ENDBRANCH  28  35
ENDBRANCH  27  28
ENDBRANCH   1  26
TORSDOF 12
ENDMDL
MODEL 2
REMARK VINA RESULT: -7.586101672      4.339      9.773
REMARK  12 active torsions:
REMARK  status: ('A' for Active; 'I' for Inactive)
REMARK    1  A    between atoms: C2_2  and  C4_4 
REMARK    2  A    between atoms: C5_5  and  C6_6 
REMARK    3  A    between atoms: C6_6  and  C7_7 
REMARK    4  A    between atoms: C7_7  and  O1_8 
REMARK    5  A    between atoms: C7_7  and  C8_10 
REMARK    6  A    between atoms: C9_11  and  C10_12 
REMARK    7  A    between atoms: C13_15  and  N1_16 
REMARK    8  A    between atoms: C15_18  and  C16_19 
REMARK    9  A    between atoms: C17_20  and  C18_21 
REMARK   10  A    between atoms: C18_21  and  C19_22 
REMARK   11  A    between atoms: C24_31  and  O4_32 
REMARK   12  A    between atoms: C25_34  and  O5_35 
ROOT
HETATM    1  C10 UNL     1       3.668  56.748  20.347  1.00  0.00     0.061 C 
HETATM    2  C11 UNL     1       4.419  55.679  21.105  1.00  0.00    -0.018 C 
HETATM    3  C12 UNL     1       3.751  54.532  21.250  1.00  0.00    -0.002 C 
HETATM    4  C13 UNL     1       2.388  54.474  20.655  1.00  0.00     0.147 C 
HETATM    5  C24 UNL     1       2.332  55.034  19.254  1.00  0.00     0.174 C 
HETATM    6  C25 UNL     1       3.318  56.158  19.023  1.00  0.00     0.160 C 
ENDROOT
BRANCH   4   7
HETATM    7  N1  UNL     1       1.997  53.078  20.629  1.00  0.00    -0.298 N 
HETATM    8  C14 UNL     1       2.909  52.174  20.259  1.00  0.00     0.113 A 
HETATM    9  C15 UNL     1       2.618  50.788  20.202  1.00  0.00     0.047 A 
HETATM   10  C22 UNL     1       1.342  50.467  20.553  1.00  0.00     0.261 A 
HETATM   11  O2  UNL     1       0.881  49.308  20.563  1.00  0.00    -0.267 OA
HETATM   12  N2  UNL     1       0.427  51.426  20.930  1.00  0.00    -0.275 N 
HETATM   13  C23 UNL     1       0.753  52.704  20.965  1.00  0.00     0.330 A 
ATOM     14  H2  UNL     1      -0.519  51.144  21.185  1.00  0.00     0.173 HD
HETATM   15  O3  UNL     1      -0.056  53.617  21.305  1.00  0.00    -0.246 OA
BRANCH   9  16
HETATM   16  C16 UNL     1       3.591  49.860  19.746  1.00  0.00     0.014 C 
HETATM   17  C17 UNL     1       4.545  49.142  20.160  1.00  0.00    -0.025 C 
BRANCH  17  18
HETATM   18  C18 UNL     1       5.210  48.872  21.412  1.00  0.00     0.031 C 
BRANCH  18  19
HETATM   19  C19 UNL     1       4.262  48.454  22.524  1.00  0.00    -0.011 A 
HETATM   20  C20 UNL     1       3.670  49.446  23.456  1.00  0.00     0.005 A 
HETATM   21  C21 UNL     1       4.826  48.568  23.909  1.00  0.00     0.005 A 
ENDBRANCH  18  19
ENDBRANCH  17  18
ENDBRANCH   9  16
ENDBRANCH   4   7
BRANCH   5  22
HETATM   22  O4  UNL     1       1.037  55.515  18.973  1.00  0.00    -0.391 OA
ATOM     23  H4  UNL     1       0.751  55.209  18.120  1.00  0.00     0.210 HD
ENDBRANCH   5  22
BRANCH   6  24
HETATM   24  O5  UNL     1       4.496  55.591  18.497  1.00  0.00    -0.392 OA
ATOM     25  H5  UNL     1       4.242  54.809  18.022  1.00  0.00     0.210 HD
ENDBRANCH   6  24
BRANCH   1  26
HETATM   26  C9  UNL     1       4.467  57.980  20.278  1.00  0.00    -0.017 C 
HETATM   27  C8  UNL     1       5.219  58.387  21.279  1.00  0.00     0.001 C 
BRANCH  27  28
HETATM   28  C7  UNL     1       6.007  59.635  21.166  1.00  0.00     0.144 C 
BRANCH  28  29
HETATM   29  C6  UNL     1       7.043  59.419  20.056  1.00  0.00     0.062 C 
BRANCH  29  30
HETATM   30  C5  UNL     1       7.655  60.674  19.630  1.00  0.00    -0.027 C 
HETATM   31  C4  UNL     1       7.986  61.144  18.471  1.00  0.00    -0.027 C 
BRANCH  31  32
HETATM   32  C2  UNL     1       7.911  60.681  17.106  1.00  0.00    -0.001 C 
HETATM   33  C1  UNL     1       8.391  59.334  16.738  1.00  0.00     0.013 C 
HETATM   34  C3  UNL     1       8.717  61.672  16.231  1.00  0.00     0.013 C 
ENDBRANCH  31  32
ENDBRANCH  29  30
ENDBRANCH  28  29
BRANCH  28  35
HETATM   35  O1  UNL     1       5.160  60.647  20.718  1.00  0.00    -0.391 OA
ATOM     36  H1  UNL     1       4.333  60.229  20.509  1.00  0.00     0.210 HD
ENDBRANCH  28  35
ENDBRANCH  27  28
ENDBRANCH   1  26
TORSDOF 12
ENDMDL
MODEL 3
REMARK VINA RESULT: -7.510988977      4.255      9.594
REMARK  12 active torsions:
REMARK  status: ('A' for Active; 'I' for Inactive)
REMARK    1  A    between atoms: C2_2  and  C4_4 
REMARK    2  A    between atoms: C5_5  and  C6_6 
REMARK    3  A    between atoms: C6_6  and  C7_7 
REMARK    4  A    between atoms: C7_7  and  O1_8 
REMARK    5  A    between atoms: C7_7  and  C8_10 
REMARK    6  A    between atoms: C9_11  and  C10_12 
REMARK    7  A    between atoms: C13_15  and  N1_16 
REMARK    8  A    between atoms: C15_18  and  C16_19 
REMARK    9  A    between atoms: C17_20  and  C18_21 
REMARK   10  A    between atoms: C18_21  and  C19_22 
REMARK   11  A    between atoms: C24_31  and  O4_32 
REMARK   12  A    between atoms: C25_34  and  O5_35 
ROOT
HETATM    1  C10 UNL     1       3.580  56.598  20.222  1.00  0.00     0.061 C 
HETATM    2  C11 UNL     1       4.247  55.439  20.923  1.00  0.00    -0.018 C 
HETATM    3  C12 UNL     1       3.491  54.342  21.021  1.00  0.00    -0.002 C 
HETATM    4  C13 UNL     1       2.125  54.421  20.436  1.00  0.00     0.147 C 
HETATM    5  C24 UNL     1       2.106  55.048  19.063  1.00  0.00     0.174 C 
HETATM    6  C25 UNL     1       3.177  56.100  18.875  1.00  0.00     0.160 C 
ENDROOT
BRANCH   4   7
HETATM    7  N1  UNL     1       1.624  53.063  20.348  1.00  0.00    -0.298 N 
HETATM    8  C14 UNL     1       1.954  52.336  19.276  1.00  0.00     0.113 A 
HETATM    9  C15 UNL     1       1.511  51.002  19.104  1.00  0.00     0.047 A 
HETATM   10  C22 UNL     1       0.729  50.534  20.116  1.00  0.00     0.261 A 
HETATM   11  O2  UNL     1       0.231  49.390  20.156  1.00  0.00    -0.267 OA
HETATM   12  N2  UNL     1       0.408  51.311  21.208  1.00  0.00    -0.275 N 
HETATM   13  C23 UNL     1       0.850  52.550  21.316  1.00  0.00     0.330 A 
ATOM     14  H2  UNL     1      -0.180  50.923  21.945  1.00  0.00     0.173 HD
HETATM   15  O3  UNL     1       0.580  53.298  22.303  1.00  0.00    -0.246 OA
BRANCH   9  16
HETATM   16  C16 UNL     1       1.827  50.277  17.924  1.00  0.00     0.014 C 
HETATM   17  C17 UNL     1       1.418  50.079  16.744  1.00  0.00    -0.025 C 
BRANCH  17  18
HETATM   18  C18 UNL     1       0.324  50.512  15.910  1.00  0.00     0.031 C 
BRANCH  18  19
HETATM   19  C19 UNL     1       0.127  52.019  15.900  1.00  0.00    -0.011 A 
HETATM   20  C20 UNL     1      -0.864  52.680  16.784  1.00  0.00     0.005 A 
HETATM   21  C21 UNL     1      -1.171  52.481  15.308  1.00  0.00     0.005 A 
ENDBRANCH  18  19
ENDBRANCH  17  18
ENDBRANCH   9  16
ENDBRANCH   4   7
BRANCH   5  22
HETATM   22  O4  UNL     1       0.851  55.643  18.817  1.00  0.00    -0.391 OA
ATOM     23  H4  UNL     1       0.909  56.234  18.074  1.00  0.00     0.210 HD
ENDBRANCH   5  22
BRANCH   6  24
HETATM   24  O5  UNL     1       4.303  55.468  18.313  1.00  0.00    -0.392 OA
ATOM     25  H5  UNL     1       4.079  55.241  17.418  1.00  0.00     0.210 HD
ENDBRANCH   6  24
BRANCH   1  26
HETATM   26  C9  UNL     1       4.474  57.765  20.202  1.00  0.00    -0.017 C 
HETATM   27  C8  UNL     1       5.042  58.233  21.294  1.00  0.00     0.001 C 
BRANCH  27  28
HETATM   28  C7  UNL     1       5.934  59.412  21.229  1.00  0.00     0.144 C 
BRANCH  28  29
HETATM   29  C6  UNL     1       6.934  59.161  20.093  1.00  0.00     0.062 C 
BRANCH  29  30
HETATM   30  C5  UNL     1       7.655  60.376  19.723  1.00  0.00    -0.027 C 
HETATM   31  C4  UNL     1       8.017  60.874  18.585  1.00  0.00    -0.027 C 
BRANCH  31  32
HETATM   32  C2  UNL     1       7.887  60.492  17.199  1.00  0.00    -0.001 C 
HETATM   33  C1  UNL     1       8.299  59.149  16.744  1.00  0.00     0.013 C 
HETATM   34  C3  UNL     1       8.711  61.497  16.357  1.00  0.00     0.013 C 
ENDBRANCH  31  32
ENDBRANCH  29  30
ENDBRANCH  28  29
BRANCH  28  35
HETATM   35  O1  UNL     1       5.174  60.514  20.844  1.00  0.00    -0.391 OA
ATOM     36  H1  UNL     1       4.561  60.676  21.551  1.00  0.00     0.210 HD
ENDBRANCH  28  35
ENDBRANCH  27  28
ENDBRANCH   1  26
TORSDOF 12
ENDMDL
MODEL 4
REMARK VINA RESULT: -7.428855782      0.807      1.209
REMARK  12 active torsions:
REMARK  status: ('A' for Active; 'I' for Inactive)
REMARK    1  A    between atoms: C2_2  and  C4_4 
REMARK    2  A    between atoms: C5_5  and  C6_6 
REMARK    3  A    between atoms: C6_6  and  C7_7 
REMARK    4  A    between atoms: C7_7  and  O1_8 
REMARK    5  A    between atoms: C7_7  and  C8_10 
REMARK    6  A    between atoms: C9_11  and  C10_12 
REMARK    7  A    between atoms: C13_15  and  N1_16 
REMARK    8  A    between atoms: C15_18  and  C16_19 
REMARK    9  A    between atoms: C17_20  and  C18_21 
REMARK   10  A    between atoms: C18_21  and  C19_22 
REMARK   11  A    between atoms: C24_31  and  O4_32 
REMARK   12  A    between atoms: C25_34  and  O5_35 
ROOT
HETATM    1  C10 UNL     1       3.400  57.432  23.693  1.00  0.00     0.061 C 
HETATM    2  C11 UNL     1       3.678  57.314  22.213  1.00  0.00    -0.018 C 
HETATM    3  C12 UNL     1       4.162  58.425  21.651  1.00  0.00    -0.002 C 
HETATM    4  C13 UNL     1       4.352  59.598  22.549  1.00  0.00     0.147 C 
HETATM    5  C24 UNL     1       5.022  59.239  23.854  1.00  0.00     0.174 C 
HETATM    6  C25 UNL     1       4.684  57.843  24.331  1.00  0.00     0.160 C 
ENDROOT
BRANCH   4   7
HETATM    7  N1  UNL     1       5.179  60.548  21.832  1.00  0.00    -0.298 N 
HETATM    8  C14 UNL     1       6.111  60.074  21.001  1.00  0.00     0.113 A 
HETATM    9  C15 UNL     1       6.966  60.927  20.259  1.00  0.00     0.047 A 
HETATM   10  C22 UNL     1       6.754  62.255  20.470  1.00  0.00     0.261 A 
HETATM   11  O2  UNL     1       7.402  63.171  19.923  1.00  0.00    -0.267 OA
HETATM   12  N2  UNL     1       5.783  62.710  21.336  1.00  0.00    -0.275 N 
HETATM   13  C23 UNL     1       5.015  61.869  22.001  1.00  0.00     0.330 A 
ATOM     14  H2  UNL     1       5.657  63.714  21.465  1.00  0.00     0.173 HD
HETATM   15  O3  UNL     1       4.111  62.244  22.806  1.00  0.00    -0.246 OA
BRANCH   9  16
HETATM   16  C16 UNL     1       7.987  60.390  19.431  1.00  0.00     0.014 C 
HETATM   17  C17 UNL     1       8.315  60.270  18.216  1.00  0.00    -0.025 C 
BRANCH  17  18
HETATM   18  C18 UNL     1       7.780  60.634  16.927  1.00  0.00     0.031 C 
BRANCH  18  19
HETATM   19  C19 UNL     1       7.669  59.463  15.963  1.00  0.00    -0.011 A 
HETATM   20  C20 UNL     1       7.176  58.135  16.404  1.00  0.00     0.005 A 
HETATM   21  C21 UNL     1       8.664  58.364  16.190  1.00  0.00     0.005 A 
ENDBRANCH  18  19
ENDBRANCH  17  18
ENDBRANCH   9  16
ENDBRANCH   4   7
BRANCH   5  22
HETATM   22  O4  UNL     1       4.650  60.154  24.860  1.00  0.00    -0.391 OA
ATOM     23  H4  UNL     1       3.764  60.464  24.710  1.00  0.00     0.210 HD
ENDBRANCH   5  22
BRANCH   6  24
HETATM   24  O5  UNL     1       5.683  56.974  23.851  1.00  0.00    -0.392 OA
ATOM     25  H5  UNL     1       6.058  56.534  24.604  1.00  0.00     0.210 HD
ENDBRANCH   6  24
BRANCH   1  26
HETATM   26  C9  UNL     1       2.835  56.176  24.207  1.00  0.00    -0.017 C 
HETATM   27  C8  UNL     1       2.232  55.305  23.425  1.00  0.00     0.001 C 
BRANCH  27  28
HETATM   28  C7  UNL     1       1.675  54.053  23.984  1.00  0.00     0.144 C 
BRANCH  28  29
HETATM   29  C6  UNL     1       1.800  52.977  22.899  1.00  0.00     0.062 C 
BRANCH  29  30
HETATM   30  C5  UNL     1       2.811  53.323  21.902  1.00  0.00    -0.027 C 
HETATM   31  C4  UNL     1       2.741  53.852  20.724  1.00  0.00    -0.027 C 
BRANCH  31  32
HETATM   32  C2  UNL     1       1.686  54.336  19.867  1.00  0.00    -0.001 C 
HETATM   33  C1  UNL     1       0.960  53.416  18.968  1.00  0.00     0.013 C 
HETATM   34  C3  UNL     1       2.289  55.432  18.954  1.00  0.00     0.013 C 
ENDBRANCH  31  32
ENDBRANCH  29  30
ENDBRANCH  28  29
BRANCH  28  35
HETATM   35  O1  UNL     1       2.493  53.644  25.036  1.00  0.00    -0.391 OA
ATOM     36  H1  UNL     1       3.156  53.081  24.654  1.00  0.00     0.210 HD
ENDBRANCH  28  35
ENDBRANCH  27  28
ENDBRANCH   1  26
TORSDOF 12
ENDMDL
MODEL 5
REMARK VINA RESULT: -7.386282847      4.422      9.682
REMARK  12 active torsions:
REMARK  status: ('A' for Active; 'I' for Inactive)
REMARK    1  A    between atoms: C2_2  and  C4_4 
REMARK    2  A    between atoms: C5_5  and  C6_6 
REMARK    3  A    between atoms: C6_6  and  C7_7 
REMARK    4  A    between atoms: C7_7  and  O1_8 
REMARK    5  A    between atoms: C7_7  and  C8_10 
REMARK    6  A    between atoms: C9_11  and  C10_12 
REMARK    7  A    between atoms: C13_15  and  N1_16 
REMARK    8  A    between atoms: C15_18  and  C16_19 
REMARK    9  A    between atoms: C17_20  and  C18_21 
REMARK   10  A    between atoms: C18_21  and  C19_22 
REMARK   11  A    between atoms: C24_31  and  O4_32 
REMARK   12  A    between atoms: C25_34  and  O5_35 
ROOT
HETATM    1  C10 UNL     1       3.577  56.499  20.283  1.00  0.00     0.061 C 
HETATM    2  C11 UNL     1       4.234  55.333  20.982  1.00  0.00    -0.018 C 
HETATM    3  C12 UNL     1       3.468  54.243  21.078  1.00  0.00    -0.002 C 
HETATM    4  C13 UNL     1       2.103  54.334  20.492  1.00  0.00     0.147 C 
HETATM    5  C24 UNL     1       2.091  54.964  19.119  1.00  0.00     0.174 C 
HETATM    6  C25 UNL     1       3.171  56.007  18.934  1.00  0.00     0.160 C 
ENDROOT
BRANCH   4   7
HETATM    7  N1  UNL     1       1.591  52.981  20.401  1.00  0.00    -0.298 N 
HETATM    8  C14 UNL     1       2.068  52.188  19.436  1.00  0.00     0.113 A 
HETATM    9  C15 UNL     1       1.627  50.852  19.271  1.00  0.00     0.047 A 
HETATM   10  C22 UNL     1       0.684  50.456  20.170  1.00  0.00     0.261 A 
HETATM   11  O2  UNL     1       0.159  49.323  20.194  1.00  0.00    -0.267 OA
HETATM   12  N2  UNL     1       0.214  51.300  21.153  1.00  0.00    -0.275 N 
HETATM   13  C23 UNL     1       0.662  52.536  21.261  1.00  0.00     0.330 A 
ATOM     14  H2  UNL     1      -0.492  50.964  21.808  1.00  0.00     0.173 HD
HETATM   15  O3  UNL     1       0.258  53.345  22.149  1.00  0.00    -0.246 OA
BRANCH   9  16
HETATM   16  C16 UNL     1       2.108  50.056  18.198  1.00  0.00     0.014 C 
HETATM   17  C17 UNL     1       2.819  49.038  17.962  1.00  0.00    -0.025 C 
BRANCH  17  18
HETATM   18  C18 UNL     1       3.586  48.076  18.716  1.00  0.00     0.031 C 
BRANCH  18  19
HETATM   19  C19 UNL     1       4.919  48.615  19.209  1.00  0.00    -0.011 A 
HETATM   20  C20 UNL     1       5.573  48.078  20.428  1.00  0.00     0.005 A 
HETATM   21  C21 UNL     1       4.847  49.414  20.476  1.00  0.00     0.005 A 
ENDBRANCH  18  19
ENDBRANCH  17  18
ENDBRANCH   9  16
ENDBRANCH   4   7
BRANCH   5  22
HETATM   22  O4  UNL     1       0.842  55.570  18.873  1.00  0.00    -0.391 OA
ATOM     23  H4  UNL     1       0.449  55.205  18.088  1.00  0.00     0.210 HD
ENDBRANCH   5  22
BRANCH   6  24
HETATM   24  O5  UNL     1       4.292  55.366  18.372  1.00  0.00    -0.392 OA
ATOM     25  H5  UNL     1       4.907  56.046  18.122  1.00  0.00     0.210 HD
ENDBRANCH   6  24
BRANCH   1  26
HETATM   26  C9  UNL     1       4.481  57.658  20.266  1.00  0.00    -0.017 C 
HETATM   27  C8  UNL     1       4.813  58.306  21.363  1.00  0.00     0.001 C 
BRANCH  27  28
HETATM   28  C7  UNL     1       5.726  59.470  21.300  1.00  0.00     0.144 C 
BRANCH  28  29
HETATM   29  C6  UNL     1       6.756  59.178  20.203  1.00  0.00     0.062 C 
BRANCH  29  30
HETATM   30  C5  UNL     1       7.520  60.370  19.842  1.00  0.00    -0.027 C 
HETATM   31  C4  UNL     1       7.929  60.845  18.710  1.00  0.00    -0.027 C 
BRANCH  31  32
HETATM   32  C2  UNL     1       7.830  60.451  17.325  1.00  0.00    -0.001 C 
HETATM   33  C1  UNL     1       8.126  59.064  16.912  1.00  0.00     0.013 C 
HETATM   34  C3  UNL     1       8.794  61.350  16.513  1.00  0.00     0.013 C 
ENDBRANCH  31  32
ENDBRANCH  29  30
ENDBRANCH  28  29
BRANCH  28  35
HETATM   35  O1  UNL     1       4.995  60.574  20.867  1.00  0.00    -0.391 OA
ATOM     36  H1  UNL     1       5.462  61.341  21.177  1.00  0.00     0.210 HD
ENDBRANCH  28  35
ENDBRANCH  27  28
ENDBRANCH   1  26
TORSDOF 12
ENDMDL
