MODEL 1
REMARK VINA RESULT: -7.009965999      0.000      0.000
REMARK  9 active torsions:
REMARK  status: ('A' for Active; 'I' for Inactive)
REMARK    1  A    between atoms: C6_6  and  C7_7 
REMARK    2  A    between atoms: C7_7  and  C8_8 
REMARK    3  A    between atoms: C8_8  and  N1_9 
REMARK    4  A    between atoms: C8_8  and  C9_13 
REMARK       I    between atoms: C9_13  and  N2_15 
REMARK    5  A    between atoms: N2_15  and  C10_17 
REMARK    6  A    between atoms: C10_17  and  C11_18 
REMARK    7  A    between atoms: C11_18  and  C12_19 
REMARK    8  A    between atoms: C12_19  and  N3_20 
REMARK    9  A    between atoms: N4_23  and  C15_24 
ROOT
HETATM    1  C9  UNL     1       4.316  61.516  23.163  1.00  0.00     0.248 C 
HETATM    2  O1  UNL     1       3.224  60.866  23.277  1.00  0.00    -0.271 OA
HETATM    3  N2  UNL     1       4.968  62.086  24.276  1.00  0.00    -0.359 N 
ATOM      4  H2  UNL     1       5.839  62.605  24.167  1.00  0.00     0.162 HD
ENDROOT
BRANCH   3   5
HETATM    5  C10 UNL     1       4.369  61.912  25.562  1.00  0.00     0.124 C 
BRANCH   5   6
HETATM    6  C11 UNL     1       5.123  60.877  26.395  1.00  0.00     0.050 C 
BRANCH   6   7
HETATM    7  C12 UNL     1       4.170  59.712  26.691  1.00  0.00     0.274 C 
BRANCH   7   8
HETATM    8  N3  UNL     1       5.009  58.546  26.919  1.00  0.00     0.094 N 
HETATM    9  C13 UNL     1       6.035  58.444  25.880  1.00  0.00     0.292 C 
HETATM   10  C14 UNL     1       5.693  57.432  24.820  1.00  0.00     0.152 C 
HETATM   11  N4  UNL     1       4.280  57.585  24.564  1.00  0.00    -0.385 N 
HETATM   12  C21 UNL     1       3.460  57.119  25.612  1.00  0.00     0.088 C 
HETATM   13  C22 UNL     1       4.207  57.326  26.928  1.00  0.00     0.316 C 
BRANCH  11  14
HETATM   14  C15 UNL     1       3.883  57.501  23.228  1.00  0.00     0.083 C 
HETATM   15  C16 UNL     1       3.212  56.256  22.761  1.00  0.00     0.025 C 
HETATM   16  C17 UNL     1       3.854  55.667  21.524  1.00  0.00     0.002 C 
HETATM   17  C18 UNL     1       4.000  56.639  20.394  1.00  0.00     0.000 C 
HETATM   18  C19 UNL     1       4.157  58.057  20.902  1.00  0.00     0.002 C 
HETATM   19  C20 UNL     1       4.957  57.921  22.208  1.00  0.00     0.025 C 
ENDBRANCH  11  14
ENDBRANCH   7   8
ENDBRANCH   6   7
ENDBRANCH   5   6
ENDBRANCH   3   5
BRANCH   1  20
HETATM   20  C8  UNL     1       4.860  61.634  21.760  1.00  0.00     0.275 C 
BRANCH  20  21
HETATM   21  C7  UNL     1       6.166  62.319  21.824  1.00  0.00     0.047 C 
BRANCH  21  22
HETATM   22  C6  UNL     1       7.217  61.980  20.842  1.00  0.00    -0.012 C 
HETATM   23  C5  UNL     1       7.572  62.980  19.810  1.00  0.00     0.005 C 
HETATM   24  C4  UNL     1       7.360  62.490  18.394  1.00  0.00     0.009 C 
HETATM   25  C2  UNL     1       8.137  61.211  18.151  1.00  0.00    -0.048 C 
HETATM   26  C1  UNL     1       9.595  61.516  17.835  1.00  0.00     0.015 C 
HETATM   27  C3  UNL     1       7.544  60.530  16.944  1.00  0.00     0.015 C 
HETATM   28  C24 UNL     1       8.086  60.281  19.317  1.00  0.00     0.009 C 
HETATM   29  C23 UNL     1       6.882  60.617  20.159  1.00  0.00     0.005 C 
ENDBRANCH  21  22
ENDBRANCH  20  21
BRANCH  20  30
HETATM   30  N1  UNL     1       3.901  62.346  20.981  1.00  0.00    -0.066 N 
ATOM     31  H13 UNL     1       3.149  62.707  21.567  1.00  0.00     0.275 HD
ATOM     32  H12 UNL     1       4.287  63.228  20.644  1.00  0.00     0.275 HD
ATOM     33  H11 UNL     1       3.529  61.791  20.210  1.00  0.00     0.275 HD
ENDBRANCH  20  30
ENDBRANCH   1  20
TORSDOF 9
ENDMDL
MODEL 2
REMARK VINA RESULT: -7.007207638      0.619      1.279
REMARK  9 active torsions:
REMARK  status: ('A' for Active; 'I' for Inactive)
REMARK    1  A    between atoms: C6_6  and  C7_7 
REMARK    2  A    between atoms: C7_7  and  C8_8 
REMARK    3  A    between atoms: C8_8  and  N1_9 
REMARK    4  A    between atoms: C8_8  and  C9_13 
REMARK       I    between atoms: C9_13  and  N2_15 
REMARK    5  A    between atoms: N2_15  and  C10_17 
REMARK    6  A    between atoms: C10_17  and  C11_18 
REMARK    7  A    between atoms: C11_18  and  C12_19 
REMARK    8  A    between atoms: C12_19  and  N3_20 
REMARK    9  A    between atoms: N4_23  and  C15_24 
ROOT
HETATM    1  C9  UNL     1       4.176  61.711  23.835  1.00  0.00     0.248 C 
HETATM    2  O1  UNL     1       3.190  60.935  24.070  1.00  0.00    -0.271 OA
HETATM    3  N2  UNL     1       4.980  62.233  24.869  1.00  0.00    -0.359 N 
ATOM      4  H2  UNL     1       5.762  62.855  24.665  1.00  0.00     0.162 HD
ENDROOT
BRANCH   3   5
HETATM    5  C10 UNL     1       4.665  61.861  26.213  1.00  0.00     0.124 C 
BRANCH   5   6
HETATM    6  C11 UNL     1       5.493  60.663  26.672  1.00  0.00     0.050 C 
BRANCH   6   7
HETATM    7  C12 UNL     1       4.530  59.558  27.124  1.00  0.00     0.274 C 
BRANCH   7   8
HETATM    8  N3  UNL     1       5.326  58.346  27.242  1.00  0.00     0.094 N 
HETATM    9  C13 UNL     1       6.297  58.264  26.150  1.00  0.00     0.292 C 
HETATM   10  C14 UNL     1       5.862  57.334  25.050  1.00  0.00     0.152 C 
HETATM   11  N4  UNL     1       4.447  57.561  24.873  1.00  0.00    -0.385 N 
HETATM   12  C21 UNL     1       3.656  57.067  25.930  1.00  0.00     0.088 C 
HETATM   13  C22 UNL     1       4.471  57.163  27.218  1.00  0.00     0.316 C 
BRANCH  11  14
HETATM   14  C15 UNL     1       3.985  57.574  23.555  1.00  0.00     0.083 C 
HETATM   15  C16 UNL     1       3.308  56.360  23.025  1.00  0.00     0.025 C 
HETATM   16  C17 UNL     1       3.895  55.878  21.716  1.00  0.00     0.002 C 
HETATM   17  C18 UNL     1       3.973  56.938  20.660  1.00  0.00     0.000 C 
HETATM   18  C19 UNL     1       4.138  58.315  21.269  1.00  0.00     0.002 C 
HETATM   19  C20 UNL     1       5.003  58.090  22.521  1.00  0.00     0.025 C 
ENDBRANCH  11  14
ENDBRANCH   7   8
ENDBRANCH   6   7
ENDBRANCH   5   6
ENDBRANCH   3   5
BRANCH   1  20
HETATM   20  C8  UNL     1       4.419  62.034  22.381  1.00  0.00     0.275 C 
BRANCH  20  21
HETATM   21  C7  UNL     1       5.814  61.679  22.054  1.00  0.00     0.047 C 
BRANCH  21  22
HETATM   22  C6  UNL     1       6.212  61.512  20.640  1.00  0.00    -0.012 C 
HETATM   23  C5  UNL     1       6.864  60.247  20.232  1.00  0.00     0.005 C 
HETATM   24  C4  UNL     1       8.251  60.437  19.656  1.00  0.00     0.009 C 
HETATM   25  C2  UNL     1       8.212  61.392  18.479  1.00  0.00    -0.048 C 
HETATM   26  C1  UNL     1       7.777  60.670  17.211  1.00  0.00     0.015 C 
HETATM   27  C3  UNL     1       9.611  61.906  18.253  1.00  0.00     0.015 C 
HETATM   28  C24 UNL     1       7.294  62.546  18.709  1.00  0.00     0.009 C 
HETATM   29  C23 UNL     1       7.090  62.722  20.193  1.00  0.00     0.005 C 
ENDBRANCH  21  22
ENDBRANCH  20  21
BRANCH  20  30
HETATM   30  N1  UNL     1       4.143  63.420  22.191  1.00  0.00    -0.066 N 
ATOM     31  H13 UNL     1       4.080  63.906  23.085  1.00  0.00     0.275 HD
ATOM     32  H12 UNL     1       4.951  63.902  21.797  1.00  0.00     0.275 HD
ATOM     33  H11 UNL     1       3.309  63.582  21.627  1.00  0.00     0.275 HD
ENDBRANCH  20  30
ENDBRANCH   1  20
TORSDOF 9
ENDMDL
MODEL 3
REMARK VINA RESULT: -6.792504560      2.627      5.753
REMARK  9 active torsions:
REMARK  status: ('A' for Active; 'I' for Inactive)
REMARK    1  A    between atoms: C6_6  and  C7_7 
REMARK    2  A    between atoms: C7_7  and  C8_8 
REMARK    3  A    between atoms: C8_8  and  N1_9 
REMARK    4  A    between atoms: C8_8  and  C9_13 
REMARK       I    between atoms: C9_13  and  N2_15 
REMARK    5  A    between atoms: N2_15  and  C10_17 
REMARK    6  A    between atoms: C10_17  and  C11_18 
REMARK    7  A    between atoms: C11_18  and  C12_19 
REMARK    8  A    between atoms: C12_19  and  N3_20 
REMARK    9  A    between atoms: N4_23  and  C15_24 
ROOT
HETATM    1  C9  UNL     1       4.534  60.247  21.366  1.00  0.00     0.248 C 
HETATM    2  O1  UNL     1       3.290  60.533  21.374  1.00  0.00    -0.271 OA
HETATM    3  N2  UNL     1       5.508  61.132  21.872  1.00  0.00    -0.359 N 
ATOM      4  H2  UNL     1       6.499  60.890  21.855  1.00  0.00     0.162 HD
ENDROOT
BRANCH   3   5
HETATM    5  C10 UNL     1       5.063  62.379  22.411  1.00  0.00     0.124 C 
BRANCH   5   6
HETATM    6  C11 UNL     1       5.053  62.358  23.939  1.00  0.00     0.050 C 
BRANCH   6   7
HETATM    7  C12 UNL     1       3.594  62.399  24.411  1.00  0.00     0.274 C 
BRANCH   7   8
HETATM    8  N3  UNL     1       3.628  62.826  25.801  1.00  0.00     0.094 N 
HETATM    9  C13 UNL     1       4.964  62.628  26.365  1.00  0.00     0.292 C 
HETATM   10  C14 UNL     1       5.062  61.388  27.212  1.00  0.00     0.152 C 
HETATM   11  N4  UNL     1       4.305  60.371  26.518  1.00  0.00    -0.385 N 
HETATM   12  C21 UNL     1       2.911  60.576  26.556  1.00  0.00     0.088 C 
HETATM   13  C22 UNL     1       2.654  62.081  26.593  1.00  0.00     0.316 C 
BRANCH  11  14
HETATM   14  C15 UNL     1       4.858  59.089  26.511  1.00  0.00     0.083 C 
HETATM   15  C16 UNL     1       5.892  58.752  27.528  1.00  0.00     0.025 C 
HETATM   16  C17 UNL     1       7.150  58.170  26.922  1.00  0.00     0.002 C 
HETATM   17  C18 UNL     1       6.903  57.001  26.018  1.00  0.00     0.000 C 
HETATM   18  C19 UNL     1       5.543  57.089  25.359  1.00  0.00     0.002 C 
HETATM   19  C20 UNL     1       5.315  58.592  25.127  1.00  0.00     0.025 C 
ENDBRANCH  11  14
ENDBRANCH   7   8
ENDBRANCH   6   7
ENDBRANCH   5   6
ENDBRANCH   3   5
BRANCH   1  20
HETATM   20  C8  UNL     1       4.890  58.905  20.777  1.00  0.00     0.275 C 
BRANCH  20  21
HETATM   21  C7  UNL     1       4.741  57.881  21.830  1.00  0.00     0.047 C 
BRANCH  21  22
HETATM   22  C6  UNL     1       4.162  56.564  21.491  1.00  0.00    -0.012 C 
HETATM   23  C5  UNL     1       3.789  56.294  20.085  1.00  0.00     0.005 C 
HETATM   24  C4  UNL     1       2.322  55.974  19.897  1.00  0.00     0.009 C 
HETATM   25  C2  UNL     1       1.918  54.798  20.765  1.00  0.00    -0.048 C 
HETATM   26  C1  UNL     1       2.298  53.481  20.101  1.00  0.00     0.015 C 
HETATM   27  C3  UNL     1       0.418  54.820  20.907  1.00  0.00     0.015 C 
HETATM   28  C24 UNL     1       2.543  54.846  22.119  1.00  0.00     0.009 C 
HETATM   29  C23 UNL     1       2.946  56.267  22.423  1.00  0.00     0.005 C 
ENDBRANCH  21  22
ENDBRANCH  20  21
BRANCH  20  30
HETATM   30  N1  UNL     1       6.222  58.989  20.274  1.00  0.00    -0.066 N 
ATOM     31  H13 UNL     1       6.633  58.062  20.171  1.00  0.00     0.275 HD
ATOM     32  H12 UNL     1       6.225  59.282  19.297  1.00  0.00     0.275 HD
ATOM     33  H11 UNL     1       6.819  59.593  20.839  1.00  0.00     0.275 HD
ENDBRANCH  20  30
ENDBRANCH   1  20
TORSDOF 9
ENDMDL
MODEL 4
REMARK VINA RESULT: -6.700059526      2.691      7.200
REMARK  9 active torsions:
REMARK  status: ('A' for Active; 'I' for Inactive)
REMARK    1  A    between atoms: C6_6  and  C7_7 
REMARK    2  A    between atoms: C7_7  and  C8_8 
REMARK    3  A    between atoms: C8_8  and  N1_9 
REMARK    4  A    between atoms: C8_8  and  C9_13 
REMARK       I    between atoms: C9_13  and  N2_15 
REMARK    5  A    between atoms: N2_15  and  C10_17 
REMARK    6  A    between atoms: C10_17  and  C11_18 
REMARK    7  A    between atoms: C11_18  and  C12_19 
REMARK    8  A    between atoms: C12_19  and  N3_20 
REMARK    9  A    between atoms: N4_23  and  C15_24 
ROOT
HETATM    1  C9  UNL     1       3.823  56.654  23.132  1.00  0.00     0.248 C 
HETATM    2  O1  UNL     1       2.838  56.313  23.867  1.00  0.00    -0.271 OA
HETATM    3  N2  UNL     1       5.025  57.153  23.675  1.00  0.00    -0.359 N 
ATOM      4  H2  UNL     1       5.802  57.424  23.073  1.00  0.00     0.162 HD
ENDROOT
BRANCH   3   5
HETATM    5  C10 UNL     1       5.120  57.264  25.097  1.00  0.00     0.124 C 
BRANCH   5   6
HETATM    6  C11 UNL     1       4.785  58.677  25.571  1.00  0.00     0.050 C 
BRANCH   6   7
HETATM    7  C12 UNL     1       5.219  59.666  24.482  1.00  0.00     0.274 C 
BRANCH   7   8
HETATM    8  N3  UNL     1       4.096  60.568  24.280  1.00  0.00     0.094 N 
HETATM    9  C13 UNL     1       3.389  60.234  23.042  1.00  0.00     0.292 C 
HETATM   10  C14 UNL     1       3.749  61.147  21.901  1.00  0.00     0.152 C 
HETATM   11  N4  UNL     1       5.173  61.364  21.997  1.00  0.00    -0.385 N 
HETATM   12  C21 UNL     1       5.550  62.180  23.083  1.00  0.00     0.088 C 
HETATM   13  C22 UNL     1       4.552  61.953  24.217  1.00  0.00     0.316 C 
BRANCH  11  14
HETATM   14  C15 UNL     1       5.879  61.373  20.792  1.00  0.00     0.083 C 
HETATM   15  C16 UNL     1       6.414  60.086  20.270  1.00  0.00     0.025 C 
HETATM   16  C17 UNL     1       7.888  60.153  19.932  1.00  0.00     0.002 C 
HETATM   17  C18 UNL     1       8.250  61.282  19.016  1.00  0.00     0.000 C 
HETATM   18  C19 UNL     1       7.312  62.457  19.190  1.00  0.00     0.002 C 
HETATM   19  C20 UNL     1       6.962  62.463  20.688  1.00  0.00     0.025 C 
ENDBRANCH  11  14
ENDBRANCH   7   8
ENDBRANCH   6   7
ENDBRANCH   5   6
ENDBRANCH   3   5
BRANCH   1  20
HETATM   20  C8  UNL     1       3.614  56.492  21.646  1.00  0.00     0.275 C 
BRANCH  20  21
HETATM   21  C7  UNL     1       3.711  55.056  21.318  1.00  0.00     0.047 C 
BRANCH  21  22
HETATM   22  C6  UNL     1       2.478  54.247  21.209  1.00  0.00    -0.012 C 
HETATM   23  C5  UNL     1       2.554  52.927  20.543  1.00  0.00     0.005 C 
HETATM   24  C4  UNL     1       1.656  52.808  19.330  1.00  0.00     0.009 C 
HETATM   25  C2  UNL     1       0.217  53.109  19.701  1.00  0.00    -0.048 C 
HETATM   26  C1  UNL     1      -0.448  51.888  20.321  1.00  0.00     0.015 C 
HETATM   27  C3  UNL     1      -0.528  53.438  18.433  1.00  0.00     0.015 C 
HETATM   28  C24 UNL     1       0.100  54.252  20.653  1.00  0.00     0.009 C 
HETATM   29  C23 UNL     1       1.344  55.099  20.558  1.00  0.00     0.005 C 
ENDBRANCH  21  22
ENDBRANCH  20  21
BRANCH  20  30
HETATM   30  N1  UNL     1       4.599  57.278  20.980  1.00  0.00    -0.066 N 
ATOM     31  H13 UNL     1       5.529  57.097  21.359  1.00  0.00     0.275 HD
ATOM     32  H12 UNL     1       4.743  56.950  20.024  1.00  0.00     0.275 HD
ATOM     33  H11 UNL     1       4.385  58.275  20.996  1.00  0.00     0.275 HD
ENDBRANCH  20  30
ENDBRANCH   1  20
TORSDOF 9
ENDMDL
MODEL 5
REMARK VINA RESULT: -6.511161423      2.957      5.798
REMARK  9 active torsions:
REMARK  status: ('A' for Active; 'I' for Inactive)
REMARK    1  A    between atoms: C6_6  and  C7_7 
REMARK    2  A    between atoms: C7_7  and  C8_8 
REMARK    3  A    between atoms: C8_8  and  N1_9 
REMARK    4  A    between atoms: C8_8  and  C9_13 
REMARK       I    between atoms: C9_13  and  N2_15 
REMARK    5  A    between atoms: N2_15  and  C10_17 
REMARK    6  A    between atoms: C10_17  and  C11_18 
REMARK    7  A    between atoms: C11_18  and  C12_19 
REMARK    8  A    between atoms: C12_19  and  N3_20 
REMARK    9  A    between atoms: N4_23  and  C15_24 
ROOT
HETATM    1  C9  UNL     1       3.203  56.761  25.733  1.00  0.00     0.248 C 
HETATM    2  O1  UNL     1       2.986  56.693  26.989  1.00  0.00    -0.271 OA
HETATM    3  N2  UNL     1       2.499  55.963  24.808  1.00  0.00    -0.359 N 
ATOM      4  H2  UNL     1       2.687  56.027  23.808  1.00  0.00     0.162 HD
ENDROOT
BRANCH   3   5
HETATM    5  C10 UNL     1       1.514  55.061  25.317  1.00  0.00     0.124 C 
BRANCH   5   6
HETATM    6  C11 UNL     1       1.566  53.712  24.601  1.00  0.00     0.050 C 
BRANCH   6   7
HETATM    7  C12 UNL     1       0.392  53.646  23.615  1.00  0.00     0.274 C 
BRANCH   7   8
HETATM    8  N3  UNL     1       0.571  52.422  22.851  1.00  0.00     0.094 N 
HETATM    9  C13 UNL     1       1.994  52.120  22.693  1.00  0.00     0.292 C 
HETATM   10  C14 UNL     1       2.526  52.511  21.340  1.00  0.00     0.152 C 
HETATM   11  N4  UNL     1       1.917  53.782  21.023  1.00  0.00    -0.385 N 
HETATM   12  C21 UNL     1       0.543  53.693  20.723  1.00  0.00     0.088 C 
HETATM   13  C22 UNL     1      -0.047  52.541  21.533  1.00  0.00     0.316 C 
BRANCH  11  14
HETATM   14  C15 UNL     1       2.744  54.726  20.410  1.00  0.00     0.083 C 
HETATM   15  C16 UNL     1       3.867  55.307  21.195  1.00  0.00     0.025 C 
HETATM   16  C17 UNL     1       3.878  56.820  21.179  1.00  0.00     0.002 C 
HETATM   17  C18 UNL     1       3.838  57.413  19.804  1.00  0.00     0.000 C 
HETATM   18  C19 UNL     1       3.110  56.507  18.833  1.00  0.00     0.002 C 
HETATM   19  C20 UNL     1       1.998  55.849  19.666  1.00  0.00     0.025 C 
ENDBRANCH  11  14
ENDBRANCH   7   8
ENDBRANCH   6   7
ENDBRANCH   5   6
ENDBRANCH   3   5
BRANCH   1  20
HETATM   20  C8  UNL     1       4.261  57.749  25.308  1.00  0.00     0.275 C 
BRANCH  20  21
HETATM   21  C7  UNL     1       3.605  58.839  24.559  1.00  0.00     0.047 C 
BRANCH  21  22
HETATM   22  C6  UNL     1       4.372  59.593  23.545  1.00  0.00    -0.012 C 
HETATM   23  C5  UNL     1       5.324  60.629  24.003  1.00  0.00     0.005 C 
HETATM   24  C4  UNL     1       5.010  62.015  23.479  1.00  0.00     0.009 C 
HETATM   25  C2  UNL     1       4.953  62.011  21.964  1.00  0.00    -0.048 C 
HETATM   26  C1  UNL     1       6.352  62.095  21.370  1.00  0.00     0.015 C 
HETATM   27  C3  UNL     1       4.198  63.239  21.526  1.00  0.00     0.015 C 
HETATM   28  C24 UNL     1       4.277  60.796  21.421  1.00  0.00     0.009 C 
HETATM   29  C23 UNL     1       3.395  60.205  22.493  1.00  0.00     0.005 C 
ENDBRANCH  21  22
ENDBRANCH  20  21
BRANCH  20  30
HETATM   30  N1  UNL     1       5.224  57.045  24.527  1.00  0.00    -0.066 N 
ATOM     31  H13 UNL     1       4.975  57.060  23.538  1.00  0.00     0.275 HD
ATOM     32  H12 UNL     1       6.105  57.558  24.483  1.00  0.00     0.275 HD
ATOM     33  H11 UNL     1       5.374  56.089  24.851  1.00  0.00     0.275 HD
ENDBRANCH  20  30
ENDBRANCH   1  20
TORSDOF 9
ENDMDL
