MODEL 1
REMARK VINA RESULT: -8.337564012      0.000      0.000
REMARK  10 active torsions:
REMARK  status: ('A' for Active; 'I' for Inactive)
REMARK    1  A    between atoms: O1_1  and  C1_3 
REMARK    2  A    between atoms: C1_3  and  C2_4 
REMARK    3  A    between atoms: C2_4  and  C3_5 
REMARK    4  A    between atoms: N1_13  and  C11_14 
REMARK    5  A    between atoms: C11_14  and  C12_15 
REMARK    6  A    between atoms: C12_15  and  O2_16 
REMARK    7  A    between atoms: C12_15  and  C13_18 
REMARK    8  A    between atoms: C12_15  and  C20_26 
REMARK    9  A    between atoms: C13_18  and  O3_19 
REMARK   10  A    between atoms: O3_19  and  C14_20 
ROOT
HETATM    1  C12 UNL     1       5.055  60.080  21.618  1.00  0.00     0.133 C 
ENDROOT
BRANCH   1   2
HETATM    2  C11 UNL     1       5.088  58.628  21.331  1.00  0.00     0.317 C 
BRANCH   2   3
HETATM    3  N1  UNL     1       3.905  57.881  21.345  1.00  0.00     0.094 N 
HETATM    4  C10 UNL     1       3.380  57.825  19.984  1.00  0.00     0.275 C 
HETATM    5  C9  UNL     1       3.808  56.420  19.558  1.00  0.00     0.070 C 
HETATM    6  C1  UNL     1       3.508  55.619  20.767  1.00  0.00     0.089 C 
HETATM    7  C26 UNL     1       3.838  56.597  21.895  1.00  0.00     0.310 C 
BRANCH   6   8
HETATM    8  O1  UNL     1       4.328  54.482  20.883  1.00  0.00    -0.388 OA
ATOM      9  H1  UNL     1       4.312  54.176  21.782  1.00  0.00     0.210 HD
ENDBRANCH   6   8
BRANCH   6  10
HETATM   10  C2  UNL     1       2.065  55.205  20.884  1.00  0.00     0.078 C 
BRANCH  10  11
HETATM   11  C3  UNL     1       1.604  54.291  19.835  1.00  0.00    -0.055 A 
HETATM   12  C4  UNL     1       1.866  52.928  19.860  1.00  0.00     0.007 A 
HETATM   13  C5  UNL     1       1.429  52.073  18.877  1.00  0.00     0.001 A 
HETATM   14  C6  UNL     1       0.693  52.597  17.812  1.00  0.00     0.000 A 
HETATM   15  C7  UNL     1       0.411  53.946  17.751  1.00  0.00     0.001 A 
HETATM   16  C8  UNL     1       0.869  54.765  18.760  1.00  0.00     0.007 A 
ENDBRANCH  10  11
ENDBRANCH   6  10
ENDBRANCH   2   3
ENDBRANCH   1   2
BRANCH   1  17
HETATM   17  O2  UNL     1       3.820  60.642  21.300  1.00  0.00    -0.381 OA
ATOM     18  H2  UNL     1       3.108  60.210  21.757  1.00  0.00     0.211 HD
ENDBRANCH   1  17
BRANCH   1  19
HETATM   19  C13 UNL     1       5.357  60.318  23.073  1.00  0.00     0.220 C 
BRANCH  19  20
HETATM   20  O3  UNL     1       4.661  59.431  23.923  1.00  0.00    -0.348 OA
BRANCH  20  21
HETATM   21  C14 UNL     1       5.397  58.889  24.983  1.00  0.00     0.068 A 
HETATM   22  C15 UNL     1       5.929  57.621  24.902  1.00  0.00     0.037 A 
HETATM   23  C16 UNL     1       6.656  57.063  25.931  1.00  0.00     0.003 A 
HETATM   24  C17 UNL     1       6.865  57.782  27.081  1.00  0.00     0.000 A 
HETATM   25  C18 UNL     1       6.352  59.049  27.202  1.00  0.00     0.003 A 
HETATM   26  C19 UNL     1       5.633  59.577  26.161  1.00  0.00     0.037 A 
ENDBRANCH  20  21
ENDBRANCH  19  20
ENDBRANCH   1  19
BRANCH   1  27
HETATM   27  C20 UNL     1       6.086  60.833  20.810  1.00  0.00    -0.020 A 
HETATM   28  C21 UNL     1       7.045  60.132  20.100  1.00  0.00     0.010 A 
HETATM   29  C22 UNL     1       8.015  60.754  19.344  1.00  0.00     0.001 A 
HETATM   30  C23 UNL     1       8.047  62.133  19.278  1.00  0.00     0.000 A 
HETATM   31  C24 UNL     1       7.108  62.853  19.970  1.00  0.00     0.001 A 
HETATM   32  C25 UNL     1       6.131  62.204  20.735  1.00  0.00     0.010 A 
ENDBRANCH   1  27
TORSDOF 10
ENDMDL
MODEL 2
REMARK VINA RESULT: -8.257069874      1.591      7.420
REMARK  10 active torsions:
REMARK  status: ('A' for Active; 'I' for Inactive)
REMARK    1  A    between atoms: O1_1  and  C1_3 
REMARK    2  A    between atoms: C1_3  and  C2_4 
REMARK    3  A    between atoms: C2_4  and  C3_5 
REMARK    4  A    between atoms: N1_13  and  C11_14 
REMARK    5  A    between atoms: C11_14  and  C12_15 
REMARK    6  A    between atoms: C12_15  and  O2_16 
REMARK    7  A    between atoms: C12_15  and  C13_18 
REMARK    8  A    between atoms: C12_15  and  C20_26 
REMARK    9  A    between atoms: C13_18  and  O3_19 
REMARK   10  A    between atoms: O3_19  and  C14_20 
ROOT
HETATM    1  C12 UNL     1       3.950  57.985  23.888  1.00  0.00     0.133 C 
ENDROOT
BRANCH   1   2
HETATM    2  C11 UNL     1       4.011  59.134  22.955  1.00  0.00     0.317 C 
BRANCH   2   3
HETATM    3  N1  UNL     1       5.248  59.662  22.570  1.00  0.00     0.094 N 
HETATM    4  C10 UNL     1       5.661  59.009  21.332  1.00  0.00     0.275 C 
HETATM    5  C9  UNL     1       5.315  60.082  20.299  1.00  0.00     0.070 C 
HETATM    6  C1  UNL     1       5.778  61.321  20.966  1.00  0.00     0.089 C 
HETATM    7  C26 UNL     1       5.464  61.038  22.435  1.00  0.00     0.310 C 
BRANCH   6   8
HETATM    8  O1  UNL     1       5.065  62.461  20.550  1.00  0.00    -0.388 OA
ATOM      9  H1  UNL     1       5.295  63.194  21.109  1.00  0.00     0.210 HD
ENDBRANCH   6   8
BRANCH   6  10
HETATM   10  C2  UNL     1       7.254  61.579  20.822  1.00  0.00     0.078 C 
BRANCH  10  11
HETATM   11  C3  UNL     1       7.754  61.520  19.445  1.00  0.00    -0.055 A 
HETATM   12  C4  UNL     1       7.816  60.338  18.719  1.00  0.00     0.007 A 
HETATM   13  C5  UNL     1       8.282  60.286  17.428  1.00  0.00     0.001 A 
HETATM   14  C6  UNL     1       8.708  61.470  16.822  1.00  0.00     0.000 A 
HETATM   15  C7  UNL     1       8.663  62.666  17.509  1.00  0.00     0.001 A 
HETATM   16  C8  UNL     1       8.187  62.669  18.802  1.00  0.00     0.007 A 
ENDBRANCH  10  11
ENDBRANCH   6  10
ENDBRANCH   2   3
ENDBRANCH   1   2
BRANCH   1  17
HETATM   17  O2  UNL     1       2.712  57.897  24.520  1.00  0.00    -0.381 OA
ATOM     18  H2  UNL     1       2.743  57.327  25.279  1.00  0.00     0.211 HD
ENDBRANCH   1  17
BRANCH   1  19
HETATM   19  C13 UNL     1       4.227  56.708  23.140  1.00  0.00     0.220 C 
BRANCH  19  20
HETATM   20  O3  UNL     1       3.055  55.959  22.895  1.00  0.00    -0.348 OA
BRANCH  20  21
HETATM   21  C14 UNL     1       2.683  55.817  21.553  1.00  0.00     0.068 A 
HETATM   22  C15 UNL     1       1.591  55.058  21.196  1.00  0.00     0.037 A 
HETATM   23  C16 UNL     1       1.205  54.901  19.883  1.00  0.00     0.003 A 
HETATM   24  C17 UNL     1       1.922  55.514  18.887  1.00  0.00     0.000 A 
HETATM   25  C18 UNL     1       3.018  56.279  19.201  1.00  0.00     0.003 A 
HETATM   26  C19 UNL     1       3.377  56.417  20.516  1.00  0.00     0.037 A 
ENDBRANCH  20  21
ENDBRANCH  19  20
ENDBRANCH   1  19
BRANCH   1  27
HETATM   27  C20 UNL     1       4.981  58.102  24.985  1.00  0.00    -0.020 A 
HETATM   28  C21 UNL     1       5.952  57.124  25.121  1.00  0.00     0.010 A 
HETATM   29  C22 UNL     1       6.922  57.166  26.098  1.00  0.00     0.001 A 
HETATM   30  C23 UNL     1       6.944  58.221  26.990  1.00  0.00     0.000 A 
HETATM   31  C24 UNL     1       5.995  59.204  26.880  1.00  0.00     0.001 A 
HETATM   32  C25 UNL     1       5.016  59.143  25.880  1.00  0.00     0.010 A 
ENDBRANCH   1  27
TORSDOF 10
ENDMDL
MODEL 3
REMARK VINA RESULT: -8.151660549      1.323      2.087
REMARK  10 active torsions:
REMARK  status: ('A' for Active; 'I' for Inactive)
REMARK    1  A    between atoms: O1_1  and  C1_3 
REMARK    2  A    between atoms: C1_3  and  C2_4 
REMARK    3  A    between atoms: C2_4  and  C3_5 
REMARK    4  A    between atoms: N1_13  and  C11_14 
REMARK    5  A    between atoms: C11_14  and  C12_15 
REMARK    6  A    between atoms: C12_15  and  O2_16 
REMARK    7  A    between atoms: C12_15  and  C13_18 
REMARK    8  A    between atoms: C12_15  and  C20_26 
REMARK    9  A    between atoms: C13_18  and  O3_19 
REMARK   10  A    between atoms: O3_19  and  C14_20 
ROOT
HETATM    1  C12 UNL     1       5.070  60.187  21.602  1.00  0.00     0.133 C 
ENDROOT
BRANCH   1   2
HETATM    2  C11 UNL     1       5.148  58.737  21.312  1.00  0.00     0.317 C 
BRANCH   2   3
HETATM    3  N1  UNL     1       3.991  57.951  21.336  1.00  0.00     0.094 N 
HETATM    4  C10 UNL     1       3.454  57.882  19.980  1.00  0.00     0.275 C 
HETATM    5  C9  UNL     1       3.923  56.494  19.544  1.00  0.00     0.070 C 
HETATM    6  C1  UNL     1       3.663  55.679  20.753  1.00  0.00     0.089 C 
HETATM    7  C26 UNL     1       3.972  56.663  21.882  1.00  0.00     0.310 C 
BRANCH   6   8
HETATM    8  O1  UNL     1       4.521  54.569  20.856  1.00  0.00    -0.388 OA
ATOM      9  H1  UNL     1       4.431  54.183  21.719  1.00  0.00     0.210 HD
ENDBRANCH   6   8
BRANCH   6  10
HETATM   10  C2  UNL     1       2.236  55.217  20.884  1.00  0.00     0.078 C 
BRANCH  10  11
HETATM   11  C3  UNL     1       2.011  54.213  21.929  1.00  0.00    -0.055 A 
HETATM   12  C4  UNL     1       1.731  54.551  23.246  1.00  0.00     0.007 A 
HETATM   13  C5  UNL     1       1.519  53.607  24.222  1.00  0.00     0.001 A 
HETATM   14  C6  UNL     1       1.586  52.256  23.874  1.00  0.00     0.000 A 
HETATM   15  C7  UNL     1       1.862  51.880  22.576  1.00  0.00     0.001 A 
HETATM   16  C8  UNL     1       2.067  52.861  21.631  1.00  0.00     0.007 A 
ENDBRANCH  10  11
ENDBRANCH   6  10
ENDBRANCH   2   3
ENDBRANCH   1   2
BRANCH   1  17
HETATM   17  O2  UNL     1       3.821  60.712  21.277  1.00  0.00    -0.381 OA
ATOM     18  H2  UNL     1       3.839  61.178  20.448  1.00  0.00     0.211 HD
ENDBRANCH   1  17
BRANCH   1  19
HETATM   19  C13 UNL     1       5.354  60.429  23.061  1.00  0.00     0.220 C 
BRANCH  19  20
HETATM   20  O3  UNL     1       4.645  59.546  23.905  1.00  0.00    -0.348 OA
BRANCH  20  21
HETATM   21  C14 UNL     1       5.370  58.995  24.968  1.00  0.00     0.068 A 
HETATM   22  C15 UNL     1       5.896  57.725  24.884  1.00  0.00     0.037 A 
HETATM   23  C16 UNL     1       6.612  57.159  25.916  1.00  0.00     0.003 A 
HETATM   24  C17 UNL     1       6.816  57.870  27.072  1.00  0.00     0.000 A 
HETATM   25  C18 UNL     1       6.308  59.139  27.195  1.00  0.00     0.003 A 
HETATM   26  C19 UNL     1       5.600  59.676  26.151  1.00  0.00     0.037 A 
ENDBRANCH  20  21
ENDBRANCH  19  20
ENDBRANCH   1  19
BRANCH   1  27
HETATM   27  C20 UNL     1       6.084  60.972  20.804  1.00  0.00    -0.020 A 
HETATM   28  C21 UNL     1       7.088  60.304  20.126  1.00  0.00     0.010 A 
HETATM   29  C22 UNL     1       8.046  60.956  19.380  1.00  0.00     0.001 A 
HETATM   30  C23 UNL     1       8.019  62.335  19.293  1.00  0.00     0.000 A 
HETATM   31  C24 UNL     1       7.035  63.023  19.955  1.00  0.00     0.001 A 
HETATM   32  C25 UNL     1       6.071  62.342  20.709  1.00  0.00     0.010 A 
ENDBRANCH   1  27
TORSDOF 10
ENDMDL
MODEL 4
REMARK VINA RESULT: -8.104887478      2.525      7.114
REMARK  10 active torsions:
REMARK  status: ('A' for Active; 'I' for Inactive)
REMARK    1  A    between atoms: O1_1  and  C1_3 
REMARK    2  A    between atoms: C1_3  and  C2_4 
REMARK    3  A    between atoms: C2_4  and  C3_5 
REMARK    4  A    between atoms: N1_13  and  C11_14 
REMARK    5  A    between atoms: C11_14  and  C12_15 
REMARK    6  A    between atoms: C12_15  and  O2_16 
REMARK    7  A    between atoms: C12_15  and  C13_18 
REMARK    8  A    between atoms: C12_15  and  C20_26 
REMARK    9  A    between atoms: C13_18  and  O3_19 
REMARK   10  A    between atoms: O3_19  and  C14_20 
ROOT
HETATM    1  C12 UNL     1       3.758  60.047  24.562  1.00  0.00     0.133 C 
ENDROOT
BRANCH   1   2
HETATM    2  C11 UNL     1       4.013  60.755  23.287  1.00  0.00     0.317 C 
BRANCH   2   3
HETATM    3  N1  UNL     1       5.302  60.783  22.744  1.00  0.00     0.094 N 
HETATM    4  C10 UNL     1       5.260  60.155  21.427  1.00  0.00     0.275 C 
HETATM    5  C9  UNL     1       5.265  61.380  20.512  1.00  0.00     0.070 C 
HETATM    6  C1  UNL     1       6.271  62.253  21.160  1.00  0.00     0.089 C 
HETATM    7  C26 UNL     1       6.046  61.964  22.644  1.00  0.00     0.310 C 
BRANCH   6   8
HETATM    8  O1  UNL     1       6.045  63.619  20.913  1.00  0.00    -0.388 OA
ATOM      9  H1  UNL     1       6.649  63.921  20.244  1.00  0.00     0.210 HD
ENDBRANCH   6   8
BRANCH   6  10
HETATM   10  C2  UNL     1       7.695  61.913  20.806  1.00  0.00     0.078 C 
BRANCH  10  11
HETATM   11  C3  UNL     1       7.897  61.500  19.414  1.00  0.00    -0.055 A 
HETATM   12  C4  UNL     1       8.253  62.393  18.411  1.00  0.00     0.007 A 
HETATM   13  C5  UNL     1       8.445  62.003  17.108  1.00  0.00     0.001 A 
HETATM   14  C6  UNL     1       8.276  60.656  16.780  1.00  0.00     0.000 A 
HETATM   15  C7  UNL     1       7.922  59.738  17.747  1.00  0.00     0.001 A 
HETATM   16  C8  UNL     1       7.741  60.175  19.041  1.00  0.00     0.007 A 
ENDBRANCH  10  11
ENDBRANCH   6  10
ENDBRANCH   2   3
ENDBRANCH   1   2
BRANCH   1  17
HETATM   17  O2  UNL     1       2.408  60.073  24.907  1.00  0.00    -0.381 OA
ATOM     18  H2  UNL     1       2.141  60.928  25.222  1.00  0.00     0.211 HD
ENDBRANCH   1  17
BRANCH   1  19
HETATM   19  C13 UNL     1       4.223  58.620  24.452  1.00  0.00     0.220 C 
BRANCH  19  20
HETATM   20  O3  UNL     1       3.153  57.699  24.445  1.00  0.00    -0.348 OA
BRANCH  20  21
HETATM   21  C14 UNL     1       3.159  56.756  23.410  1.00  0.00     0.068 A 
HETATM   22  C15 UNL     1       4.035  56.868  22.354  1.00  0.00     0.037 A 
HETATM   23  C16 UNL     1       4.060  55.955  21.323  1.00  0.00     0.003 A 
HETATM   24  C17 UNL     1       3.190  54.893  21.334  1.00  0.00     0.000 A 
HETATM   25  C18 UNL     1       2.301  54.746  22.369  1.00  0.00     0.003 A 
HETATM   26  C19 UNL     1       2.300  55.671  23.381  1.00  0.00     0.037 A 
ENDBRANCH  20  21
ENDBRANCH  19  20
ENDBRANCH   1  19
BRANCH   1  27
HETATM   27  C20 UNL     1       4.503  60.682  25.712  1.00  0.00    -0.020 A 
HETATM   28  C21 UNL     1       5.330  59.905  26.505  1.00  0.00     0.010 A 
HETATM   29  C22 UNL     1       6.039  60.418  27.570  1.00  0.00     0.001 A 
HETATM   30  C23 UNL     1       5.933  61.761  27.875  1.00  0.00     0.000 A 
HETATM   31  C24 UNL     1       5.121  62.554  27.106  1.00  0.00     0.001 A 
HETATM   32  C25 UNL     1       4.408  62.015  26.029  1.00  0.00     0.010 A 
ENDBRANCH   1  27
TORSDOF 10
ENDMDL
MODEL 5
REMARK VINA RESULT: -8.092792447      2.032      7.658
REMARK  10 active torsions:
REMARK  status: ('A' for Active; 'I' for Inactive)
REMARK    1  A    between atoms: O1_1  and  C1_3 
REMARK    2  A    between atoms: C1_3  and  C2_4 
REMARK    3  A    between atoms: C2_4  and  C3_5 
REMARK    4  A    between atoms: N1_13  and  C11_14 
REMARK    5  A    between atoms: C11_14  and  C12_15 
REMARK    6  A    between atoms: C12_15  and  O2_16 
REMARK    7  A    between atoms: C12_15  and  C13_18 
REMARK    8  A    between atoms: C12_15  and  C20_26 
REMARK    9  A    between atoms: C13_18  and  O3_19 
REMARK   10  A    between atoms: O3_19  and  C14_20 
ROOT
HETATM    1  C12 UNL     1       4.068  57.522  25.167  1.00  0.00     0.133 C 
ENDROOT
BRANCH   1   2
HETATM    2  C11 UNL     1       4.097  58.993  24.997  1.00  0.00     0.317 C 
BRANCH   2   3
HETATM    3  N1  UNL     1       4.132  59.552  23.715  1.00  0.00     0.094 N 
HETATM    4  C10 UNL     1       2.938  60.374  23.539  1.00  0.00     0.275 C 
HETATM    5  C9  UNL     1       3.509  61.777  23.748  1.00  0.00     0.070 C 
HETATM    6  C1  UNL     1       4.784  61.713  22.998  1.00  0.00     0.089 C 
HETATM    7  C26 UNL     1       5.234  60.272  23.243  1.00  0.00     0.310 C 
BRANCH   6   8
HETATM    8  O1  UNL     1       5.757  62.595  23.502  1.00  0.00    -0.388 OA
ATOM      9  H1  UNL     1       5.464  63.490  23.375  1.00  0.00     0.210 HD
ENDBRANCH   6   8
BRANCH   6  10
HETATM   10  C2  UNL     1       4.635  61.933  21.516  1.00  0.00     0.078 C 
BRANCH  10  11
HETATM   11  C3  UNL     1       5.863  61.732  20.741  1.00  0.00    -0.055 A 
HETATM   12  C4  UNL     1       6.392  60.474  20.486  1.00  0.00     0.007 A 
HETATM   13  C5  UNL     1       7.541  60.288  19.757  1.00  0.00     0.001 A 
HETATM   14  C6  UNL     1       8.202  61.410  19.252  1.00  0.00     0.000 A 
HETATM   15  C7  UNL     1       7.709  62.678  19.483  1.00  0.00     0.001 A 
HETATM   16  C8  UNL     1       6.553  62.815  20.219  1.00  0.00     0.007 A 
ENDBRANCH  10  11
ENDBRANCH   6  10
ENDBRANCH   2   3
ENDBRANCH   1   2
BRANCH   1  17
HETATM   17  O2  UNL     1       2.793  57.063  25.488  1.00  0.00    -0.381 OA
ATOM     18  H2  UNL     1       2.824  56.287  26.035  1.00  0.00     0.211 HD
ENDBRANCH   1  17
BRANCH   1  19
HETATM   19  C13 UNL     1       4.541  56.856  23.902  1.00  0.00     0.220 C 
BRANCH  19  20
HETATM   20  O3  UNL     1       3.511  56.150  23.243  1.00  0.00    -0.348 OA
BRANCH  20  21
HETATM   21  C14 UNL     1       3.422  56.340  21.859  1.00  0.00     0.068 A 
HETATM   22  C15 UNL     1       2.634  55.522  21.080  1.00  0.00     0.037 A 
HETATM   23  C16 UNL     1       2.530  55.686  19.717  1.00  0.00     0.003 A 
HETATM   24  C17 UNL     1       3.229  56.693  19.099  1.00  0.00     0.000 A 
HETATM   25  C18 UNL     1       4.025  57.530  19.839  1.00  0.00     0.003 A 
HETATM   26  C19 UNL     1       4.108  57.342  21.195  1.00  0.00     0.037 A 
ENDBRANCH  20  21
ENDBRANCH  19  20
ENDBRANCH   1  19
BRANCH   1  27
HETATM   27  C20 UNL     1       4.977  57.071  26.286  1.00  0.00    -0.020 A 
HETATM   28  C21 UNL     1       4.431  56.528  27.436  1.00  0.00     0.010 A 
HETATM   29  C22 UNL     1       5.200  56.097  28.495  1.00  0.00     0.001 A 
HETATM   30  C23 UNL     1       6.576  56.202  28.425  1.00  0.00     0.000 A 
HETATM   31  C24 UNL     1       7.144  56.736  27.298  1.00  0.00     0.001 A 
HETATM   32  C25 UNL     1       6.346  57.170  26.232  1.00  0.00     0.010 A 
ENDBRANCH   1  27
TORSDOF 10
ENDMDL
