MODEL 1
REMARK VINA RESULT: -8.718942990      0.000      0.000
REMARK  10 active torsions:
REMARK  status: ('A' for Active; 'I' for Inactive)
REMARK    1  A    between atoms: C2_5  and  C3_6 
REMARK    2  A    between atoms: C2_5  and  N4_17 
REMARK    3  A    between atoms: C3_6  and  C4_7 
REMARK    4  A    between atoms: C4_7  and  C5_8 
REMARK    5  A    between atoms: C5_8  and  C6_9 
REMARK    6  A    between atoms: N4_17  and  C11_19 
REMARK    7  A    between atoms: C11_19  and  C12_20 
REMARK    8  A    between atoms: C11_19  and  C17_27 
REMARK    9  A    between atoms: C20_30  and  C21_31 
REMARK   10  A    between atoms: C21_31  and  N6_32 
ROOT
HETATM    1  N1  UNL     1      16.850  -5.443 -10.709  1.00  0.00    -0.172 NA
HETATM    2  C1  UNL     1      16.424  -6.351 -10.149  1.00  0.00     0.183 C 
HETATM    3  N2  UNL     1      15.934  -7.434  -9.516  1.00  0.00    -0.283 N 
ATOM      4  H2  UNL     1      15.895  -8.251 -10.125  1.00  0.00     0.179 HD
HETATM    5  C2  UNL     1      15.511  -7.682  -8.355  1.00  0.00     0.086 C 
ENDROOT
BRANCH   5   6
HETATM    6  C3  UNL     1      15.045  -9.119  -8.113  1.00  0.00     0.077 C 
BRANCH   6   7
HETATM    7  C4  UNL     1      13.678  -9.235  -8.729  1.00  0.00     0.008 C 
BRANCH   7   8
HETATM    8  C5  UNL     1      13.267 -10.696  -8.892  1.00  0.00     0.005 C 
BRANCH   8   9
HETATM    9  C6  UNL     1      12.110 -10.870  -9.837  1.00  0.00    -0.011 C 
HETATM   10  C7  UNL     1      12.306  -9.953 -11.007  1.00  0.00     0.032 C 
HETATM   11  C8  UNL     1      11.447 -10.269 -12.187  1.00  0.00     0.232 C 
HETATM   12  N3  UNL     1      10.647 -11.474 -11.955  1.00  0.00    -0.075 N 
HETATM   13  C9  UNL     1      11.506 -12.573 -11.588  1.00  0.00     0.232 C 
ATOM     14  H32 UNL     1       9.910 -11.317 -11.266  1.00  0.00     0.277 HD
ATOM     15  H31 UNL     1      10.056 -11.700 -12.754  1.00  0.00     0.277 HD
HETATM   16  C10 UNL     1      12.111 -12.339 -10.245  1.00  0.00     0.032 C 
ENDBRANCH   8   9
ENDBRANCH   7   8
ENDBRANCH   6   7
ENDBRANCH   5   6
BRANCH   5  17
HETATM   17  N4  UNL     1      15.424  -6.826  -7.251  1.00  0.00    -0.370 N 
ATOM     18  H4  UNL     1      14.634  -6.182  -7.203  1.00  0.00     0.161 HD
BRANCH  17  19
HETATM   19  C11 UNL     1      16.374  -6.805  -6.188  1.00  0.00     0.126 C 
BRANCH  19  20
HETATM   20  C12 UNL     1      17.124  -5.532  -6.100  1.00  0.00    -0.019 A 
HETATM   21  C13 UNL     1      17.585  -5.068  -4.855  1.00  0.00     0.012 A 
HETATM   22  C14 UNL     1      18.285  -3.889  -4.813  1.00  0.00     0.018 A 
HETATM   23  C15 UNL     1      18.555  -3.143  -5.935  1.00  0.00     0.087 A 
HETATM   24  N5  UNL     1      18.122  -3.580  -7.104  1.00  0.00    -0.375 N 
HETATM   25  C16 UNL     1      17.433  -4.734  -7.169  1.00  0.00     0.096 A 
ATOM     26  H5  UNL     1      18.308  -3.046  -7.952  1.00  0.00     0.164 HD
ENDBRANCH  19  20
BRANCH  19  27
HETATM   27  C17 UNL     1      15.787  -7.235  -4.868  1.00  0.00     0.046 C 
HETATM   28  C18 UNL     1      14.322  -6.902  -4.813  1.00  0.00     0.012 C 
HETATM   29  C19 UNL     1      13.948  -7.061  -3.327  1.00  0.00     0.011 C 
HETATM   30  C20 UNL     1      13.876  -8.553  -3.097  1.00  0.00     0.044 C 
HETATM   31  C22 UNL     1      14.993  -9.268  -3.767  1.00  0.00    -0.046 A 
HETATM   32  C23 UNL     1      15.076 -10.623  -3.501  1.00  0.00     0.008 A 
HETATM   33  C27 UNL     1      15.909  -8.668  -4.604  1.00  0.00    -0.045 A 
HETATM   34  C24 UNL     1      16.058 -11.411  -4.048  1.00  0.00     0.001 A 
HETATM   35  C25 UNL     1      16.970 -10.831  -4.878  1.00  0.00     0.001 A 
HETATM   36  C26 UNL     1      16.888  -9.469  -5.147  1.00  0.00     0.008 A 
BRANCH  30  37
HETATM   37  C21 UNL     1      13.797  -8.834  -1.613  1.00  0.00     0.239 C 
BRANCH  37  38
HETATM   38  N6  UNL     1      14.733  -8.090  -0.832  1.00  0.00    -0.079 N 
ATOM     39  H63 UNL     1      15.097  -7.301  -1.365  1.00  0.00     0.274 HD
ATOM     40  H62 UNL     1      14.256  -7.587  -0.084  1.00  0.00     0.274 HD
ATOM     41  H61 UNL     1      15.497  -8.652  -0.457  1.00  0.00     0.274 HD
ENDBRANCH  37  38
ENDBRANCH  30  37
ENDBRANCH  19  27
ENDBRANCH  17  19
ENDBRANCH   5  17
TORSDOF 10
ENDMDL
MODEL 2
REMARK VINA RESULT: -8.706911035      2.304      3.741
REMARK  10 active torsions:
REMARK  status: ('A' for Active; 'I' for Inactive)
REMARK    1  A    between atoms: C2_5  and  C3_6 
REMARK    2  A    between atoms: C2_5  and  N4_17 
REMARK    3  A    between atoms: C3_6  and  C4_7 
REMARK    4  A    between atoms: C4_7  and  C5_8 
REMARK    5  A    between atoms: C5_8  and  C6_9 
REMARK    6  A    between atoms: N4_17  and  C11_19 
REMARK    7  A    between atoms: C11_19  and  C12_20 
REMARK    8  A    between atoms: C11_19  and  C17_27 
REMARK    9  A    between atoms: C20_30  and  C21_31 
REMARK   10  A    between atoms: C21_31  and  N6_32 
ROOT
HETATM    1  N1  UNL     1      16.877 -12.974  -4.507  1.00  0.00    -0.172 NA
HETATM    2  C1  UNL     1      16.325 -12.771  -5.494  1.00  0.00     0.183 C 
HETATM    3  N2  UNL     1      15.679 -12.565  -6.657  1.00  0.00    -0.283 N 
ATOM      4  H2  UNL     1      15.699 -13.387  -7.260  1.00  0.00     0.179 HD
HETATM    5  C2  UNL     1      15.057 -11.603  -7.182  1.00  0.00     0.086 C 
ENDROOT
BRANCH   5   6
HETATM    6  C3  UNL     1      14.478 -11.867  -8.573  1.00  0.00     0.077 C 
BRANCH   6   7
HETATM    7  C4  UNL     1      13.019 -12.177  -8.378  1.00  0.00     0.008 C 
BRANCH   7   8
HETATM    8  C5  UNL     1      12.138 -11.192  -9.142  1.00  0.00     0.005 C 
BRANCH   8   9
HETATM    9  C6  UNL     1      12.407 -11.202 -10.622  1.00  0.00    -0.011 C 
HETATM   10  C7  UNL     1      11.379 -12.065 -11.290  1.00  0.00     0.032 C 
HETATM   11  C8  UNL     1      11.290 -11.883 -12.769  1.00  0.00     0.232 C 
HETATM   12  N3  UNL     1      12.195 -10.828 -13.231  1.00  0.00    -0.075 N 
HETATM   13  C9  UNL     1      11.935  -9.606 -12.509  1.00  0.00     0.232 C 
ATOM     14  H32 UNL     1      13.174 -11.108 -13.169  1.00  0.00     0.277 HD
ATOM     15  H31 UNL     1      12.143 -10.694 -14.240  1.00  0.00     0.277 HD
HETATM   16  C10 UNL     1      12.330  -9.749 -11.078  1.00  0.00     0.032 C 
ENDBRANCH   8   9
ENDBRANCH   7   8
ENDBRANCH   6   7
ENDBRANCH   5   6
BRANCH   5  17
HETATM   17  N4  UNL     1      14.809 -10.328  -6.659  1.00  0.00    -0.370 N 
ATOM     18  H4  UNL     1      13.843 -10.067  -6.462  1.00  0.00     0.161 HD
BRANCH  17  19
HETATM   19  C11 UNL     1      15.832  -9.372  -6.386  1.00  0.00     0.126 C 
BRANCH  19  20
HETATM   20  C12 UNL     1      15.769  -8.182  -7.263  1.00  0.00    -0.019 A 
HETATM   21  C13 UNL     1      15.813  -6.890  -6.707  1.00  0.00     0.012 A 
HETATM   22  C14 UNL     1      15.762  -5.811  -7.551  1.00  0.00     0.018 A 
HETATM   23  C15 UNL     1      15.671  -5.937  -8.917  1.00  0.00     0.087 A 
HETATM   24  N5  UNL     1      15.630  -7.150  -9.438  1.00  0.00    -0.375 N 
HETATM   25  C16 UNL     1      15.678  -8.224  -8.629  1.00  0.00     0.096 A 
ATOM     26  H5  UNL     1      15.562  -7.272 -10.448  1.00  0.00     0.164 HD
ENDBRANCH  19  20
BRANCH  19  27
HETATM   27  C17 UNL     1      15.930  -9.022  -4.923  1.00  0.00     0.046 C 
HETATM   28  C18 UNL     1      14.823  -9.685  -4.150  1.00  0.00     0.012 C 
HETATM   29  C19 UNL     1      14.831  -8.974  -2.782  1.00  0.00     0.011 C 
HETATM   30  C20 UNL     1      16.026  -9.542  -2.052  1.00  0.00     0.044 C 
HETATM   31  C22 UNL     1      17.208  -9.670  -2.942  1.00  0.00    -0.046 A 
HETATM   32  C23 UNL     1      18.381 -10.060  -2.322  1.00  0.00     0.008 A 
HETATM   33  C27 UNL     1      17.188  -9.427  -4.300  1.00  0.00    -0.045 A 
HETATM   34  C24 UNL     1      19.553 -10.218  -3.020  1.00  0.00     0.001 A 
HETATM   35  C25 UNL     1      19.549  -9.981  -4.361  1.00  0.00     0.001 A 
HETATM   36  C26 UNL     1      18.369  -9.588  -4.987  1.00  0.00     0.008 A 
BRANCH  30  37
HETATM   37  C21 UNL     1      16.302  -8.718  -0.815  1.00  0.00     0.239 C 
BRANCH  37  38
HETATM   38  N6  UNL     1      16.206  -7.309  -1.024  1.00  0.00    -0.079 N 
ATOM     39  H63 UNL     1      17.076  -6.943  -1.411  1.00  0.00     0.274 HD
ATOM     40  H62 UNL     1      15.574  -7.103  -1.798  1.00  0.00     0.274 HD
ATOM     41  H61 UNL     1      15.935  -6.784  -0.192  1.00  0.00     0.274 HD
ENDBRANCH  37  38
ENDBRANCH  30  37
ENDBRANCH  19  27
ENDBRANCH  17  19
ENDBRANCH   5  17
TORSDOF 10
ENDMDL
MODEL 3
REMARK VINA RESULT: -8.560069624      1.675      5.350
REMARK  10 active torsions:
REMARK  status: ('A' for Active; 'I' for Inactive)
REMARK    1  A    between atoms: C2_5  and  C3_6 
REMARK    2  A    between atoms: C2_5  and  N4_17 
REMARK    3  A    between atoms: C3_6  and  C4_7 
REMARK    4  A    between atoms: C4_7  and  C5_8 
REMARK    5  A    between atoms: C5_8  and  C6_9 
REMARK    6  A    between atoms: N4_17  and  C11_19 
REMARK    7  A    between atoms: C11_19  and  C12_20 
REMARK    8  A    between atoms: C11_19  and  C17_27 
REMARK    9  A    between atoms: C20_30  and  C21_31 
REMARK   10  A    between atoms: C21_31  and  N6_32 
ROOT
HETATM    1  N1  UNL     1      16.700 -12.147  -3.699  1.00  0.00    -0.172 NA
HETATM    2  C1  UNL     1      16.462 -11.735  -4.745  1.00  0.00     0.183 C 
HETATM    3  N2  UNL     1      16.172 -11.281  -5.979  1.00  0.00    -0.283 N 
ATOM      4  H2  UNL     1      15.929 -12.035  -6.620  1.00  0.00     0.179 HD
HETATM    5  C2  UNL     1      16.127 -10.150  -6.533  1.00  0.00     0.086 C 
ENDROOT
BRANCH   5   6
HETATM    6  C3  UNL     1      15.728 -10.150  -8.010  1.00  0.00     0.077 C 
BRANCH   6   7
HETATM    7  C4  UNL     1      14.298 -10.612  -8.067  1.00  0.00     0.008 C 
BRANCH   7   8
HETATM    8  C5  UNL     1      13.427  -9.622  -8.836  1.00  0.00     0.005 C 
BRANCH   8   9
HETATM    9  C6  UNL     1      12.328 -10.297  -9.609  1.00  0.00    -0.011 C 
HETATM   10  C7  UNL     1      12.397  -9.839 -11.036  1.00  0.00     0.032 C 
HETATM   11  C8  UNL     1      11.618 -10.683 -11.991  1.00  0.00     0.232 C 
HETATM   12  N3  UNL     1      11.013 -11.832 -11.314  1.00  0.00    -0.075 N 
HETATM   13  C9  UNL     1      12.028 -12.583 -10.616  1.00  0.00     0.232 C 
ATOM     14  H32 UNL     1      10.249 -11.554 -10.696  1.00  0.00     0.277 HD
ATOM     15  H31 UNL     1      10.478 -12.416 -11.956  1.00  0.00     0.277 HD
HETATM   16  C10 UNL     1      12.566 -11.796  -9.469  1.00  0.00     0.032 C 
ENDBRANCH   8   9
ENDBRANCH   7   8
ENDBRANCH   6   7
ENDBRANCH   5   6
BRANCH   5  17
HETATM   17  N4  UNL     1      16.378  -8.889  -5.978  1.00  0.00    -0.370 N 
ATOM     18  H4  UNL     1      17.320  -8.691  -5.640  1.00  0.00     0.161 HD
BRANCH  17  19
HETATM   19  C11 UNL     1      15.393  -7.866  -5.859  1.00  0.00     0.126 C 
BRANCH  19  20
HETATM   20  C12 UNL     1      14.645  -7.919  -4.583  1.00  0.00    -0.019 A 
HETATM   21  C13 UNL     1      13.761  -6.881  -4.237  1.00  0.00     0.012 A 
HETATM   22  C14 UNL     1      13.078  -6.968  -3.052  1.00  0.00     0.018 A 
HETATM   23  C15 UNL     1      13.220  -8.028  -2.187  1.00  0.00     0.087 A 
HETATM   24  N5  UNL     1      14.050  -9.002  -2.513  1.00  0.00    -0.375 N 
HETATM   25  C16 UNL     1      14.731  -8.937  -3.671  1.00  0.00     0.096 A 
ATOM     26  H5  UNL     1      14.174  -9.799  -1.889  1.00  0.00     0.164 HD
ENDBRANCH  19  20
BRANCH  19  27
HETATM   27  C17 UNL     1      15.935  -6.493  -6.168  1.00  0.00     0.046 C 
HETATM   28  C18 UNL     1      17.217  -6.255  -5.421  1.00  0.00     0.012 C 
HETATM   29  C19 UNL     1      17.457  -4.738  -5.543  1.00  0.00     0.011 C 
HETATM   30  C20 UNL     1      17.946  -4.530  -6.957  1.00  0.00     0.044 C 
HETATM   31  C22 UNL     1      17.175  -5.343  -7.933  1.00  0.00    -0.046 A 
HETATM   32  C23 UNL     1      17.473  -5.114  -9.264  1.00  0.00     0.008 A 
HETATM   33  C27 UNL     1      16.219  -6.273  -7.585  1.00  0.00    -0.045 A 
HETATM   34  C24 UNL     1      16.838  -5.791 -10.276  1.00  0.00     0.001 A 
HETATM   35  C25 UNL     1      15.890  -6.713  -9.947  1.00  0.00     0.001 A 
HETATM   36  C26 UNL     1      15.589  -6.945  -8.608  1.00  0.00     0.008 A 
BRANCH  30  37
HETATM   37  C21 UNL     1      17.944  -3.053  -7.282  1.00  0.00     0.239 C 
BRANCH  37  38
HETATM   38  N6  UNL     1      17.981  -2.207  -6.132  1.00  0.00    -0.079 N 
ATOM     39  H63 UNL     1      17.036  -1.980  -5.824  1.00  0.00     0.274 HD
ATOM     40  H62 UNL     1      18.308  -2.724  -5.317  1.00  0.00     0.274 HD
ATOM     41  H61 UNL     1      18.530  -1.357  -6.262  1.00  0.00     0.274 HD
ENDBRANCH  37  38
ENDBRANCH  30  37
ENDBRANCH  19  27
ENDBRANCH  17  19
ENDBRANCH   5  17
TORSDOF 10
ENDMDL
MODEL 4
REMARK VINA RESULT: -8.390904265      0.677      1.142
REMARK  10 active torsions:
REMARK  status: ('A' for Active; 'I' for Inactive)
REMARK    1  A    between atoms: C2_5  and  C3_6 
REMARK    2  A    between atoms: C2_5  and  N4_17 
REMARK    3  A    between atoms: C3_6  and  C4_7 
REMARK    4  A    between atoms: C4_7  and  C5_8 
REMARK    5  A    between atoms: C5_8  and  C6_9 
REMARK    6  A    between atoms: N4_17  and  C11_19 
REMARK    7  A    between atoms: C11_19  and  C12_20 
REMARK    8  A    between atoms: C11_19  and  C17_27 
REMARK    9  A    between atoms: C20_30  and  C21_31 
REMARK   10  A    between atoms: C21_31  and  N6_32 
ROOT
HETATM    1  N1  UNL     1      16.554  -5.445 -10.748  1.00  0.00    -0.172 NA
HETATM    2  C1  UNL     1      16.373  -6.425 -10.177  1.00  0.00     0.183 C 
HETATM    3  N2  UNL     1      16.174  -7.591  -9.533  1.00  0.00    -0.283 N 
ATOM      4  H2  UNL     1      16.331  -8.397 -10.137  1.00  0.00     0.179 HD
HETATM    5  C2  UNL     1      15.840  -7.927  -8.366  1.00  0.00     0.086 C 
ENDROOT
BRANCH   5   6
HETATM    6  C3  UNL     1      15.746  -9.432  -8.110  1.00  0.00     0.077 C 
BRANCH   6   7
HETATM    7  C4  UNL     1      14.342  -9.701  -7.645  1.00  0.00     0.008 C 
BRANCH   7   8
HETATM    8  C5  UNL     1      13.339  -9.519  -8.780  1.00  0.00     0.005 C 
BRANCH   8   9
HETATM    9  C6  UNL     1      13.230 -10.735  -9.659  1.00  0.00    -0.011 C 
HETATM   10  C7  UNL     1      13.090 -11.945  -8.785  1.00  0.00     0.032 C 
HETATM   11  C8  UNL     1      12.612 -13.167  -9.497  1.00  0.00     0.232 C 
HETATM   12  N3  UNL     1      12.310 -12.879 -10.902  1.00  0.00    -0.075 N 
HETATM   13  C9  UNL     1      11.373 -11.786 -10.990  1.00  0.00     0.232 C 
ATOM     14  H32 UNL     1      13.155 -12.704 -11.447  1.00  0.00     0.277 HD
ATOM     15  H31 UNL     1      11.982 -13.707 -11.400  1.00  0.00     0.277 HD
HETATM   16  C10 UNL     1      12.008 -10.514 -10.543  1.00  0.00     0.032 C 
ENDBRANCH   8   9
ENDBRANCH   7   8
ENDBRANCH   6   7
ENDBRANCH   5   6
BRANCH   5  17
HETATM   17  N4  UNL     1      15.556  -7.110  -7.264  1.00  0.00    -0.370 N 
ATOM     18  H4  UNL     1      14.662  -6.620  -7.246  1.00  0.00     0.161 HD
BRANCH  17  19
HETATM   19  C11 UNL     1      16.446  -6.926  -6.165  1.00  0.00     0.126 C 
BRANCH  19  20
HETATM   20  C12 UNL     1      17.075  -5.586  -6.141  1.00  0.00    -0.019 A 
HETATM   21  C13 UNL     1      17.568  -5.058  -4.934  1.00  0.00     0.012 A 
HETATM   22  C14 UNL     1      18.152  -3.818  -4.951  1.00  0.00     0.018 A 
HETATM   23  C15 UNL     1      18.277  -3.069  -6.096  1.00  0.00     0.087 A 
HETATM   24  N5  UNL     1      17.813  -3.565  -7.229  1.00  0.00    -0.375 N 
HETATM   25  C16 UNL     1      17.236  -4.780  -7.236  1.00  0.00     0.096 A 
ATOM     26  H5  UNL     1      17.893  -3.030  -8.094  1.00  0.00     0.164 HD
ENDBRANCH  19  20
BRANCH  19  27
HETATM   27  C17 UNL     1      15.833  -7.314  -4.844  1.00  0.00     0.046 C 
HETATM   28  C18 UNL     1      14.356  -7.035  -4.849  1.00  0.00     0.012 C 
HETATM   29  C19 UNL     1      13.941  -7.136  -3.368  1.00  0.00     0.011 C 
HETATM   30  C20 UNL     1      13.918  -8.616  -3.067  1.00  0.00     0.044 C 
HETATM   31  C22 UNL     1      15.081  -9.320  -3.666  1.00  0.00    -0.046 A 
HETATM   32  C23 UNL     1      15.206 -10.655  -3.331  1.00  0.00     0.008 A 
HETATM   33  C27 UNL     1      16.000  -8.726  -4.505  1.00  0.00    -0.045 A 
HETATM   34  C24 UNL     1      16.233 -11.431  -3.809  1.00  0.00     0.001 A 
HETATM   35  C25 UNL     1      17.149 -10.857  -4.638  1.00  0.00     0.001 A 
HETATM   36  C26 UNL     1      17.025  -9.514  -4.978  1.00  0.00     0.008 A 
BRANCH  30  37
HETATM   37  C21 UNL     1      13.802  -8.827  -1.574  1.00  0.00     0.239 C 
BRANCH  37  38
HETATM   38  N6  UNL     1      14.762  -8.097  -0.810  1.00  0.00    -0.079 N 
ATOM     39  H63 UNL     1      15.389  -7.578  -1.423  1.00  0.00     0.274 HD
ATOM     40  H62 UNL     1      14.316  -7.319  -0.323  1.00  0.00     0.274 HD
ATOM     41  H61 UNL     1      15.293  -8.672  -0.156  1.00  0.00     0.274 HD
ENDBRANCH  37  38
ENDBRANCH  30  37
ENDBRANCH  19  27
ENDBRANCH  17  19
ENDBRANCH   5  17
TORSDOF 10
ENDMDL
MODEL 5
REMARK VINA RESULT: -8.222753890      1.927      5.817
REMARK  10 active torsions:
REMARK  status: ('A' for Active; 'I' for Inactive)
REMARK    1  A    between atoms: C2_5  and  C3_6 
REMARK    2  A    between atoms: C2_5  and  N4_17 
REMARK    3  A    between atoms: C3_6  and  C4_7 
REMARK    4  A    between atoms: C4_7  and  C5_8 
REMARK    5  A    between atoms: C5_8  and  C6_9 
REMARK    6  A    between atoms: N4_17  and  C11_19 
REMARK    7  A    between atoms: C11_19  and  C12_20 
REMARK    8  A    between atoms: C11_19  and  C17_27 
REMARK    9  A    between atoms: C20_30  and  C21_31 
REMARK   10  A    between atoms: C21_31  and  N6_32 
ROOT
HETATM    1  N1  UNL     1      13.945  -9.539  -0.863  1.00  0.00    -0.172 NA
HETATM    2  C1  UNL     1      14.321 -10.061  -1.815  1.00  0.00     0.183 C 
HETATM    3  N2  UNL     1      14.756 -10.700  -2.917  1.00  0.00    -0.283 N 
ATOM      4  H2  UNL     1      14.893 -11.698  -2.755  1.00  0.00     0.179 HD
HETATM    5  C2  UNL     1      15.036 -10.366  -4.099  1.00  0.00     0.086 C 
ENDROOT
BRANCH   5   6
HETATM    6  C3  UNL     1      15.506 -11.497  -5.015  1.00  0.00     0.077 C 
BRANCH   6   7
HETATM    7  C4  UNL     1      14.622 -11.461  -6.231  1.00  0.00     0.008 C 
BRANCH   7   8
HETATM    8  C5  UNL     1      15.443 -11.534  -7.515  1.00  0.00     0.005 C 
BRANCH   8   9
HETATM    9  C6  UNL     1      14.592 -11.761  -8.734  1.00  0.00    -0.011 C 
HETATM   10  C7  UNL     1      14.025 -13.148  -8.671  1.00  0.00     0.032 C 
HETATM   11  C8  UNL     1      12.886 -13.390  -9.605  1.00  0.00     0.232 C 
HETATM   12  N3  UNL     1      12.526 -12.171 -10.332  1.00  0.00    -0.075 N 
HETATM   13  C9  UNL     1      12.256 -11.103  -9.400  1.00  0.00     0.232 C 
ATOM     14  H32 UNL     1      13.235 -11.910 -11.018  1.00  0.00     0.277 HD
ATOM     15  H31 UNL     1      11.748 -12.324 -10.974  1.00  0.00     0.277 HD
HETATM   16  C10 UNL     1      13.508 -10.690  -8.702  1.00  0.00     0.032 C 
ENDBRANCH   8   9
ENDBRANCH   7   8
ENDBRANCH   6   7
ENDBRANCH   5   6
BRANCH   5  17
HETATM   17  N4  UNL     1      14.961  -9.101  -4.695  1.00  0.00    -0.370 N 
ATOM     18  H4  UNL     1      14.058  -8.790  -5.055  1.00  0.00     0.161 HD
BRANCH  17  19
HETATM   19  C11 UNL     1      16.075  -8.221  -4.827  1.00  0.00     0.126 C 
BRANCH  19  20
HETATM   20  C12 UNL     1      17.305  -8.734  -4.182  1.00  0.00    -0.019 A 
HETATM   21  C13 UNL     1      18.254  -9.448  -4.936  1.00  0.00     0.012 A 
HETATM   22  C14 UNL     1      19.385  -9.900  -4.306  1.00  0.00     0.018 A 
HETATM   23  C15 UNL     1      19.632  -9.684  -2.972  1.00  0.00     0.087 A 
HETATM   24  N5  UNL     1      18.740  -9.013  -2.265  1.00  0.00    -0.375 N 
HETATM   25  C16 UNL     1      17.622  -8.561  -2.862  1.00  0.00     0.096 A 
ATOM     26  H5  UNL     1      18.898  -8.839  -1.273  1.00  0.00     0.164 HD
ENDBRANCH  19  20
BRANCH  19  27
HETATM   27  C17 UNL     1      16.299  -7.770  -6.248  1.00  0.00     0.046 C 
HETATM   28  C18 UNL     1      15.030  -7.896  -7.045  1.00  0.00     0.012 C 
HETATM   29  C19 UNL     1      15.481  -7.750  -8.511  1.00  0.00     0.011 C 
HETATM   30  C20 UNL     1      15.750  -6.274  -8.694  1.00  0.00     0.044 C 
HETATM   31  C22 UNL     1      16.467  -5.694  -7.530  1.00  0.00    -0.046 A 
HETATM   32  C23 UNL     1      16.866  -4.378  -7.672  1.00  0.00     0.008 A 
HETATM   33  C27 UNL     1      16.741  -6.382  -6.366  1.00  0.00    -0.045 A 
HETATM   34  C24 UNL     1      17.541  -3.713  -6.678  1.00  0.00     0.001 A 
HETATM   35  C25 UNL     1      17.819  -4.379  -5.522  1.00  0.00     0.001 A 
HETATM   36  C26 UNL     1      17.418  -5.704  -5.377  1.00  0.00     0.008 A 
BRANCH  30  37
HETATM   37  C21 UNL     1      16.468  -6.049 -10.006  1.00  0.00     0.239 C 
BRANCH  37  38
HETATM   38  N6  UNL     1      15.678  -6.346 -11.157  1.00  0.00    -0.079 N 
ATOM     39  H63 UNL     1      15.471  -7.344 -11.203  1.00  0.00     0.274 HD
ATOM     40  H62 UNL     1      14.732  -5.980 -11.048  1.00  0.00     0.274 HD
ATOM     41  H61 UNL     1      16.088  -6.025 -12.034  1.00  0.00     0.274 HD
ENDBRANCH  37  38
ENDBRANCH  30  37
ENDBRANCH  19  27
ENDBRANCH  17  19
ENDBRANCH   5  17
TORSDOF 10
ENDMDL
