MODEL 1
REMARK VINA RESULT: -8.316523222      0.000      0.000
REMARK  10 active torsions:
REMARK  status: ('A' for Active; 'I' for Inactive)
REMARK    1  A    between atoms: C8_9  and  C9_10 
REMARK    2  A    between atoms: C9_10  and  O2_11 
REMARK    3  A    between atoms: C9_10  and  C10_13 
REMARK    4  A    between atoms: C10_13  and  O3_14 
REMARK    5  A    between atoms: C10_13  and  C11_16 
REMARK    6  A    between atoms: C11_16  and  C12_17 
REMARK    7  A    between atoms: C12_17  and  C13_18 
REMARK    8  A    between atoms: C12_17  and  C14_23 
REMARK    9  A    between atoms: C12_17  and  C20_29 
REMARK   10  A    between atoms: C13_18  and  N1_19 
ROOT
HETATM    1  C11 UNL     1      14.865  -8.143  -7.537  1.00  0.00     0.055 C 
ENDROOT
BRANCH   1   2
HETATM    2  C10 UNL     1      16.004  -7.255  -7.809  1.00  0.00     0.153 C 
BRANCH   2   3
HETATM    3  C9  UNL     1      15.493  -6.024  -8.573  1.00  0.00     0.202 C 
BRANCH   3   4
HETATM    4  C8  UNL     1      16.317  -4.813  -8.282  1.00  0.00     0.302 C 
HETATM    5  O1  UNL     1      17.459  -4.695  -9.032  1.00  0.00    -0.336 OA
HETATM    6  C7  UNL     1      17.847  -3.376  -8.989  1.00  0.00     0.154 C 
HETATM    7  C2  UNL     1      19.017  -3.113  -8.080  1.00  0.00     0.026 C 
HETATM    8  C6  UNL     1      18.212  -2.815 -10.351  1.00  0.00     0.049 C 
HETATM    9  C26 UNL     1      16.625  -2.632  -8.550  1.00  0.00     0.296 C 
HETATM   10  C1  UNL     1      18.766  -3.434  -6.651  1.00  0.00     0.014 C 
HETATM   11  C3  UNL     1      20.169  -3.966  -8.573  1.00  0.00     0.008 C 
HETATM   12  C4  UNL     1      20.610  -3.400  -9.907  1.00  0.00     0.001 C 
HETATM   13  C5  UNL     1      19.489  -3.386 -10.894  1.00  0.00     0.004 C 
HETATM   14  O4  UNL     1      15.629  -3.601  -8.500  1.00  0.00    -0.284 OA
HETATM   15  O5  UNL     1      16.571  -1.401  -8.295  1.00  0.00    -0.262 OA
ENDBRANCH   3   4
BRANCH   3  16
HETATM   16  O2  UNL     1      15.515  -6.238  -9.949  1.00  0.00    -0.388 OA
ATOM     17  H2  UNL     1      16.246  -6.813 -10.144  1.00  0.00     0.210 HD
ENDBRANCH   3  16
ENDBRANCH   2   3
BRANCH   2  18
HETATM   18  O3  UNL     1      16.661  -6.717  -6.712  1.00  0.00    -0.393 OA
ATOM     19  H3  UNL     1      16.347  -7.236  -5.980  1.00  0.00     0.210 HD
ENDBRANCH   2  18
ENDBRANCH   1   2
BRANCH   1  20
HETATM   20  C12 UNL     1      15.131  -9.581  -7.190  1.00  0.00     0.040 C 
BRANCH  20  21
HETATM   21  C13 UNL     1      16.605  -9.868  -7.579  1.00  0.00     0.248 C 
BRANCH  21  22
HETATM   22  N1  UNL     1      17.499  -9.765  -6.482  1.00  0.00    -0.078 N 
ATOM     23  H13 UNL     1      18.437  -9.525  -6.799  1.00  0.00     0.274 HD
ATOM     24  H12 UNL     1      17.294  -8.938  -5.922  1.00  0.00     0.274 HD
ATOM     25  H11 UNL     1      17.515 -10.603  -5.901  1.00  0.00     0.274 HD
ENDBRANCH  21  22
ENDBRANCH  20  21
BRANCH  20  26
HETATM   26  C14 UNL     1      14.241 -10.351  -8.106  1.00  0.00    -0.043 A 
HETATM   27  C15 UNL     1      13.325  -9.679  -8.876  1.00  0.00     0.008 A 
HETATM   28  C16 UNL     1      12.466 -10.282  -9.775  1.00  0.00     0.001 A 
HETATM   29  C17 UNL     1      12.511 -11.638  -9.928  1.00  0.00     0.000 A 
HETATM   30  C18 UNL     1      13.409 -12.354  -9.181  1.00  0.00     0.001 A 
HETATM   31  C19 UNL     1      14.268 -11.710  -8.276  1.00  0.00     0.008 A 
ENDBRANCH  20  26
BRANCH  20  32
HETATM   32  C20 UNL     1      15.047  -9.966  -5.779  1.00  0.00    -0.043 A 
HETATM   33  C21 UNL     1      14.868  -9.040  -4.768  1.00  0.00     0.008 A 
HETATM   34  C22 UNL     1      14.800  -9.348  -3.428  1.00  0.00     0.001 A 
HETATM   35  C23 UNL     1      14.910 -10.644  -3.013  1.00  0.00     0.000 A 
HETATM   36  C24 UNL     1      15.088 -11.601  -3.983  1.00  0.00     0.001 A 
HETATM   37  C25 UNL     1      15.158 -11.280  -5.341  1.00  0.00     0.008 A 
ENDBRANCH  20  32
ENDBRANCH   1  20
TORSDOF 10
ENDMDL
MODEL 2
REMARK VINA RESULT: -8.052478397      2.363      3.890
REMARK  10 active torsions:
REMARK  status: ('A' for Active; 'I' for Inactive)
REMARK    1  A    between atoms: C8_9  and  C9_10 
REMARK    2  A    between atoms: C9_10  and  O2_11 
REMARK    3  A    between atoms: C9_10  and  C10_13 
REMARK    4  A    between atoms: C10_13  and  O3_14 
REMARK    5  A    between atoms: C10_13  and  C11_16 
REMARK    6  A    between atoms: C11_16  and  C12_17 
REMARK    7  A    between atoms: C12_17  and  C13_18 
REMARK    8  A    between atoms: C12_17  and  C14_23 
REMARK    9  A    between atoms: C12_17  and  C20_29 
REMARK   10  A    between atoms: C13_18  and  N1_19 
ROOT
HETATM    1  C11 UNL     1      15.511  -6.920  -5.725  1.00  0.00     0.055 C 
ENDROOT
BRANCH   1   2
HETATM    2  C10 UNL     1      16.668  -6.242  -6.326  1.00  0.00     0.153 C 
BRANCH   2   3
HETATM    3  C9  UNL     1      16.234  -5.630  -7.666  1.00  0.00     0.202 C 
BRANCH   3   4
HETATM    4  C8  UNL     1      17.012  -4.397  -7.987  1.00  0.00     0.302 C 
HETATM    5  O1  UNL     1      18.374  -4.555  -7.986  1.00  0.00    -0.336 OA
HETATM    6  C7  UNL     1      18.912  -3.519  -8.715  1.00  0.00     0.154 C 
HETATM    7  C2  UNL     1      19.540  -2.443  -7.873  1.00  0.00     0.026 C 
HETATM    8  C6  UNL     1      19.964  -3.971  -9.711  1.00  0.00     0.049 C 
HETATM    9  C26 UNL     1      17.771  -2.993  -9.528  1.00  0.00     0.296 C 
HETATM   10  C1  UNL     1      18.595  -1.752  -6.957  1.00  0.00     0.014 C 
HETATM   11  C3  UNL     1      20.627  -3.098  -7.043  1.00  0.00     0.008 C 
HETATM   12  C4  UNL     1      21.733  -3.508  -7.994  1.00  0.00     0.001 C 
HETATM   13  C5  UNL     1      21.230  -4.435  -9.053  1.00  0.00     0.004 C 
HETATM   14  O4  UNL     1      16.723  -3.867  -9.262  1.00  0.00    -0.284 OA
HETATM   15  O5  UNL     1      17.811  -1.978 -10.271  1.00  0.00    -0.262 OA
ENDBRANCH   3   4
BRANCH   3  16
HETATM   16  O2  UNL     1      16.406  -6.531  -8.713  1.00  0.00    -0.388 OA
ATOM     17  H2  UNL     1      16.018  -7.359  -8.454  1.00  0.00     0.210 HD
ENDBRANCH   3  16
ENDBRANCH   2   3
BRANCH   2  18
HETATM   18  O3  UNL     1      17.205  -5.170  -5.628  1.00  0.00    -0.393 OA
ATOM     19  H3  UNL     1      16.567  -5.000  -4.944  1.00  0.00     0.210 HD
ENDBRANCH   2  18
ENDBRANCH   1   2
BRANCH   1  20
HETATM   20  C12 UNL     1      15.736  -8.176  -4.930  1.00  0.00     0.040 C 
BRANCH  20  21
HETATM   21  C13 UNL     1      15.402  -9.363  -5.871  1.00  0.00     0.248 C 
BRANCH  21  22
HETATM   22  N1  UNL     1      14.989  -8.948  -7.163  1.00  0.00    -0.078 N 
ATOM     23  H13 UNL     1      15.422  -9.524  -7.885  1.00  0.00     0.274 HD
ATOM     24  H12 UNL     1      14.010  -9.185  -7.325  1.00  0.00     0.274 HD
ATOM     25  H11 UNL     1      15.157  -7.958  -7.337  1.00  0.00     0.274 HD
ENDBRANCH  21  22
ENDBRANCH  20  21
BRANCH  20  26
HETATM   26  C14 UNL     1      14.705  -8.120  -3.854  1.00  0.00    -0.043 A 
HETATM   27  C15 UNL     1      13.890  -7.019  -3.759  1.00  0.00     0.008 A 
HETATM   28  C16 UNL     1      12.888  -6.867  -2.821  1.00  0.00     0.001 A 
HETATM   29  C17 UNL     1      12.670  -7.863  -1.913  1.00  0.00     0.000 A 
HETATM   30  C18 UNL     1      13.458  -8.983  -1.967  1.00  0.00     0.001 A 
HETATM   31  C19 UNL     1      14.468  -9.107  -2.934  1.00  0.00     0.008 A 
ENDBRANCH  20  26
BRANCH  20  32
HETATM   32  C20 UNL     1      17.097  -8.453  -4.467  1.00  0.00    -0.043 A 
HETATM   33  C21 UNL     1      17.866  -9.474  -4.996  1.00  0.00     0.008 A 
HETATM   34  C22 UNL     1      19.142  -9.787  -4.585  1.00  0.00     0.001 A 
HETATM   35  C23 UNL     1      19.739  -9.070  -3.588  1.00  0.00     0.000 A 
HETATM   36  C24 UNL     1      19.014  -8.044  -3.031  1.00  0.00     0.001 A 
HETATM   37  C25 UNL     1      17.719  -7.734  -3.453  1.00  0.00     0.008 A 
ENDBRANCH  20  32
ENDBRANCH   1  20
TORSDOF 10
ENDMDL
MODEL 3
REMARK VINA RESULT: -8.014391035      3.641      8.478
REMARK  10 active torsions:
REMARK  status: ('A' for Active; 'I' for Inactive)
REMARK    1  A    between atoms: C8_9  and  C9_10 
REMARK    2  A    between atoms: C9_10  and  O2_11 
REMARK    3  A    between atoms: C9_10  and  C10_13 
REMARK    4  A    between atoms: C10_13  and  O3_14 
REMARK    5  A    between atoms: C10_13  and  C11_16 
REMARK    6  A    between atoms: C11_16  and  C12_17 
REMARK    7  A    between atoms: C12_17  and  C13_18 
REMARK    8  A    between atoms: C12_17  and  C14_23 
REMARK    9  A    between atoms: C12_17  and  C20_29 
REMARK   10  A    between atoms: C13_18  and  N1_19 
ROOT
HETATM    1  C11 UNL     1      15.290  -9.511  -6.155  1.00  0.00     0.055 C 
ENDROOT
BRANCH   1   2
HETATM    2  C10 UNL     1      16.283 -10.496  -6.609  1.00  0.00     0.153 C 
BRANCH   2   3
HETATM    3  C9  UNL     1      15.884 -11.877  -6.066  1.00  0.00     0.202 C 
BRANCH   3   4
HETATM    4  C8  UNL     1      16.649 -12.225  -4.832  1.00  0.00     0.302 C 
HETATM    5  O1  UNL     1      16.003 -11.952  -3.654  1.00  0.00    -0.336 OA
HETATM    6  C7  UNL     1      16.594 -12.712  -2.671  1.00  0.00     0.154 C 
HETATM    7  C2  UNL     1      17.512 -11.936  -1.768  1.00  0.00     0.026 C 
HETATM    8  C6  UNL     1      15.592 -13.421  -1.780  1.00  0.00     0.049 C 
HETATM    9  C26 UNL     1      17.324 -13.789  -3.411  1.00  0.00     0.296 C 
HETATM   10  C1  UNL     1      18.675 -11.320  -2.459  1.00  0.00     0.014 C 
HETATM   11  C3  UNL     1      16.688 -10.834  -1.131  1.00  0.00     0.008 C 
HETATM   12  C4  UNL     1      15.713 -11.495  -0.178  1.00  0.00     0.001 C 
HETATM   13  C5  UNL     1      14.840 -12.481  -0.884  1.00  0.00     0.004 C 
HETATM   14  O4  UNL     1      16.974 -13.595  -4.742  1.00  0.00    -0.284 OA
HETATM   15  O5  UNL     1      18.077 -14.652  -2.889  1.00  0.00    -0.262 OA
ENDBRANCH   3   4
BRANCH   3  16
HETATM   16  O2  UNL     1      14.527 -11.928  -5.760  1.00  0.00    -0.388 OA
ATOM     17  H2  UNL     1      14.042 -11.683  -6.539  1.00  0.00     0.210 HD
ENDBRANCH   3  16
ENDBRANCH   2   3
BRANCH   2  18
HETATM   18  O3  UNL     1      16.395 -10.694  -7.977  1.00  0.00    -0.393 OA
ATOM     19  H3  UNL     1      16.783  -9.886  -8.294  1.00  0.00     0.210 HD
ENDBRANCH   2  18
ENDBRANCH   1   2
BRANCH   1  20
HETATM   20  C12 UNL     1      15.767  -8.259  -5.475  1.00  0.00     0.040 C 
BRANCH  20  21
HETATM   21  C13 UNL     1      17.144  -8.592  -4.842  1.00  0.00     0.248 C 
BRANCH  21  22
HETATM   22  N1  UNL     1      17.341  -7.970  -3.583  1.00  0.00    -0.078 N 
ATOM     23  H13 UNL     1      18.265  -7.541  -3.530  1.00  0.00     0.274 HD
ATOM     24  H12 UNL     1      16.764  -7.134  -3.495  1.00  0.00     0.274 HD
ATOM     25  H11 UNL     1      17.188  -8.602  -2.797  1.00  0.00     0.274 HD
ENDBRANCH  21  22
ENDBRANCH  20  21
BRANCH  20  26
HETATM   26  C14 UNL     1      14.782  -8.039  -4.376  1.00  0.00    -0.043 A 
HETATM   27  C15 UNL     1      14.557  -9.040  -3.464  1.00  0.00     0.008 A 
HETATM   28  C16 UNL     1      13.688  -8.943  -2.395  1.00  0.00     0.001 A 
HETATM   29  C17 UNL     1      12.993  -7.783  -2.208  1.00  0.00     0.000 A 
HETATM   30  C18 UNL     1      13.184  -6.754  -3.091  1.00  0.00     0.001 A 
HETATM   31  C19 UNL     1      14.075  -6.884  -4.168  1.00  0.00     0.008 A 
ENDBRANCH  20  26
BRANCH  20  32
HETATM   32  C20 UNL     1      16.028  -7.086  -6.313  1.00  0.00    -0.043 A 
HETATM   33  C21 UNL     1      15.428  -6.910  -7.546  1.00  0.00     0.008 A 
HETATM   34  C22 UNL     1      15.651  -5.837  -8.379  1.00  0.00     0.001 A 
HETATM   35  C23 UNL     1      16.516  -4.848  -8.010  1.00  0.00     0.000 A 
HETATM   36  C24 UNL     1      17.138  -4.979  -6.791  1.00  0.00     0.001 A 
HETATM   37  C25 UNL     1      16.906  -6.072  -5.952  1.00  0.00     0.008 A 
ENDBRANCH  20  32
ENDBRANCH   1  20
TORSDOF 10
ENDMDL
MODEL 4
REMARK VINA RESULT: -8.003940372      3.205      6.985
REMARK  10 active torsions:
REMARK  status: ('A' for Active; 'I' for Inactive)
REMARK    1  A    between atoms: C8_9  and  C9_10 
REMARK    2  A    between atoms: C9_10  and  O2_11 
REMARK    3  A    between atoms: C9_10  and  C10_13 
REMARK    4  A    between atoms: C10_13  and  O3_14 
REMARK    5  A    between atoms: C10_13  and  C11_16 
REMARK    6  A    between atoms: C11_16  and  C12_17 
REMARK    7  A    between atoms: C12_17  and  C13_18 
REMARK    8  A    between atoms: C12_17  and  C14_23 
REMARK    9  A    between atoms: C12_17  and  C20_29 
REMARK   10  A    between atoms: C13_18  and  N1_19 
ROOT
HETATM    1  C11 UNL     1      14.959  -9.871  -6.073  1.00  0.00     0.055 C 
ENDROOT
BRANCH   1   2
HETATM    2  C10 UNL     1      15.477 -11.036  -5.343  1.00  0.00     0.153 C 
BRANCH   2   3
HETATM    3  C9  UNL     1      15.905 -10.583  -3.939  1.00  0.00     0.202 C 
BRANCH   3   4
HETATM    4  C8  UNL     1      15.519  -9.164  -3.678  1.00  0.00     0.302 C 
HETATM    5  O1  UNL     1      14.937  -8.938  -2.457  1.00  0.00    -0.336 OA
HETATM    6  C7  UNL     1      15.059  -7.595  -2.183  1.00  0.00     0.154 C 
HETATM    7  C2  UNL     1      13.786  -6.816  -2.373  1.00  0.00     0.026 C 
HETATM    8  C6  UNL     1      15.542  -7.314  -0.772  1.00  0.00     0.049 C 
HETATM    9  C26 UNL     1      16.144  -7.116  -3.095  1.00  0.00     0.296 C 
HETATM   10  C1  UNL     1      13.263  -6.827  -3.764  1.00  0.00     0.014 C 
HETATM   11  C3  UNL     1      12.743  -7.429  -1.459  1.00  0.00     0.008 C 
HETATM   12  C4  UNL     1      13.153  -7.115  -0.035  1.00  0.00     0.001 C 
HETATM   13  C5  UNL     1      14.516  -7.643   0.273  1.00  0.00     0.004 C 
HETATM   14  O4  UNL     1      16.610  -8.270  -3.715  1.00  0.00    -0.284 OA
HETATM   15  O5  UNL     1      16.510  -5.920  -3.230  1.00  0.00    -0.262 OA
ENDBRANCH   3   4
BRANCH   3  16
HETATM   16  O2  UNL     1      15.325 -11.375  -2.953  1.00  0.00    -0.388 OA
ATOM     17  H2  UNL     1      15.902 -12.112  -2.793  1.00  0.00     0.210 HD
ENDBRANCH   3  16
ENDBRANCH   2   3
BRANCH   2  18
HETATM   18  O3  UNL     1      14.591 -12.076  -5.103  1.00  0.00    -0.393 OA
ATOM     19  H3  UNL     1      14.797 -12.713  -5.777  1.00  0.00     0.210 HD
ENDBRANCH   2  18
ENDBRANCH   1   2
BRANCH   1  20
HETATM   20  C12 UNL     1      15.130  -9.813  -7.565  1.00  0.00     0.040 C 
BRANCH  20  21
HETATM   21  C13 UNL     1      16.418 -10.611  -7.898  1.00  0.00     0.248 C 
BRANCH  21  22
HETATM   22  N1  UNL     1      17.571 -10.097  -7.250  1.00  0.00    -0.078 N 
ATOM     23  H13 UNL     1      17.924  -9.273  -7.736  1.00  0.00     0.274 HD
ATOM     24  H12 UNL     1      17.327  -9.673  -6.356  1.00  0.00     0.274 HD
ATOM     25  H11 UNL     1      18.307 -10.794  -7.134  1.00  0.00     0.274 HD
ENDBRANCH  21  22
ENDBRANCH  20  21
BRANCH  20  26
HETATM   26  C14 UNL     1      15.380  -8.370  -7.851  1.00  0.00    -0.043 A 
HETATM   27  C15 UNL     1      15.237  -7.450  -6.842  1.00  0.00     0.008 A 
HETATM   28  C16 UNL     1      15.463  -6.095  -6.983  1.00  0.00     0.001 A 
HETATM   29  C17 UNL     1      15.857  -5.609  -8.196  1.00  0.00     0.000 A 
HETATM   30  C18 UNL     1      16.014  -6.488  -9.235  1.00  0.00     0.001 A 
HETATM   31  C19 UNL     1      15.776  -7.861  -9.059  1.00  0.00     0.008 A 
ENDBRANCH  20  26
BRANCH  20  32
HETATM   32  C20 UNL     1      14.095 -10.435  -8.394  1.00  0.00    -0.043 A 
HETATM   33  C21 UNL     1      14.028 -11.803  -8.591  1.00  0.00     0.008 A 
HETATM   34  C22 UNL     1      13.087 -12.435  -9.372  1.00  0.00     0.001 A 
HETATM   35  C23 UNL     1      12.129 -11.709 -10.020  1.00  0.00     0.000 A 
HETATM   36  C24 UNL     1      12.155 -10.345  -9.854  1.00  0.00     0.001 A 
HETATM   37  C25 UNL     1      13.114  -9.711  -9.060  1.00  0.00     0.008 A 
ENDBRANCH  20  32
ENDBRANCH   1  20
TORSDOF 10
ENDMDL
MODEL 5
REMARK VINA RESULT: -7.998006763      1.659      2.444
REMARK  10 active torsions:
REMARK  status: ('A' for Active; 'I' for Inactive)
REMARK    1  A    between atoms: C8_9  and  C9_10 
REMARK    2  A    between atoms: C9_10  and  O2_11 
REMARK    3  A    between atoms: C9_10  and  C10_13 
REMARK    4  A    between atoms: C10_13  and  O3_14 
REMARK    5  A    between atoms: C10_13  and  C11_16 
REMARK    6  A    between atoms: C11_16  and  C12_17 
REMARK    7  A    between atoms: C12_17  and  C13_18 
REMARK    8  A    between atoms: C12_17  and  C14_23 
REMARK    9  A    between atoms: C12_17  and  C20_29 
REMARK   10  A    between atoms: C13_18  and  N1_19 
ROOT
HETATM    1  C11 UNL     1      15.391  -6.269  -6.182  1.00  0.00     0.055 C 
ENDROOT
BRANCH   1   2
HETATM    2  C10 UNL     1      16.389  -5.925  -7.204  1.00  0.00     0.153 C 
BRANCH   2   3
HETATM    3  C9  UNL     1      15.770  -4.901  -8.167  1.00  0.00     0.202 C 
BRANCH   3   4
HETATM    4  C8  UNL     1      16.621  -3.680  -8.294  1.00  0.00     0.302 C 
HETATM    5  O1  UNL     1      17.722  -3.822  -9.098  1.00  0.00    -0.336 OA
HETATM    6  C7  UNL     1      18.126  -2.562  -9.474  1.00  0.00     0.154 C 
HETATM    7  C2  UNL     1      19.345  -2.068  -8.743  1.00  0.00     0.026 C 
HETATM    8  C6  UNL     1      18.423  -2.447 -10.957  1.00  0.00     0.049 C 
HETATM    9  C26 UNL     1      16.937  -1.690  -9.221  1.00  0.00     0.296 C 
HETATM   10  C1  UNL     1      19.167  -1.938  -7.274  1.00  0.00     0.014 C 
HETATM   11  C3  UNL     1      20.461  -3.060  -9.010  1.00  0.00     0.008 C 
HETATM   12  C4  UNL     1      20.836  -2.932 -10.472  1.00  0.00     0.001 C 
HETATM   13  C5  UNL     1      19.664  -3.186 -11.363  1.00  0.00     0.004 C 
HETATM   14  O4  UNL     1      15.935  -2.572  -8.834  1.00  0.00    -0.284 OA
HETATM   15  O5  UNL     1      16.909  -0.438  -9.347  1.00  0.00    -0.262 OA
ENDBRANCH   3   4
BRANCH   3  16
HETATM   16  O2  UNL     1      15.601  -5.440  -9.439  1.00  0.00    -0.388 OA
ATOM     17  H2  UNL     1      14.671  -5.572  -9.580  1.00  0.00     0.210 HD
ENDBRANCH   3  16
ENDBRANCH   2   3
BRANCH   2  18
HETATM   18  O3  UNL     1      17.555  -5.312  -6.768  1.00  0.00    -0.393 OA
ATOM     19  H3  UNL     1      18.246  -5.877  -7.093  1.00  0.00     0.210 HD
ENDBRANCH   2  18
ENDBRANCH   1   2
BRANCH   1  20
HETATM   20  C12 UNL     1      15.527  -7.570  -5.441  1.00  0.00     0.040 C 
BRANCH  20  21
HETATM   21  C13 UNL     1      16.965  -7.603  -4.860  1.00  0.00     0.248 C 
BRANCH  21  22
HETATM   22  N1  UNL     1      17.234  -6.521  -3.983  1.00  0.00    -0.078 N 
ATOM     23  H13 UNL     1      16.692  -5.698  -4.244  1.00  0.00     0.274 HD
ATOM     24  H12 UNL     1      16.839  -6.695  -3.059  1.00  0.00     0.274 HD
ATOM     25  H11 UNL     1      18.227  -6.298  -3.917  1.00  0.00     0.274 HD
ENDBRANCH  21  22
ENDBRANCH  20  21
BRANCH  20  26
HETATM   26  C14 UNL     1      15.422  -8.611  -6.504  1.00  0.00    -0.043 A 
HETATM   27  C15 UNL     1      16.347  -9.625  -6.546  1.00  0.00     0.008 A 
HETATM   28  C16 UNL     1      16.338 -10.654  -7.468  1.00  0.00     0.001 A 
HETATM   29  C17 UNL     1      15.353 -10.691  -8.412  1.00  0.00     0.000 A 
HETATM   30  C18 UNL     1      14.406  -9.701  -8.411  1.00  0.00     0.001 A 
HETATM   31  C19 UNL     1      14.443  -8.668  -7.460  1.00  0.00     0.008 A 
ENDBRANCH  20  26
BRANCH  20  32
HETATM   32  C20 UNL     1      14.662  -7.785  -4.280  1.00  0.00    -0.043 A 
HETATM   33  C21 UNL     1      13.706  -6.864  -3.888  1.00  0.00     0.008 A 
HETATM   34  C22 UNL     1      12.880  -7.011  -2.797  1.00  0.00     0.001 A 
HETATM   35  C23 UNL     1      12.969  -8.123  -2.011  1.00  0.00     0.000 A 
HETATM   36  C24 UNL     1      13.904  -9.068  -2.360  1.00  0.00     0.001 A 
HETATM   37  C25 UNL     1      14.739  -8.911  -3.470  1.00  0.00     0.008 A 
ENDBRANCH  20  32
ENDBRANCH   1  20
TORSDOF 10
ENDMDL
