MODEL 1
REMARK VINA RESULT: -7.316662780      0.000      0.000
REMARK  11 active torsions:
REMARK  status: ('A' for Active; 'I' for Inactive)
REMARK    1  A    between atoms: C2_2  and  O1_4 
REMARK    2  A    between atoms: C2_2  and  C4_6 
REMARK    3  A    between atoms: C4_6  and  O2_7 
REMARK    4  A    between atoms: C4_6  and  C15_18 
REMARK    5  A    between atoms: O2_7  and  C5_8 
REMARK    6  A    between atoms: C15_18  and  O3_19 
REMARK    7  A    between atoms: C15_18  and  C16_21 
REMARK    8  A    between atoms: C16_21  and  N1_22 
REMARK    9  A    between atoms: C18_24  and  O4_25 
REMARK   10  A    between atoms: C20_28  and  C21_29 
REMARK   11  A    between atoms: C21_29  and  C22_30 
ROOT
HETATM    1  C15 UNL     1      14.850  -9.181  -8.558  1.00  0.00     0.168 C 
ENDROOT
BRANCH   1   2
HETATM    2  C4  UNL     1      14.877 -10.186  -7.433  1.00  0.00     0.192 C 
BRANCH   2   3
HETATM    3  C2  UNL     1      14.500 -11.591  -7.836  1.00  0.00     0.080 C 
HETATM    4  C1  UNL     1      13.535 -11.536  -9.019  1.00  0.00     0.048 C 
HETATM    5  C3  UNL     1      15.750 -12.295  -8.385  1.00  0.00     0.048 C 
BRANCH   3   6
HETATM    6  O1  UNL     1      13.991 -12.395  -6.874  1.00  0.00    -0.388 OA
ATOM      7  H1  UNL     1      13.805 -11.882  -6.097  1.00  0.00     0.210 HD
ENDBRANCH   3   6
ENDBRANCH   2   3
BRANCH   2   8
HETATM    8  O2  UNL     1      16.167 -10.209  -6.836  1.00  0.00    -0.340 OA
BRANCH   8   9
HETATM    9  C5  UNL     1      16.481 -10.100  -5.511  1.00  0.00     0.070 A 
HETATM   10  C6  UNL     1      17.730  -9.818  -5.034  1.00  0.00     0.037 A 
HETATM   11  C7  UNL     1      18.012  -9.714  -3.662  1.00  0.00     0.015 A 
HETATM   12  C8  UNL     1      16.979  -9.907  -2.774  1.00  0.00    -0.026 A 
HETATM   13  C9  UNL     1      17.204  -9.817  -1.416  1.00  0.00     0.012 A 
HETATM   14  C13 UNL     1      15.705 -10.195  -3.210  1.00  0.00    -0.023 A 
HETATM   15  C10 UNL     1      16.173 -10.010  -0.525  1.00  0.00     0.001 A 
HETATM   16  C11 UNL     1      14.896 -10.296  -0.955  1.00  0.00     0.001 A 
HETATM   17  C12 UNL     1      14.651 -10.392  -2.307  1.00  0.00     0.012 A 
HETATM   18  C14 UNL     1      15.466 -10.289  -4.560  1.00  0.00     0.049 A 
ENDBRANCH   8   9
ENDBRANCH   2   8
ENDBRANCH   1   2
BRANCH   1  19
HETATM   19  O3  UNL     1      13.653  -8.497  -8.556  1.00  0.00    -0.391 OA
ATOM     20  H3  UNL     1      13.218  -8.595  -9.395  1.00  0.00     0.210 HD
ENDBRANCH   1  19
BRANCH   1  21
HETATM   21  C16 UNL     1      16.082  -8.370  -8.591  1.00  0.00     0.151 C 
BRANCH  21  22
HETATM   22  N1  UNL     1      15.898  -6.978  -8.832  1.00  0.00    -0.403 N 
HETATM   23  C17 UNL     1      16.796  -6.310  -9.672  1.00  0.00     0.149 C 
HETATM   24  C18 UNL     1      16.793  -4.847  -9.216  1.00  0.00     0.137 C 
HETATM   25  C19 UNL     1      15.712  -4.759  -8.158  1.00  0.00     0.058 C 
HETATM   26  C20 UNL     1      15.612  -6.164  -7.680  1.00  0.00     0.086 C 
BRANCH  24  27
HETATM   27  O4  UNL     1      17.999  -4.476  -8.655  1.00  0.00    -0.394 OA
ATOM     28  H4  UNL     1      18.717  -4.553  -9.271  1.00  0.00     0.210 HD
ENDBRANCH  24  27
BRANCH  26  29
HETATM   29  C21 UNL     1      16.631  -6.523  -6.637  1.00  0.00     0.063 C 
BRANCH  29  30
HETATM   30  C22 UNL     1      16.034  -6.556  -5.290  1.00  0.00    -0.056 A 
HETATM   31  C23 UNL     1      14.682  -6.879  -5.172  1.00  0.00     0.007 A 
HETATM   32  C24 UNL     1      14.047  -6.954  -3.955  1.00  0.00     0.001 A 
HETATM   33  C25 UNL     1      14.756  -6.707  -2.809  1.00  0.00     0.000 A 
HETATM   34  C26 UNL     1      16.115  -6.380  -2.864  1.00  0.00     0.001 A 
HETATM   35  C27 UNL     1      16.699  -6.317  -4.113  1.00  0.00     0.007 A 
ENDBRANCH  29  30
ENDBRANCH  26  29
ENDBRANCH  21  22
ENDBRANCH   1  21
TORSDOF 11
ENDMDL
MODEL 2
REMARK VINA RESULT: -7.239518799      1.508      4.916
REMARK  11 active torsions:
REMARK  status: ('A' for Active; 'I' for Inactive)
REMARK    1  A    between atoms: C2_2  and  O1_4 
REMARK    2  A    between atoms: C2_2  and  C4_6 
REMARK    3  A    between atoms: C4_6  and  O2_7 
REMARK    4  A    between atoms: C4_6  and  C15_18 
REMARK    5  A    between atoms: O2_7  and  C5_8 
REMARK    6  A    between atoms: C15_18  and  O3_19 
REMARK    7  A    between atoms: C15_18  and  C16_21 
REMARK    8  A    between atoms: C16_21  and  N1_22 
REMARK    9  A    between atoms: C18_24  and  O4_25 
REMARK   10  A    between atoms: C20_28  and  C21_29 
REMARK   11  A    between atoms: C21_29  and  C22_30 
ROOT
HETATM    1  C15 UNL     1      15.422  -7.226  -8.820  1.00  0.00     0.168 C 
ENDROOT
BRANCH   1   2
HETATM    2  C4  UNL     1      16.220  -6.296  -7.939  1.00  0.00     0.192 C 
BRANCH   2   3
HETATM    3  C2  UNL     1      16.677  -5.027  -8.616  1.00  0.00     0.080 C 
HETATM    4  C1  UNL     1      15.726  -3.889  -8.251  1.00  0.00     0.048 C 
HETATM    5  C3  UNL     1      18.029  -4.612  -8.016  1.00  0.00     0.048 C 
BRANCH   3   6
HETATM    6  O1  UNL     1      16.842  -5.065  -9.958  1.00  0.00    -0.388 OA
ATOM      7  H1  UNL     1      17.178  -5.917 -10.212  1.00  0.00     0.210 HD
ENDBRANCH   3   6
ENDBRANCH   2   3
BRANCH   2   8
HETATM    8  O2  UNL     1      15.462  -5.955  -6.785  1.00  0.00    -0.340 OA
BRANCH   8   9
HETATM    9  C5  UNL     1      15.681  -6.342  -5.493  1.00  0.00     0.070 A 
HETATM   10  C6  UNL     1      16.838  -6.113  -4.804  1.00  0.00     0.037 A 
HETATM   11  C7  UNL     1      17.024  -6.528  -3.475  1.00  0.00     0.015 A 
HETATM   12  C8  UNL     1      15.990  -7.190  -2.855  1.00  0.00    -0.026 A 
HETATM   13  C9  UNL     1      16.121  -7.619  -1.551  1.00  0.00     0.012 A 
HETATM   14  C13 UNL     1      14.805  -7.443  -3.511  1.00  0.00    -0.023 A 
HETATM   15  C10 UNL     1      15.089  -8.281  -0.927  1.00  0.00     0.001 A 
HETATM   16  C11 UNL     1      13.902  -8.536  -1.578  1.00  0.00     0.001 A 
HETATM   17  C12 UNL     1      13.751  -8.117  -2.881  1.00  0.00     0.012 A 
HETATM   18  C14 UNL     1      14.660  -7.022  -4.811  1.00  0.00     0.049 A 
ENDBRANCH   8   9
ENDBRANCH   2   8
ENDBRANCH   1   2
BRANCH   1  19
HETATM   19  O3  UNL     1      16.203  -7.682  -9.860  1.00  0.00    -0.391 OA
ATOM     20  H3  UNL     1      15.693  -8.244 -10.431  1.00  0.00     0.210 HD
ENDBRANCH   1  19
BRANCH   1  21
HETATM   21  C16 UNL     1      14.707  -8.245  -8.026  1.00  0.00     0.151 C 
BRANCH  21  22
HETATM   22  N1  UNL     1      14.836  -9.587  -8.485  1.00  0.00    -0.403 N 
HETATM   23  C17 UNL     1      13.702 -10.252  -8.966  1.00  0.00     0.149 C 
HETATM   24  C18 UNL     1      13.955 -11.745  -8.729  1.00  0.00     0.137 C 
HETATM   25  C19 UNL     1      15.378 -11.833  -8.215  1.00  0.00     0.058 C 
HETATM   26  C20 UNL     1      15.605 -10.474  -7.653  1.00  0.00     0.086 C 
BRANCH  24  27
HETATM   27  O4  UNL     1      13.103 -12.270  -7.777  1.00  0.00    -0.394 OA
ATOM     28  H4  UNL     1      13.555 -12.473  -6.967  1.00  0.00     0.210 HD
ENDBRANCH  24  27
BRANCH  26  29
HETATM   29  C21 UNL     1      15.089 -10.303  -6.253  1.00  0.00     0.063 C 
BRANCH  29  30
HETATM   30  C22 UNL     1      16.189 -10.304  -5.272  1.00  0.00    -0.056 A 
HETATM   31  C23 UNL     1      17.389  -9.685  -5.620  1.00  0.00     0.007 A 
HETATM   32  C24 UNL     1      18.459  -9.619  -4.760  1.00  0.00     0.001 A 
HETATM   33  C25 UNL     1      18.357 -10.176  -3.513  1.00  0.00     0.000 A 
HETATM   34  C26 UNL     1      17.177 -10.809  -3.105  1.00  0.00     0.001 A 
HETATM   35  C27 UNL     1      16.136 -10.847  -4.011  1.00  0.00     0.007 A 
ENDBRANCH  29  30
ENDBRANCH  26  29
ENDBRANCH  21  22
ENDBRANCH   1  21
TORSDOF 11
ENDMDL
MODEL 3
REMARK VINA RESULT: -7.098471807      0.657      1.676
REMARK  11 active torsions:
REMARK  status: ('A' for Active; 'I' for Inactive)
REMARK    1  A    between atoms: C2_2  and  O1_4 
REMARK    2  A    between atoms: C2_2  and  C4_6 
REMARK    3  A    between atoms: C4_6  and  O2_7 
REMARK    4  A    between atoms: C4_6  and  C15_18 
REMARK    5  A    between atoms: O2_7  and  C5_8 
REMARK    6  A    between atoms: C15_18  and  O3_19 
REMARK    7  A    between atoms: C15_18  and  C16_21 
REMARK    8  A    between atoms: C16_21  and  N1_22 
REMARK    9  A    between atoms: C18_24  and  O4_25 
REMARK   10  A    between atoms: C20_28  and  C21_29 
REMARK   11  A    between atoms: C21_29  and  C22_30 
ROOT
HETATM    1  C15 UNL     1      14.851  -9.158  -8.549  1.00  0.00     0.168 C 
ENDROOT
BRANCH   1   2
HETATM    2  C4  UNL     1      14.899 -10.146  -7.410  1.00  0.00     0.192 C 
BRANCH   2   3
HETATM    3  C2  UNL     1      14.507 -11.555  -7.783  1.00  0.00     0.080 C 
HETATM    4  C1  UNL     1      13.528 -11.513  -8.955  1.00  0.00     0.048 C 
HETATM    5  C3  UNL     1      15.744 -12.277  -8.335  1.00  0.00     0.048 C 
BRANCH   3   6
HETATM    6  O1  UNL     1      14.004 -12.338  -6.801  1.00  0.00    -0.388 OA
ATOM      7  H1  UNL     1      14.691 -12.550  -6.181  1.00  0.00     0.210 HD
ENDBRANCH   3   6
ENDBRANCH   2   3
BRANCH   2   8
HETATM    8  O2  UNL     1      16.202 -10.166  -6.840  1.00  0.00    -0.340 OA
BRANCH   8   9
HETATM    9  C5  UNL     1      16.543 -10.082  -5.521  1.00  0.00     0.070 A 
HETATM   10  C6  UNL     1      15.684 -10.321  -4.486  1.00  0.00     0.037 A 
HETATM   11  C7  UNL     1      16.074 -10.224  -3.139  1.00  0.00     0.015 A 
HETATM   12  C8  UNL     1      17.375  -9.872  -2.868  1.00  0.00    -0.026 A 
HETATM   13  C9  UNL     1      17.809  -9.761  -1.563  1.00  0.00     0.012 A 
HETATM   14  C13 UNL     1      18.275  -9.619  -3.880  1.00  0.00    -0.023 A 
HETATM   15  C10 UNL     1      19.111  -9.409  -1.288  1.00  0.00     0.001 A 
HETATM   16  C11 UNL     1      20.015  -9.157  -2.296  1.00  0.00     0.001 A 
HETATM   17  C12 UNL     1      19.602  -9.261  -3.606  1.00  0.00     0.012 A 
HETATM   18  C14 UNL     1      17.858  -9.725  -5.185  1.00  0.00     0.049 A 
ENDBRANCH   8   9
ENDBRANCH   2   8
ENDBRANCH   1   2
BRANCH   1  19
HETATM   19  O3  UNL     1      13.658  -8.468  -8.531  1.00  0.00    -0.391 OA
ATOM     20  H3  UNL     1      13.404  -8.276  -7.636  1.00  0.00     0.210 HD
ENDBRANCH   1  19
BRANCH   1  21
HETATM   21  C16 UNL     1      16.086  -8.352  -8.620  1.00  0.00     0.151 C 
BRANCH  21  22
HETATM   22  N1  UNL     1      15.901  -6.962  -8.871  1.00  0.00    -0.403 N 
HETATM   23  C17 UNL     1      16.783  -6.305  -9.737  1.00  0.00     0.149 C 
HETATM   24  C18 UNL     1      16.795  -4.838  -9.296  1.00  0.00     0.137 C 
HETATM   25  C19 UNL     1      15.738  -4.736  -8.216  1.00  0.00     0.058 C 
HETATM   26  C20 UNL     1      15.643  -6.136  -7.721  1.00  0.00     0.086 C 
BRANCH  24  27
HETATM   27  O4  UNL     1      18.014  -4.467  -8.764  1.00  0.00    -0.394 OA
ATOM     28  H4  UNL     1      17.923  -4.069  -7.906  1.00  0.00     0.210 HD
ENDBRANCH  24  27
BRANCH  26  29
HETATM   29  C21 UNL     1      16.683  -6.488  -6.697  1.00  0.00     0.063 C 
BRANCH  29  30
HETATM   30  C22 UNL     1      16.106  -6.542  -5.342  1.00  0.00    -0.056 A 
HETATM   31  C23 UNL     1      14.764  -6.896  -5.206  1.00  0.00     0.007 A 
HETATM   32  C24 UNL     1      14.149  -6.993  -3.980  1.00  0.00     0.001 A 
HETATM   33  C25 UNL     1      14.868  -6.736  -2.844  1.00  0.00     0.000 A 
HETATM   34  C26 UNL     1      16.219  -6.378  -2.916  1.00  0.00     0.001 A 
HETATM   35  C27 UNL     1      16.783  -6.295  -4.173  1.00  0.00     0.007 A 
ENDBRANCH  29  30
ENDBRANCH  26  29
ENDBRANCH  21  22
ENDBRANCH   1  21
TORSDOF 11
ENDMDL
MODEL 4
REMARK VINA RESULT: -6.995400988      1.582      5.127
REMARK  11 active torsions:
REMARK  status: ('A' for Active; 'I' for Inactive)
REMARK    1  A    between atoms: C2_2  and  O1_4 
REMARK    2  A    between atoms: C2_2  and  C4_6 
REMARK    3  A    between atoms: C4_6  and  O2_7 
REMARK    4  A    between atoms: C4_6  and  C15_18 
REMARK    5  A    between atoms: O2_7  and  C5_8 
REMARK    6  A    between atoms: C15_18  and  O3_19 
REMARK    7  A    between atoms: C15_18  and  C16_21 
REMARK    8  A    between atoms: C16_21  and  N1_22 
REMARK    9  A    between atoms: C18_24  and  O4_25 
REMARK   10  A    between atoms: C20_28  and  C21_29 
REMARK   11  A    between atoms: C21_29  and  C22_30 
ROOT
HETATM    1  C15 UNL     1      15.434  -7.233  -8.830  1.00  0.00     0.168 C 
ENDROOT
BRANCH   1   2
HETATM    2  C4  UNL     1      16.222  -6.280  -7.965  1.00  0.00     0.192 C 
BRANCH   2   3
HETATM    3  C2  UNL     1      16.674  -5.022  -8.665  1.00  0.00     0.080 C 
HETATM    4  C1  UNL     1      15.755  -3.867  -8.270  1.00  0.00     0.048 C 
HETATM    5  C3  UNL     1      18.053  -4.626  -8.117  1.00  0.00     0.048 C 
BRANCH   3   6
HETATM    6  O1  UNL     1      16.788  -5.069 -10.012  1.00  0.00    -0.388 OA
ATOM      7  H1  UNL     1      17.530  -4.542 -10.286  1.00  0.00     0.210 HD
ENDBRANCH   3   6
ENDBRANCH   2   3
BRANCH   2   8
HETATM    8  O2  UNL     1      15.458  -5.922  -6.820  1.00  0.00    -0.340 OA
BRANCH   8   9
HETATM    9  C5  UNL     1      15.624  -6.349  -5.533  1.00  0.00     0.070 A 
HETATM   10  C6  UNL     1      14.631  -6.889  -4.766  1.00  0.00     0.037 A 
HETATM   11  C7  UNL     1      14.841  -7.317  -3.445  1.00  0.00     0.015 A 
HETATM   12  C8  UNL     1      16.103  -7.180  -2.915  1.00  0.00    -0.026 A 
HETATM   13  C9  UNL     1      16.362  -7.585  -1.622  1.00  0.00     0.012 A 
HETATM   14  C13 UNL     1      17.134  -6.640  -3.652  1.00  0.00    -0.023 A 
HETATM   15  C10 UNL     1      17.624  -7.450  -1.089  1.00  0.00     0.001 A 
HETATM   16  C11 UNL     1      18.659  -6.912  -1.821  1.00  0.00     0.001 A 
HETATM   17  C12 UNL     1      18.421  -6.501  -3.114  1.00  0.00     0.012 A 
HETATM   18  C14 UNL     1      16.891  -6.233  -4.941  1.00  0.00     0.049 A 
ENDBRANCH   8   9
ENDBRANCH   2   8
ENDBRANCH   1   2
BRANCH   1  19
HETATM   19  O3  UNL     1      16.217  -7.691  -9.868  1.00  0.00    -0.391 OA
ATOM     20  H3  UNL     1      16.769  -6.991 -10.196  1.00  0.00     0.210 HD
ENDBRANCH   1  19
BRANCH   1  21
HETATM   21  C16 UNL     1      14.736  -8.250  -8.020  1.00  0.00     0.151 C 
BRANCH  21  22
HETATM   22  N1  UNL     1      15.029  -9.606  -8.347  1.00  0.00    -0.403 N 
HETATM   23  C17 UNL     1      13.975 -10.475  -8.650  1.00  0.00     0.149 C 
HETATM   24  C18 UNL     1      14.465 -11.879  -8.282  1.00  0.00     0.137 C 
HETATM   25  C19 UNL     1      15.920 -11.707  -7.895  1.00  0.00     0.058 C 
HETATM   26  C20 UNL     1      15.983 -10.273  -7.501  1.00  0.00     0.086 C 
BRANCH  24  27
HETATM   27  O4  UNL     1      13.776 -12.404  -7.207  1.00  0.00    -0.394 OA
ATOM     28  H4  UNL     1      12.835 -12.372  -7.337  1.00  0.00     0.210 HD
ENDBRANCH  24  27
BRANCH  26  29
HETATM   29  C21 UNL     1      15.554 -10.015  -6.085  1.00  0.00     0.063 C 
BRANCH  29  30
HETATM   30  C22 UNL     1      16.693 -10.106  -5.154  1.00  0.00    -0.056 A 
HETATM   31  C23 UNL     1      16.489 -10.709  -3.913  1.00  0.00     0.007 A 
HETATM   32  C24 UNL     1      17.499 -10.856  -2.992  1.00  0.00     0.001 A 
HETATM   33  C25 UNL     1      18.755 -10.400  -3.290  1.00  0.00     0.000 A 
HETATM   34  C26 UNL     1      19.021  -9.787  -4.520  1.00  0.00     0.001 A 
HETATM   35  C27 UNL     1      17.970  -9.665  -5.405  1.00  0.00     0.007 A 
ENDBRANCH  29  30
ENDBRANCH  26  29
ENDBRANCH  21  22
ENDBRANCH   1  21
TORSDOF 11
ENDMDL
MODEL 5
REMARK VINA RESULT: -6.592616674      1.763      5.195
REMARK  11 active torsions:
REMARK  status: ('A' for Active; 'I' for Inactive)
REMARK    1  A    between atoms: C2_2  and  O1_4 
REMARK    2  A    between atoms: C2_2  and  C4_6 
REMARK    3  A    between atoms: C4_6  and  O2_7 
REMARK    4  A    between atoms: C4_6  and  C15_18 
REMARK    5  A    between atoms: O2_7  and  C5_8 
REMARK    6  A    between atoms: C15_18  and  O3_19 
REMARK    7  A    between atoms: C15_18  and  C16_21 
REMARK    8  A    between atoms: C16_21  and  N1_22 
REMARK    9  A    between atoms: C18_24  and  O4_25 
REMARK   10  A    between atoms: C20_28  and  C21_29 
REMARK   11  A    between atoms: C21_29  and  C22_30 
ROOT
HETATM    1  C15 UNL     1      15.434  -7.308  -8.585  1.00  0.00     0.168 C 
ENDROOT
BRANCH   1   2
HETATM    2  C4  UNL     1      16.321  -6.532  -7.643  1.00  0.00     0.192 C 
BRANCH   2   3
HETATM    3  C2  UNL     1      16.551  -5.093  -8.037  1.00  0.00     0.080 C 
HETATM    4  C1  UNL     1      17.322  -4.383  -6.926  1.00  0.00     0.048 C 
HETATM    5  C3  UNL     1      17.496  -5.063  -9.247  1.00  0.00     0.048 C 
BRANCH   3   6
HETATM    6  O1  UNL     1      15.464  -4.361  -8.373  1.00  0.00    -0.388 OA
ATOM      7  H1  UNL     1      14.684  -4.767  -8.013  1.00  0.00     0.210 HD
ENDBRANCH   3   6
ENDBRANCH   2   3
BRANCH   2   8
HETATM    8  O2  UNL     1      15.779  -6.568  -6.328  1.00  0.00    -0.340 OA
BRANCH   8   9
HETATM    9  C5  UNL     1      16.289  -7.197  -5.228  1.00  0.00     0.070 A 
HETATM   10  C6  UNL     1      15.851  -6.991  -3.951  1.00  0.00     0.037 A 
HETATM   11  C7  UNL     1      16.402  -7.658  -2.843  1.00  0.00     0.015 A 
HETATM   12  C8  UNL     1      17.422  -8.552  -3.071  1.00  0.00    -0.026 A 
HETATM   13  C9  UNL     1      17.998  -9.233  -2.018  1.00  0.00     0.012 A 
HETATM   14  C13 UNL     1      17.896  -8.790  -4.342  1.00  0.00    -0.023 A 
HETATM   15  C10 UNL     1      19.019 -10.128  -2.242  1.00  0.00     0.001 A 
HETATM   16  C11 UNL     1      19.496 -10.371  -3.511  1.00  0.00     0.001 A 
HETATM   17  C12 UNL     1      18.935  -9.701  -4.576  1.00  0.00     0.012 A 
HETATM   18  C14 UNL     1      17.333  -8.119  -5.401  1.00  0.00     0.049 A 
ENDBRANCH   8   9
ENDBRANCH   2   8
ENDBRANCH   1   2
BRANCH   1  19
HETATM   19  O3  UNL     1      16.154  -7.720  -9.686  1.00  0.00    -0.391 OA
ATOM     20  H3  UNL     1      16.438  -6.967 -10.192  1.00  0.00     0.210 HD
ENDBRANCH   1  19
BRANCH   1  21
HETATM   21  C16 UNL     1      14.657  -8.340  -7.872  1.00  0.00     0.151 C 
BRANCH  21  22
HETATM   22  N1  UNL     1      14.763  -9.662  -8.393  1.00  0.00    -0.403 N 
HETATM   23  C17 UNL     1      13.656 -10.229  -9.035  1.00  0.00     0.149 C 
HETATM   24  C18 UNL     1      13.797 -11.745  -8.860  1.00  0.00     0.137 C 
HETATM   25  C19 UNL     1      15.144 -11.948  -8.198  1.00  0.00     0.058 C 
HETATM   26  C20 UNL     1      15.381 -10.637  -7.535  1.00  0.00     0.086 C 
BRANCH  24  27
HETATM   27  O4  UNL     1      12.814 -12.266  -8.043  1.00  0.00    -0.394 OA
ATOM     28  H4  UNL     1      12.353 -12.987  -8.454  1.00  0.00     0.210 HD
ENDBRANCH  24  27
BRANCH  26  29
HETATM   29  C21 UNL     1      14.718 -10.509  -6.193  1.00  0.00     0.063 C 
BRANCH  29  30
HETATM   30  C22 UNL     1      15.412 -11.315  -5.172  1.00  0.00    -0.056 A 
HETATM   31  C23 UNL     1      15.035 -11.163  -3.838  1.00  0.00     0.007 A 
HETATM   32  C24 UNL     1      15.612 -11.888  -2.823  1.00  0.00     0.001 A 
HETATM   33  C25 UNL     1      16.593 -12.797  -3.118  1.00  0.00     0.000 A 
HETATM   34  C26 UNL     1      17.012 -12.995  -4.439  1.00  0.00     0.001 A 
HETATM   35  C27 UNL     1      16.399 -12.238  -5.416  1.00  0.00     0.007 A 
ENDBRANCH  29  30
ENDBRANCH  26  29
ENDBRANCH  21  22
ENDBRANCH   1  21
TORSDOF 11
ENDMDL
