MODEL 1
REMARK VINA RESULT: -7.181896814      0.000      0.000
REMARK  8 active torsions:
REMARK  status: ('A' for Active; 'I' for Inactive)
REMARK    1  A    between atoms: C2_2  and  C3_3 
REMARK    2  A    between atoms: C3_3  and  C4_4 
REMARK    3  A    between atoms: C4_4  and  C5_5 
REMARK    4  A    between atoms: C4_4  and  N2_14 
REMARK    5  A    between atoms: C5_5  and  C6_6 
REMARK       I    between atoms: C6_6  and  N1_8 
REMARK    6  A    between atoms: N2_14  and  C11_16 
REMARK    7  A    between atoms: C11_16  and  N3_18 
REMARK    8  A    between atoms: N3_18  and  C12_20 
ROOT
HETATM    1  N2  UNL     1     -12.074   6.135  -0.799  1.00  0.00    -0.362 N 
ATOM      2  H2  UNL     1     -11.758   5.514  -1.544  1.00  0.00     0.162 HD
ENDROOT
BRANCH   1   3
HETATM    3  C4  UNL     1     -11.239   7.241  -0.529  1.00  0.00     0.092 C 
BRANCH   3   4
HETATM    4  C3  UNL     1     -10.907   8.177  -1.622  1.00  0.00     0.025 C 
BRANCH   4   5
HETATM    5  C2  UNL     1     -11.975   8.960  -2.276  1.00  0.00    -0.002 C 
HETATM    6  C1  UNL     1     -11.581  10.466  -2.229  1.00  0.00     0.005 C 
ENDBRANCH   4   5
ENDBRANCH   3   4
BRANCH   3   7
HETATM    7  C5  UNL     1      -9.863   6.759   0.013  1.00  0.00     0.128 C 
BRANCH   7   8
HETATM    8  C6  UNL     1      -9.896   6.968   1.482  1.00  0.00     0.221 C 
HETATM    9  O1  UNL     1     -11.043   7.156   1.975  1.00  0.00    -0.273 OA
HETATM   10  N1  UNL     1      -8.783   6.978   2.343  1.00  0.00    -0.348 N 
HETATM   11  C7  UNL     1      -8.992   7.173   3.761  1.00  0.00     0.152 C 
HETATM   12  C10 UNL     1      -7.404   6.823   1.925  1.00  0.00     0.152 C 
HETATM   13  C8  UNL     1      -8.033   8.230   4.268  1.00  0.00     0.187 C 
HETATM   14  O2  UNL     1      -6.728   7.988   3.842  1.00  0.00    -0.388 OA
HETATM   15  C9  UNL     1      -6.671   8.070   2.447  1.00  0.00     0.187 C 
ENDBRANCH   7   8
ENDBRANCH   3   7
ENDBRANCH   1   3
BRANCH   1  16
HETATM   16  C11 UNL     1     -13.298   5.769  -0.169  1.00  0.00     0.168 C 
HETATM   17  S1  UNL     1     -14.559   6.786   0.033  1.00  0.00    -0.041 SA
BRANCH  16  18
HETATM   18  N3  UNL     1     -13.478   4.446   0.356  1.00  0.00    -0.363 N 
ATOM     19  H3  UNL     1     -13.704   3.702  -0.303  1.00  0.00     0.162 HD
BRANCH  18  20
HETATM   20  C12 UNL     1     -13.362   4.093   1.751  1.00  0.00     0.083 C 
HETATM   21  C13 UNL     1     -14.066   2.730   1.967  1.00  0.00     0.025 C 
HETATM   22  C14 UNL     1     -15.023   2.774   3.100  1.00  0.00     0.002 C 
HETATM   23  C15 UNL     1     -14.661   1.949   4.292  1.00  0.00     0.000 C 
HETATM   24  C16 UNL     1     -13.212   1.854   4.611  1.00  0.00     0.000 C 
HETATM   25  C17 UNL     1     -12.546   3.208   4.365  1.00  0.00     0.000 C 
HETATM   26  C18 UNL     1     -11.590   3.077   3.246  1.00  0.00     0.002 C 
HETATM   27  C19 UNL     1     -11.893   3.911   2.041  1.00  0.00     0.025 C 
ENDBRANCH  18  20
ENDBRANCH  16  18
ENDBRANCH   1  16
TORSDOF 8
ENDMDL
MODEL 2
REMARK VINA RESULT: -7.161218368      2.930      4.386
REMARK  8 active torsions:
REMARK  status: ('A' for Active; 'I' for Inactive)
REMARK    1  A    between atoms: C2_2  and  C3_3 
REMARK    2  A    between atoms: C3_3  and  C4_4 
REMARK    3  A    between atoms: C4_4  and  C5_5 
REMARK    4  A    between atoms: C4_4  and  N2_14 
REMARK    5  A    between atoms: C5_5  and  C6_6 
REMARK       I    between atoms: C6_6  and  N1_8 
REMARK    6  A    between atoms: N2_14  and  C11_16 
REMARK    7  A    between atoms: C11_16  and  N3_18 
REMARK    8  A    between atoms: N3_18  and  C12_20 
ROOT
HETATM    1  N2  UNL     1      -7.759   7.146   1.338  1.00  0.00    -0.362 N 
ATOM      2  H2  UNL     1      -6.944   6.539   1.417  1.00  0.00     0.162 HD
ENDROOT
BRANCH   1   3
HETATM    3  C4  UNL     1      -7.586   8.305   0.549  1.00  0.00     0.092 C 
BRANCH   3   4
HETATM    4  C3  UNL     1      -7.554   8.177  -0.922  1.00  0.00     0.025 C 
BRANCH   4   5
HETATM    5  C2  UNL     1      -8.726   7.643  -1.645  1.00  0.00    -0.002 C 
HETATM    6  C1  UNL     1      -8.462   6.143  -1.973  1.00  0.00     0.005 C 
ENDBRANCH   4   5
ENDBRANCH   3   4
BRANCH   3   7
HETATM    7  C5  UNL     1      -6.251   9.012   0.915  1.00  0.00     0.128 C 
BRANCH   7   8
HETATM    8  C6  UNL     1      -6.294   9.256   2.379  1.00  0.00     0.221 C 
HETATM    9  O1  UNL     1      -7.118  10.135   2.755  1.00  0.00    -0.273 OA
HETATM   10  N1  UNL     1      -5.510   8.608   3.350  1.00  0.00    -0.348 N 
HETATM   11  C7  UNL     1      -5.693   8.947   4.744  1.00  0.00     0.152 C 
HETATM   12  C10 UNL     1      -4.492   7.613   3.073  1.00  0.00     0.152 C 
HETATM   13  C8  UNL     1      -4.342   9.199   5.381  1.00  0.00     0.187 C 
HETATM   14  O2  UNL     1      -3.436   8.182   5.085  1.00  0.00    -0.388 OA
HETATM   15  C9  UNL     1      -3.201   8.155   3.707  1.00  0.00     0.187 C 
ENDBRANCH   7   8
ENDBRANCH   3   7
ENDBRANCH   1   3
BRANCH   1  16
HETATM   16  C11 UNL     1      -8.922   6.713   2.038  1.00  0.00     0.168 C 
HETATM   17  S1  UNL     1      -9.372   7.282   3.499  1.00  0.00    -0.041 SA
BRANCH  16  18
HETATM   18  N3  UNL     1      -9.771   5.701   1.479  1.00  0.00    -0.363 N 
ATOM     19  H3  UNL     1      -9.325   4.927   0.988  1.00  0.00     0.162 HD
BRANCH  18  20
HETATM   20  C12 UNL     1     -11.212   5.700   1.561  1.00  0.00     0.083 C 
HETATM   21  C13 UNL     1     -11.773   6.368   0.281  1.00  0.00     0.025 C 
HETATM   22  C14 UNL     1     -12.764   7.426   0.597  1.00  0.00     0.002 C 
HETATM   23  C15 UNL     1     -14.172   7.145   0.186  1.00  0.00     0.000 C 
HETATM   24  C16 UNL     1     -14.615   5.728   0.282  1.00  0.00     0.000 C 
HETATM   25  C17 UNL     1     -14.026   5.094   1.542  1.00  0.00     0.000 C 
HETATM   26  C18 UNL     1     -13.074   4.036   1.148  1.00  0.00     0.002 C 
HETATM   27  C19 UNL     1     -11.655   4.258   1.567  1.00  0.00     0.025 C 
ENDBRANCH  18  20
ENDBRANCH  16  18
ENDBRANCH   1  16
TORSDOF 8
ENDMDL
MODEL 3
REMARK VINA RESULT: -6.983942339      2.310      3.770
REMARK  8 active torsions:
REMARK  status: ('A' for Active; 'I' for Inactive)
REMARK    1  A    between atoms: C2_2  and  C3_3 
REMARK    2  A    between atoms: C3_3  and  C4_4 
REMARK    3  A    between atoms: C4_4  and  C5_5 
REMARK    4  A    between atoms: C4_4  and  N2_14 
REMARK    5  A    between atoms: C5_5  and  C6_6 
REMARK       I    between atoms: C6_6  and  N1_8 
REMARK    6  A    between atoms: N2_14  and  C11_16 
REMARK    7  A    between atoms: C11_16  and  N3_18 
REMARK    8  A    between atoms: N3_18  and  C12_20 
ROOT
HETATM    1  N2  UNL     1      -9.401   8.272  -1.019  1.00  0.00    -0.362 N 
ATOM      2  H2  UNL     1      -9.133   9.209  -0.717  1.00  0.00     0.162 HD
ENDROOT
BRANCH   1   3
HETATM    3  C4  UNL     1      -8.382   7.296  -0.966  1.00  0.00     0.092 C 
BRANCH   3   4
HETATM    4  C3  UNL     1      -8.563   6.024  -1.694  1.00  0.00     0.025 C 
BRANCH   4   5
HETATM    5  C2  UNL     1      -8.240   5.941  -3.133  1.00  0.00    -0.002 C 
HETATM    6  C1  UNL     1      -7.773   4.489  -3.450  1.00  0.00     0.005 C 
ENDBRANCH   4   5
ENDBRANCH   3   4
BRANCH   3   7
HETATM    7  C5  UNL     1      -8.114   6.876   0.507  1.00  0.00     0.128 C 
BRANCH   7   8
HETATM    8  C6  UNL     1      -7.528   8.062   1.181  1.00  0.00     0.221 C 
HETATM    9  O1  UNL     1      -6.592   8.631   0.553  1.00  0.00    -0.273 OA
HETATM   10  N1  UNL     1      -7.918   8.583   2.427  1.00  0.00    -0.348 N 
HETATM   11  C7  UNL     1      -7.257   9.767   2.933  1.00  0.00     0.152 C 
HETATM   12  C10 UNL     1      -8.941   8.018   3.286  1.00  0.00     0.152 C 
HETATM   13  C8  UNL     1      -6.848   9.535   4.373  1.00  0.00     0.187 C 
HETATM   14  O2  UNL     1      -7.898   9.017   5.130  1.00  0.00    -0.388 OA
HETATM   15  C9  UNL     1      -8.251   7.758   4.635  1.00  0.00     0.187 C 
ENDBRANCH   7   8
ENDBRANCH   3   7
ENDBRANCH   1   3
BRANCH   1  16
HETATM   16  C11 UNL     1     -10.754   8.123  -1.439  1.00  0.00     0.168 C 
HETATM   17  S1  UNL     1     -11.255   8.299  -2.983  1.00  0.00    -0.041 SA
BRANCH  16  18
HETATM   18  N3  UNL     1     -11.782   7.820  -0.485  1.00  0.00    -0.363 N 
ATOM     19  H3  UNL     1     -12.211   8.600   0.012  1.00  0.00     0.162 HD
BRANCH  18  20
HETATM   20  C12 UNL     1     -12.252   6.490  -0.178  1.00  0.00     0.083 C 
HETATM   21  C13 UNL     1     -11.725   6.101   1.226  1.00  0.00     0.025 C 
HETATM   22  C14 UNL     1     -11.064   4.772   1.220  1.00  0.00     0.002 C 
HETATM   23  C15 UNL     1     -11.760   3.694   1.985  1.00  0.00     0.000 C 
HETATM   24  C16 UNL     1     -13.247   3.729   1.967  1.00  0.00     0.000 C 
HETATM   25  C17 UNL     1     -13.730   4.139   0.576  1.00  0.00     0.000 C 
HETATM   26  C18 UNL     1     -14.400   5.452   0.668  1.00  0.00     0.002 C 
HETATM   27  C19 UNL     1     -13.757   6.558  -0.110  1.00  0.00     0.025 C 
ENDBRANCH  18  20
ENDBRANCH  16  18
ENDBRANCH   1  16
TORSDOF 8
ENDMDL
MODEL 4
REMARK VINA RESULT: -6.971100607      1.046      1.442
REMARK  8 active torsions:
REMARK  status: ('A' for Active; 'I' for Inactive)
REMARK    1  A    between atoms: C2_2  and  C3_3 
REMARK    2  A    between atoms: C3_3  and  C4_4 
REMARK    3  A    between atoms: C4_4  and  C5_5 
REMARK    4  A    between atoms: C4_4  and  N2_14 
REMARK    5  A    between atoms: C5_5  and  C6_6 
REMARK       I    between atoms: C6_6  and  N1_8 
REMARK    6  A    between atoms: N2_14  and  C11_16 
REMARK    7  A    between atoms: C11_16  and  N3_18 
REMARK    8  A    between atoms: N3_18  and  C12_20 
ROOT
HETATM    1  N2  UNL     1     -11.564   6.312  -0.673  1.00  0.00    -0.362 N 
ATOM      2  H2  UNL     1     -11.471   5.859  -1.583  1.00  0.00     0.162 HD
ENDROOT
BRANCH   1   3
HETATM    3  C4  UNL     1     -10.482   7.130  -0.283  1.00  0.00     0.092 C 
BRANCH   3   4
HETATM    4  C3  UNL     1      -9.673   7.800  -1.322  1.00  0.00     0.025 C 
BRANCH   4   5
HETATM    5  C2  UNL     1      -8.314   7.313  -1.631  1.00  0.00    -0.002 C 
HETATM    6  C1  UNL     1      -8.394   6.397  -2.889  1.00  0.00     0.005 C 
ENDBRANCH   4   5
ENDBRANCH   3   4
BRANCH   3   7
HETATM    7  C5  UNL     1      -9.456   6.309   0.549  1.00  0.00     0.128 C 
BRANCH   7   8
HETATM    8  C6  UNL     1      -9.493   6.866   1.925  1.00  0.00     0.221 C 
HETATM    9  O1  UNL     1     -10.634   7.217   2.334  1.00  0.00    -0.273 OA
HETATM   10  N1  UNL     1      -8.389   7.031   2.781  1.00  0.00    -0.348 N 
HETATM   11  C7  UNL     1      -8.601   7.569   4.107  1.00  0.00     0.152 C 
HETATM   12  C10 UNL     1      -7.015   6.718   2.441  1.00  0.00     0.152 C 
HETATM   13  C8  UNL     1      -7.596   8.672   4.367  1.00  0.00     0.187 C 
HETATM   14  O2  UNL     1      -6.300   8.276   4.038  1.00  0.00    -0.388 OA
HETATM   15  C9  UNL     1      -6.227   8.019   2.666  1.00  0.00     0.187 C 
ENDBRANCH   7   8
ENDBRANCH   3   7
ENDBRANCH   1   3
BRANCH   1  16
HETATM   16  C11 UNL     1     -12.769   6.034   0.033  1.00  0.00     0.168 C 
HETATM   17  S1  UNL     1     -13.854   7.172   0.469  1.00  0.00    -0.041 SA
BRANCH  16  18
HETATM   18  N3  UNL     1     -13.087   4.692   0.428  1.00  0.00    -0.363 N 
ATOM     19  H3  UNL     1     -13.263   4.011  -0.310  1.00  0.00     0.162 HD
BRANCH  18  20
HETATM   20  C12 UNL     1     -13.175   4.236   1.795  1.00  0.00     0.083 C 
HETATM   21  C13 UNL     1     -13.973   2.909   1.814  1.00  0.00     0.025 C 
HETATM   22  C14 UNL     1     -15.067   2.936   2.817  1.00  0.00     0.002 C 
HETATM   23  C15 UNL     1     -14.911   2.008   3.977  1.00  0.00     0.000 C 
HETATM   24  C16 UNL     1     -13.523   1.800   4.471  1.00  0.00     0.000 C 
HETATM   25  C17 UNL     1     -12.758   3.122   4.415  1.00  0.00     0.000 C 
HETATM   26  C18 UNL     1     -11.672   3.009   3.421  1.00  0.00     0.002 C 
HETATM   27  C19 UNL     1     -11.768   3.941   2.254  1.00  0.00     0.025 C 
ENDBRANCH  18  20
ENDBRANCH  16  18
ENDBRANCH   1  16
TORSDOF 8
ENDMDL
MODEL 5
REMARK VINA RESULT: -6.885686963      2.139      2.962
REMARK  8 active torsions:
REMARK  status: ('A' for Active; 'I' for Inactive)
REMARK    1  A    between atoms: C2_2  and  C3_3 
REMARK    2  A    between atoms: C3_3  and  C4_4 
REMARK    3  A    between atoms: C4_4  and  C5_5 
REMARK    4  A    between atoms: C4_4  and  N2_14 
REMARK    5  A    between atoms: C5_5  and  C6_6 
REMARK       I    between atoms: C6_6  and  N1_8 
REMARK    6  A    between atoms: N2_14  and  C11_16 
REMARK    7  A    between atoms: C11_16  and  N3_18 
REMARK    8  A    between atoms: N3_18  and  C12_20 
ROOT
HETATM    1  N2  UNL     1      -9.508   6.058   1.974  1.00  0.00    -0.362 N 
ATOM      2  H2  UNL     1      -9.253   5.708   2.898  1.00  0.00     0.162 HD
ENDROOT
BRANCH   1   3
HETATM    3  C4  UNL     1      -8.599   6.966   1.390  1.00  0.00     0.092 C 
BRANCH   3   4
HETATM    4  C3  UNL     1      -8.185   6.770  -0.014  1.00  0.00     0.025 C 
BRANCH   4   5
HETATM    5  C2  UNL     1      -8.442   7.825  -1.016  1.00  0.00    -0.002 C 
HETATM    6  C1  UNL     1      -7.127   8.633  -1.228  1.00  0.00     0.005 C 
ENDBRANCH   4   5
ENDBRANCH   3   4
BRANCH   3   7
HETATM    7  C5  UNL     1      -7.269   6.991   2.196  1.00  0.00     0.128 C 
BRANCH   7   8
HETATM    8  C6  UNL     1      -7.445   8.006   3.264  1.00  0.00     0.221 C 
HETATM    9  O1  UNL     1      -8.630   8.159   3.671  1.00  0.00    -0.273 OA
HETATM   10  N1  UNL     1      -6.429   8.791   3.837  1.00  0.00    -0.348 N 
HETATM   11  C7  UNL     1      -6.768   9.722   4.891  1.00  0.00     0.152 C 
HETATM   12  C10 UNL     1      -5.033   8.763   3.447  1.00  0.00     0.152 C 
HETATM   13  C8  UNL     1      -6.147  11.070   4.588  1.00  0.00     0.187 C 
HETATM   14  O2  UNL     1      -4.800  10.952   4.249  1.00  0.00    -0.388 OA
HETATM   15  C9  UNL     1      -4.680  10.212   3.069  1.00  0.00     0.187 C 
ENDBRANCH   7   8
ENDBRANCH   3   7
ENDBRANCH   1   3
BRANCH   1  16
HETATM   16  C11 UNL     1     -10.736   5.565   1.445  1.00  0.00     0.168 C 
HETATM   17  S1  UNL     1     -11.728   6.432   0.482  1.00  0.00    -0.041 SA
BRANCH  16  18
HETATM   18  N3  UNL     1     -11.184   4.240   1.765  1.00  0.00    -0.363 N 
ATOM     19  H3  UNL     1     -10.768   3.463   1.252  1.00  0.00     0.162 HD
BRANCH  18  20
HETATM   20  C12 UNL     1     -12.181   3.928   2.761  1.00  0.00     0.083 C 
HETATM   21  C13 UNL     1     -13.139   2.862   2.172  1.00  0.00     0.025 C 
HETATM   22  C14 UNL     1     -14.562   3.249   2.327  1.00  0.00     0.002 C 
HETATM   23  C15 UNL     1     -15.371   2.404   3.256  1.00  0.00     0.000 C 
HETATM   24  C16 UNL     1     -14.661   1.877   4.453  1.00  0.00     0.000 C 
HETATM   25  C17 UNL     1     -13.709   2.945   4.992  1.00  0.00     0.000 C 
HETATM   26  C18 UNL     1     -12.318   2.476   4.830  1.00  0.00     0.002 C 
HETATM   27  C19 UNL     1     -11.459   3.310   3.932  1.00  0.00     0.025 C 
ENDBRANCH  18  20
ENDBRANCH  16  18
ENDBRANCH   1  16
TORSDOF 8
ENDMDL
