MODEL 1
REMARK VINA RESULT: -7.667144862      0.000      0.000
REMARK  10 active torsions:
REMARK  status: ('A' for Active; 'I' for Inactive)
REMARK    1  A    between atoms: C1_2  and  C2_3 
REMARK       I    between atoms: C1_2  and  N1_19 
REMARK    2  A    between atoms: C3_4  and  C4_5 
REMARK    3  A    between atoms: C4_5  and  O2_6 
REMARK    4  A    between atoms: C4_5  and  C5_8 
REMARK    5  A    between atoms: C4_5  and  C11_14 
REMARK    6  A    between atoms: N1_19  and  C16_21 
REMARK    7  A    between atoms: C16_21  and  C17_22 
REMARK    8  A    between atoms: C16_21  and  C18_25 
REMARK    9  A    between atoms: C17_22  and  O3_23 
REMARK   10  A    between atoms: C18_25  and  C19_26 
ROOT
HETATM    1  O1  UNL     1     -11.151   5.893   1.947  1.00  0.00    -0.258 OA
HETATM    2  C1  UNL     1     -11.403   6.031   0.743  1.00  0.00     0.296 C 
HETATM    3  N1  UNL     1     -12.648   5.632   0.228  1.00  0.00    -0.343 N 
ATOM      4  H1  UNL     1     -12.840   5.749  -0.767  1.00  0.00     0.163 HD
ENDROOT
BRANCH   2   5
HETATM    5  C2  UNL     1     -10.465   6.603  -0.218  1.00  0.00    -0.002 C 
HETATM    6  C3  UNL     1      -9.692   7.046  -1.046  1.00  0.00    -0.053 C 
BRANCH   6   7
HETATM    7  C4  UNL     1      -8.775   7.537  -2.081  1.00  0.00     0.152 C 
BRANCH   7   8
HETATM    8  O2  UNL     1      -9.545   8.611  -2.705  1.00  0.00    -0.373 OA
ATOM      9  H2  UNL     1      -9.257   9.378  -2.224  1.00  0.00     0.212 HD
ENDBRANCH   7   8
BRANCH   7  10
HETATM   10  C5  UNL     1      -7.685   8.221  -1.409  1.00  0.00    -0.011 A 
HETATM   11  C6  UNL     1      -7.450   8.295  -0.059  1.00  0.00     0.011 A 
HETATM   12  C7  UNL     1      -6.374   8.995   0.432  1.00  0.00     0.001 A 
HETATM   13  C8  UNL     1      -5.474   9.658  -0.365  1.00  0.00     0.000 A 
HETATM   14  C9  UNL     1      -5.684   9.603  -1.726  1.00  0.00     0.001 A 
HETATM   15  C10 UNL     1      -6.759   8.902  -2.204  1.00  0.00     0.011 A 
ENDBRANCH   7  10
BRANCH   7  16
HETATM   16  C11 UNL     1      -8.565   6.599  -3.169  1.00  0.00     0.037 C 
HETATM   17  C12 UNL     1      -9.667   6.132  -4.027  1.00  0.00     0.009 C 
HETATM   18  C13 UNL     1      -8.851   5.239  -5.012  1.00  0.00     0.001 C 
HETATM   19  C14 UNL     1      -7.824   4.575  -4.084  1.00  0.00     0.001 C 
HETATM   20  C15 UNL     1      -7.931   5.277  -2.750  1.00  0.00     0.009 C 
ENDBRANCH   7  16
ENDBRANCH   6   7
ENDBRANCH   2   5
BRANCH   3  21
HETATM   21  C16 UNL     1     -13.655   5.061   1.083  1.00  0.00     0.114 C 
BRANCH  21  22
HETATM   22  C17 UNL     1     -15.010   5.579   0.566  1.00  0.00     0.189 C 
BRANCH  22  23
HETATM   23  O3  UNL     1     -14.747   6.202  -0.652  1.00  0.00    -0.399 OA
ATOM     24  H3  UNL     1     -15.531   6.690  -0.874  1.00  0.00     0.209 HD
ENDBRANCH  22  23
ENDBRANCH  21  22
BRANCH  21  25
HETATM   25  C18 UNL     1     -13.683   3.567   1.088  1.00  0.00     0.084 C 
BRANCH  25  26
HETATM   26  C19 UNL     1     -13.447   3.053   2.459  1.00  0.00     0.011 A 
HETATM   27  C20 UNL     1     -14.369   2.313   3.171  1.00  0.00     0.025 A 
HETATM   28  C21 UNL     1     -14.096   1.874   4.432  1.00  0.00     0.003 A 
HETATM   29  C22 UNL     1     -12.864   2.179   5.011  1.00  0.00     0.017 A 
HETATM   30  C23 UNL     1     -11.948   2.927   4.280  1.00  0.00     0.088 A 
HETATM   31  N2  UNL     1     -12.272   3.321   3.062  1.00  0.00    -0.369 N 
ATOM     32  H2  UNL     1     -11.586   3.867   2.542  1.00  0.00     0.165 HD
ENDBRANCH  25  26
ENDBRANCH  21  25
ENDBRANCH   3  21
TORSDOF 10
ENDMDL
MODEL 2
REMARK VINA RESULT: -7.507878171      2.390      3.908
REMARK  10 active torsions:
REMARK  status: ('A' for Active; 'I' for Inactive)
REMARK    1  A    between atoms: C1_2  and  C2_3 
REMARK       I    between atoms: C1_2  and  N1_19 
REMARK    2  A    between atoms: C3_4  and  C4_5 
REMARK    3  A    between atoms: C4_5  and  O2_6 
REMARK    4  A    between atoms: C4_5  and  C5_8 
REMARK    5  A    between atoms: C4_5  and  C11_14 
REMARK    6  A    between atoms: N1_19  and  C16_21 
REMARK    7  A    between atoms: C16_21  and  C17_22 
REMARK    8  A    between atoms: C16_21  and  C18_25 
REMARK    9  A    between atoms: C17_22  and  O3_23 
REMARK   10  A    between atoms: C18_25  and  C19_26 
ROOT
HETATM    1  O1  UNL     1     -13.642   6.837   0.761  1.00  0.00    -0.258 OA
HETATM    2  C1  UNL     1     -13.378   5.970  -0.082  1.00  0.00     0.296 C 
HETATM    3  N1  UNL     1     -13.649   4.617   0.183  1.00  0.00    -0.343 N 
ATOM      4  H1  UNL     1     -13.423   3.913  -0.520  1.00  0.00     0.163 HD
ENDROOT
BRANCH   2   5
HETATM    5  C2  UNL     1     -12.786   6.263  -1.383  1.00  0.00    -0.002 C 
HETATM    6  C3  UNL     1     -12.254   6.518  -2.448  1.00  0.00    -0.053 C 
BRANCH   6   7
HETATM    7  C4  UNL     1     -11.563   6.835  -3.702  1.00  0.00     0.152 C 
BRANCH   7   8
HETATM    8  O2  UNL     1     -11.177   8.231  -3.510  1.00  0.00    -0.373 OA
ATOM      9  H2  UNL     1     -10.370   8.293  -4.007  1.00  0.00     0.212 HD
ENDBRANCH   7   8
BRANCH   7  10
HETATM   10  C5  UNL     1     -10.303   6.112  -3.701  1.00  0.00    -0.011 A 
HETATM   11  C6  UNL     1      -9.863   5.199  -4.626  1.00  0.00     0.011 A 
HETATM   12  C7  UNL     1      -8.642   4.585  -4.484  1.00  0.00     0.001 A 
HETATM   13  C8  UNL     1      -7.789   4.827  -3.435  1.00  0.00     0.000 A 
HETATM   14  C9  UNL     1      -8.204   5.740  -2.490  1.00  0.00     0.001 A 
HETATM   15  C10 UNL     1      -9.422   6.347  -2.642  1.00  0.00     0.011 A 
ENDBRANCH   7  10
BRANCH   7  16
HETATM   16  C11 UNL     1     -12.441   6.886  -4.857  1.00  0.00     0.037 C 
HETATM   17  C12 UNL     1     -11.971   7.325  -6.182  1.00  0.00     0.009 C 
HETATM   18  C13 UNL     1     -13.285   7.108  -6.994  1.00  0.00     0.001 C 
HETATM   19  C14 UNL     1     -14.366   7.567  -6.004  1.00  0.00     0.001 C 
HETATM   20  C15 UNL     1     -13.676   7.761  -4.673  1.00  0.00     0.009 C 
ENDBRANCH   7  16
ENDBRANCH   6   7
ENDBRANCH   2   5
BRANCH   3  21
HETATM   21  C16 UNL     1     -14.239   4.210   1.430  1.00  0.00     0.114 C 
BRANCH  21  22
HETATM   22  C17 UNL     1     -15.759   4.140   1.191  1.00  0.00     0.189 C 
BRANCH  22  23
HETATM   23  O3  UNL     1     -16.291   3.449   2.278  1.00  0.00    -0.399 OA
ATOM     24  H3  UNL     1     -17.169   3.789   2.402  1.00  0.00     0.209 HD
ENDBRANCH  22  23
ENDBRANCH  21  22
BRANCH  21  25
HETATM   25  C18 UNL     1     -13.771   2.880   1.927  1.00  0.00     0.084 C 
BRANCH  25  26
HETATM   26  C19 UNL     1     -13.283   2.996   3.323  1.00  0.00     0.011 A 
HETATM   27  C20 UNL     1     -11.947   3.019   3.669  1.00  0.00     0.025 A 
HETATM   28  C21 UNL     1     -11.560   3.122   4.972  1.00  0.00     0.003 A 
HETATM   29  C22 UNL     1     -12.531   3.203   5.969  1.00  0.00     0.017 A 
HETATM   30  C23 UNL     1     -13.871   3.177   5.603  1.00  0.00     0.088 A 
HETATM   31  N2  UNL     1     -14.182   3.078   4.323  1.00  0.00    -0.369 N 
ATOM     32  H2  UNL     1     -15.171   3.062   4.075  1.00  0.00     0.165 HD
ENDBRANCH  25  26
ENDBRANCH  21  25
ENDBRANCH   3  21
TORSDOF 10
ENDMDL
MODEL 3
REMARK VINA RESULT: -7.491687463      1.518      2.296
REMARK  10 active torsions:
REMARK  status: ('A' for Active; 'I' for Inactive)
REMARK    1  A    between atoms: C1_2  and  C2_3 
REMARK       I    between atoms: C1_2  and  N1_19 
REMARK    2  A    between atoms: C3_4  and  C4_5 
REMARK    3  A    between atoms: C4_5  and  O2_6 
REMARK    4  A    between atoms: C4_5  and  C5_8 
REMARK    5  A    between atoms: C4_5  and  C11_14 
REMARK    6  A    between atoms: N1_19  and  C16_21 
REMARK    7  A    between atoms: C16_21  and  C17_22 
REMARK    8  A    between atoms: C16_21  and  C18_25 
REMARK    9  A    between atoms: C17_22  and  O3_23 
REMARK   10  A    between atoms: C18_25  and  C19_26 
ROOT
HETATM    1  O1  UNL     1     -13.943   6.857   1.176  1.00  0.00    -0.258 OA
HETATM    2  C1  UNL     1     -13.097   6.045   0.777  1.00  0.00     0.296 C 
HETATM    3  N1  UNL     1     -13.238   4.677   1.061  1.00  0.00    -0.343 N 
ATOM      4  H1  UNL     1     -12.532   4.020   0.730  1.00  0.00     0.163 HD
ENDROOT
BRANCH   2   5
HETATM    5  C2  UNL     1     -11.921   6.421   0.000  1.00  0.00    -0.002 C 
HETATM    6  C3  UNL     1     -10.916   6.704  -0.625  1.00  0.00    -0.053 C 
BRANCH   6   7
HETATM    7  C4  UNL     1      -9.676   7.003  -1.351  1.00  0.00     0.152 C 
BRANCH   7   8
HETATM    8  O2  UNL     1     -10.006   8.244  -2.048  1.00  0.00    -0.373 OA
ATOM      9  H2  UNL     1     -10.501   8.723  -1.394  1.00  0.00     0.212 HD
ENDBRANCH   7   8
BRANCH   7  10
HETATM   10  C5  UNL     1      -8.680   7.397  -0.371  1.00  0.00    -0.011 A 
HETATM   11  C6  UNL     1      -7.790   8.438  -0.455  1.00  0.00     0.011 A 
HETATM   12  C7  UNL     1      -6.893   8.683   0.556  1.00  0.00     0.001 A 
HETATM   13  C8  UNL     1      -6.816   7.927   1.700  1.00  0.00     0.000 A 
HETATM   14  C9  UNL     1      -7.697   6.873   1.814  1.00  0.00     0.001 A 
HETATM   15  C10 UNL     1      -8.587   6.639   0.800  1.00  0.00     0.011 A 
ENDBRANCH   7  10
BRANCH   7  16
HETATM   16  C11 UNL     1      -9.394   6.076  -2.432  1.00  0.00     0.037 C 
HETATM   17  C12 UNL     1      -8.021   5.785  -2.879  1.00  0.00     0.009 C 
HETATM   18  C13 UNL     1      -8.338   4.716  -3.969  1.00  0.00     0.001 C 
HETATM   19  C14 UNL     1      -9.610   5.275  -4.622  1.00  0.00     0.001 C 
HETATM   20  C15 UNL     1     -10.071   6.423  -3.754  1.00  0.00     0.009 C 
ENDBRANCH   7  16
ENDBRANCH   6   7
ENDBRANCH   2   5
BRANCH   3  21
HETATM   21  C16 UNL     1     -14.363   4.188   1.814  1.00  0.00     0.114 C 
BRANCH  21  22
HETATM   22  C17 UNL     1     -15.533   4.067   0.820  1.00  0.00     0.189 C 
BRANCH  22  23
HETATM   23  O3  UNL     1     -16.663   3.785   1.584  1.00  0.00    -0.399 OA
ATOM     24  H3  UNL     1     -17.289   4.474   1.394  1.00  0.00     0.209 HD
ENDBRANCH  22  23
ENDBRANCH  21  22
BRANCH  21  25
HETATM   25  C18 UNL     1     -14.142   2.857   2.458  1.00  0.00     0.084 C 
BRANCH  25  26
HETATM   26  C19 UNL     1     -13.495   3.029   3.782  1.00  0.00     0.011 A 
HETATM   27  C20 UNL     1     -12.140   2.884   3.998  1.00  0.00     0.025 A 
HETATM   28  C21 UNL     1     -11.605   3.049   5.241  1.00  0.00     0.003 A 
HETATM   29  C22 UNL     1     -12.443   3.367   6.309  1.00  0.00     0.017 A 
HETATM   30  C23 UNL     1     -13.805   3.507   6.073  1.00  0.00     0.088 A 
HETATM   31  N2  UNL     1     -14.262   3.337   4.846  1.00  0.00    -0.369 N 
ATOM     32  H2  UNL     1     -15.264   3.445   4.694  1.00  0.00     0.165 HD
ENDBRANCH  25  26
ENDBRANCH  21  25
ENDBRANCH   3  21
TORSDOF 10
ENDMDL
MODEL 4
REMARK VINA RESULT: -7.468459962      4.035      7.719
REMARK  10 active torsions:
REMARK  status: ('A' for Active; 'I' for Inactive)
REMARK    1  A    between atoms: C1_2  and  C2_3 
REMARK       I    between atoms: C1_2  and  N1_19 
REMARK    2  A    between atoms: C3_4  and  C4_5 
REMARK    3  A    between atoms: C4_5  and  O2_6 
REMARK    4  A    between atoms: C4_5  and  C5_8 
REMARK    5  A    between atoms: C4_5  and  C11_14 
REMARK    6  A    between atoms: N1_19  and  C16_21 
REMARK    7  A    between atoms: C16_21  and  C17_22 
REMARK    8  A    between atoms: C16_21  and  C18_25 
REMARK    9  A    between atoms: C17_22  and  O3_23 
REMARK   10  A    between atoms: C18_25  and  C19_26 
ROOT
HETATM    1  O1  UNL     1      -8.938   6.817   4.146  1.00  0.00    -0.258 OA
HETATM    2  C1  UNL     1      -9.015   7.197   2.970  1.00  0.00     0.296 C 
HETATM    3  N1  UNL     1      -8.034   8.048   2.434  1.00  0.00    -0.343 N 
ATOM      4  H1  UNL     1      -8.112   8.356   1.466  1.00  0.00     0.163 HD
ENDROOT
BRANCH   2   5
HETATM    5  C2  UNL     1     -10.091   6.809   2.064  1.00  0.00    -0.002 C 
HETATM    6  C3  UNL     1     -11.000   6.528   1.305  1.00  0.00    -0.053 C 
BRANCH   6   7
HETATM    7  C4  UNL     1     -12.106   6.247   0.384  1.00  0.00     0.152 C 
BRANCH   7   8
HETATM    8  O2  UNL     1     -13.016   7.364   0.627  1.00  0.00    -0.373 OA
ATOM      9  H2  UNL     1     -13.309   7.587  -0.249  1.00  0.00     0.212 HD
ENDBRANCH   7   8
BRANCH   7  10
HETATM   10  C5  UNL     1     -11.618   6.470  -0.965  1.00  0.00    -0.011 A 
HETATM   11  C6  UNL     1     -10.332   6.752  -1.353  1.00  0.00     0.011 A 
HETATM   12  C7  UNL     1     -10.022   6.950  -2.677  1.00  0.00     0.001 A 
HETATM   13  C8  UNL     1     -10.947   6.886  -3.690  1.00  0.00     0.000 A 
HETATM   14  C9  UNL     1     -12.248   6.605  -3.331  1.00  0.00     0.001 A 
HETATM   15  C10 UNL     1     -12.545   6.408  -2.009  1.00  0.00     0.011 A 
ENDBRANCH   7  10
BRANCH   7  16
HETATM   16  C11 UNL     1     -12.895   5.086   0.754  1.00  0.00     0.037 C 
HETATM   17  C12 UNL     1     -14.214   5.205   1.397  1.00  0.00     0.009 C 
HETATM   18  C13 UNL     1     -14.584   3.692   1.483  1.00  0.00     0.001 C 
HETATM   19  C14 UNL     1     -13.241   3.043   1.845  1.00  0.00     0.001 C 
HETATM   20  C15 UNL     1     -12.189   4.118   1.697  1.00  0.00     0.009 C 
ENDBRANCH   7  16
ENDBRANCH   6   7
ENDBRANCH   2   5
BRANCH   3  21
HETATM   21  C16 UNL     1      -6.921   8.491   3.233  1.00  0.00     0.114 C 
BRANCH  21  22
HETATM   22  C17 UNL     1      -5.647   8.060   2.482  1.00  0.00     0.189 C 
BRANCH  22  23
HETATM   23  O3  UNL     1      -5.103   7.007   3.215  1.00  0.00    -0.399 OA
ATOM     24  H3  UNL     1      -5.831   6.442   3.445  1.00  0.00     0.209 HD
ENDBRANCH  22  23
ENDBRANCH  21  22
BRANCH  21  25
HETATM   25  C18 UNL     1      -6.871   9.969   3.451  1.00  0.00     0.084 C 
BRANCH  25  26
HETATM   26  C19 UNL     1      -6.467  10.267   4.847  1.00  0.00     0.011 A 
HETATM   27  C20 UNL     1      -6.860   9.517   5.937  1.00  0.00     0.025 A 
HETATM   28  C21 UNL     1      -6.461   9.845   7.198  1.00  0.00     0.003 A 
HETATM   29  C22 UNL     1      -5.642  10.959   7.388  1.00  0.00     0.017 A 
HETATM   30  C23 UNL     1      -5.257  11.703   6.279  1.00  0.00     0.088 A 
HETATM   31  N2  UNL     1      -5.677  11.332   5.083  1.00  0.00    -0.369 N 
ATOM     32  H2  UNL     1      -5.382  11.891   4.283  1.00  0.00     0.165 HD
ENDBRANCH  25  26
ENDBRANCH  21  25
ENDBRANCH   3  21
TORSDOF 10
ENDMDL
MODEL 5
REMARK VINA RESULT: -7.468179428      3.428      8.175
REMARK  10 active torsions:
REMARK  status: ('A' for Active; 'I' for Inactive)
REMARK    1  A    between atoms: C1_2  and  C2_3 
REMARK       I    between atoms: C1_2  and  N1_19 
REMARK    2  A    between atoms: C3_4  and  C4_5 
REMARK    3  A    between atoms: C4_5  and  O2_6 
REMARK    4  A    between atoms: C4_5  and  C5_8 
REMARK    5  A    between atoms: C4_5  and  C11_14 
REMARK    6  A    between atoms: N1_19  and  C16_21 
REMARK    7  A    between atoms: C16_21  and  C17_22 
REMARK    8  A    between atoms: C16_21  and  C18_25 
REMARK    9  A    between atoms: C17_22  and  O3_23 
REMARK   10  A    between atoms: C18_25  and  C19_26 
ROOT
HETATM    1  O1  UNL     1     -11.961   8.103  -3.802  1.00  0.00    -0.258 OA
HETATM    2  C1  UNL     1     -11.487   7.059  -3.334  1.00  0.00     0.296 C 
HETATM    3  N1  UNL     1     -10.967   6.071  -4.186  1.00  0.00    -0.343 N 
ATOM      4  H1  UNL     1     -10.583   5.215  -3.786  1.00  0.00     0.163 HD
ENDROOT
BRANCH   2   5
HETATM    5  C2  UNL     1     -11.425   6.771  -1.905  1.00  0.00    -0.002 C 
HETATM    6  C3  UNL     1     -11.380   6.575  -0.705  1.00  0.00    -0.053 C 
BRANCH   6   7
HETATM    7  C4  UNL     1     -11.339   6.394   0.751  1.00  0.00     0.152 C 
BRANCH   7   8
HETATM    8  O2  UNL     1     -11.999   7.603   1.241  1.00  0.00    -0.373 OA
ATOM      9  H2  UNL     1     -12.914   7.347   1.257  1.00  0.00     0.212 HD
ENDBRANCH   7   8
BRANCH   7  10
HETATM   10  C5  UNL     1     -12.262   5.323   1.084  1.00  0.00    -0.011 A 
HETATM   11  C6  UNL     1     -11.960   4.095   1.617  1.00  0.00     0.011 A 
HETATM   12  C7  UNL     1     -12.947   3.174   1.870  1.00  0.00     0.001 A 
HETATM   13  C8  UNL     1     -14.278   3.400   1.616  1.00  0.00     0.000 A 
HETATM   14  C9  UNL     1     -14.612   4.625   1.079  1.00  0.00     0.001 A 
HETATM   15  C10 UNL     1     -13.620   5.536   0.832  1.00  0.00     0.011 A 
ENDBRANCH   7  10
BRANCH   7  16
HETATM   16  C11 UNL     1     -10.005   6.488   1.315  1.00  0.00     0.037 C 
HETATM   17  C12 UNL     1      -9.745   7.132   2.613  1.00  0.00     0.009 C 
HETATM   18  C13 UNL     1      -8.210   6.873   2.713  1.00  0.00     0.001 C 
HETATM   19  C14 UNL     1      -7.742   7.089   1.267  1.00  0.00     0.001 C 
HETATM   20  C15 UNL     1      -8.991   7.195   0.422  1.00  0.00     0.009 C 
ENDBRANCH   7  16
ENDBRANCH   6   7
ENDBRANCH   2   5
BRANCH   3  21
HETATM   21  C16 UNL     1     -10.968   6.249  -5.614  1.00  0.00     0.114 C 
BRANCH  21  22
HETATM   22  C17 UNL     1      -9.641   5.660  -6.128  1.00  0.00     0.189 C 
BRANCH  22  23
HETATM   23  O3  UNL     1      -9.380   4.544  -5.336  1.00  0.00    -0.399 OA
ATOM     24  H3  UNL     1      -9.945   3.852  -5.660  1.00  0.00     0.209 HD
ENDBRANCH  22  23
ENDBRANCH  21  22
BRANCH  21  25
HETATM   25  C18 UNL     1     -12.098   5.568  -6.318  1.00  0.00     0.084 C 
BRANCH  25  26
HETATM   26  C19 UNL     1     -13.139   6.556  -6.693  1.00  0.00     0.011 A 
HETATM   27  C20 UNL     1     -13.202   7.172  -7.927  1.00  0.00     0.025 A 
HETATM   28  C21 UNL     1     -14.181   8.078  -8.211  1.00  0.00     0.003 A 
HETATM   29  C22 UNL     1     -15.130   8.386  -7.238  1.00  0.00     0.017 A 
HETATM   30  C23 UNL     1     -15.050   7.757  -6.001  1.00  0.00     0.088 A 
HETATM   31  N2  UNL     1     -14.079   6.888  -5.788  1.00  0.00    -0.369 N 
ATOM     32  H2  UNL     1     -14.039   6.437  -4.874  1.00  0.00     0.165 HD
ENDBRANCH  25  26
ENDBRANCH  21  25
ENDBRANCH   3  21
TORSDOF 10
ENDMDL
