MODEL 1
REMARK VINA RESULT: -8.176128504      0.000      0.000
REMARK  8 active torsions:
REMARK  status: ('A' for Active; 'I' for Inactive)
REMARK    1  A    between atoms: O1_1  and  C1_3 
REMARK    2  A    between atoms: C1_3  and  C2_4 
REMARK    3  A    between atoms: C2_4  and  N1_5 
REMARK    4  A    between atoms: C4_7  and  C5_8 
REMARK    5  A    between atoms: C5_8  and  O2_9 
REMARK    6  A    between atoms: C5_8  and  C6_11 
REMARK    7  A    between atoms: C9_14  and  C10_15 
REMARK    8  A    between atoms: C10_15  and  C11_16 
ROOT
HETATM    1  C6  UNL     1      -9.068   6.952   1.522  1.00  0.00    -0.029 A 
HETATM    2  C7  UNL     1      -8.929   7.276   2.849  1.00  0.00     0.010 A 
HETATM    3  C8  UNL     1      -7.920   8.153   3.268  1.00  0.00     0.008 A 
HETATM    4  C9  UNL     1      -7.042   8.718   2.373  1.00  0.00    -0.054 A 
HETATM    5  C18 UNL     1      -7.171   8.399   1.027  1.00  0.00     0.008 A 
HETATM    6  C19 UNL     1      -8.159   7.542   0.636  1.00  0.00     0.010 A 
ENDROOT
BRANCH   1   7
HETATM    7  C5  UNL     1     -10.123   6.046   1.040  1.00  0.00     0.157 C 
BRANCH   7   8
HETATM    8  C4  UNL     1     -11.277   6.738   0.355  1.00  0.00     0.048 C 
HETATM    9  C3  UNL     1     -12.579   6.373   0.953  1.00  0.00     0.280 C 
HETATM   10  N1  UNL     1     -13.257   5.370   0.175  1.00  0.00     0.096 N 
HETATM   11  C23 UNL     1     -13.591   5.872  -1.109  1.00  0.00     0.227 A 
HETATM   12  C21 UNL     1     -12.463   6.429  -1.859  1.00  0.00     0.021 A 
HETATM   13  C22 UNL     1     -13.586   7.313  -1.447  1.00  0.00     0.043 A 
HETATM   14  C20 UNL     1     -11.178   6.575  -1.130  1.00  0.00     0.016 C 
BRANCH  10  15
HETATM   15  C2  UNL     1     -14.283   4.670   0.858  1.00  0.00     0.298 C 
BRANCH  15  16
HETATM   16  C1  UNL     1     -13.841   3.501   1.684  1.00  0.00     0.194 C 
BRANCH  16  17
HETATM   17  O1  UNL     1     -14.617   3.492   2.861  1.00  0.00    -0.399 OA
ATOM     18  H1  UNL     1     -14.027   3.616   3.596  1.00  0.00     0.209 HD
ENDBRANCH  16  17
ENDBRANCH  15  16
ENDBRANCH  10  15
ENDBRANCH   7   8
BRANCH   7  19
HETATM   19  O2  UNL     1     -10.493   5.079   1.952  1.00  0.00    -0.390 OA
ATOM     20  H2  UNL     1     -10.029   5.120   2.781  1.00  0.00     0.210 HD
ENDBRANCH   7  19
ENDBRANCH   1   7
BRANCH   4  21
HETATM   21  C10 UNL     1      -5.982   9.658   2.846  1.00  0.00     0.078 C 
BRANCH  21  22
HETATM   22  C11 UNL     1      -4.933   8.889   3.527  1.00  0.00    -0.039 A 
HETATM   23  C12 UNL     1      -4.212   7.907   2.912  1.00  0.00     0.025 A 
HETATM   24  C13 UNL     1      -3.253   7.240   3.641  1.00  0.00     0.090 A 
HETATM   25  N2  UNL     1      -3.004   7.518   4.920  1.00  0.00    -0.352 N 
HETATM   26  C14 UNL     1      -3.693   8.475   5.551  1.00  0.00     0.115 A 
ATOM     27  H2  UNL     1      -2.283   6.997   5.420  1.00  0.00     0.166 HD
HETATM   28  N3  UNL     1      -3.652   8.954   6.810  1.00  0.00    -0.352 N 
HETATM   29  C17 UNL     1      -4.660   9.168   4.866  1.00  0.00     0.016 A 
HETATM   30  C15 UNL     1      -4.556   9.920   6.934  1.00  0.00     0.090 A 
ATOM     31  H3  UNL     1      -3.028   8.627   7.548  1.00  0.00     0.166 HD
HETATM   32  C16 UNL     1      -5.211  10.083   5.732  1.00  0.00     0.033 A 
ENDBRANCH  21  22
ENDBRANCH   4  21
TORSDOF 8
ENDMDL
MODEL 2
REMARK VINA RESULT: -7.903030211      2.659      9.477
REMARK  8 active torsions:
REMARK  status: ('A' for Active; 'I' for Inactive)
REMARK    1  A    between atoms: O1_1  and  C1_3 
REMARK    2  A    between atoms: C1_3  and  C2_4 
REMARK    3  A    between atoms: C2_4  and  N1_5 
REMARK    4  A    between atoms: C4_7  and  C5_8 
REMARK    5  A    between atoms: C5_8  and  O2_9 
REMARK    6  A    between atoms: C5_8  and  C6_11 
REMARK    7  A    between atoms: C9_14  and  C10_15 
REMARK    8  A    between atoms: C10_15  and  C11_16 
ROOT
HETATM    1  C6  UNL     1      -7.913   8.433   2.798  1.00  0.00    -0.029 A 
HETATM    2  C7  UNL     1      -7.646   7.995   1.524  1.00  0.00     0.010 A 
HETATM    3  C8  UNL     1      -8.425   6.991   0.936  1.00  0.00     0.008 A 
HETATM    4  C9  UNL     1      -9.477   6.413   1.607  1.00  0.00    -0.054 A 
HETATM    5  C18 UNL     1      -9.758   6.845   2.896  1.00  0.00     0.008 A 
HETATM    6  C19 UNL     1      -8.989   7.825   3.455  1.00  0.00     0.010 A 
ENDROOT
BRANCH   1   7
HETATM    7  C5  UNL     1      -7.127   9.496   3.446  1.00  0.00     0.157 C 
BRANCH   7   8
HETATM    8  C4  UNL     1      -6.128   9.003   4.465  1.00  0.00     0.048 C 
HETATM    9  C3  UNL     1      -6.103   9.852   5.675  1.00  0.00     0.280 C 
HETATM   10  N1  UNL     1      -4.999  10.775   5.651  1.00  0.00     0.096 N 
HETATM   11  C23 UNL     1      -3.764  10.081   5.685  1.00  0.00     0.227 A 
HETATM   12  C21 UNL     1      -3.605   9.064   4.643  1.00  0.00     0.021 A 
HETATM   13  C22 UNL     1      -3.639   8.658   6.074  1.00  0.00     0.043 A 
HETATM   14  C20 UNL     1      -4.800   8.755   3.820  1.00  0.00     0.016 C 
BRANCH  10  15
HETATM   15  C2  UNL     1      -5.120  11.881   6.531  1.00  0.00     0.298 C 
BRANCH  15  16
HETATM   16  C1  UNL     1      -5.149  11.554   7.993  1.00  0.00     0.194 C 
BRANCH  16  17
HETATM   17  O1  UNL     1      -6.243  12.237   8.562  1.00  0.00    -0.399 OA
ATOM     18  H1  UNL     1      -6.324  11.952   9.464  1.00  0.00     0.209 HD
ENDBRANCH  16  17
ENDBRANCH  15  16
ENDBRANCH  10  15
ENDBRANCH   7   8
BRANCH   7  19
HETATM   19  O2  UNL     1      -7.878  10.579   3.855  1.00  0.00    -0.390 OA
ATOM     20  H2  UNL     1      -7.759  11.363   3.331  1.00  0.00     0.210 HD
ENDBRANCH   7  19
ENDBRANCH   1   7
BRANCH   4  21
HETATM   21  C10 UNL     1     -10.298   5.351   0.952  1.00  0.00     0.078 C 
BRANCH  21  22
HETATM   22  C11 UNL     1     -11.689   5.812   0.861  1.00  0.00    -0.039 A 
HETATM   23  C12 UNL     1     -12.034   7.050   0.403  1.00  0.00     0.025 A 
HETATM   24  C13 UNL     1     -13.369   7.389   0.362  1.00  0.00     0.090 A 
HETATM   25  N2  UNL     1     -14.331   6.555   0.753  1.00  0.00    -0.352 N 
HETATM   26  C14 UNL     1     -14.025   5.334   1.207  1.00  0.00     0.115 A 
ATOM     27  H2  UNL     1     -15.306   6.849   0.705  1.00  0.00     0.166 HD
HETATM   28  N3  UNL     1     -14.777   4.310   1.658  1.00  0.00    -0.352 N 
HETATM   29  C17 UNL     1     -12.708   4.950   1.266  1.00  0.00     0.016 A 
HETATM   30  C15 UNL     1     -13.977   3.303   1.994  1.00  0.00     0.090 A 
ATOM     31  H3  UNL     1     -15.794   4.309   1.729  1.00  0.00     0.166 HD
HETATM   32  C16 UNL     1     -12.668   3.669   1.762  1.00  0.00     0.033 A 
ENDBRANCH  21  22
ENDBRANCH   4  21
TORSDOF 8
ENDMDL
MODEL 3
REMARK VINA RESULT: -7.878302452      0.853      1.912
REMARK  8 active torsions:
REMARK  status: ('A' for Active; 'I' for Inactive)
REMARK    1  A    between atoms: O1_1  and  C1_3 
REMARK    2  A    between atoms: C1_3  and  C2_4 
REMARK    3  A    between atoms: C2_4  and  N1_5 
REMARK    4  A    between atoms: C4_7  and  C5_8 
REMARK    5  A    between atoms: C5_8  and  O2_9 
REMARK    6  A    between atoms: C5_8  and  C6_11 
REMARK    7  A    between atoms: C9_14  and  C10_15 
REMARK    8  A    between atoms: C10_15  and  C11_16 
ROOT
HETATM    1  C6  UNL     1      -8.741   6.947   0.934  1.00  0.00    -0.029 A 
HETATM    2  C7  UNL     1      -8.268   7.878   0.043  1.00  0.00     0.010 A 
HETATM    3  C8  UNL     1      -7.131   8.640   0.341  1.00  0.00     0.008 A 
HETATM    4  C9  UNL     1      -6.452   8.483   1.527  1.00  0.00    -0.054 A 
HETATM    5  C18 UNL     1      -6.920   7.546   2.439  1.00  0.00     0.008 A 
HETATM    6  C19 UNL     1      -8.029   6.811   2.132  1.00  0.00     0.010 A 
ENDROOT
BRANCH   1   7
HETATM    7  C5  UNL     1      -9.923   6.117   0.652  1.00  0.00     0.157 C 
BRANCH   7   8
HETATM    8  C4  UNL     1     -11.073   6.861   0.017  1.00  0.00     0.048 C 
HETATM    9  C3  UNL     1     -12.314   6.749   0.811  1.00  0.00     0.280 C 
HETATM   10  N1  UNL     1     -13.201   5.753   0.271  1.00  0.00     0.096 N 
HETATM   11  C23 UNL     1     -13.646   6.126  -1.023  1.00  0.00     0.227 A 
HETATM   12  C21 UNL     1     -12.574   6.429  -1.973  1.00  0.00     0.021 A 
HETATM   13  C22 UNL     1     -13.523   7.499  -1.563  1.00  0.00     0.043 A 
HETATM   14  C20 UNL     1     -11.195   6.497  -1.431  1.00  0.00     0.016 C 
BRANCH  10  15
HETATM   15  C2  UNL     1     -14.199   5.287   1.165  1.00  0.00     0.298 C 
BRANCH  15  16
HETATM   16  C1  UNL     1     -14.351   3.800   1.259  1.00  0.00     0.194 C 
BRANCH  16  17
HETATM   17  O1  UNL     1     -15.202   3.527   2.350  1.00  0.00    -0.399 OA
ATOM     18  H1  UNL     1     -15.797   2.835   2.084  1.00  0.00     0.209 HD
ENDBRANCH  16  17
ENDBRANCH  15  16
ENDBRANCH  10  15
ENDBRANCH   7   8
BRANCH   7  19
HETATM   19  O2  UNL     1     -10.283   5.282   1.690  1.00  0.00    -0.390 OA
ATOM     20  H2  UNL     1      -9.699   5.309   2.440  1.00  0.00     0.210 HD
ENDBRANCH   7  19
ENDBRANCH   1   7
BRANCH   4  21
HETATM   21  C10 UNL     1      -5.236   9.302   1.815  1.00  0.00     0.078 C 
BRANCH  21  22
HETATM   22  C11 UNL     1      -5.103   9.461   3.269  1.00  0.00    -0.039 A 
HETATM   23  C12 UNL     1      -5.851  10.344   3.992  1.00  0.00     0.025 A 
HETATM   24  C13 UNL     1      -5.645  10.422   5.352  1.00  0.00     0.090 A 
HETATM   25  N2  UNL     1      -4.747   9.668   5.984  1.00  0.00    -0.352 N 
HETATM   26  C14 UNL     1      -3.999   8.792   5.303  1.00  0.00     0.115 A 
ATOM     27  H2  UNL     1      -4.629   9.759   6.993  1.00  0.00     0.166 HD
HETATM   28  N3  UNL     1      -3.039   7.924   5.677  1.00  0.00    -0.352 N 
HETATM   29  C17 UNL     1      -4.168   8.679   3.945  1.00  0.00     0.016 A 
HETATM   30  C15 UNL     1      -2.603   7.274   4.602  1.00  0.00     0.090 A 
ATOM     31  H3  UNL     1      -2.700   7.788   6.629  1.00  0.00     0.166 HD
HETATM   32  C16 UNL     1      -3.290   7.722   3.493  1.00  0.00     0.033 A 
ENDBRANCH  21  22
ENDBRANCH   4  21
TORSDOF 8
ENDMDL
MODEL 4
REMARK VINA RESULT: -7.836613893      1.854      2.751
REMARK  8 active torsions:
REMARK  status: ('A' for Active; 'I' for Inactive)
REMARK    1  A    between atoms: O1_1  and  C1_3 
REMARK    2  A    between atoms: C1_3  and  C2_4 
REMARK    3  A    between atoms: C2_4  and  N1_5 
REMARK    4  A    between atoms: C4_7  and  C5_8 
REMARK    5  A    between atoms: C5_8  and  O2_9 
REMARK    6  A    between atoms: C5_8  and  C6_11 
REMARK    7  A    between atoms: C9_14  and  C10_15 
REMARK    8  A    between atoms: C10_15  and  C11_16 
ROOT
HETATM    1  C6  UNL     1      -9.350   6.574   1.785  1.00  0.00    -0.029 A 
HETATM    2  C7  UNL     1      -8.117   6.770   1.215  1.00  0.00     0.010 A 
HETATM    3  C8  UNL     1      -7.140   7.531   1.870  1.00  0.00     0.008 A 
HETATM    4  C9  UNL     1      -7.379   8.103   3.098  1.00  0.00    -0.054 A 
HETATM    5  C18 UNL     1      -8.623   7.914   3.686  1.00  0.00     0.008 A 
HETATM    6  C19 UNL     1      -9.564   7.170   3.033  1.00  0.00     0.010 A 
ENDROOT
BRANCH   1   7
HETATM    7  C5  UNL     1     -10.398   5.770   1.136  1.00  0.00     0.157 C 
BRANCH   7   8
HETATM    8  C4  UNL     1     -11.515   6.577   0.519  1.00  0.00     0.048 C 
HETATM    9  C3  UNL     1     -12.829   6.255   1.116  1.00  0.00     0.280 C 
HETATM   10  N1  UNL     1     -13.581   5.352   0.285  1.00  0.00     0.096 N 
HETATM   11  C23 UNL     1     -13.900   5.960  -0.956  1.00  0.00     0.227 A 
HETATM   12  C21 UNL     1     -12.749   6.494  -1.688  1.00  0.00     0.021 A 
HETATM   13  C22 UNL     1     -13.807   7.417  -1.197  1.00  0.00     0.043 A 
HETATM   14  C20 UNL     1     -11.448   6.509  -0.975  1.00  0.00     0.016 C 
BRANCH  10  15
HETATM   15  C2  UNL     1     -14.640   4.673   0.939  1.00  0.00     0.298 C 
BRANCH  15  16
HETATM   16  C1  UNL     1     -14.236   3.575   1.874  1.00  0.00     0.194 C 
BRANCH  16  17
HETATM   17  O1  UNL     1     -15.370   3.221   2.633  1.00  0.00    -0.399 OA
ATOM     18  H1  UNL     1     -15.561   3.945   3.219  1.00  0.00     0.209 HD
ENDBRANCH  16  17
ENDBRANCH  15  16
ENDBRANCH  10  15
ENDBRANCH   7   8
BRANCH   7  19
HETATM   19  O2  UNL     1     -10.816   4.686   1.880  1.00  0.00    -0.390 OA
ATOM     20  H2  UNL     1     -10.641   4.756   2.812  1.00  0.00     0.210 HD
ENDBRANCH   7  19
ENDBRANCH   1   7
BRANCH   4  21
HETATM   21  C10 UNL     1      -6.316   8.901   3.779  1.00  0.00     0.078 C 
BRANCH  21  22
HETATM   22  C11 UNL     1      -5.614   9.712   2.776  1.00  0.00    -0.039 A 
HETATM   23  C12 UNL     1      -6.119  10.877   2.275  1.00  0.00     0.025 A 
HETATM   24  C13 UNL     1      -5.384  11.561   1.332  1.00  0.00     0.090 A 
HETATM   25  N2  UNL     1      -4.203  11.130   0.894  1.00  0.00    -0.352 N 
HETATM   26  C14 UNL     1      -3.680   9.992   1.366  1.00  0.00     0.115 A 
ATOM     27  H2  UNL     1      -3.693  11.670   0.195  1.00  0.00     0.166 HD
HETATM   28  N3  UNL     1      -2.532   9.335   1.107  1.00  0.00    -0.352 N 
HETATM   29  C17 UNL     1      -4.376   9.274   2.307  1.00  0.00     0.016 A 
HETATM   30  C15 UNL     1      -2.487   8.236   1.852  1.00  0.00     0.090 A 
ATOM     31  H3  UNL     1      -1.815   9.633   0.446  1.00  0.00     0.166 HD
HETATM   32  C16 UNL     1      -3.630   8.163   2.620  1.00  0.00     0.033 A 
ENDBRANCH  21  22
ENDBRANCH   4  21
TORSDOF 8
ENDMDL
MODEL 5
REMARK VINA RESULT: -7.806100418      1.450      2.427
REMARK  8 active torsions:
REMARK  status: ('A' for Active; 'I' for Inactive)
REMARK    1  A    between atoms: O1_1  and  C1_3 
REMARK    2  A    between atoms: C1_3  and  C2_4 
REMARK    3  A    between atoms: C2_4  and  N1_5 
REMARK    4  A    between atoms: C4_7  and  C5_8 
REMARK    5  A    between atoms: C5_8  and  O2_9 
REMARK    6  A    between atoms: C5_8  and  C6_11 
REMARK    7  A    between atoms: C9_14  and  C10_15 
REMARK    8  A    between atoms: C10_15  and  C11_16 
ROOT
HETATM    1  C6  UNL     1      -9.013   6.960   1.363  1.00  0.00    -0.029 A 
HETATM    2  C7  UNL     1      -8.749   7.213   2.686  1.00  0.00     0.010 A 
HETATM    3  C8  UNL     1      -7.693   8.055   3.056  1.00  0.00     0.008 A 
HETATM    4  C9  UNL     1      -6.889   8.654   2.114  1.00  0.00    -0.054 A 
HETATM    5  C18 UNL     1      -7.143   8.406   0.772  1.00  0.00     0.008 A 
HETATM    6  C19 UNL     1      -8.177   7.583   0.429  1.00  0.00     0.010 A 
ENDROOT
BRANCH   1   7
HETATM    7  C5  UNL     1     -10.123   6.093   0.933  1.00  0.00     0.157 C 
BRANCH   7   8
HETATM    8  C4  UNL     1     -11.248   6.817   0.235  1.00  0.00     0.048 C 
HETATM    9  C3  UNL     1     -12.552   6.583   0.890  1.00  0.00     0.280 C 
HETATM   10  N1  UNL     1     -13.320   5.581   0.198  1.00  0.00     0.096 N 
HETATM   11  C23 UNL     1     -13.659   6.022  -1.106  1.00  0.00     0.227 A 
HETATM   12  C21 UNL     1     -12.520   6.450  -1.921  1.00  0.00     0.021 A 
HETATM   13  C22 UNL     1     -13.568   7.434  -1.539  1.00  0.00     0.043 A 
HETATM   14  C20 UNL     1     -11.207   6.553  -1.238  1.00  0.00     0.016 C 
BRANCH  10  15
HETATM   15  C2  UNL     1     -14.369   4.999   0.954  1.00  0.00     0.298 C 
BRANCH  15  16
HETATM   16  C1  UNL     1     -14.050   3.699   1.626  1.00  0.00     0.194 C 
BRANCH  16  17
HETATM   17  O1  UNL     1     -15.150   3.356   2.437  1.00  0.00    -0.399 OA
ATOM     18  H1  UNL     1     -15.137   2.413   2.557  1.00  0.00     0.209 HD
ENDBRANCH  16  17
ENDBRANCH  15  16
ENDBRANCH  10  15
ENDBRANCH   7   8
BRANCH   7  19
HETATM   19  O2  UNL     1     -10.529   5.187   1.890  1.00  0.00    -0.390 OA
ATOM     20  H2  UNL     1     -10.450   5.494   2.785  1.00  0.00     0.210 HD
ENDBRANCH   7  19
ENDBRANCH   1   7
BRANCH   4  21
HETATM   21  C10 UNL     1      -5.775   9.556   2.536  1.00  0.00     0.078 C 
BRANCH  21  22
HETATM   22  C11 UNL     1      -4.550   8.760   2.686  1.00  0.00    -0.039 A 
HETATM   23  C12 UNL     1      -4.286   8.003   3.790  1.00  0.00     0.025 A 
HETATM   24  C13 UNL     1      -3.104   7.296   3.837  1.00  0.00     0.090 A 
HETATM   25  N2  UNL     1      -2.213   7.326   2.847  1.00  0.00    -0.352 N 
HETATM   26  C14 UNL     1      -2.444   8.059   1.751  1.00  0.00     0.115 A 
ATOM     27  H2  UNL     1      -1.351   6.786   2.924  1.00  0.00     0.166 HD
HETATM   28  N3  UNL     1      -1.734   8.268   0.624  1.00  0.00    -0.352 N 
HETATM   29  C17 UNL     1      -3.608   8.780   1.659  1.00  0.00     0.016 A 
HETATM   30  C15 UNL     1      -2.414   9.092  -0.167  1.00  0.00     0.090 A 
ATOM     31  H3  UNL     1      -0.823   7.860   0.413  1.00  0.00     0.166 HD
HETATM   32  C16 UNL     1      -3.598   9.436   0.451  1.00  0.00     0.033 A 
ENDBRANCH  21  22
ENDBRANCH   4  21
TORSDOF 8
ENDMDL
