MODEL 1
REMARK VINA RESULT: -7.528806757      0.000      0.000
REMARK  6 active torsions:
REMARK  status: ('A' for Active; 'I' for Inactive)
REMARK    1  A    between atoms: C2_2  and  N1_3 
REMARK    2  A    between atoms: C6_9  and  N3_10 
REMARK    3  A    between atoms: N4_13  and  C9_14 
REMARK    4  A    between atoms: C9_14  and  C10_15 
REMARK    5  A    between atoms: C11_16  and  C12_17 
REMARK    6  A    between atoms: C20_27  and  N6_28 
ROOT
HETATM    1  N1  UNL     1      -4.665   9.707   3.841  1.00  0.00     0.092 N 
HETATM    2  C3  UNL     1      -4.363  10.619   2.799  1.00  0.00     0.279 C 
HETATM    3  C4  UNL     1      -4.261  10.044   1.419  1.00  0.00     0.088 C 
HETATM    4  C5  UNL     1      -5.390   9.126   1.116  1.00  0.00     0.040 A 
HETATM    5  N2  UNL     1      -5.914   9.007  -0.112  1.00  0.00    -0.195 N 
ATOM      6  H2  UNL     1      -5.524   9.573  -0.866  1.00  0.00     0.184 HD
HETATM    7  C6  UNL     1      -6.952   8.156  -0.397  1.00  0.00     0.682 A 
HETATM    8  N5  UNL     1      -7.427   7.430   0.628  1.00  0.00    -0.176 N 
ATOM      9  H5  UNL     1      -8.197   6.782   0.460  1.00  0.00     0.186 HD
HETATM   10  C20 UNL     1      -6.912   7.533   1.887  1.00  0.00     0.124 A 
HETATM   11  C21 UNL     1      -5.876   8.392   2.156  1.00  0.00     0.037 A 
HETATM   12  C22 UNL     1      -5.344   8.506   3.510  1.00  0.00     0.317 C 
ENDROOT
BRANCH   7  13
HETATM   13  N3  UNL     1      -7.470   8.133  -1.711  1.00  0.00    -0.214 N 
HETATM   14  C7  UNL     1      -7.531   6.802  -2.367  1.00  0.00     0.171 C 
HETATM   15  C8  UNL     1      -9.025   6.625  -2.594  1.00  0.00     0.293 C 
HETATM   16  N4  UNL     1      -9.430   7.535  -3.656  1.00  0.00     0.095 N 
HETATM   17  C18 UNL     1      -8.570   8.675  -3.761  1.00  0.00     0.293 C 
HETATM   18  C19 UNL     1      -7.981   9.206  -2.492  1.00  0.00     0.171 C 
BRANCH  16  19
HETATM   19  C9  UNL     1     -10.840   7.867  -3.526  1.00  0.00     0.299 C 
BRANCH  19  20
HETATM   20  C10 UNL     1     -11.389   7.198  -2.301  1.00  0.00    -0.001 C 
HETATM   21  C11 UNL     1     -12.216   7.943  -1.563  1.00  0.00    -0.024 C 
BRANCH  21  22
HETATM   22  C12 UNL     1     -12.831   7.423  -0.330  1.00  0.00     0.008 C 
HETATM   23  C13 UNL     1     -12.230   8.083   0.903  1.00  0.00     0.008 C 
HETATM   24  C14 UNL     1     -10.813   7.650   1.108  1.00  0.00     0.001 C 
HETATM   25  C15 UNL     1     -10.686   6.162   1.226  1.00  0.00     0.000 C 
HETATM   26  C16 UNL     1     -12.037   5.494   1.018  1.00  0.00     0.001 C 
HETATM   27  C17 UNL     1     -12.584   5.919  -0.320  1.00  0.00     0.008 C 
ENDBRANCH  21  22
ENDBRANCH  19  20
ENDBRANCH  16  19
ENDBRANCH   7  13
BRANCH  10  28
HETATM   28  N6  UNL     1      -7.382   6.822   2.874  1.00  0.00    -0.385 N 
ATOM     29  H62 UNL     1      -7.822   7.319   3.648  1.00  0.00     0.157 HD
ATOM     30  H61 UNL     1      -7.313   5.805   2.877  1.00  0.00     0.157 HD
ENDBRANCH  10  28
BRANCH   1  31
HETATM   31  C2  UNL     1      -5.508  10.438   4.800  1.00  0.00     0.268 C 
HETATM   32  C1  UNL     1      -6.326   9.486   5.624  1.00  0.00     0.037 C 
ENDBRANCH   1  31
TORSDOF 6
ENDMDL
MODEL 2
REMARK VINA RESULT: -7.415574666      2.664      4.237
REMARK  6 active torsions:
REMARK  status: ('A' for Active; 'I' for Inactive)
REMARK    1  A    between atoms: C2_2  and  N1_3 
REMARK    2  A    between atoms: C6_9  and  N3_10 
REMARK    3  A    between atoms: N4_13  and  C9_14 
REMARK    4  A    between atoms: C9_14  and  C10_15 
REMARK    5  A    between atoms: C11_16  and  C12_17 
REMARK    6  A    between atoms: C20_27  and  N6_28 
ROOT
HETATM    1  N1  UNL     1      -4.781   8.650   2.278  1.00  0.00     0.092 N 
HETATM    2  C3  UNL     1      -5.133   9.241   1.038  1.00  0.00     0.279 C 
HETATM    3  C4  UNL     1      -6.136   8.500   0.208  1.00  0.00     0.088 C 
HETATM    4  C5  UNL     1      -7.298   8.047   1.017  1.00  0.00     0.040 A 
HETATM    5  N2  UNL     1      -8.541   7.980   0.520  1.00  0.00    -0.195 N 
ATOM      6  H2  UNL     1      -8.695   8.256  -0.450  1.00  0.00     0.184 HD
HETATM    7  C6  UNL     1      -9.615   7.555   1.262  1.00  0.00     0.682 A 
HETATM    8  N5  UNL     1      -9.360   7.199   2.532  1.00  0.00    -0.176 N 
ATOM      9  H5  UNL     1     -10.129   6.875   3.118  1.00  0.00     0.186 HD
HETATM   10  C20 UNL     1      -8.105   7.258   3.061  1.00  0.00     0.124 A 
HETATM   11  C21 UNL     1      -7.041   7.689   2.306  1.00  0.00     0.037 A 
HETATM   12  C22 UNL     1      -5.705   7.763   2.888  1.00  0.00     0.317 C 
ENDROOT
BRANCH   7  13
HETATM   13  N3  UNL     1     -10.897   7.564   0.667  1.00  0.00    -0.214 N 
HETATM   14  C7  UNL     1     -11.028   6.827  -0.615  1.00  0.00     0.171 C 
HETATM   15  C8  UNL     1     -12.040   5.746  -0.261  1.00  0.00     0.293 C 
HETATM   16  N4  UNL     1     -13.341   6.380  -0.110  1.00  0.00     0.095 N 
HETATM   17  C18 UNL     1     -13.241   7.760   0.256  1.00  0.00     0.293 C 
HETATM   18  C19 UNL     1     -12.101   8.152   1.143  1.00  0.00     0.171 C 
BRANCH  16  19
HETATM   19  C9  UNL     1     -14.187   5.594   0.773  1.00  0.00     0.299 C 
BRANCH  19  20
HETATM   20  C10 UNL     1     -13.412   4.407   1.263  1.00  0.00    -0.001 C 
HETATM   21  C11 UNL     1     -13.496   4.168   2.575  1.00  0.00    -0.024 C 
BRANCH  21  22
HETATM   22  C12 UNL     1     -12.787   3.039   3.201  1.00  0.00     0.008 C 
HETATM   23  C13 UNL     1     -13.511   2.566   4.454  1.00  0.00     0.008 C 
HETATM   24  C14 UNL     1     -13.414   3.582   5.547  1.00  0.00     0.001 C 
HETATM   25  C15 UNL     1     -11.993   3.916   5.887  1.00  0.00     0.000 C 
HETATM   26  C16 UNL     1     -11.037   3.185   4.957  1.00  0.00     0.001 C 
HETATM   27  C17 UNL     1     -11.385   3.536   3.534  1.00  0.00     0.008 C 
ENDBRANCH  21  22
ENDBRANCH  19  20
ENDBRANCH  16  19
ENDBRANCH   7  13
BRANCH  10  28
HETATM   28  N6  UNL     1      -7.870   6.909   4.295  1.00  0.00    -0.385 N 
ATOM     29  H62 UNL     1      -8.591   6.380   4.783  1.00  0.00     0.157 HD
ATOM     30  H61 UNL     1      -6.996   7.155   4.760  1.00  0.00     0.157 HD
ENDBRANCH  10  28
BRANCH   1  31
HETATM   31  C2  UNL     1      -4.553   9.761   3.216  1.00  0.00     0.268 C 
HETATM   32  C1  UNL     1      -5.274  10.997   2.762  1.00  0.00     0.037 C 
ENDBRANCH   1  31
TORSDOF 6
ENDMDL
MODEL 3
REMARK VINA RESULT: -7.395133774      3.399      6.685
REMARK  6 active torsions:
REMARK  status: ('A' for Active; 'I' for Inactive)
REMARK    1  A    between atoms: C2_2  and  N1_3 
REMARK    2  A    between atoms: C6_9  and  N3_10 
REMARK    3  A    between atoms: N4_13  and  C9_14 
REMARK    4  A    between atoms: C9_14  and  C10_15 
REMARK    5  A    between atoms: C11_16  and  C12_17 
REMARK    6  A    between atoms: C20_27  and  N6_28 
ROOT
HETATM    1  N1  UNL     1     -12.572   2.971   4.156  1.00  0.00     0.092 N 
HETATM    2  C3  UNL     1     -11.273   3.517   4.001  1.00  0.00     0.279 C 
HETATM    3  C4  UNL     1     -10.838   3.812   2.598  1.00  0.00     0.088 C 
HETATM    4  C5  UNL     1     -11.893   4.522   1.829  1.00  0.00     0.040 A 
HETATM    5  N2  UNL     1     -11.609   5.437   0.890  1.00  0.00    -0.195 N 
ATOM      6  H2  UNL     1     -10.631   5.656   0.701  1.00  0.00     0.184 HD
HETATM    7  C6  UNL     1     -12.580   6.090   0.173  1.00  0.00     0.682 A 
HETATM    8  N5  UNL     1     -13.852   5.763   0.455  1.00  0.00    -0.176 N 
ATOM      9  H5  UNL     1     -14.605   6.222  -0.057  1.00  0.00     0.186 HD
HETATM   10  C20 UNL     1     -14.167   4.837   1.405  1.00  0.00     0.124 A 
HETATM   11  C21 UNL     1     -13.183   4.195   2.117  1.00  0.00     0.037 A 
HETATM   12  C22 UNL     1     -13.532   3.218   3.142  1.00  0.00     0.317 C 
ENDROOT
BRANCH   7  13
HETATM   13  N3  UNL     1     -12.187   7.073  -0.763  1.00  0.00    -0.214 N 
HETATM   14  C7  UNL     1     -12.313   8.485  -0.320  1.00  0.00     0.171 C 
HETATM   15  C8  UNL     1     -10.870   8.964  -0.362  1.00  0.00     0.293 C 
HETATM   16  N4  UNL     1     -10.478   9.090  -1.758  1.00  0.00     0.095 N 
HETATM   17  C18 UNL     1     -11.232   8.230  -2.620  1.00  0.00     0.293 C 
HETATM   18  C19 UNL     1     -11.650   6.904  -2.069  1.00  0.00     0.171 C 
BRANCH  16  19
HETATM   19  C9  UNL     1      -9.037   8.948  -1.894  1.00  0.00     0.299 C 
BRANCH  19  20
HETATM   20  C10 UNL     1      -8.566   7.852  -0.985  1.00  0.00    -0.001 C 
HETATM   21  C11 UNL     1      -7.671   8.216  -0.063  1.00  0.00    -0.024 C 
BRANCH  21  22
HETATM   22  C12 UNL     1      -7.116   7.248   0.898  1.00  0.00     0.008 C 
HETATM   23  C13 UNL     1      -8.224   6.471   1.596  1.00  0.00     0.008 C 
HETATM   24  C14 UNL     1      -8.997   7.354   2.523  1.00  0.00     0.001 C 
HETATM   25  C15 UNL     1      -8.121   8.005   3.549  1.00  0.00     0.000 C 
HETATM   26  C16 UNL     1      -6.662   7.650   3.307  1.00  0.00     0.001 C 
HETATM   27  C17 UNL     1      -6.296   8.051   1.901  1.00  0.00     0.008 C 
ENDBRANCH  21  22
ENDBRANCH  19  20
ENDBRANCH  16  19
ENDBRANCH   7  13
BRANCH  10  28
HETATM   28  N6  UNL     1     -15.405   4.528   1.670  1.00  0.00    -0.385 N 
ATOM     29  H62 UNL     1     -16.137   5.106   1.257  1.00  0.00     0.157 HD
ATOM     30  H61 UNL     1     -15.640   3.737   2.270  1.00  0.00     0.157 HD
ENDBRANCH  10  28
BRANCH   1  31
HETATM   31  C2  UNL     1     -13.106   3.523   5.411  1.00  0.00     0.268 C 
HETATM   32  C1  UNL     1     -12.002   4.097   6.252  1.00  0.00     0.037 C 
ENDBRANCH   1  31
TORSDOF 6
ENDMDL
MODEL 4
REMARK VINA RESULT: -7.290745954      3.619      7.355
REMARK  6 active torsions:
REMARK  status: ('A' for Active; 'I' for Inactive)
REMARK    1  A    between atoms: C2_2  and  N1_3 
REMARK    2  A    between atoms: C6_9  and  N3_10 
REMARK    3  A    between atoms: N4_13  and  C9_14 
REMARK    4  A    between atoms: C9_14  and  C10_15 
REMARK    5  A    between atoms: C11_16  and  C12_17 
REMARK    6  A    between atoms: C20_27  and  N6_28 
ROOT
HETATM    1  N1  UNL     1     -13.416   2.604   4.519  1.00  0.00     0.092 N 
HETATM    2  C3  UNL     1     -12.085   3.073   4.662  1.00  0.00     0.279 C 
HETATM    3  C4  UNL     1     -11.346   3.374   3.394  1.00  0.00     0.088 C 
HETATM    4  C5  UNL     1     -12.172   4.165   2.445  1.00  0.00     0.040 A 
HETATM    5  N2  UNL     1     -11.645   5.082   1.622  1.00  0.00    -0.195 N 
ATOM      6  H2  UNL     1     -10.638   5.246   1.652  1.00  0.00     0.184 HD
HETATM    7  C6  UNL     1     -12.403   5.810   0.739  1.00  0.00     0.682 A 
HETATM    8  N5  UNL     1     -13.722   5.556   0.734  1.00  0.00    -0.176 N 
ATOM      9  H5  UNL     1     -14.323   6.072   0.092  1.00  0.00     0.186 HD
HETATM   10  C20 UNL     1     -14.283   4.628   1.562  1.00  0.00     0.124 A 
HETATM   11  C21 UNL     1     -13.510   3.911   2.442  1.00  0.00     0.037 A 
HETATM   12  C22 UNL     1     -14.122   2.933   3.335  1.00  0.00     0.317 C 
ENDROOT
BRANCH   7  13
HETATM   13  N3  UNL     1     -11.767   6.789  -0.056  1.00  0.00    -0.214 N 
HETATM   14  C7  UNL     1     -11.579   8.122   0.572  1.00  0.00     0.171 C 
HETATM   15  C8  UNL     1     -10.063   8.255   0.594  1.00  0.00     0.293 C 
HETATM   16  N4  UNL     1      -9.611   8.468  -0.773  1.00  0.00     0.095 N 
HETATM   17  C18 UNL     1     -10.515   7.926  -1.742  1.00  0.00     0.293 C 
HETATM   18  C19 UNL     1     -11.243   6.672  -1.373  1.00  0.00     0.171 C 
BRANCH  16  19
HETATM   19  C9  UNL     1      -8.237   8.015  -0.927  1.00  0.00     0.299 C 
BRANCH  19  20
HETATM   20  C10 UNL     1      -7.793   7.359   0.347  1.00  0.00    -0.001 C 
HETATM   21  C11 UNL     1      -6.796   7.972   0.990  1.00  0.00    -0.024 C 
BRANCH  21  22
HETATM   22  C12 UNL     1      -6.251   7.444   2.253  1.00  0.00     0.008 C 
HETATM   23  C13 UNL     1      -7.355   7.241   3.282  1.00  0.00     0.008 C 
HETATM   24  C14 UNL     1      -7.897   8.553   3.753  1.00  0.00     0.001 C 
HETATM   25  C15 UNL     1      -6.830   9.434   4.330  1.00  0.00     0.000 C 
HETATM   26  C16 UNL     1      -5.466   8.776   4.196  1.00  0.00     0.001 C 
HETATM   27  C17 UNL     1      -5.225   8.457   2.743  1.00  0.00     0.008 C 
ENDBRANCH  21  22
ENDBRANCH  19  20
ENDBRANCH  16  19
ENDBRANCH   7  13
BRANCH  10  28
HETATM   28  N6  UNL     1     -15.564   4.390   1.548  1.00  0.00    -0.385 N 
ATOM     29  H62 UNL     1     -16.034   4.378   0.643  1.00  0.00     0.157 HD
ATOM     30  H61 UNL     1     -16.084   4.221   2.409  1.00  0.00     0.157 HD
ENDBRANCH  10  28
BRANCH   1  31
HETATM   31  C2  UNL     1     -14.173   3.158   5.652  1.00  0.00     0.268 C 
HETATM   32  C1  UNL     1     -13.435   4.307   6.275  1.00  0.00     0.037 C 
ENDBRANCH   1  31
TORSDOF 6
ENDMDL
MODEL 5
REMARK VINA RESULT: -7.173195786      3.769      7.579
REMARK  6 active torsions:
REMARK  status: ('A' for Active; 'I' for Inactive)
REMARK    1  A    between atoms: C2_2  and  N1_3 
REMARK    2  A    between atoms: C6_9  and  N3_10 
REMARK    3  A    between atoms: N4_13  and  C9_14 
REMARK    4  A    between atoms: C9_14  and  C10_15 
REMARK    5  A    between atoms: C11_16  and  C12_17 
REMARK    6  A    between atoms: C20_27  and  N6_28 
ROOT
HETATM    1  N1  UNL     1     -13.552   2.369   4.629  1.00  0.00     0.092 N 
HETATM    2  C3  UNL     1     -12.236   2.692   5.044  1.00  0.00     0.279 C 
HETATM    3  C4  UNL     1     -11.244   2.970   3.956  1.00  0.00     0.088 C 
HETATM    4  C5  UNL     1     -11.798   3.883   2.922  1.00  0.00     0.040 A 
HETATM    5  N2  UNL     1     -11.041   4.776   2.269  1.00  0.00    -0.195 N 
ATOM      6  H2  UNL     1     -10.048   4.834   2.494  1.00  0.00     0.184 HD
HETATM    7  C6  UNL     1     -11.547   5.616   1.309  1.00  0.00     0.682 A 
HETATM    8  N5  UNL     1     -12.859   5.499   1.044  1.00  0.00    -0.176 N 
ATOM      9  H5  UNL     1     -13.276   6.102   0.335  1.00  0.00     0.186 HD
HETATM   10  C20 UNL     1     -13.650   4.599   1.694  1.00  0.00     0.124 A 
HETATM   11  C21 UNL     1     -13.129   3.768   2.656  1.00  0.00     0.037 A 
HETATM   12  C22 UNL     1     -13.987   2.820   3.357  1.00  0.00     0.317 C 
ENDROOT
BRANCH   7  13
HETATM   13  N3  UNL     1     -10.683   6.559   0.707  1.00  0.00    -0.214 N 
HETATM   14  C7  UNL     1      -9.887   7.402   1.634  1.00  0.00     0.171 C 
HETATM   15  C8  UNL     1      -8.460   7.011   1.279  1.00  0.00     0.293 C 
HETATM   16  N4  UNL     1      -8.151   7.574  -0.027  1.00  0.00     0.095 N 
HETATM   17  C18 UNL     1      -9.320   7.779  -0.828  1.00  0.00     0.293 C 
HETATM   18  C19 UNL     1     -10.436   6.795  -0.674  1.00  0.00     0.171 C 
BRANCH  16  19
HETATM   19  C9  UNL     1      -7.114   6.793  -0.682  1.00  0.00     0.299 C 
BRANCH  19  20
HETATM   20  C10 UNL     1      -7.524   6.528  -2.100  1.00  0.00    -0.001 C 
HETATM   21  C11 UNL     1      -7.025   5.414  -2.644  1.00  0.00    -0.024 C 
BRANCH  21  22
HETATM   22  C12 UNL     1      -7.337   5.024  -4.029  1.00  0.00     0.008 C 
HETATM   23  C13 UNL     1      -6.091   5.064  -4.903  1.00  0.00     0.008 C 
HETATM   24  C14 UNL     1      -5.630   6.470  -5.118  1.00  0.00     0.001 C 
HETATM   25  C15 UNL     1      -6.696   7.329  -5.728  1.00  0.00     0.000 C 
HETATM   26  C16 UNL     1      -7.990   6.544  -5.881  1.00  0.00     0.001 C 
HETATM   27  C17 UNL     1      -8.389   6.005  -4.532  1.00  0.00     0.008 C 
ENDBRANCH  21  22
ENDBRANCH  19  20
ENDBRANCH  16  19
ENDBRANCH   7  13
BRANCH  10  28
HETATM   28  N6  UNL     1     -14.922   4.495   1.429  1.00  0.00    -0.385 N 
ATOM     29  H62 UNL     1     -15.316   3.557   1.359  1.00  0.00     0.157 HD
ATOM     30  H61 UNL     1     -15.507   5.319   1.293  1.00  0.00     0.157 HD
ENDBRANCH  10  28
BRANCH   1  31
HETATM   31  C2  UNL     1     -14.457   2.948   5.635  1.00  0.00     0.268 C 
HETATM   32  C1  UNL     1     -13.832   4.149   6.284  1.00  0.00     0.037 C 
ENDBRANCH   1  31
TORSDOF 6
ENDMDL
