MODEL 1
REMARK VINA RESULT: -7.463799858      0.000      0.000
REMARK  7 active torsions:
REMARK  status: ('A' for Active; 'I' for Inactive)
REMARK    1  A    between atoms: C7_7  and  O1_8 
REMARK    2  A    between atoms: C10_12  and  O2_13 
REMARK    3  A    between atoms: N1_16  and  C12_17 
REMARK    4  A    between atoms: N2_20  and  C15_21 
REMARK    5  A    between atoms: C15_21  and  C16_22 
REMARK    6  A    between atoms: C16_22  and  C17_23 
REMARK    7  A    between atoms: C17_23  and  N3_24 
ROOT
HETATM    1  C1  UNL     1     -12.965   7.823   1.094  1.00  0.00     0.043 C 
HETATM    2  C2  UNL     1     -12.349   7.257  -0.194  1.00  0.00     0.224 C 
HETATM    3  C3  UNL     1     -12.746   5.789  -0.295  1.00  0.00     0.074 C 
HETATM    4  C4  UNL     1     -12.464   5.044   0.948  1.00  0.00    -0.047 A 
HETATM    5  C5  UNL     1     -13.538   4.271   1.336  1.00  0.00     0.010 A 
HETATM    6  C6  UNL     1     -13.398   3.524   2.486  1.00  0.00     0.037 A 
HETATM    7  C7  UNL     1     -12.243   3.544   3.219  1.00  0.00     0.066 A 
HETATM    8  C8  UNL     1     -11.178   4.318   2.823  1.00  0.00     0.046 A 
HETATM    9  C9  UNL     1     -11.286   5.085   1.666  1.00  0.00    -0.019 A 
HETATM   10  C10 UNL     1     -10.057   5.860   1.378  1.00  0.00     0.180 C 
HETATM   11  C11 UNL     1     -10.125   6.348  -0.041  1.00  0.00     0.309 C 
HETATM   12  N1  UNL     1     -10.947   7.493  -0.234  1.00  0.00     0.102 N 
ENDROOT
BRANCH  12  13
HETATM   13  C12 UNL     1     -10.501   8.183  -1.418  1.00  0.00     0.253 C 
HETATM   14  C13 UNL     1     -10.251   9.653  -1.181  1.00  0.00     0.068 C 
HETATM   15  C14 UNL     1      -9.374   9.977  -2.398  1.00  0.00     0.274 C 
HETATM   16  N2  UNL     1      -8.498   8.872  -2.524  1.00  0.00     0.090 N 
HETATM   17  C23 UNL     1      -9.158   7.718  -1.901  1.00  0.00     0.308 C 
BRANCH  16  18
HETATM   18  C15 UNL     1      -7.206   8.993  -1.947  1.00  0.00     0.274 C 
BRANCH  18  19
HETATM   19  C16 UNL     1      -6.967   8.207  -0.698  1.00  0.00     0.060 C 
BRANCH  19  20
HETATM   20  C17 UNL     1      -5.948   8.932   0.156  1.00  0.00     0.274 C 
BRANCH  20  21
HETATM   21  N3  UNL     1      -6.183   8.885   1.548  1.00  0.00     0.088 N 
HETATM   22  C18 UNL     1      -6.151   7.616   2.186  1.00  0.00     0.272 C 
HETATM   23  C19 UNL     1      -6.829   7.615   3.536  1.00  0.00     0.030 C 
HETATM   24  C20 UNL     1      -6.936   9.046   4.034  1.00  0.00     0.003 C 
HETATM   25  C21 UNL     1      -5.666   9.796   3.762  1.00  0.00     0.030 C 
HETATM   26  C22 UNL     1      -5.486   9.889   2.266  1.00  0.00     0.272 C 
ENDBRANCH  20  21
ENDBRANCH  19  20
ENDBRANCH  18  19
ENDBRANCH  16  18
ENDBRANCH  12  13
BRANCH  10  27
HETATM   27  O2  UNL     1      -9.813   6.858   2.300  1.00  0.00    -0.389 OA
ATOM     28  H2  UNL     1      -8.966   6.779   2.723  1.00  0.00     0.210 HD
ENDBRANCH  10  27
BRANCH   7  29
HETATM   29  O1  UNL     1     -12.162   2.767   4.371  1.00  0.00    -0.361 OA
ATOM     30  H1  UNL     1     -12.149   3.199   5.217  1.00  0.00     0.217 HD
ENDBRANCH   7  29
TORSDOF 7
ENDMDL
MODEL 2
REMARK VINA RESULT: -7.425311841      2.753      3.995
REMARK  7 active torsions:
REMARK  status: ('A' for Active; 'I' for Inactive)
REMARK    1  A    between atoms: C7_7  and  O1_8 
REMARK    2  A    between atoms: C10_12  and  O2_13 
REMARK    3  A    between atoms: N1_16  and  C12_17 
REMARK    4  A    between atoms: N2_20  and  C15_21 
REMARK    5  A    between atoms: C15_21  and  C16_22 
REMARK    6  A    between atoms: C16_22  and  C17_23 
REMARK    7  A    between atoms: C17_23  and  N3_24 
ROOT
HETATM    1  C1  UNL     1     -13.170   8.064   1.123  1.00  0.00     0.043 C 
HETATM    2  C2  UNL     1     -12.708   7.636  -0.278  1.00  0.00     0.224 C 
HETATM    3  C3  UNL     1     -12.870   6.124  -0.382  1.00  0.00     0.074 C 
HETATM    4  C4  UNL     1     -12.252   5.415   0.758  1.00  0.00    -0.047 A 
HETATM    5  C5  UNL     1     -13.098   4.463   1.286  1.00  0.00     0.010 A 
HETATM    6  C6  UNL     1     -12.634   3.730   2.357  1.00  0.00     0.037 A 
HETATM    7  C7  UNL     1     -11.387   3.932   2.880  1.00  0.00     0.066 A 
HETATM    8  C8  UNL     1     -10.551   4.884   2.345  1.00  0.00     0.046 A 
HETATM    9  C9  UNL     1     -10.989   5.643   1.262  1.00  0.00    -0.019 A 
HETATM   10  C10 UNL     1      -9.975   6.621   0.806  1.00  0.00     0.180 C 
HETATM   11  C11 UNL     1     -10.374   7.118  -0.555  1.00  0.00     0.309 C 
HETATM   12  N1  UNL     1     -11.394   8.109  -0.548  1.00  0.00     0.102 N 
ENDROOT
BRANCH  12  13
HETATM   13  C12 UNL     1     -11.285   8.887  -1.756  1.00  0.00     0.253 C 
HETATM   14  C13 UNL     1      -9.863   9.009  -2.248  1.00  0.00     0.068 C 
HETATM   15  C14 UNL     1     -10.116   9.428  -3.702  1.00  0.00     0.274 C 
HETATM   16  N2  UNL     1     -11.205   8.633  -4.130  1.00  0.00     0.090 N 
HETATM   17  C23 UNL     1     -11.963   8.249  -2.933  1.00  0.00     0.308 C 
BRANCH  16  18
HETATM   18  C15 UNL     1     -10.904   7.445  -4.849  1.00  0.00     0.274 C 
BRANCH  18  19
HETATM   19  C16 UNL     1      -9.859   7.567  -5.912  1.00  0.00     0.060 C 
BRANCH  19  20
HETATM   20  C17 UNL     1      -8.904   6.396  -5.804  1.00  0.00     0.274 C 
BRANCH  20  21
HETATM   21  N3  UNL     1      -8.132   6.354  -4.623  1.00  0.00     0.088 N 
HETATM   22  C18 UNL     1      -7.531   5.117  -4.264  1.00  0.00     0.272 C 
HETATM   23  C19 UNL     1      -7.115   5.060  -2.813  1.00  0.00     0.030 C 
HETATM   24  C20 UNL     1      -7.023   6.476  -2.271  1.00  0.00     0.003 C 
HETATM   25  C21 UNL     1      -6.366   7.381  -3.271  1.00  0.00     0.030 C 
HETATM   26  C22 UNL     1      -7.254   7.460  -4.489  1.00  0.00     0.272 C 
ENDBRANCH  20  21
ENDBRANCH  19  20
ENDBRANCH  18  19
ENDBRANCH  16  18
ENDBRANCH  12  13
BRANCH  10  27
HETATM   27  O2  UNL     1      -9.739   7.629   1.719  1.00  0.00    -0.389 OA
ATOM     28  H2  UNL     1      -9.167   8.311   1.386  1.00  0.00     0.210 HD
ENDBRANCH  10  27
BRANCH   7  29
HETATM   29  O1  UNL     1     -10.976   3.158   3.962  1.00  0.00    -0.361 OA
ATOM     30  H1  UNL     1     -10.633   3.593   4.734  1.00  0.00     0.217 HD
ENDBRANCH   7  29
TORSDOF 7
ENDMDL
MODEL 3
REMARK VINA RESULT: -7.415465617      2.090      2.858
REMARK  7 active torsions:
REMARK  status: ('A' for Active; 'I' for Inactive)
REMARK    1  A    between atoms: C7_7  and  O1_8 
REMARK    2  A    between atoms: C10_12  and  O2_13 
REMARK    3  A    between atoms: N1_16  and  C12_17 
REMARK    4  A    between atoms: N2_20  and  C15_21 
REMARK    5  A    between atoms: C15_21  and  C16_22 
REMARK    6  A    between atoms: C16_22  and  C17_23 
REMARK    7  A    between atoms: C17_23  and  N3_24 
ROOT
HETATM    1  C1  UNL     1     -13.395   7.999   1.134  1.00  0.00     0.043 C 
HETATM    2  C2  UNL     1     -12.988   7.575  -0.285  1.00  0.00     0.224 C 
HETATM    3  C3  UNL     1     -13.109   6.059  -0.373  1.00  0.00     0.074 C 
HETATM    4  C4  UNL     1     -12.417   5.376   0.739  1.00  0.00    -0.047 A 
HETATM    5  C5  UNL     1     -13.208   4.402   1.312  1.00  0.00     0.010 A 
HETATM    6  C6  UNL     1     -12.672   3.690   2.363  1.00  0.00     0.037 A 
HETATM    7  C7  UNL     1     -11.407   3.932   2.825  1.00  0.00     0.066 A 
HETATM    8  C8  UNL     1     -10.627   4.905   2.246  1.00  0.00     0.046 A 
HETATM    9  C9  UNL     1     -11.138   5.644   1.182  1.00  0.00    -0.019 A 
HETATM   10  C10 UNL     1     -10.177   6.649   0.672  1.00  0.00     0.180 C 
HETATM   11  C11 UNL     1     -10.655   7.125  -0.671  1.00  0.00     0.309 C 
HETATM   12  N1  UNL     1     -11.703   8.086  -0.620  1.00  0.00     0.102 N 
ENDROOT
BRANCH  12  13
HETATM   13  C12 UNL     1     -11.674   8.859  -1.835  1.00  0.00     0.253 C 
HETATM   14  C13 UNL     1     -10.441   9.721  -1.953  1.00  0.00     0.068 C 
HETATM   15  C14 UNL     1     -10.457  10.011  -3.460  1.00  0.00     0.274 C 
HETATM   16  N2  UNL     1     -10.822   8.785  -4.066  1.00  0.00     0.090 N 
HETATM   17  C23 UNL     1     -11.576   8.013  -3.071  1.00  0.00     0.308 C 
BRANCH  16  18
HETATM   18  C15 UNL     1      -9.773   7.958  -4.549  1.00  0.00     0.274 C 
BRANCH  18  19
HETATM   19  C16 UNL     1      -9.632   6.622  -3.890  1.00  0.00     0.060 C 
BRANCH  19  20
HETATM   20  C17 UNL     1      -8.165   6.344  -3.645  1.00  0.00     0.274 C 
BRANCH  20  21
HETATM   21  N3  UNL     1      -7.596   7.024  -2.546  1.00  0.00     0.088 N 
HETATM   22  C18 UNL     1      -7.147   6.250  -1.443  1.00  0.00     0.272 C 
HETATM   23  C19 UNL     1      -6.973   7.063  -0.181  1.00  0.00     0.030 C 
HETATM   24  C20 UNL     1      -6.872   8.532  -0.552  1.00  0.00     0.003 C 
HETATM   25  C21 UNL     1      -6.003   8.712  -1.761  1.00  0.00     0.030 C 
HETATM   26  C22 UNL     1      -6.677   8.035  -2.930  1.00  0.00     0.272 C 
ENDBRANCH  20  21
ENDBRANCH  19  20
ENDBRANCH  18  19
ENDBRANCH  16  18
ENDBRANCH  12  13
BRANCH  10  27
HETATM   27  O2  UNL     1      -9.928   7.669   1.569  1.00  0.00    -0.389 OA
ATOM     28  H2  UNL     1      -9.076   8.073   1.451  1.00  0.00     0.210 HD
ENDBRANCH  10  27
BRANCH   7  29
HETATM   29  O1  UNL     1     -10.923   3.178   3.890  1.00  0.00    -0.361 OA
ATOM     30  H1  UNL     1     -10.041   2.828   3.842  1.00  0.00     0.217 HD
ENDBRANCH   7  29
TORSDOF 7
ENDMDL
MODEL 4
REMARK VINA RESULT: -7.372922783      2.659      4.408
REMARK  7 active torsions:
REMARK  status: ('A' for Active; 'I' for Inactive)
REMARK    1  A    between atoms: C7_7  and  O1_8 
REMARK    2  A    between atoms: C10_12  and  O2_13 
REMARK    3  A    between atoms: N1_16  and  C12_17 
REMARK    4  A    between atoms: N2_20  and  C15_21 
REMARK    5  A    between atoms: C15_21  and  C16_22 
REMARK    6  A    between atoms: C16_22  and  C17_23 
REMARK    7  A    between atoms: C17_23  and  N3_24 
ROOT
HETATM    1  C1  UNL     1     -13.084   8.036   1.214  1.00  0.00     0.043 C 
HETATM    2  C2  UNL     1     -12.441   7.638  -0.123  1.00  0.00     0.224 C 
HETATM    3  C3  UNL     1     -12.740   6.163  -0.365  1.00  0.00     0.074 C 
HETATM    4  C4  UNL     1     -12.401   5.323   0.802  1.00  0.00    -0.047 A 
HETATM    5  C5  UNL     1     -13.419   4.447   1.114  1.00  0.00     0.010 A 
HETATM    6  C6  UNL     1     -13.222   3.604   2.187  1.00  0.00     0.037 A 
HETATM    7  C7  UNL     1     -12.066   3.631   2.918  1.00  0.00     0.066 A 
HETATM    8  C8  UNL     1     -11.057   4.508   2.597  1.00  0.00     0.046 A 
HETATM    9  C9  UNL     1     -11.224   5.373   1.519  1.00  0.00    -0.019 A 
HETATM   10  C10 UNL     1     -10.051   6.252   1.307  1.00  0.00     0.180 C 
HETATM   11  C11 UNL     1     -10.161   6.869  -0.059  1.00  0.00     0.309 C 
HETATM   12  N1  UNL     1     -11.058   7.970  -0.141  1.00  0.00     0.102 N 
ENDROOT
BRANCH  12  13
HETATM   13  C12 UNL     1     -10.666   8.798  -1.253  1.00  0.00     0.253 C 
HETATM   14  C13 UNL     1      -9.328   8.407  -1.831  1.00  0.00     0.068 C 
HETATM   15  C14 UNL     1      -9.417   9.089  -3.204  1.00  0.00     0.274 C 
HETATM   16  N2  UNL     1     -10.744   8.864  -3.640  1.00  0.00     0.090 N 
HETATM   17  C23 UNL     1     -11.568   8.654  -2.443  1.00  0.00     0.308 C 
BRANCH  16  18
HETATM   18  C15 UNL     1     -10.967   7.767  -4.514  1.00  0.00     0.274 C 
BRANCH  18  19
HETATM   19  C16 UNL     1      -9.952   7.570  -5.595  1.00  0.00     0.060 C 
BRANCH  19  20
HETATM   20  C17 UNL     1      -9.473   6.134  -5.569  1.00  0.00     0.274 C 
BRANCH  20  21
HETATM   21  N3  UNL     1      -8.152   5.945  -5.108  1.00  0.00     0.088 N 
HETATM   22  C18 UNL     1      -7.197   6.957  -5.392  1.00  0.00     0.272 C 
HETATM   23  C19 UNL     1      -5.770   6.479  -5.255  1.00  0.00     0.030 C 
HETATM   24  C20 UNL     1      -5.752   5.216  -4.412  1.00  0.00     0.003 C 
HETATM   25  C21 UNL     1      -6.681   5.350  -3.242  1.00  0.00     0.030 C 
HETATM   26  C22 UNL     1      -8.089   5.477  -3.770  1.00  0.00     0.272 C 
ENDBRANCH  20  21
ENDBRANCH  19  20
ENDBRANCH  18  19
ENDBRANCH  16  18
ENDBRANCH  12  13
BRANCH  10  27
HETATM   27  O2  UNL     1      -9.867   7.172   2.321  1.00  0.00    -0.389 OA
ATOM     28  H2  UNL     1      -9.366   7.933   2.051  1.00  0.00     0.210 HD
ENDBRANCH  10  27
BRANCH   7  29
HETATM   29  O1  UNL     1     -11.927   2.754   3.990  1.00  0.00    -0.361 OA
ATOM     30  H1  UNL     1     -11.283   2.947   4.661  1.00  0.00     0.217 HD
ENDBRANCH   7  29
TORSDOF 7
ENDMDL
MODEL 5
REMARK VINA RESULT: -7.344858001      3.584      6.617
REMARK  7 active torsions:
REMARK  status: ('A' for Active; 'I' for Inactive)
REMARK    1  A    between atoms: C7_7  and  O1_8 
REMARK    2  A    between atoms: C10_12  and  O2_13 
REMARK    3  A    between atoms: N1_16  and  C12_17 
REMARK    4  A    between atoms: N2_20  and  C15_21 
REMARK    5  A    between atoms: C15_21  and  C16_22 
REMARK    6  A    between atoms: C16_22  and  C17_23 
REMARK    7  A    between atoms: C17_23  and  N3_24 
ROOT
HETATM    1  C1  UNL     1     -12.688   7.990   1.208  1.00  0.00     0.043 C 
HETATM    2  C2  UNL     1     -12.037   7.499  -0.093  1.00  0.00     0.224 C 
HETATM    3  C3  UNL     1     -12.501   6.069  -0.338  1.00  0.00     0.074 C 
HETATM    4  C4  UNL     1     -12.320   5.210   0.849  1.00  0.00    -0.047 A 
HETATM    5  C5  UNL     1     -13.449   4.466   1.120  1.00  0.00     0.010 A 
HETATM    6  C6  UNL     1     -13.405   3.620   2.207  1.00  0.00     0.037 A 
HETATM    7  C7  UNL     1     -12.289   3.517   2.991  1.00  0.00     0.066 A 
HETATM    8  C8  UNL     1     -11.168   4.262   2.712  1.00  0.00     0.046 A 
HETATM    9  C9  UNL     1     -11.179   5.127   1.621  1.00  0.00    -0.019 A 
HETATM   10  C10 UNL     1      -9.900   5.856   1.458  1.00  0.00     0.180 C 
HETATM   11  C11 UNL     1      -9.872   6.463   0.084  1.00  0.00     0.309 C 
HETATM   12  N1  UNL     1     -10.624   7.663  -0.049  1.00  0.00     0.102 N 
ENDROOT
BRANCH  12  13
HETATM   13  C12 UNL     1     -10.085   8.423  -1.147  1.00  0.00     0.253 C 
HETATM   14  C13 UNL     1      -9.594   7.551  -2.277  1.00  0.00     0.068 C 
HETATM   15  C14 UNL     1      -9.550   8.582  -3.414  1.00  0.00     0.274 C 
HETATM   16  N2  UNL     1     -10.721   9.358  -3.251  1.00  0.00     0.090 N 
HETATM   17  C23 UNL     1     -11.110   9.272  -1.838  1.00  0.00     0.308 C 
BRANCH  16  18
HETATM   18  C15 UNL     1     -11.854   9.003  -4.032  1.00  0.00     0.274 C 
BRANCH  18  19
HETATM   19  C16 UNL     1     -13.189   9.286  -3.421  1.00  0.00     0.060 C 
BRANCH  19  20
HETATM   20  C17 UNL     1     -13.877  10.376  -4.216  1.00  0.00     0.274 C 
BRANCH  20  21
HETATM   21  N3  UNL     1     -15.228  10.127  -4.540  1.00  0.00     0.088 N 
HETATM   22  C18 UNL     1     -16.032  11.229  -4.934  1.00  0.00     0.272 C 
HETATM   23  C19 UNL     1     -17.514  10.949  -4.831  1.00  0.00     0.030 C 
HETATM   24  C20 UNL     1     -17.728   9.446  -4.790  1.00  0.00     0.003 C 
HETATM   25  C21 UNL     1     -16.837   8.759  -5.782  1.00  0.00     0.030 C 
HETATM   26  C22 UNL     1     -15.404   8.985  -5.363  1.00  0.00     0.272 C 
ENDBRANCH  20  21
ENDBRANCH  19  20
ENDBRANCH  18  19
ENDBRANCH  16  18
ENDBRANCH  12  13
BRANCH  10  27
HETATM   27  O2  UNL     1      -9.654   6.760   2.472  1.00  0.00    -0.389 OA
ATOM     28  H2  UNL     1     -10.411   6.921   3.023  1.00  0.00     0.210 HD
ENDBRANCH  10  27
BRANCH   7  29
HETATM   29  O1  UNL     1     -12.306   2.644   4.076  1.00  0.00    -0.361 OA
ATOM     30  H1  UNL     1     -11.858   2.895   4.875  1.00  0.00     0.217 HD
ENDBRANCH   7  29
TORSDOF 7
ENDMDL
