MODEL 1
REMARK VINA RESULT: -7.304546521      0.000      0.000
REMARK  6 active torsions:
REMARK  status: ('A' for Active; 'I' for Inactive)
REMARK    1  A    between atoms: C1_2  and  C2_3 
REMARK       I    between atoms: C1_2  and  N3_20 
REMARK    2  A    between atoms: C2_3  and  C3_4 
REMARK    3  A    between atoms: N2_11  and  C7_12 
REMARK    4  A    between atoms: C7_12  and  C8_13 
REMARK    5  A    between atoms: C8_13  and  C9_14 
REMARK    6  A    between atoms: N3_20  and  C15_22 
ROOT
HETATM    1  C3  UNL     1       9.462   6.075   0.160  1.00  0.00     0.188 C 
HETATM    2  C4  UNL     1      10.285   6.298   1.403  1.00  0.00     0.241 C 
HETATM    3  O2  UNL     1      11.275   7.058   1.429  1.00  0.00    -0.271 OA
HETATM    4  N1  UNL     1       9.836   5.568   2.541  1.00  0.00    -0.355 N 
ATOM      5  H1  UNL     1      10.527   5.231   3.210  1.00  0.00     0.162 HD
HETATM    6  C5  UNL     1       8.442   5.287   2.783  1.00  0.00     0.167 C 
HETATM    7  C6  UNL     1       7.571   5.475   1.555  1.00  0.00     0.083 C 
HETATM    8  N2  UNL     1       8.122   6.232   0.534  1.00  0.00    -0.358 N 
ENDROOT
BRANCH   1   9
HETATM    9  C2  UNL     1       9.692   4.682  -0.307  1.00  0.00     0.138 C 
BRANCH   9  10
HETATM   10  C1  UNL     1      10.850   4.467  -1.181  1.00  0.00     0.220 C 
HETATM   11  O1  UNL     1      11.612   5.421  -1.410  1.00  0.00    -0.274 OA
HETATM   12  N3  UNL     1      11.143   3.217  -1.777  1.00  0.00    -0.356 N 
ATOM     13  H3  UNL     1      10.510   2.441  -1.581  1.00  0.00     0.162 HD
BRANCH  12  14
HETATM   14  C15 UNL     1      12.257   2.960  -2.633  1.00  0.00     0.084 C 
HETATM   15  C16 UNL     1      13.192   1.895  -2.098  1.00  0.00     0.025 C 
HETATM   16  C17 UNL     1      14.358   1.769  -3.071  1.00  0.00     0.002 C 
HETATM   17  C18 UNL     1      13.918   1.251  -4.417  1.00  0.00     0.000 C 
HETATM   18  C19 UNL     1      12.404   1.274  -4.446  1.00  0.00     0.002 C 
HETATM   19  C20 UNL     1      11.894   2.659  -4.051  1.00  0.00     0.025 C 
ENDBRANCH  12  14
ENDBRANCH   9  10
ENDBRANCH   1   9
BRANCH   8  20
HETATM   20  C7  UNL     1       7.291   7.171  -0.092  1.00  0.00     0.064 C 
BRANCH  20  21
HETATM   21  C8  UNL     1       6.411   6.593  -1.182  1.00  0.00     0.049 C 
BRANCH  21  22
HETATM   22  C9  UNL     1       6.753   7.084  -2.547  1.00  0.00    -0.010 C 
HETATM   23  C10 UNL     1       6.844   8.596  -2.633  1.00  0.00     0.005 C 
HETATM   24  C11 UNL     1       6.601   8.967  -4.081  1.00  0.00     0.000 C 
HETATM   25  C12 UNL     1       7.629   8.266  -4.911  1.00  0.00     0.000 C 
HETATM   26  C13 UNL     1       8.621   7.478  -4.106  1.00  0.00     0.000 C 
HETATM   27  C14 UNL     1       7.971   6.491  -3.164  1.00  0.00     0.005 C 
ENDBRANCH  21  22
ENDBRANCH  20  21
ENDBRANCH   8  20
TORSDOF 6
ENDMDL
MODEL 2
REMARK VINA RESULT: -7.223466804      1.960      3.053
REMARK  6 active torsions:
REMARK  status: ('A' for Active; 'I' for Inactive)
REMARK    1  A    between atoms: C1_2  and  C2_3 
REMARK       I    between atoms: C1_2  and  N3_20 
REMARK    2  A    between atoms: C2_3  and  C3_4 
REMARK    3  A    between atoms: N2_11  and  C7_12 
REMARK    4  A    between atoms: C7_12  and  C8_13 
REMARK    5  A    between atoms: C8_13  and  C9_14 
REMARK    6  A    between atoms: N3_20  and  C15_22 
ROOT
HETATM    1  C3  UNL     1      10.976   6.636   2.642  1.00  0.00     0.188 C 
HETATM    2  C4  UNL     1      10.994   7.842   3.546  1.00  0.00     0.241 C 
HETATM    3  O2  UNL     1      10.918   9.011   3.114  1.00  0.00    -0.271 OA
HETATM    4  N1  UNL     1      11.104   7.532   4.931  1.00  0.00    -0.355 N 
ATOM      5  H1  UNL     1      11.620   8.170   5.536  1.00  0.00     0.162 HD
HETATM    6  C5  UNL     1      10.515   6.351   5.513  1.00  0.00     0.167 C 
HETATM    7  C6  UNL     1      10.135   5.303   4.484  1.00  0.00     0.083 C 
HETATM    8  N2  UNL     1      10.035   5.748   3.176  1.00  0.00    -0.358 N 
ENDROOT
BRANCH   1   9
HETATM    9  C2  UNL     1      12.326   6.013   2.669  1.00  0.00     0.138 C 
BRANCH   9  10
HETATM   10  C1  UNL     1      12.875   5.579   1.381  1.00  0.00     0.220 C 
HETATM   11  O1  UNL     1      13.972   6.034   1.016  1.00  0.00    -0.274 OA
HETATM   12  N3  UNL     1      12.212   4.663   0.530  1.00  0.00    -0.356 N 
ATOM     13  H3  UNL     1      11.312   4.296   0.841  1.00  0.00     0.162 HD
BRANCH  12  14
HETATM   14  C15 UNL     1      12.707   4.212  -0.731  1.00  0.00     0.084 C 
HETATM   15  C16 UNL     1      13.564   2.967  -0.630  1.00  0.00     0.025 C 
HETATM   16  C17 UNL     1      14.071   2.637  -2.028  1.00  0.00     0.002 C 
HETATM   17  C18 UNL     1      12.952   2.256  -2.962  1.00  0.00     0.000 C 
HETATM   18  C19 UNL     1      11.645   2.583  -2.269  1.00  0.00     0.002 C 
HETATM   19  C20 UNL     1      11.659   4.030  -1.781  1.00  0.00     0.025 C 
ENDBRANCH  12  14
ENDBRANCH   9  10
ENDBRANCH   1   9
BRANCH   8  20
HETATM   20  C7  UNL     1       8.946   5.292   2.421  1.00  0.00     0.064 C 
BRANCH  20  21
HETATM   21  C8  UNL     1       8.042   6.393   1.906  1.00  0.00     0.049 C 
BRANCH  21  22
HETATM   22  C9  UNL     1       7.661   6.230   0.475  1.00  0.00    -0.010 C 
HETATM   23  C10 UNL     1       7.135   7.507  -0.153  1.00  0.00     0.005 C 
HETATM   24  C11 UNL     1       6.270   7.094  -1.326  1.00  0.00     0.000 C 
HETATM   25  C12 UNL     1       7.117   6.284  -2.256  1.00  0.00     0.000 C 
HETATM   26  C13 UNL     1       8.550   6.170  -1.824  1.00  0.00     0.000 C 
HETATM   27  C14 UNL     1       8.705   5.649  -0.414  1.00  0.00     0.005 C 
ENDBRANCH  21  22
ENDBRANCH  20  21
ENDBRANCH   8  20
TORSDOF 6
ENDMDL
MODEL 3
REMARK VINA RESULT: -7.207341762      2.299      6.831
REMARK  6 active torsions:
REMARK  status: ('A' for Active; 'I' for Inactive)
REMARK    1  A    between atoms: C1_2  and  C2_3 
REMARK       I    between atoms: C1_2  and  N3_20 
REMARK    2  A    between atoms: C2_3  and  C3_4 
REMARK    3  A    between atoms: N2_11  and  C7_12 
REMARK    4  A    between atoms: C7_12  and  C8_13 
REMARK    5  A    between atoms: C8_13  and  C9_14 
REMARK    6  A    between atoms: N3_20  and  C15_22 
ROOT
HETATM    1  C3  UNL     1       8.216   5.846   0.993  1.00  0.00     0.188 C 
HETATM    2  C4  UNL     1       7.704   5.286   2.295  1.00  0.00     0.241 C 
HETATM    3  O2  UNL     1       7.265   4.122   2.403  1.00  0.00    -0.271 OA
HETATM    4  N1  UNL     1       7.765   6.197   3.387  1.00  0.00    -0.355 N 
ATOM      5  H1  UNL     1       7.039   6.155   4.102  1.00  0.00     0.162 HD
HETATM    6  C5  UNL     1       8.813   7.178   3.523  1.00  0.00     0.167 C 
HETATM    7  C6  UNL     1       9.582   7.415   2.237  1.00  0.00     0.083 C 
HETATM    8  N2  UNL     1       9.456   6.433   1.268  1.00  0.00    -0.358 N 
ENDROOT
BRANCH   1   9
HETATM    9  C2  UNL     1       7.261   6.887   0.526  1.00  0.00     0.138 C 
BRANCH   9  10
HETATM   10  C1  UNL     1       7.140   7.062  -0.925  1.00  0.00     0.220 C 
HETATM   11  O1  UNL     1       7.374   6.092  -1.666  1.00  0.00    -0.274 OA
HETATM   12  N3  UNL     1       6.767   8.289  -1.524  1.00  0.00    -0.356 N 
ATOM     13  H3  UNL     1       6.578   9.078  -0.905  1.00  0.00     0.162 HD
BRANCH  12  14
HETATM   14  C15 UNL     1       6.636   8.507  -2.929  1.00  0.00     0.084 C 
HETATM   15  C16 UNL     1       5.201   8.462  -3.412  1.00  0.00     0.025 C 
HETATM   16  C17 UNL     1       5.214   8.646  -4.925  1.00  0.00     0.002 C 
HETATM   17  C18 UNL     1       5.710  10.011  -5.325  1.00  0.00     0.000 C 
HETATM   18  C19 UNL     1       6.288  10.670  -4.090  1.00  0.00     0.002 C 
HETATM   19  C20 UNL     1       7.308   9.743  -3.431  1.00  0.00     0.025 C 
ENDBRANCH  12  14
ENDBRANCH   9  10
ENDBRANCH   1   9
BRANCH   8  20
HETATM   20  C7  UNL     1      10.620   6.039   0.595  1.00  0.00     0.064 C 
BRANCH  20  21
HETATM   21  C8  UNL     1      10.391   5.005  -0.488  1.00  0.00     0.049 C 
BRANCH  21  22
HETATM   22  C9  UNL     1      11.650   4.430  -1.040  1.00  0.00    -0.010 C 
HETATM   23  C10 UNL     1      12.806   4.470  -0.058  1.00  0.00     0.005 C 
HETATM   24  C11 UNL     1      14.079   4.435  -0.878  1.00  0.00     0.000 C 
HETATM   25  C12 UNL     1      14.052   3.191  -1.709  1.00  0.00     0.000 C 
HETATM   26  C13 UNL     1      12.855   2.320  -1.456  1.00  0.00     0.000 C 
HETATM   27  C14 UNL     1      11.544   3.057  -1.606  1.00  0.00     0.005 C 
ENDBRANCH  21  22
ENDBRANCH  20  21
ENDBRANCH   8  20
TORSDOF 6
ENDMDL
MODEL 4
REMARK VINA RESULT: -7.181021016      3.557      6.528
REMARK  6 active torsions:
REMARK  status: ('A' for Active; 'I' for Inactive)
REMARK    1  A    between atoms: C1_2  and  C2_3 
REMARK       I    between atoms: C1_2  and  N3_20 
REMARK    2  A    between atoms: C2_3  and  C3_4 
REMARK    3  A    between atoms: N2_11  and  C7_12 
REMARK    4  A    between atoms: C7_12  and  C8_13 
REMARK    5  A    between atoms: C8_13  and  C9_14 
REMARK    6  A    between atoms: N3_20  and  C15_22 
ROOT
HETATM    1  C3  UNL     1      10.094   5.184   4.943  1.00  0.00     0.188 C 
HETATM    2  C4  UNL     1      10.416   4.767   6.355  1.00  0.00     0.241 C 
HETATM    3  O2  UNL     1      10.971   3.683   6.629  1.00  0.00    -0.271 OA
HETATM    4  N1  UNL     1      10.032   5.715   7.347  1.00  0.00    -0.355 N 
ATOM      5  H1  UNL     1       9.721   5.374   8.256  1.00  0.00     0.162 HD
HETATM    6  C5  UNL     1      10.066   7.138   7.116  1.00  0.00     0.167 C 
HETATM    7  C6  UNL     1      10.150   7.504   5.646  1.00  0.00     0.083 C 
HETATM    8  N2  UNL     1      10.566   6.494   4.795  1.00  0.00    -0.358 N 
ENDROOT
BRANCH   1   9
HETATM    9  C2  UNL     1       8.617   5.162   4.776  1.00  0.00     0.138 C 
BRANCH   9  10
HETATM   10  C1  UNL     1       8.113   4.931   3.419  1.00  0.00     0.220 C 
HETATM   11  O1  UNL     1       7.449   3.905   3.194  1.00  0.00    -0.274 OA
HETATM   12  N3  UNL     1       8.349   5.825   2.347  1.00  0.00    -0.356 N 
ATOM     13  H3  UNL     1       8.896   6.663   2.543  1.00  0.00     0.162 HD
BRANCH  12  14
HETATM   14  C15 UNL     1       7.879   5.642   1.011  1.00  0.00     0.084 C 
HETATM   15  C16 UNL     1       7.236   6.882   0.425  1.00  0.00     0.025 C 
HETATM   16  C17 UNL     1       6.730   6.528  -0.968  1.00  0.00     0.002 C 
HETATM   17  C18 UNL     1       7.856   6.198  -1.914  1.00  0.00     0.000 C 
HETATM   18  C19 UNL     1       9.122   6.068  -1.092  1.00  0.00     0.002 C 
HETATM   19  C20 UNL     1       8.898   5.095   0.064  1.00  0.00     0.025 C 
ENDBRANCH  12  14
ENDBRANCH   9  10
ENDBRANCH   1   9
BRANCH   8  20
HETATM   20  C7  UNL     1      11.490   6.831   3.797  1.00  0.00     0.064 C 
BRANCH  20  21
HETATM   21  C8  UNL     1      12.103   5.640   3.089  1.00  0.00     0.049 C 
BRANCH  21  22
HETATM   22  C9  UNL     1      12.737   5.982   1.785  1.00  0.00    -0.010 C 
HETATM   23  C10 UNL     1      13.040   4.767   0.929  1.00  0.00     0.005 C 
HETATM   24  C11 UNL     1      14.155   5.163  -0.015  1.00  0.00     0.000 C 
HETATM   25  C12 UNL     1      13.685   6.341  -0.809  1.00  0.00     0.000 C 
HETATM   26  C13 UNL     1      12.269   6.743  -0.513  1.00  0.00     0.000 C 
HETATM   27  C14 UNL     1      12.017   6.989   0.957  1.00  0.00     0.005 C 
ENDBRANCH  21  22
ENDBRANCH  20  21
ENDBRANCH   8  20
TORSDOF 6
ENDMDL
MODEL 5
REMARK VINA RESULT: -7.136664706      1.944      7.304
REMARK  6 active torsions:
REMARK  status: ('A' for Active; 'I' for Inactive)
REMARK    1  A    between atoms: C1_2  and  C2_3 
REMARK       I    between atoms: C1_2  and  N3_20 
REMARK    2  A    between atoms: C2_3  and  C3_4 
REMARK    3  A    between atoms: N2_11  and  C7_12 
REMARK    4  A    between atoms: C7_12  and  C8_13 
REMARK    5  A    between atoms: C8_13  and  C9_14 
REMARK    6  A    between atoms: N3_20  and  C15_22 
ROOT
HETATM    1  C3  UNL     1       9.455   5.260  -1.539  1.00  0.00     0.188 C 
HETATM    2  C4  UNL     1       8.873   5.902  -0.306  1.00  0.00     0.241 C 
HETATM    3  O2  UNL     1       7.678   5.762   0.027  1.00  0.00    -0.271 OA
HETATM    4  N1  UNL     1       9.802   6.679   0.443  1.00  0.00    -0.355 N 
ATOM      5  H1  UNL     1       9.466   7.512   0.926  1.00  0.00     0.162 HD
HETATM    6  C5  UNL     1      11.198   6.335   0.545  1.00  0.00     0.167 C 
HETATM    7  C6  UNL     1      11.649   5.343  -0.510  1.00  0.00     0.083 C 
HETATM    8  N2  UNL     1      10.642   4.632  -1.141  1.00  0.00    -0.358 N 
ENDROOT
BRANCH   1   9
HETATM    9  C2  UNL     1       9.761   6.332  -2.523  1.00  0.00     0.138 C 
BRANCH   9  10
HETATM   10  C1  UNL     1       8.722   6.628  -3.514  1.00  0.00     0.220 C 
HETATM   11  O1  UNL     1       8.737   6.017  -4.596  1.00  0.00    -0.274 OA
HETATM   12  N3  UNL     1       7.699   7.582  -3.297  1.00  0.00    -0.356 N 
ATOM     13  H3  UNL     1       7.697   8.077  -2.405  1.00  0.00     0.162 HD
BRANCH  12  14
HETATM   14  C15 UNL     1       6.668   7.903  -4.231  1.00  0.00     0.084 C 
HETATM   15  C16 UNL     1       5.296   8.012  -3.598  1.00  0.00     0.025 C 
HETATM   16  C17 UNL     1       4.293   8.294  -4.710  1.00  0.00     0.002 C 
HETATM   17  C18 UNL     1       4.525   9.636  -5.355  1.00  0.00     0.000 C 
HETATM   18  C19 UNL     1       5.856  10.160  -4.859  1.00  0.00     0.002 C 
HETATM   19  C20 UNL     1       6.944   9.108  -5.070  1.00  0.00     0.025 C 
ENDBRANCH  12  14
ENDBRANCH   9  10
ENDBRANCH   1   9
BRANCH   8  20
HETATM   20  C7  UNL     1      10.850   3.262  -1.344  1.00  0.00     0.064 C 
BRANCH  20  21
HETATM   21  C8  UNL     1      12.304   2.838  -1.286  1.00  0.00     0.049 C 
BRANCH  21  22
HETATM   22  C9  UNL     1      12.893   2.545  -2.623  1.00  0.00    -0.010 C 
HETATM   23  C10 UNL     1      13.761   1.301  -2.634  1.00  0.00     0.005 C 
HETATM   24  C11 UNL     1      14.723   1.448  -3.794  1.00  0.00     0.000 C 
HETATM   25  C12 UNL     1      13.912   1.613  -5.041  1.00  0.00     0.000 C 
HETATM   26  C13 UNL     1      12.430   1.518  -4.815  1.00  0.00     0.000 C 
HETATM   27  C14 UNL     1      11.929   2.472  -3.755  1.00  0.00     0.005 C 
ENDBRANCH  21  22
ENDBRANCH  20  21
ENDBRANCH   8  20
TORSDOF 6
ENDMDL
