MODEL 1
REMARK VINA RESULT: -7.434493639      0.000      0.000
REMARK  6 active torsions:
REMARK  status: ('A' for Active; 'I' for Inactive)
REMARK       I    between atoms: C1_2  and  N1_3 
REMARK    1  A    between atoms: C1_2  and  C7_11 
REMARK    2  A    between atoms: N1_3  and  C2_5 
REMARK    3  A    between atoms: C2_5  and  C3_6 
REMARK       I    between atoms: N2_14  and  C10_15 
REMARK       I    between atoms: C10_15  and  N3_17 
REMARK    4  A    between atoms: N3_17  and  C11_19 
REMARK    5  A    between atoms: C11_19  and  C12_20 
REMARK    6  A    between atoms: C12_20  and  C13_21 
ROOT
HETATM    1  C7  UNL     1      11.680   5.750  -0.158  1.00  0.00     0.182 C 
HETATM    2  C8  UNL     1      10.974   5.825  -1.496  1.00  0.00     0.055 C 
HETATM    3  C9  UNL     1      10.023   4.847  -0.837  1.00  0.00     0.131 C 
HETATM    4  N2  UNL     1      10.409   5.406   0.432  1.00  0.00    -0.321 N 
HETATM    5  C10 UNL     1       9.818   5.558   1.700  1.00  0.00     0.319 C 
HETATM    6  O3  UNL     1       8.643   5.124   1.870  1.00  0.00    -0.247 OA
HETATM    7  N3  UNL     1      10.519   6.183   2.767  1.00  0.00    -0.343 N 
ATOM      8  H3  UNL     1      11.467   6.524   2.606  1.00  0.00     0.164 HD
ENDROOT
BRANCH   1   9
HETATM    9  C1  UNL     1      12.726   4.696  -0.066  1.00  0.00     0.240 C 
HETATM   10  O1  UNL     1      13.198   4.456   1.062  1.00  0.00    -0.271 OA
HETATM   11  N1  UNL     1      13.152   4.012  -1.201  1.00  0.00    -0.357 N 
ATOM     12  H1  UNL     1      12.710   4.286  -2.078  1.00  0.00     0.162 HD
BRANCH  11  13
HETATM   13  C2  UNL     1      14.122   2.983  -1.294  1.00  0.00     0.154 C 
BRANCH  13  14
HETATM   14  C3  UNL     1      13.958   1.958  -2.356  1.00  0.00     0.139 C 
HETATM   15  C4  UNL     1      12.730   2.218  -3.214  1.00  0.00     0.035 C 
HETATM   16  C5  UNL     1      13.067   1.424  -4.453  1.00  0.00     0.029 C 
HETATM   17  C6  UNL     1      14.559   1.411  -4.436  1.00  0.00     0.168 C 
HETATM   18  O2  UNL     1      15.010   1.785  -3.186  1.00  0.00    -0.384 OA
ENDBRANCH  13  14
ENDBRANCH  11  13
ENDBRANCH   1   9
BRANCH   7  19
HETATM   19  C11 UNL     1       9.926   6.345   4.066  1.00  0.00     0.125 C 
BRANCH  19  20
HETATM   20  C12 UNL     1      10.314   5.187   4.932  1.00  0.00     0.024 C 
BRANCH  20  21
HETATM   21  C13 UNL     1      10.901   5.598   6.243  1.00  0.00    -0.013 C 
HETATM   22  C14 UNL     1      11.383   4.374   6.984  1.00  0.00     0.005 C 
HETATM   23  C15 UNL     1      11.588   4.760   8.421  1.00  0.00     0.000 C 
HETATM   24  C16 UNL     1      12.556   5.892   8.499  1.00  0.00     0.000 C 
HETATM   25  C17 UNL     1      13.096   6.354   7.189  1.00  0.00     0.000 C 
HETATM   26  C18 UNL     1      12.041   6.558   6.132  1.00  0.00     0.005 C 
ENDBRANCH  20  21
ENDBRANCH  19  20
ENDBRANCH   7  19
TORSDOF 6
ENDMDL
MODEL 2
REMARK VINA RESULT: -7.332605913      1.134      1.848
REMARK  6 active torsions:
REMARK  status: ('A' for Active; 'I' for Inactive)
REMARK       I    between atoms: C1_2  and  N1_3 
REMARK    1  A    between atoms: C1_2  and  C7_11 
REMARK    2  A    between atoms: N1_3  and  C2_5 
REMARK    3  A    between atoms: C2_5  and  C3_6 
REMARK       I    between atoms: N2_14  and  C10_15 
REMARK       I    between atoms: C10_15  and  N3_17 
REMARK    4  A    between atoms: N3_17  and  C11_19 
REMARK    5  A    between atoms: C11_19  and  C12_20 
REMARK    6  A    between atoms: C12_20  and  C13_21 
ROOT
HETATM    1  C7  UNL     1      11.653   5.736  -0.209  1.00  0.00     0.182 C 
HETATM    2  C8  UNL     1      10.924   5.763  -1.536  1.00  0.00     0.055 C 
HETATM    3  C9  UNL     1       9.998   4.792  -0.834  1.00  0.00     0.131 C 
HETATM    4  N2  UNL     1      10.397   5.392   0.411  1.00  0.00    -0.321 N 
HETATM    5  C10 UNL     1       9.825   5.573   1.685  1.00  0.00     0.319 C 
HETATM    6  O3  UNL     1       8.659   5.128   1.887  1.00  0.00    -0.247 OA
HETATM    7  N3  UNL     1      10.535   6.237   2.721  1.00  0.00    -0.343 N 
ATOM      8  H3  UNL     1      11.476   6.585   2.535  1.00  0.00     0.164 HD
ENDROOT
BRANCH   1   9
HETATM    9  C1  UNL     1      12.715   4.699  -0.105  1.00  0.00     0.240 C 
HETATM   10  O1  UNL     1      13.192   4.481   1.025  1.00  0.00    -0.271 OA
HETATM   11  N1  UNL     1      13.149   4.005  -1.232  1.00  0.00    -0.357 N 
ATOM     12  H1  UNL     1      12.701   4.260  -2.111  1.00  0.00     0.162 HD
BRANCH  11  13
HETATM   13  C2  UNL     1      14.134   2.989  -1.312  1.00  0.00     0.154 C 
BRANCH  13  14
HETATM   14  C3  UNL     1      13.987   1.952  -2.365  1.00  0.00     0.139 C 
HETATM   15  C4  UNL     1      12.759   2.188  -3.230  1.00  0.00     0.035 C 
HETATM   16  C5  UNL     1      13.111   1.387  -4.460  1.00  0.00     0.029 C 
HETATM   17  C6  UNL     1      14.603   1.395  -4.438  1.00  0.00     0.168 C 
HETATM   18  O2  UNL     1      15.044   1.786  -3.191  1.00  0.00    -0.384 OA
ENDBRANCH  13  14
ENDBRANCH  11  13
ENDBRANCH   1   9
BRANCH   7  19
HETATM   19  C11 UNL     1       9.962   6.429   4.025  1.00  0.00     0.125 C 
BRANCH  19  20
HETATM   20  C12 UNL     1      10.911   5.910   5.061  1.00  0.00     0.024 C 
BRANCH  20  21
HETATM   21  C13 UNL     1      12.320   6.359   4.851  1.00  0.00    -0.013 C 
HETATM   22  C14 UNL     1      12.380   7.867   4.907  1.00  0.00     0.005 C 
HETATM   23  C15 UNL     1      13.688   8.296   4.308  1.00  0.00     0.000 C 
HETATM   24  C16 UNL     1      14.811   7.652   5.049  1.00  0.00     0.000 C 
HETATM   25  C17 UNL     1      14.400   6.779   6.185  1.00  0.00     0.000 C 
HETATM   26  C18 UNL     1      13.294   5.813   5.844  1.00  0.00     0.005 C 
ENDBRANCH  20  21
ENDBRANCH  19  20
ENDBRANCH   7  19
TORSDOF 6
ENDMDL
MODEL 3
REMARK VINA RESULT: -7.310037006      1.085      1.429
REMARK  6 active torsions:
REMARK  status: ('A' for Active; 'I' for Inactive)
REMARK       I    between atoms: C1_2  and  N1_3 
REMARK    1  A    between atoms: C1_2  and  C7_11 
REMARK    2  A    between atoms: N1_3  and  C2_5 
REMARK    3  A    between atoms: C2_5  and  C3_6 
REMARK       I    between atoms: N2_14  and  C10_15 
REMARK       I    between atoms: C10_15  and  N3_17 
REMARK    4  A    between atoms: N3_17  and  C11_19 
REMARK    5  A    between atoms: C11_19  and  C12_20 
REMARK    6  A    between atoms: C12_20  and  C13_21 
ROOT
HETATM    1  C7  UNL     1      12.052   5.972  -0.269  1.00  0.00     0.182 C 
HETATM    2  C8  UNL     1      10.932   5.777  -1.270  1.00  0.00     0.055 C 
HETATM    3  C9  UNL     1      10.192   5.252  -0.058  1.00  0.00     0.131 C 
HETATM    4  N2  UNL     1      11.042   6.081   0.756  1.00  0.00    -0.321 N 
HETATM    5  C10 UNL     1      10.945   6.724   2.005  1.00  0.00     0.319 C 
HETATM    6  O3  UNL     1       9.871   6.603   2.660  1.00  0.00    -0.247 OA
HETATM    7  N3  UNL     1      12.025   7.489   2.521  1.00  0.00    -0.343 N 
ATOM      8  H3  UNL     1      12.883   7.571   1.975  1.00  0.00     0.164 HD
ENDROOT
BRANCH   1   9
HETATM    9  C1  UNL     1      12.970   4.809  -0.130  1.00  0.00     0.240 C 
HETATM   10  O1  UNL     1      13.306   4.481   1.024  1.00  0.00    -0.271 OA
HETATM   11  N1  UNL     1      13.428   4.123  -1.251  1.00  0.00    -0.357 N 
ATOM     12  H1  UNL     1      13.100   4.472  -2.152  1.00  0.00     0.162 HD
BRANCH  11  13
HETATM   13  C2  UNL     1      14.291   3.000  -1.302  1.00  0.00     0.154 C 
BRANCH  13  14
HETATM   14  C3  UNL     1      14.048   1.976  -2.350  1.00  0.00     0.139 C 
HETATM   15  C4  UNL     1      12.797   2.274  -3.160  1.00  0.00     0.035 C 
HETATM   16  C5  UNL     1      13.056   1.463  -4.406  1.00  0.00     0.029 C 
HETATM   17  C6  UNL     1      14.546   1.397  -4.449  1.00  0.00     0.168 C 
HETATM   18  O2  UNL     1      15.059   1.761  -3.220  1.00  0.00    -0.384 OA
ENDBRANCH  13  14
ENDBRANCH  11  13
ENDBRANCH   1   9
BRANCH   7  19
HETATM   19  C11 UNL     1      11.939   8.151   3.794  1.00  0.00     0.125 C 
BRANCH  19  20
HETATM   20  C12 UNL     1      12.919   7.528   4.740  1.00  0.00     0.024 C 
BRANCH  20  21
HETATM   21  C13 UNL     1      12.270   6.755   5.841  1.00  0.00    -0.013 C 
HETATM   22  C14 UNL     1      12.606   5.291   5.693  1.00  0.00     0.005 C 
HETATM   23  C15 UNL     1      11.642   4.512   6.541  1.00  0.00     0.000 C 
HETATM   24  C16 UNL     1      11.733   4.978   7.955  1.00  0.00     0.000 C 
HETATM   25  C17 UNL     1      12.734   6.055   8.202  1.00  0.00     0.000 C 
HETATM   26  C18 UNL     1      12.664   7.191   7.215  1.00  0.00     0.005 C 
ENDBRANCH  20  21
ENDBRANCH  19  20
ENDBRANCH   7  19
TORSDOF 6
ENDMDL
MODEL 4
REMARK VINA RESULT: -7.240582393      1.484      2.311
REMARK  6 active torsions:
REMARK  status: ('A' for Active; 'I' for Inactive)
REMARK       I    between atoms: C1_2  and  N1_3 
REMARK    1  A    between atoms: C1_2  and  C7_11 
REMARK    2  A    between atoms: N1_3  and  C2_5 
REMARK    3  A    between atoms: C2_5  and  C3_6 
REMARK       I    between atoms: N2_14  and  C10_15 
REMARK       I    between atoms: C10_15  and  N3_17 
REMARK    4  A    between atoms: N3_17  and  C11_19 
REMARK    5  A    between atoms: C11_19  and  C12_20 
REMARK    6  A    between atoms: C12_20  and  C13_21 
ROOT
HETATM    1  C7  UNL     1      11.914   5.769  -0.177  1.00  0.00     0.182 C 
HETATM    2  C8  UNL     1      11.166   5.853  -1.492  1.00  0.00     0.055 C 
HETATM    3  C9  UNL     1      10.180   4.955  -0.774  1.00  0.00     0.131 C 
HETATM    4  N2  UNL     1      10.645   5.522   0.464  1.00  0.00    -0.321 N 
HETATM    5  C10 UNL     1      10.110   5.746   1.747  1.00  0.00     0.319 C 
HETATM    6  O3  UNL     1       8.917   5.392   1.969  1.00  0.00    -0.247 OA
HETATM    7  N3  UNL     1      10.886   6.352   2.771  1.00  0.00    -0.343 N 
ATOM      8  H3  UNL     1      11.848   6.627   2.568  1.00  0.00     0.164 HD
ENDROOT
BRANCH   1   9
HETATM    9  C1  UNL     1      12.894   4.653  -0.091  1.00  0.00     0.240 C 
HETATM   10  O1  UNL     1      13.253   4.295   1.048  1.00  0.00    -0.271 OA
HETATM   11  N1  UNL     1      13.382   4.040  -1.241  1.00  0.00    -0.357 N 
ATOM     12  H1  UNL     1      13.031   4.408  -2.125  1.00  0.00     0.162 HD
BRANCH  11  13
HETATM   13  C2  UNL     1      14.303   2.968  -1.342  1.00  0.00     0.154 C 
BRANCH  13  14
HETATM   14  C3  UNL     1      14.074   1.941  -2.390  1.00  0.00     0.139 C 
HETATM   15  C4  UNL     1      12.803   2.208  -3.181  1.00  0.00     0.035 C 
HETATM   16  C5  UNL     1      13.066   1.409  -4.434  1.00  0.00     0.029 C 
HETATM   17  C6  UNL     1      14.556   1.384  -4.498  1.00  0.00     0.168 C 
HETATM   18  O2  UNL     1      15.077   1.758  -3.276  1.00  0.00    -0.384 OA
ENDBRANCH  13  14
ENDBRANCH  11  13
ENDBRANCH   1   9
BRANCH   7  19
HETATM   19  C11 UNL     1      10.352   6.587   4.084  1.00  0.00     0.125 C 
BRANCH  19  20
HETATM   20  C12 UNL     1      10.651   5.406   4.956  1.00  0.00     0.024 C 
BRANCH  20  21
HETATM   21  C13 UNL     1       9.482   4.963   5.773  1.00  0.00    -0.013 C 
HETATM   22  C14 UNL     1       8.787   6.171   6.352  1.00  0.00     0.005 C 
HETATM   23  C15 UNL     1       7.893   5.698   7.462  1.00  0.00     0.000 C 
HETATM   24  C16 UNL     1       6.934   4.687   6.933  1.00  0.00     0.000 C 
HETATM   25  C17 UNL     1       7.059   4.399   5.475  1.00  0.00     0.000 C 
HETATM   26  C18 UNL     1       8.475   4.157   5.020  1.00  0.00     0.005 C 
ENDBRANCH  20  21
ENDBRANCH  19  20
ENDBRANCH   7  19
TORSDOF 6
ENDMDL
MODEL 5
REMARK VINA RESULT: -7.169575767      3.515      8.364
REMARK  6 active torsions:
REMARK  status: ('A' for Active; 'I' for Inactive)
REMARK       I    between atoms: C1_2  and  N1_3 
REMARK    1  A    between atoms: C1_2  and  C7_11 
REMARK    2  A    between atoms: N1_3  and  C2_5 
REMARK    3  A    between atoms: C2_5  and  C3_6 
REMARK       I    between atoms: N2_14  and  C10_15 
REMARK       I    between atoms: C10_15  and  N3_17 
REMARK    4  A    between atoms: N3_17  and  C11_19 
REMARK    5  A    between atoms: C11_19  and  C12_20 
REMARK    6  A    between atoms: C12_20  and  C13_21 
ROOT
HETATM    1  C7  UNL     1      13.064   5.448   5.648  1.00  0.00     0.182 C 
HETATM    2  C8  UNL     1      12.128   5.014   6.756  1.00  0.00     0.055 C 
HETATM    3  C9  UNL     1      11.172   5.964   6.066  1.00  0.00     0.131 C 
HETATM    4  N2  UNL     1      11.897   5.726   4.846  1.00  0.00    -0.321 N 
HETATM    5  C10 UNL     1      11.609   5.749   3.468  1.00  0.00     0.319 C 
HETATM    6  O3  UNL     1      10.434   6.045   3.106  1.00  0.00    -0.247 OA
HETATM    7  N3  UNL     1      12.609   5.451   2.504  1.00  0.00    -0.343 N 
ATOM      8  H3  UNL     1      13.550   5.217   2.821  1.00  0.00     0.164 HD
ENDROOT
BRANCH   1   9
HETATM    9  C1  UNL     1      13.904   6.632   5.973  1.00  0.00     0.240 C 
HETATM   10  O1  UNL     1      13.921   7.012   7.160  1.00  0.00    -0.271 OA
HETATM   11  N1  UNL     1      14.639   7.280   4.984  1.00  0.00    -0.357 N 
ATOM     12  H1  UNL     1      14.554   6.897   4.043  1.00  0.00     0.162 HD
BRANCH  11  13
HETATM   13  C2  UNL     1      15.490   8.405   5.117  1.00  0.00     0.154 C 
BRANCH  13  14
HETATM   14  C3  UNL     1      16.866   8.186   5.631  1.00  0.00     0.139 C 
HETATM   15  C4  UNL     1      17.300   6.736   5.498  1.00  0.00     0.035 C 
HETATM   16  C5  UNL     1      18.802   6.873   5.572  1.00  0.00     0.029 C 
HETATM   17  C6  UNL     1      19.027   8.261   5.073  1.00  0.00     0.168 C 
HETATM   18  O2  UNL     1      17.836   8.956   5.089  1.00  0.00    -0.384 OA
ENDBRANCH  13  14
ENDBRANCH  11  13
ENDBRANCH   1   9
BRANCH   7  19
HETATM   19  C11 UNL     1      12.328   5.470   1.095  1.00  0.00     0.125 C 
BRANCH  19  20
HETATM   20  C12 UNL     1      13.552   5.047   0.343  1.00  0.00     0.024 C 
BRANCH  20  21
HETATM   21  C13 UNL     1      13.246   4.312  -0.921  1.00  0.00    -0.013 C 
HETATM   22  C14 UNL     1      13.895   2.950  -0.879  1.00  0.00     0.005 C 
HETATM   23  C15 UNL     1      13.915   2.409  -2.280  1.00  0.00     0.000 C 
HETATM   24  C16 UNL     1      12.524   2.362  -2.815  1.00  0.00     0.000 C 
HETATM   25  C17 UNL     1      11.467   2.825  -1.871  1.00  0.00     0.000 C 
HETATM   26  C18 UNL     1      11.788   4.129  -1.188  1.00  0.00     0.005 C 
ENDBRANCH  20  21
ENDBRANCH  19  20
ENDBRANCH   7  19
TORSDOF 6
ENDMDL
