MODEL 1
REMARK VINA RESULT: -7.033745692      0.000      0.000
REMARK  6 active torsions:
REMARK  status: ('A' for Active; 'I' for Inactive)
REMARK    1  A    between atoms: C1_2  and  C2_3 
REMARK       I    between atoms: C1_2  and  N2_11 
REMARK    2  A    between atoms: C2_3  and  C3_4 
REMARK    3  A    between atoms: N2_11  and  C7_13 
REMARK    4  A    between atoms: N3_15  and  C9_16 
REMARK    5  A    between atoms: C9_16  and  C10_17 
REMARK    6  A    between atoms: C10_17  and  C11_18 
ROOT
HETATM    1  C7  UNL     1       9.787   6.056  -1.734  1.00  0.00     0.184 C 
HETATM    2  C8  UNL     1       8.745   6.015  -0.635  1.00  0.00     0.305 C 
HETATM    3  N3  UNL     1       7.465   6.248  -1.226  1.00  0.00     0.098 N 
HETATM    4  C19 UNL     1       7.614   6.070  -2.630  1.00  0.00     0.352 C 
HETATM    5  C20 UNL     1       9.005   6.591  -2.884  1.00  0.00     0.179 C 
HETATM    6  O2  UNL     1       9.387   7.276  -3.802  1.00  0.00    -0.294 OA
ENDROOT
BRANCH   1   7
HETATM    7  N2  UNL     1      10.177   4.684  -1.973  1.00  0.00    -0.348 N 
HETATM    8  C1  UNL     1      11.368   4.197  -1.377  1.00  0.00     0.220 C 
HETATM    9  O1  UNL     1      12.076   4.936  -0.654  1.00  0.00    -0.274 OA
ATOM     10  H2  UNL     1       9.604   4.077  -2.560  1.00  0.00     0.163 HD
BRANCH   8  11
HETATM   11  C2  UNL     1      11.802   2.797  -1.598  1.00  0.00     0.135 C 
BRANCH  11  12
HETATM   12  C3  UNL     1      12.679   2.732  -2.812  1.00  0.00     0.194 C 
HETATM   13  C4  UNL     1      13.862   1.845  -2.464  1.00  0.00     0.035 C 
HETATM   14  C5  UNL     1      13.818   0.750  -3.497  1.00  0.00     0.029 C 
HETATM   15  C6  UNL     1      13.063   1.428  -4.621  1.00  0.00     0.233 C 
HETATM   16  N1  UNL     1      11.984   2.092  -3.914  1.00  0.00    -0.070 N 
ATOM     17  H12 UNL     1      11.212   1.483  -3.639  1.00  0.00     0.277 HD
ATOM     18  H11 UNL     1      11.417   2.718  -4.486  1.00  0.00     0.277 HD
ENDBRANCH  11  12
ENDBRANCH   8  11
ENDBRANCH   1   7
BRANCH   3  19
HETATM   19  C9  UNL     1       6.988   7.544  -0.818  1.00  0.00     0.273 C 
BRANCH  19  20
HETATM   20  C10 UNL     1       5.604   7.757  -1.294  1.00  0.00     0.040 C 
BRANCH  20  21
HETATM   21  C11 UNL     1       5.471   8.854  -2.327  1.00  0.00    -0.035 C 
HETATM   22  C12 UNL     1       4.867   8.237  -3.592  1.00  0.00     0.010 C 
HETATM   23  C13 UNL     1       4.501   9.278  -4.598  1.00  0.00     0.001 C 
HETATM   24  C14 UNL     1       5.631  10.246  -4.839  1.00  0.00     0.000 C 
HETATM   25  C15 UNL     1       6.901   9.843  -4.122  1.00  0.00     0.005 C 
HETATM   26  C16 UNL     1       6.691   9.653  -2.634  1.00  0.00    -0.006 C 
HETATM   27  C17 UNL     1       6.062  10.899  -2.011  1.00  0.00     0.006 C 
HETATM   28  C18 UNL     1       4.783  10.107  -1.860  1.00  0.00     0.010 C 
ENDBRANCH  20  21
ENDBRANCH  19  20
ENDBRANCH   3  19
TORSDOF 6
ENDMDL
MODEL 2
REMARK VINA RESULT: -6.892992274      3.337      8.398
REMARK  6 active torsions:
REMARK  status: ('A' for Active; 'I' for Inactive)
REMARK    1  A    between atoms: C1_2  and  C2_3 
REMARK       I    between atoms: C1_2  and  N2_11 
REMARK    2  A    between atoms: C2_3  and  C3_4 
REMARK    3  A    between atoms: N2_11  and  C7_13 
REMARK    4  A    between atoms: N3_15  and  C9_16 
REMARK    5  A    between atoms: C9_16  and  C10_17 
REMARK    6  A    between atoms: C10_17  and  C11_18 
ROOT
HETATM    1  C7  UNL     1       7.141   8.633  -3.716  1.00  0.00     0.184 C 
HETATM    2  C8  UNL     1       7.925   7.337  -3.681  1.00  0.00     0.305 C 
HETATM    3  N3  UNL     1       7.302   6.465  -2.735  1.00  0.00     0.098 N 
HETATM    4  C19 UNL     1       6.007   6.995  -2.469  1.00  0.00     0.352 C 
HETATM    5  C20 UNL     1       6.237   8.483  -2.541  1.00  0.00     0.179 C 
HETATM    6  O2  UNL     1       5.792   9.341  -1.818  1.00  0.00    -0.294 OA
ENDROOT
BRANCH   1   7
HETATM    7  N2  UNL     1       6.386   8.614  -4.949  1.00  0.00    -0.348 N 
HETATM    8  C1  UNL     1       5.933   9.844  -5.495  1.00  0.00     0.220 C 
HETATM    9  O1  UNL     1       6.181  10.931  -4.923  1.00  0.00    -0.274 OA
ATOM     10  H2  UNL     1       6.183   7.732  -5.419  1.00  0.00     0.163 HD
BRANCH   8  11
HETATM   11  C2  UNL     1       5.157   9.866  -6.756  1.00  0.00     0.135 C 
BRANCH  11  12
HETATM   12  C3  UNL     1       6.094  10.019  -7.916  1.00  0.00     0.194 C 
HETATM   13  C4  UNL     1       5.364   9.522  -9.152  1.00  0.00     0.035 C 
HETATM   14  C5  UNL     1       5.384  10.698 -10.090  1.00  0.00     0.029 C 
HETATM   15  C6  UNL     1       6.587  11.466  -9.584  1.00  0.00     0.233 C 
HETATM   16  N1  UNL     1       6.403  11.419  -8.146  1.00  0.00    -0.070 N 
ATOM     17  H12 UNL     1       5.714  12.076  -7.779  1.00  0.00     0.277 HD
ATOM     18  H11 UNL     1       7.185  11.780  -7.601  1.00  0.00     0.277 HD
ENDBRANCH  11  12
ENDBRANCH   8  11
ENDBRANCH   1   7
BRANCH   3  19
HETATM   19  C9  UNL     1       8.158   6.327  -1.587  1.00  0.00     0.273 C 
BRANCH  19  20
HETATM   20  C10 UNL     1       9.532   5.977  -2.007  1.00  0.00     0.040 C 
BRANCH  20  21
HETATM   21  C11 UNL     1      10.440   5.574  -0.867  1.00  0.00    -0.035 C 
HETATM   22  C12 UNL     1       9.762   5.987   0.443  1.00  0.00     0.010 C 
HETATM   23  C13 UNL     1      10.480   5.447   1.635  1.00  0.00     0.001 C 
HETATM   24  C14 UNL     1      11.961   5.722   1.570  1.00  0.00     0.000 C 
HETATM   25  C15 UNL     1      12.335   6.601   0.397  1.00  0.00     0.005 C 
HETATM   26  C16 UNL     1      11.854   6.039  -0.924  1.00  0.00    -0.006 C 
HETATM   27  C17 UNL     1      12.346   4.604  -1.115  1.00  0.00     0.006 C 
HETATM   28  C18 UNL     1      10.921   4.149  -0.891  1.00  0.00     0.010 C 
ENDBRANCH  20  21
ENDBRANCH  19  20
ENDBRANCH   3  19
TORSDOF 6
ENDMDL
MODEL 3
REMARK VINA RESULT: -6.849539933      5.136      7.177
REMARK  6 active torsions:
REMARK  status: ('A' for Active; 'I' for Inactive)
REMARK    1  A    between atoms: C1_2  and  C2_3 
REMARK       I    between atoms: C1_2  and  N2_11 
REMARK    2  A    between atoms: C2_3  and  C3_4 
REMARK    3  A    between atoms: N2_11  and  C7_13 
REMARK    4  A    between atoms: N3_15  and  C9_16 
REMARK    5  A    between atoms: C9_16  and  C10_17 
REMARK    6  A    between atoms: C10_17  and  C11_18 
ROOT
HETATM    1  C7  UNL     1      12.828   4.759   0.372  1.00  0.00     0.184 C 
HETATM    2  C8  UNL     1      11.540   5.172   1.053  1.00  0.00     0.305 C 
HETATM    3  N3  UNL     1      11.161   6.455   0.549  1.00  0.00     0.098 N 
HETATM    4  C19 UNL     1      11.922   6.680  -0.633  1.00  0.00     0.352 C 
HETATM    5  C20 UNL     1      13.236   6.017  -0.312  1.00  0.00     0.179 C 
HETATM    6  O2  UNL     1      14.350   6.417  -0.556  1.00  0.00    -0.294 OA
ENDROOT
BRANCH   1   7
HETATM    7  N2  UNL     1      12.467   3.744  -0.593  1.00  0.00    -0.348 N 
HETATM    8  C1  UNL     1      13.480   2.891  -1.102  1.00  0.00     0.220 C 
HETATM    9  O1  UNL     1      14.670   3.009  -0.726  1.00  0.00    -0.274 OA
ATOM     10  H2  UNL     1      11.500   3.643  -0.902  1.00  0.00     0.163 HD
BRANCH   8  11
HETATM   11  C2  UNL     1      13.151   1.840  -2.093  1.00  0.00     0.135 C 
BRANCH  11  12
HETATM   12  C3  UNL     1      12.803   2.480  -3.403  1.00  0.00     0.194 C 
HETATM   13  C4  UNL     1      13.275   1.541  -4.500  1.00  0.00     0.035 C 
HETATM   14  C5  UNL     1      12.030   1.248  -5.295  1.00  0.00     0.029 C 
HETATM   15  C6  UNL     1      11.180   2.461  -4.979  1.00  0.00     0.233 C 
HETATM   16  N1  UNL     1      11.364   2.605  -3.548  1.00  0.00    -0.070 N 
ATOM     17  H12 UNL     1      10.818   1.960  -2.977  1.00  0.00     0.277 HD
ATOM     18  H11 UNL     1      10.965   3.454  -3.146  1.00  0.00     0.277 HD
ENDBRANCH  11  12
ENDBRANCH   8  11
ENDBRANCH   1   7
BRANCH   3  19
HETATM   19  C9  UNL     1      11.333   7.437   1.587  1.00  0.00     0.273 C 
BRANCH  19  20
HETATM   20  C10 UNL     1      11.212   6.807   2.919  1.00  0.00     0.040 C 
BRANCH  20  21
HETATM   21  C11 UNL     1      12.199   7.329   3.939  1.00  0.00    -0.035 C 
HETATM   22  C12 UNL     1      13.603   7.206   3.340  1.00  0.00     0.010 C 
HETATM   23  C13 UNL     1      14.629   7.888   4.184  1.00  0.00     0.001 C 
HETATM   24  C14 UNL     1      14.518   7.488   5.633  1.00  0.00     0.000 C 
HETATM   25  C15 UNL     1      13.501   6.389   5.855  1.00  0.00     0.005 C 
HETATM   26  C16 UNL     1      12.134   6.748   5.310  1.00  0.00    -0.006 C 
HETATM   27  C17 UNL     1      11.655   8.084   5.881  1.00  0.00     0.006 C 
HETATM   28  C18 UNL     1      11.887   8.684   4.512  1.00  0.00     0.010 C 
ENDBRANCH  20  21
ENDBRANCH  19  20
ENDBRANCH   3  19
TORSDOF 6
ENDMDL
MODEL 4
REMARK VINA RESULT: -6.808518592      1.553      1.988
REMARK  6 active torsions:
REMARK  status: ('A' for Active; 'I' for Inactive)
REMARK    1  A    between atoms: C1_2  and  C2_3 
REMARK       I    between atoms: C1_2  and  N2_11 
REMARK    2  A    between atoms: C2_3  and  C3_4 
REMARK    3  A    between atoms: N2_11  and  C7_13 
REMARK    4  A    between atoms: N3_15  and  C9_16 
REMARK    5  A    between atoms: C9_16  and  C10_17 
REMARK    6  A    between atoms: C10_17  and  C11_18 
ROOT
HETATM    1  C7  UNL     1      11.076   4.925  -0.261  1.00  0.00     0.184 C 
HETATM    2  C8  UNL     1       9.575   4.787  -0.418  1.00  0.00     0.305 C 
HETATM    3  N3  UNL     1       9.136   5.759  -1.369  1.00  0.00     0.098 N 
HETATM    4  C19 UNL     1      10.293   6.222  -2.057  1.00  0.00     0.352 C 
HETATM    5  C20 UNL     1      11.349   6.199  -0.983  1.00  0.00     0.179 C 
HETATM    6  O2  UNL     1      12.207   7.021  -0.765  1.00  0.00    -0.294 OA
ENDROOT
BRANCH   1   7
HETATM    7  N2  UNL     1      11.660   3.803  -0.963  1.00  0.00    -0.348 N 
HETATM    8  C1  UNL     1      12.991   3.421  -0.656  1.00  0.00     0.220 C 
HETATM    9  O1  UNL     1      13.656   4.040   0.208  1.00  0.00    -0.274 OA
ATOM     10  H2  UNL     1      11.123   3.296  -1.667  1.00  0.00     0.163 HD
BRANCH   8  11
HETATM   11  C2  UNL     1      13.625   2.278  -1.353  1.00  0.00     0.135 C 
BRANCH  11  12
HETATM   12  C3  UNL     1      13.638   2.538  -2.830  1.00  0.00     0.194 C 
HETATM   13  C4  UNL     1      14.626   1.565  -3.449  1.00  0.00     0.035 C 
HETATM   14  C5  UNL     1      13.811   0.806  -4.462  1.00  0.00     0.029 C 
HETATM   15  C6  UNL     1      12.692   1.788  -4.744  1.00  0.00     0.233 C 
HETATM   16  N1  UNL     1      12.341   2.248  -3.414  1.00  0.00    -0.070 N 
ATOM     17  H12 UNL     1      11.762   1.603  -2.875  1.00  0.00     0.277 HD
ATOM     18  H11 UNL     1      11.676   3.022  -3.388  1.00  0.00     0.277 HD
ENDBRANCH  11  12
ENDBRANCH   8  11
ENDBRANCH   1   7
BRANCH   3  19
HETATM   19  C9  UNL     1       8.377   6.775  -0.688  1.00  0.00     0.273 C 
BRANCH  19  20
HETATM   20  C10 UNL     1       6.933   6.459  -0.736  1.00  0.00     0.040 C 
BRANCH  20  21
HETATM   21  C11 UNL     1       6.143   7.336  -1.682  1.00  0.00    -0.035 C 
HETATM   22  C12 UNL     1       5.269   6.425  -2.550  1.00  0.00     0.010 C 
HETATM   23  C13 UNL     1       4.297   7.205  -3.371  1.00  0.00     0.001 C 
HETATM   24  C14 UNL     1       4.968   8.335  -4.110  1.00  0.00     0.000 C 
HETATM   25  C15 UNL     1       6.473   8.314  -3.959  1.00  0.00     0.005 C 
HETATM   26  C16 UNL     1       6.909   8.312  -2.508  1.00  0.00    -0.006 C 
HETATM   27  C17 UNL     1       6.283   9.483  -1.751  1.00  0.00     0.006 C 
HETATM   28  C18 UNL     1       5.402   8.478  -1.044  1.00  0.00     0.010 C 
ENDBRANCH  20  21
ENDBRANCH  19  20
ENDBRANCH   3  19
TORSDOF 6
ENDMDL
MODEL 5
REMARK VINA RESULT: -6.793224230      5.156      7.187
REMARK  6 active torsions:
REMARK  status: ('A' for Active; 'I' for Inactive)
REMARK    1  A    between atoms: C1_2  and  C2_3 
REMARK       I    between atoms: C1_2  and  N2_11 
REMARK    2  A    between atoms: C2_3  and  C3_4 
REMARK    3  A    between atoms: N2_11  and  C7_13 
REMARK    4  A    between atoms: N3_15  and  C9_16 
REMARK    5  A    between atoms: C9_16  and  C10_17 
REMARK    6  A    between atoms: C10_17  and  C11_18 
ROOT
HETATM    1  C7  UNL     1      12.870   4.767   0.380  1.00  0.00     0.184 C 
HETATM    2  C8  UNL     1      11.604   5.171   1.107  1.00  0.00     0.305 C 
HETATM    3  N3  UNL     1      11.199   6.452   0.619  1.00  0.00     0.098 N 
HETATM    4  C19 UNL     1      11.916   6.684  -0.589  1.00  0.00     0.352 C 
HETATM    5  C20 UNL     1      13.245   6.030  -0.316  1.00  0.00     0.179 C 
HETATM    6  O2  UNL     1      14.347   6.438  -0.598  1.00  0.00    -0.294 OA
ENDROOT
BRANCH   1   7
HETATM    7  N2  UNL     1      12.482   3.752  -0.574  1.00  0.00    -0.348 N 
HETATM    8  C1  UNL     1      13.479   2.892  -1.103  1.00  0.00     0.220 C 
HETATM    9  O1  UNL     1      14.677   3.003  -0.753  1.00  0.00    -0.274 OA
ATOM     10  H2  UNL     1      11.508   3.657  -0.862  1.00  0.00     0.163 HD
BRANCH   8  11
HETATM   11  C2  UNL     1      13.121   1.840  -2.082  1.00  0.00     0.135 C 
BRANCH  11  12
HETATM   12  C3  UNL     1      12.799   2.474  -3.402  1.00  0.00     0.194 C 
HETATM   13  C4  UNL     1      13.267   1.519  -4.486  1.00  0.00     0.035 C 
HETATM   14  C5  UNL     1      12.026   1.241  -5.292  1.00  0.00     0.029 C 
HETATM   15  C6  UNL     1      11.194   2.471  -4.996  1.00  0.00     0.233 C 
HETATM   16  N1  UNL     1      11.364   2.623  -3.563  1.00  0.00    -0.070 N 
ATOM     17  H12 UNL     1      10.801   1.992  -2.994  1.00  0.00     0.277 HD
ATOM     18  H11 UNL     1      10.975   3.482  -3.173  1.00  0.00     0.277 HD
ENDBRANCH  11  12
ENDBRANCH   8  11
ENDBRANCH   1   7
BRANCH   3  19
HETATM   19  C9  UNL     1      11.401   7.434   1.652  1.00  0.00     0.273 C 
BRANCH  19  20
HETATM   20  C10 UNL     1      10.892   6.932   2.947  1.00  0.00     0.040 C 
BRANCH  20  21
HETATM   21  C11 UNL     1      11.916   6.950   4.060  1.00  0.00    -0.035 C 
HETATM   22  C12 UNL     1      11.813   5.622   4.816  1.00  0.00     0.010 C 
HETATM   23  C13 UNL     1      12.922   5.455   5.800  1.00  0.00     0.001 C 
HETATM   24  C14 UNL     1      13.084   6.673   6.673  1.00  0.00     0.000 C 
HETATM   25  C15 UNL     1      11.997   7.700   6.442  1.00  0.00     0.005 C 
HETATM   26  C16 UNL     1      11.892   8.114   4.989  1.00  0.00    -0.006 C 
HETATM   27  C17 UNL     1      13.244   8.596   4.462  1.00  0.00     0.006 C 
HETATM   28  C18 UNL     1      13.314   7.321   3.651  1.00  0.00     0.010 C 
ENDBRANCH  20  21
ENDBRANCH  19  20
ENDBRANCH   3  19
TORSDOF 6
ENDMDL
