MODEL 1
REMARK VINA RESULT: -7.808042758      0.000      0.000
REMARK  7 active torsions:
REMARK  status: ('A' for Active; 'I' for Inactive)
REMARK    1  A    between atoms: C2_2  and  C3_3 
REMARK    2  A    between atoms: C2_2  and  C9_12 
REMARK    3  A    between atoms: C3_3  and  N1_4 
REMARK    4  A    between atoms: C7_8  and  C8_9 
REMARK    5  A    between atoms: C8_9  and  O1_10 
REMARK    6  A    between atoms: C12_15  and  C13_16 
REMARK    7  A    between atoms: C13_16  and  N2_17 
REMARK       I    between atoms: N2_17  and  C14_19 
REMARK       I    between atoms: C14_19  and  N3_21 
ROOT
HETATM    1  C9  UNL     1      11.185   5.292  -0.813  1.00  0.00     0.019 C 
HETATM    2  C10 UNL     1      11.483   5.953   0.540  1.00  0.00     0.010 C 
HETATM    3  C11 UNL     1      10.130   6.671   0.791  1.00  0.00     0.007 C 
HETATM    4  C12 UNL     1       9.227   5.437   0.618  1.00  0.00     0.004 C 
HETATM    5  C20 UNL     1       9.722   4.860  -0.677  1.00  0.00     0.015 C 
ENDROOT
BRANCH   1   6
HETATM    6  C2  UNL     1      11.996   4.100  -1.067  1.00  0.00    -0.048 C 
HETATM    7  C1  UNL     1      13.171   4.019  -0.401  1.00  0.00     0.020 C 
BRANCH   6   8
HETATM    8  C3  UNL     1      11.633   2.946  -1.927  1.00  0.00     0.092 C 
BRANCH   8   9
HETATM    9  N1  UNL     1      12.562   2.648  -2.890  1.00  0.00    -0.383 N 
HETATM   10  C4  UNL     1      13.922   2.384  -2.662  1.00  0.00     0.123 C 
HETATM   11  C5  UNL     1      14.204   1.045  -3.366  1.00  0.00     0.022 C 
HETATM   12  C6  UNL     1      13.262   1.083  -4.531  1.00  0.00     0.029 C 
HETATM   13  C7  UNL     1      12.156   1.993  -4.080  1.00  0.00     0.107 C 
BRANCH  13  14
HETATM   14  C8  UNL     1      11.689   2.905  -5.181  1.00  0.00     0.189 C 
BRANCH  14  15
HETATM   15  O1  UNL     1      10.320   2.886  -5.359  1.00  0.00    -0.399 OA
ATOM     16  H1  UNL     1      10.042   3.306  -6.164  1.00  0.00     0.209 HD
ENDBRANCH  14  15
ENDBRANCH  13  14
ENDBRANCH   8   9
ENDBRANCH   6   8
ENDBRANCH   1   6
BRANCH   4  17
HETATM   17  C13 UNL     1       7.783   5.831   0.572  1.00  0.00     0.129 C 
BRANCH  17  18
HETATM   18  N2  UNL     1       7.512   6.495  -0.695  1.00  0.00    -0.343 N 
HETATM   19  C14 UNL     1       6.755   7.669  -0.705  1.00  0.00     0.318 C 
HETATM   20  O2  UNL     1       6.329   8.092   0.427  1.00  0.00    -0.247 OA
HETATM   21  N3  UNL     1       6.452   8.379  -1.879  1.00  0.00    -0.334 N 
HETATM   22  C15 UNL     1       6.913   7.978  -3.167  1.00  0.00     0.127 C 
HETATM   23  C19 UNL     1       5.595   9.588  -1.728  1.00  0.00     0.127 C 
HETATM   24  C16 UNL     1       7.493   9.103  -4.006  1.00  0.00     0.020 C 
HETATM   25  C17 UNL     1       7.175  10.427  -3.359  1.00  0.00     0.003 C 
HETATM   26  C18 UNL     1       5.694  10.400  -2.998  1.00  0.00     0.020 C 
ATOM     27  H2  UNL     1       7.873   6.107  -1.567  1.00  0.00     0.164 HD
ENDBRANCH  17  18
ENDBRANCH   4  17
TORSDOF 7
ENDMDL
MODEL 2
REMARK VINA RESULT: -7.686027114      3.451      6.289
REMARK  7 active torsions:
REMARK  status: ('A' for Active; 'I' for Inactive)
REMARK    1  A    between atoms: C2_2  and  C3_3 
REMARK    2  A    between atoms: C2_2  and  C9_12 
REMARK    3  A    between atoms: C3_3  and  N1_4 
REMARK    4  A    between atoms: C7_8  and  C8_9 
REMARK    5  A    between atoms: C8_9  and  O1_10 
REMARK    6  A    between atoms: C12_15  and  C13_16 
REMARK    7  A    between atoms: C13_16  and  N2_17 
REMARK       I    between atoms: N2_17  and  C14_19 
REMARK       I    between atoms: C14_19  and  N3_21 
ROOT
HETATM    1  C9  UNL     1      11.730   5.810   2.203  1.00  0.00     0.019 C 
HETATM    2  C10 UNL     1      12.890   6.045   1.224  1.00  0.00     0.010 C 
HETATM    3  C11 UNL     1      12.469   5.089   0.076  1.00  0.00     0.007 C 
HETATM    4  C12 UNL     1      11.050   5.648  -0.124  1.00  0.00     0.004 C 
HETATM    5  C20 UNL     1      10.516   5.670   1.280  1.00  0.00     0.015 C 
ENDROOT
BRANCH   1   6
HETATM    6  C2  UNL     1      11.496   6.938   3.106  1.00  0.00    -0.048 C 
HETATM    7  C1  UNL     1      11.457   8.165   2.538  1.00  0.00     0.020 C 
BRANCH   6   8
HETATM    8  C3  UNL     1      11.235   6.866   4.565  1.00  0.00     0.092 C 
BRANCH   8   9
HETATM    9  N1  UNL     1      10.032   6.297   4.894  1.00  0.00    -0.383 N 
HETATM   10  C4  UNL     1       8.772   6.732   4.453  1.00  0.00     0.123 C 
HETATM   11  C5  UNL     1       8.089   5.484   3.865  1.00  0.00     0.022 C 
HETATM   12  C6  UNL     1       8.648   4.378   4.708  1.00  0.00     0.029 C 
HETATM   13  C7  UNL     1       9.967   4.912   5.187  1.00  0.00     0.107 C 
BRANCH  13  14
HETATM   14  C8  UNL     1      10.234   4.552   6.623  1.00  0.00     0.189 C 
BRANCH  14  15
HETATM   15  O1  UNL     1      11.377   3.795   6.789  1.00  0.00    -0.399 OA
ATOM     16  H1  UNL     1      11.202   2.924   7.129  1.00  0.00     0.209 HD
ENDBRANCH  14  15
ENDBRANCH  13  14
ENDBRANCH   8   9
ENDBRANCH   6   8
ENDBRANCH   1   6
BRANCH   4  17
HETATM   17  C13 UNL     1      10.253   4.773  -1.041  1.00  0.00     0.129 C 
BRANCH  17  18
HETATM   18  N2  UNL     1       9.588   5.606  -2.033  1.00  0.00    -0.343 N 
HETATM   19  C14 UNL     1       8.283   6.045  -1.795  1.00  0.00     0.318 C 
HETATM   20  O2  UNL     1       7.738   5.670  -0.697  1.00  0.00    -0.247 OA
HETATM   21  N3  UNL     1       7.569   6.857  -2.693  1.00  0.00    -0.334 N 
HETATM   22  C15 UNL     1       8.122   7.328  -3.919  1.00  0.00     0.127 C 
HETATM   23  C19 UNL     1       6.170   7.202  -2.315  1.00  0.00     0.127 C 
HETATM   24  C16 UNL     1       7.887   8.804  -4.189  1.00  0.00     0.020 C 
HETATM   25  C17 UNL     1       6.875   9.339  -3.207  1.00  0.00     0.003 C 
HETATM   26  C18 UNL     1       5.714   8.351  -3.184  1.00  0.00     0.020 C 
ATOM     27  H2  UNL     1      10.070   5.868  -2.893  1.00  0.00     0.164 HD
ENDBRANCH  17  18
ENDBRANCH   4  17
TORSDOF 7
ENDMDL
MODEL 3
REMARK VINA RESULT: -7.674001038      1.658      2.199
REMARK  7 active torsions:
REMARK  status: ('A' for Active; 'I' for Inactive)
REMARK    1  A    between atoms: C2_2  and  C3_3 
REMARK    2  A    between atoms: C2_2  and  C9_12 
REMARK    3  A    between atoms: C3_3  and  N1_4 
REMARK    4  A    between atoms: C7_8  and  C8_9 
REMARK    5  A    between atoms: C8_9  and  O1_10 
REMARK    6  A    between atoms: C12_15  and  C13_16 
REMARK    7  A    between atoms: C13_16  and  N2_17 
REMARK       I    between atoms: N2_17  and  C14_19 
REMARK       I    between atoms: C14_19  and  N3_21 
ROOT
HETATM    1  C9  UNL     1      12.244   6.298   1.497  1.00  0.00     0.019 C 
HETATM    2  C10 UNL     1      11.840   5.674   2.841  1.00  0.00     0.010 C 
HETATM    3  C11 UNL     1      10.421   6.283   3.002  1.00  0.00     0.007 C 
HETATM    4  C12 UNL     1       9.865   5.828   1.641  1.00  0.00     0.004 C 
HETATM    5  C20 UNL     1      10.941   6.274   0.693  1.00  0.00     0.015 C 
ENDROOT
BRANCH   1   6
HETATM    6  C2  UNL     1      13.248   5.515   0.773  1.00  0.00    -0.048 C 
HETATM    7  C1  UNL     1      14.367   6.175   0.396  1.00  0.00     0.020 C 
BRANCH   6   8
HETATM    8  C3  UNL     1      13.191   4.064   0.469  1.00  0.00     0.092 C 
BRANCH   8   9
HETATM    9  N1  UNL     1      13.223   3.768  -0.869  1.00  0.00    -0.383 N 
HETATM   10  C4  UNL     1      14.351   3.337  -1.586  1.00  0.00     0.123 C 
HETATM   11  C5  UNL     1      13.911   2.055  -2.313  1.00  0.00     0.022 C 
HETATM   12  C6  UNL     1      12.459   2.312  -2.580  1.00  0.00     0.029 C 
HETATM   13  C7  UNL     1      12.055   3.284  -1.510  1.00  0.00     0.107 C 
BRANCH  13  14
HETATM   14  C8  UNL     1      11.129   4.348  -2.034  1.00  0.00     0.189 C 
BRANCH  14  15
HETATM   15  O1  UNL     1       9.864   4.284  -1.487  1.00  0.00    -0.399 OA
ATOM     16  H1  UNL     1       9.639   5.052  -0.973  1.00  0.00     0.209 HD
ENDBRANCH  14  15
ENDBRANCH  13  14
ENDBRANCH   8   9
ENDBRANCH   6   8
ENDBRANCH   1   6
BRANCH   4  17
HETATM   17  C13 UNL     1       8.538   6.465   1.365  1.00  0.00     0.129 C 
BRANCH  17  18
HETATM   18  N2  UNL     1       8.329   6.521  -0.075  1.00  0.00    -0.343 N 
HETATM   19  C14 UNL     1       7.263   7.267  -0.584  1.00  0.00     0.318 C 
HETATM   20  O2  UNL     1       6.514   7.862   0.269  1.00  0.00    -0.247 OA
HETATM   21  N3  UNL     1       6.992   7.382  -1.959  1.00  0.00    -0.334 N 
HETATM   22  C15 UNL     1       7.797   6.767  -2.961  1.00  0.00     0.127 C 
HETATM   23  C19 UNL     1       5.791   8.177  -2.339  1.00  0.00     0.127 C 
HETATM   24  C16 UNL     1       8.153   7.674  -4.126  1.00  0.00     0.020 C 
HETATM   25  C17 UNL     1       7.321   8.929  -4.057  1.00  0.00     0.003 C 
HETATM   26  C18 UNL     1       5.880   8.494  -3.814  1.00  0.00     0.020 C 
ATOM     27  H2  UNL     1       8.955   6.021  -0.706  1.00  0.00     0.164 HD
ENDBRANCH  17  18
ENDBRANCH   4  17
TORSDOF 7
ENDMDL
MODEL 4
REMARK VINA RESULT: -7.673833757      2.219      7.286
REMARK  7 active torsions:
REMARK  status: ('A' for Active; 'I' for Inactive)
REMARK    1  A    between atoms: C2_2  and  C3_3 
REMARK    2  A    between atoms: C2_2  and  C9_12 
REMARK    3  A    between atoms: C3_3  and  N1_4 
REMARK    4  A    between atoms: C7_8  and  C8_9 
REMARK    5  A    between atoms: C8_9  and  O1_10 
REMARK    6  A    between atoms: C12_15  and  C13_16 
REMARK    7  A    between atoms: C13_16  and  N2_17 
REMARK       I    between atoms: N2_17  and  C14_19 
REMARK       I    between atoms: C14_19  and  N3_21 
ROOT
HETATM    1  C9  UNL     1       7.397   5.889   0.123  1.00  0.00     0.019 C 
HETATM    2  C10 UNL     1       7.235   6.269   1.601  1.00  0.00     0.010 C 
HETATM    3  C11 UNL     1       8.548   5.675   2.176  1.00  0.00     0.007 C 
HETATM    4  C12 UNL     1       9.514   6.380   1.207  1.00  0.00     0.004 C 
HETATM    5  C20 UNL     1       8.894   6.088  -0.129  1.00  0.00     0.015 C 
ENDROOT
BRANCH   1   6
HETATM    6  C2  UNL     1       6.655   6.766  -0.786  1.00  0.00    -0.048 C 
HETATM    7  C1  UNL     1       6.556   8.064  -0.421  1.00  0.00     0.020 C 
BRANCH   6   8
HETATM    8  C3  UNL     1       6.060   6.390  -2.092  1.00  0.00     0.092 C 
BRANCH   8   9
HETATM    9  N1  UNL     1       6.515   7.130  -3.152  1.00  0.00    -0.383 N 
HETATM   10  C4  UNL     1       5.755   8.049  -3.895  1.00  0.00     0.123 C 
HETATM   11  C5  UNL     1       6.573   9.352  -3.897  1.00  0.00     0.022 C 
HETATM   12  C6  UNL     1       7.985   8.852  -3.862  1.00  0.00     0.029 C 
HETATM   13  C7  UNL     1       7.881   7.501  -3.216  1.00  0.00     0.107 C 
BRANCH  13  14
HETATM   14  C8  UNL     1       8.784   6.491  -3.870  1.00  0.00     0.189 C 
BRANCH  14  15
HETATM   15  O1  UNL     1       8.519   6.315  -5.214  1.00  0.00    -0.399 OA
ATOM     16  H1  UNL     1       8.389   5.404  -5.452  1.00  0.00     0.209 HD
ENDBRANCH  14  15
ENDBRANCH  13  14
ENDBRANCH   8   9
ENDBRANCH   6   8
ENDBRANCH   1   6
BRANCH   4  17
HETATM   17  C13 UNL     1      10.903   5.835   1.342  1.00  0.00     0.129 C 
BRANCH  17  18
HETATM   18  N2  UNL     1      11.272   5.167   0.103  1.00  0.00    -0.343 N 
HETATM   19  C14 UNL     1      12.548   4.612  -0.022  1.00  0.00     0.318 C 
HETATM   20  O2  UNL     1      13.334   4.737   0.983  1.00  0.00    -0.247 OA
HETATM   21  N3  UNL     1      12.987   3.943  -1.177  1.00  0.00    -0.334 N 
HETATM   22  C15 UNL     1      12.159   3.748  -2.320  1.00  0.00     0.127 C 
HETATM   23  C19 UNL     1      14.392   3.448  -1.171  1.00  0.00     0.127 C 
HETATM   24  C16 UNL     1      12.188   2.339  -2.885  1.00  0.00     0.020 C 
HETATM   25  C17 UNL     1      13.316   1.566  -2.249  1.00  0.00     0.003 C 
HETATM   26  C18 UNL     1      14.551   2.459  -2.302  1.00  0.00     0.020 C 
ATOM     27  H2  UNL     1      10.606   5.103  -0.667  1.00  0.00     0.164 HD
ENDBRANCH  17  18
ENDBRANCH   4  17
TORSDOF 7
ENDMDL
MODEL 5
REMARK VINA RESULT: -7.634312079      2.128      2.923
REMARK  7 active torsions:
REMARK  status: ('A' for Active; 'I' for Inactive)
REMARK    1  A    between atoms: C2_2  and  C3_3 
REMARK    2  A    between atoms: C2_2  and  C9_12 
REMARK    3  A    between atoms: C3_3  and  N1_4 
REMARK    4  A    between atoms: C7_8  and  C8_9 
REMARK    5  A    between atoms: C8_9  and  O1_10 
REMARK    6  A    between atoms: C12_15  and  C13_16 
REMARK    7  A    between atoms: C13_16  and  N2_17 
REMARK       I    between atoms: N2_17  and  C14_19 
REMARK       I    between atoms: C14_19  and  N3_21 
ROOT
HETATM    1  C9  UNL     1      11.057   6.204   0.261  1.00  0.00     0.019 C 
HETATM    2  C10 UNL     1       9.817   5.315   0.426  1.00  0.00     0.010 C 
HETATM    3  C11 UNL     1       8.941   5.861  -0.733  1.00  0.00     0.007 C 
HETATM    4  C12 UNL     1       9.981   5.686  -1.854  1.00  0.00     0.004 C 
HETATM    5  C20 UNL     1      11.201   6.328  -1.258  1.00  0.00     0.015 C 
ENDROOT
BRANCH   1   6
HETATM    6  C2  UNL     1      12.280   5.597   0.792  1.00  0.00    -0.048 C 
HETATM    7  C1  UNL     1      13.078   6.402   1.531  1.00  0.00     0.020 C 
BRANCH   6   8
HETATM    8  C3  UNL     1      12.697   4.180   0.658  1.00  0.00     0.092 C 
BRANCH   8   9
HETATM    9  N1  UNL     1      13.089   3.826  -0.608  1.00  0.00    -0.383 N 
HETATM   10  C4  UNL     1      14.309   4.168  -1.213  1.00  0.00     0.123 C 
HETATM   11  C5  UNL     1      14.904   2.841  -1.717  1.00  0.00     0.022 C 
HETATM   12  C6  UNL     1      13.682   2.043  -2.058  1.00  0.00     0.029 C 
HETATM   13  C7  UNL     1      12.608   2.623  -1.182  1.00  0.00     0.107 C 
BRANCH  13  14
HETATM   14  C8  UNL     1      11.294   2.743  -1.904  1.00  0.00     0.189 C 
BRANCH  14  15
HETATM   15  O1  UNL     1      11.417   2.652  -3.276  1.00  0.00    -0.399 OA
ATOM     16  H1  UNL     1      10.704   3.071  -3.743  1.00  0.00     0.209 HD
ENDBRANCH  14  15
ENDBRANCH  13  14
ENDBRANCH   8   9
ENDBRANCH   6   8
ENDBRANCH   1   6
BRANCH   4  17
HETATM   17  C13 UNL     1       9.525   6.350  -3.117  1.00  0.00     0.129 C 
BRANCH  17  18
HETATM   18  N2  UNL     1       8.129   6.737  -2.972  1.00  0.00    -0.343 N 
HETATM   19  C14 UNL     1       7.619   7.767  -3.766  1.00  0.00     0.318 C 
HETATM   20  O2  UNL     1       8.433   8.325  -4.584  1.00  0.00    -0.247 OA
HETATM   21  N3  UNL     1       6.284   8.201  -3.698  1.00  0.00    -0.334 N 
HETATM   22  C15 UNL     1       5.321   7.611  -2.829  1.00  0.00     0.127 C 
HETATM   23  C19 UNL     1       5.906   9.342  -4.578  1.00  0.00     0.127 C 
HETATM   24  C16 UNL     1       3.984   7.308  -3.484  1.00  0.00     0.020 C 
HETATM   25  C17 UNL     1       3.925   7.973  -4.835  1.00  0.00     0.003 C 
HETATM   26  C18 UNL     1       4.397   9.410  -4.644  1.00  0.00     0.020 C 
ATOM     27  H2  UNL     1       7.530   6.261  -2.298  1.00  0.00     0.164 HD
ENDBRANCH  17  18
ENDBRANCH   4  17
TORSDOF 7
ENDMDL
