MODEL 1
REMARK VINA RESULT: -5.701599788      0.000      0.000
REMARK  16 active torsions:
REMARK  status: ('A' for Active; 'I' for Inactive)
REMARK    1  A    between atoms: O1_2  and  C2_3 
REMARK    2  A    between atoms: C2_3  and  C3_4 
REMARK    3  A    between atoms: C2_3  and  C15_41 
REMARK    4  A    between atoms: C3_4  and  O2_5 
REMARK    5  A    between atoms: O2_5  and  C4_6 
REMARK    6  A    between atoms: C4_6  and  C5_7 
REMARK    7  A    between atoms: C4_6  and  C6_10 
REMARK    8  A    between atoms: C9_13  and  O5_14 
REMARK    9  A    between atoms: C11_19  and  O6_20 
REMARK   10  A    between atoms: C12_22  and  O7_23 
REMARK   11  A    between atoms: C13_28  and  O8_29 
REMARK   12  A    between atoms: C14_36  and  N8_37 
REMARK   13  A    between atoms: N8_37  and  N9_38 
REMARK   14  A    between atoms: C15_41  and  O9_42 
REMARK   15  A    between atoms: C15_41  and  C16_44 
REMARK   16  A    between atoms: C16_44  and  O10_45 
ROOT
HETATM    1  C6  UNL     1       4.462   9.101   4.382  1.00  0.00     0.072 A 
HETATM    2  C7  UNL     1       5.157   8.101   3.729  1.00  0.00     0.038 A 
HETATM    3  C8  UNL     1       6.360   8.339   3.088  1.00  0.00     0.080 A 
HETATM    4  C9  UNL     1       6.830   9.663   3.152  1.00  0.00     0.138 A 
HETATM    5  C10 UNL     1       6.114  10.632   3.812  1.00  0.00     0.152 A 
HETATM    6  N1  UNL     1       6.400  11.965   3.990  1.00  0.00    -0.317 N 
ATOM      7  H1  UNL     1       7.230  12.437   3.631  1.00  0.00     0.169 HD
HETATM    8  C11 UNL     1       5.448  12.543   4.692  1.00  0.00     0.194 A 
HETATM    9  C12 UNL     1       4.499  11.542   4.985  1.00  0.00     0.201 A 
HETATM   10  N2  UNL     1       4.947  10.408   4.431  1.00  0.00    -0.272 N 
HETATM   11  N3  UNL     1       7.154   7.429   2.381  1.00  0.00    -0.347 N 
ATOM     12  H3  UNL     1       8.130   7.429   2.678  1.00  0.00     0.163 HD
HETATM   13  C13 UNL     1       6.885   6.500   1.330  1.00  0.00     0.335 C 
HETATM   14  N4  UNL     1       5.595   6.475   0.768  1.00  0.00    -0.076 NA
HETATM   15  N5  UNL     1       5.115   5.132   0.823  1.00  0.00    -0.013 NA
HETATM   16  N6  UNL     1       4.640   4.934   2.142  1.00  0.00    -0.015 NA
HETATM   17  N7  UNL     1       4.203   6.148   2.581  1.00  0.00    -0.296 N 
ATOM     18  H7  UNL     1       3.533   6.678   2.022  1.00  0.00     0.179 HD
HETATM   19  C14 UNL     1       4.667   6.673   3.793  1.00  0.00     0.247 C 
ENDROOT
BRANCH   1  20
HETATM   20  C4  UNL     1       3.139   8.916   5.002  1.00  0.00     0.273 C 
BRANCH  20  21
HETATM   21  O2  UNL     1       2.207   9.903   4.610  1.00  0.00    -0.366 OA
BRANCH  21  22
HETATM   22  C3  UNL     1       1.106   9.409   3.981  1.00  0.00     0.204 C 
BRANCH  22  23
HETATM   23  C2  UNL     1       1.018   9.949   2.569  1.00  0.00     0.175 C 
BRANCH  23  24
HETATM   24  O1  UNL     1      -0.204  10.457   2.247  1.00  0.00    -0.386 OA
HETATM   25  C1  UNL     1      -1.260   9.982   2.978  1.00  0.00     0.202 C 
ENDBRANCH  23  24
BRANCH  23  26
HETATM   26  C15 UNL     1       1.448   8.842   1.651  1.00  0.00     0.172 C 
BRANCH  26  27
HETATM   27  O9  UNL     1       1.556   7.625   2.336  1.00  0.00    -0.391 OA
ATOM     28  H9  UNL     1       2.388   7.202   2.160  1.00  0.00     0.210 HD
ENDBRANCH  26  27
BRANCH  26  29
HETATM   29  C16 UNL     1       2.755   9.069   0.961  1.00  0.00     0.198 C 
BRANCH  29  30
HETATM   30  O10 UNL     1       3.265   7.952   0.326  1.00  0.00    -0.398 OA
ATOM     31  H10 UNL     1       2.676   7.560  -0.307  1.00  0.00     0.209 HD
ENDBRANCH  29  30
ENDBRANCH  26  29
ENDBRANCH  23  26
ENDBRANCH  22  23
ENDBRANCH  21  22
ENDBRANCH  20  21
BRANCH  20  32
HETATM   32  C5  UNL     1       3.190   9.029   6.484  1.00  0.00     0.209 C 
HETATM   33  O3  UNL     1       2.375   9.579   7.229  1.00  0.00    -0.646 OA
HETATM   34  O4  UNL     1       4.308   8.427   7.080  1.00  0.00    -0.646 OA
ENDBRANCH  20  32
ENDBRANCH   1  20
BRANCH  19  35
HETATM   35  N8  UNL     1       5.868   5.918   4.297  1.00  0.00    -0.117 NA
BRANCH  35  36
HETATM   36  N9  UNL     1       5.949   5.965   5.669  1.00  0.00    -0.346 N 
ATOM     37  H92 UNL     1       6.437   6.701   6.180  1.00  0.00     0.172 HD
ATOM     38  H91 UNL     1       5.462   5.177   6.096  1.00  0.00     0.172 HD
ENDBRANCH  35  36
ENDBRANCH  19  35
BRANCH   9  39
HETATM   39  O7  UNL     1       3.352  11.780   5.713  1.00  0.00    -0.343 OA
ATOM     40  H7  UNL     1       2.835  12.572   5.624  1.00  0.00     0.219 HD
ENDBRANCH   9  39
BRANCH   4  41
HETATM   41  O5  UNL     1       8.021  10.046   2.563  1.00  0.00    -0.355 OA
ATOM     42  H5  UNL     1       8.498  10.817   2.847  1.00  0.00     0.218 HD
ENDBRANCH   4  41
BRANCH   8  43
HETATM   43  O6  UNL     1       5.350  13.860   5.090  1.00  0.00    -0.343 OA
ATOM     44  H6  UNL     1       5.994  14.393   5.542  1.00  0.00     0.219 HD
ENDBRANCH   8  43
BRANCH  13  45
HETATM   45  O8  UNL     1       7.847   6.761   0.295  1.00  0.00    -0.362 OA
ATOM     46  H8  UNL     1       8.641   6.301   0.541  1.00  0.00     0.213 HD
ENDBRANCH  13  45
TORSDOF 16
ENDMDL
MODEL 2
REMARK VINA RESULT: -5.505980723      2.418      6.727
REMARK  16 active torsions:
REMARK  status: ('A' for Active; 'I' for Inactive)
REMARK    1  A    between atoms: O1_2  and  C2_3 
REMARK    2  A    between atoms: C2_3  and  C3_4 
REMARK    3  A    between atoms: C2_3  and  C15_41 
REMARK    4  A    between atoms: C3_4  and  O2_5 
REMARK    5  A    between atoms: O2_5  and  C4_6 
REMARK    6  A    between atoms: C4_6  and  C5_7 
REMARK    7  A    between atoms: C4_6  and  C6_10 
REMARK    8  A    between atoms: C9_13  and  O5_14 
REMARK    9  A    between atoms: C11_19  and  O6_20 
REMARK   10  A    between atoms: C12_22  and  O7_23 
REMARK   11  A    between atoms: C13_28  and  O8_29 
REMARK   12  A    between atoms: C14_36  and  N8_37 
REMARK   13  A    between atoms: N8_37  and  N9_38 
REMARK   14  A    between atoms: C15_41  and  O9_42 
REMARK   15  A    between atoms: C15_41  and  C16_44 
REMARK   16  A    between atoms: C16_44  and  O10_45 
ROOT
HETATM    1  C6  UNL     1       4.777   7.275   3.331  1.00  0.00     0.072 A 
HETATM    2  C7  UNL     1       5.116   8.430   4.009  1.00  0.00     0.038 A 
HETATM    3  C8  UNL     1       5.188   8.480   5.390  1.00  0.00     0.080 A 
HETATM    4  C9  UNL     1       4.899   7.276   6.055  1.00  0.00     0.138 A 
HETATM    5  C10 UNL     1       4.567   6.145   5.350  1.00  0.00     0.152 A 
HETATM    6  N1  UNL     1       4.259   4.885   5.808  1.00  0.00    -0.317 N 
ATOM      7  H1  UNL     1       4.231   4.611   6.790  1.00  0.00     0.169 HD
HETATM    8  C11 UNL     1       4.004   4.084   4.794  1.00  0.00     0.194 A 
HETATM    9  C12 UNL     1       4.154   4.856   3.624  1.00  0.00     0.201 A 
HETATM   10  N2  UNL     1       4.493   6.092   4.014  1.00  0.00    -0.272 N 
HETATM   11  N3  UNL     1       5.500   9.580   6.197  1.00  0.00    -0.347 N 
ATOM     12  H3  UNL     1       6.234   9.384   6.879  1.00  0.00     0.163 HD
HETATM   13  C13 UNL     1       5.008  10.918   6.268  1.00  0.00     0.335 C 
HETATM   14  N4  UNL     1       3.928  11.283   5.442  1.00  0.00    -0.076 NA
HETATM   15  N5  UNL     1       4.305  12.445   4.706  1.00  0.00    -0.013 NA
HETATM   16  N6  UNL     1       5.095  11.989   3.622  1.00  0.00    -0.015 NA
HETATM   17  N7  UNL     1       4.642  10.740   3.315  1.00  0.00    -0.296 N 
ATOM     18  H7  UNL     1       3.649  10.590   3.139  1.00  0.00     0.179 HD
HETATM   19  C14 UNL     1       5.533   9.663   3.240  1.00  0.00     0.247 C 
ENDROOT
BRANCH   1  20
HETATM   20  C4  UNL     1       4.604   7.195   1.871  1.00  0.00     0.273 C 
BRANCH  20  21
HETATM   21  O2  UNL     1       5.781   7.527   1.162  1.00  0.00    -0.366 OA
BRANCH  21  22
HETATM   22  C3  UNL     1       6.798   6.637   1.326  1.00  0.00     0.204 C 
BRANCH  22  23
HETATM   23  C2  UNL     1       8.061   7.351   1.758  1.00  0.00     0.175 C 
BRANCH  23  24
HETATM   24  O1  UNL     1       8.851   7.751   0.724  1.00  0.00    -0.386 OA
HETATM   25  C1  UNL     1      10.161   7.999   1.033  1.00  0.00     0.202 C 
ENDBRANCH  23  24
BRANCH  23  26
HETATM   26  C15 UNL     1       8.772   6.439   2.714  1.00  0.00     0.172 C 
BRANCH  26  27
HETATM   27  O9  UNL     1       8.544   5.093   2.400  1.00  0.00    -0.391 OA
ATOM     28  H9  UNL     1       7.675   4.818   2.668  1.00  0.00     0.210 HD
ENDBRANCH  26  27
BRANCH  26  29
HETATM   29  C16 UNL     1       8.398   6.618   4.151  1.00  0.00     0.198 C 
BRANCH  29  30
HETATM   30  O10 UNL     1       7.801   5.512   4.725  1.00  0.00    -0.398 OA
ATOM     31  H10 UNL     1       7.205   5.714   5.437  1.00  0.00     0.209 HD
ENDBRANCH  29  30
ENDBRANCH  26  29
ENDBRANCH  23  26
ENDBRANCH  22  23
ENDBRANCH  21  22
ENDBRANCH  20  21
BRANCH  20  32
HETATM   32  C5  UNL     1       3.591   8.159   1.368  1.00  0.00     0.209 C 
HETATM   33  O3  UNL     1       3.769   9.124   0.621  1.00  0.00    -0.646 OA
HETATM   34  O4  UNL     1       2.281   7.917   1.811  1.00  0.00    -0.646 OA
ENDBRANCH  20  32
ENDBRANCH   1  20
BRANCH  19  35
HETATM   35  N8  UNL     1       6.870  10.009   3.841  1.00  0.00    -0.117 NA
BRANCH  35  36
HETATM   36  N9  UNL     1       7.692  10.612   2.919  1.00  0.00    -0.346 N 
ATOM     37  H92 UNL     1       8.009  10.155   2.063  1.00  0.00     0.172 HD
ATOM     38  H91 UNL     1       7.936  11.560   3.203  1.00  0.00     0.172 HD
ENDBRANCH  35  36
ENDBRANCH  19  35
BRANCH   9  39
HETATM   39  O7  UNL     1       3.965   4.347   2.355  1.00  0.00    -0.343 OA
ATOM     40  H7  UNL     1       3.331   3.669   2.157  1.00  0.00     0.219 HD
ENDBRANCH   9  39
BRANCH   4  41
HETATM   41  O5  UNL     1       4.936   7.175   7.435  1.00  0.00    -0.355 OA
ATOM     42  H5  UNL     1       5.176   6.367   7.873  1.00  0.00     0.218 HD
ENDBRANCH   4  41
BRANCH   8  43
HETATM   43  O6  UNL     1       3.658   2.750   4.817  1.00  0.00    -0.343 OA
ATOM     44  H6  UNL     1       3.106   2.270   4.210  1.00  0.00     0.219 HD
ENDBRANCH   8  43
BRANCH  13  45
HETATM   45  O8  UNL     1       4.657  11.155   7.640  1.00  0.00    -0.362 OA
ATOM     46  H8  UNL     1       4.546  12.093   7.735  1.00  0.00     0.213 HD
ENDBRANCH  13  45
TORSDOF 16
ENDMDL
MODEL 3
REMARK VINA RESULT: -5.483581826      2.643      5.479
REMARK  16 active torsions:
REMARK  status: ('A' for Active; 'I' for Inactive)
REMARK    1  A    between atoms: O1_2  and  C2_3 
REMARK    2  A    between atoms: C2_3  and  C3_4 
REMARK    3  A    between atoms: C2_3  and  C15_41 
REMARK    4  A    between atoms: C3_4  and  O2_5 
REMARK    5  A    between atoms: O2_5  and  C4_6 
REMARK    6  A    between atoms: C4_6  and  C5_7 
REMARK    7  A    between atoms: C4_6  and  C6_10 
REMARK    8  A    between atoms: C9_13  and  O5_14 
REMARK    9  A    between atoms: C11_19  and  O6_20 
REMARK   10  A    between atoms: C12_22  and  O7_23 
REMARK   11  A    between atoms: C13_28  and  O8_29 
REMARK   12  A    between atoms: C14_36  and  N8_37 
REMARK   13  A    between atoms: N8_37  and  N9_38 
REMARK   14  A    between atoms: C15_41  and  O9_42 
REMARK   15  A    between atoms: C15_41  and  C16_44 
REMARK   16  A    between atoms: C16_44  and  O10_45 
ROOT
HETATM    1  C6  UNL     1       5.896   7.458   4.052  1.00  0.00     0.072 A 
HETATM    2  C7  UNL     1       5.498   8.306   5.068  1.00  0.00     0.038 A 
HETATM    3  C8  UNL     1       6.330   8.631   6.124  1.00  0.00     0.080 A 
HETATM    4  C9  UNL     1       7.608   8.047   6.091  1.00  0.00     0.138 A 
HETATM    5  C10 UNL     1       7.972   7.210   5.064  1.00  0.00     0.152 A 
HETATM    6  N1  UNL     1       9.160   6.552   4.849  1.00  0.00    -0.317 N 
ATOM      7  H1  UNL     1       9.974   6.600   5.463  1.00  0.00     0.169 HD
HETATM    8  C11 UNL     1       9.095   5.852   3.737  1.00  0.00     0.194 A 
HETATM    9  C12 UNL     1       7.808   6.063   3.202  1.00  0.00     0.201 A 
HETATM   10  N2  UNL     1       7.170   6.889   4.041  1.00  0.00    -0.272 N 
HETATM   11  N3  UNL     1       6.049   9.458   7.219  1.00  0.00    -0.347 N 
ATOM     12  H3  UNL     1       6.756  10.178   7.371  1.00  0.00     0.163 HD
HETATM   13  C13 UNL     1       4.982   9.504   8.166  1.00  0.00     0.335 C 
HETATM   14  N4  UNL     1       3.995   8.503   8.118  1.00  0.00    -0.076 NA
HETATM   15  N5  UNL     1       2.720   9.140   8.043  1.00  0.00    -0.013 NA
HETATM   16  N6  UNL     1       2.540   9.508   6.687  1.00  0.00    -0.015 NA
HETATM   17  N7  UNL     1       3.219   8.588   5.945  1.00  0.00    -0.296 N 
ATOM     18  H7  UNL     1       3.042   7.593   6.086  1.00  0.00     0.179 HD
HETATM   19  C14 UNL     1       4.157   9.000   4.991  1.00  0.00     0.247 C 
ENDROOT
BRANCH   1  20
HETATM   20  C4  UNL     1       5.019   7.016   2.955  1.00  0.00     0.273 C 
BRANCH  20  21
HETATM   21  O2  UNL     1       3.934   7.894   2.734  1.00  0.00    -0.366 OA
BRANCH  21  22
HETATM   22  C3  UNL     1       3.830   8.337   1.451  1.00  0.00     0.204 C 
BRANCH  22  23
HETATM   23  C2  UNL     1       2.544   9.113   1.262  1.00  0.00     0.175 C 
BRANCH  23  24
HETATM   24  O1  UNL     1       2.666  10.448   1.498  1.00  0.00    -0.386 OA
HETATM   25  C1  UNL     1       3.321  11.168   0.535  1.00  0.00     0.202 C 
ENDBRANCH  23  24
BRANCH  23  26
HETATM   26  C15 UNL     1       1.509   8.461   2.132  1.00  0.00     0.172 C 
BRANCH  26  27
HETATM   27  O9  UNL     1       0.544   7.797   1.364  1.00  0.00    -0.391 OA
ATOM     28  H9  UNL     1      -0.211   7.558   1.889  1.00  0.00     0.210 HD
ENDBRANCH  26  27
BRANCH  26  29
HETATM   29  C16 UNL     1       0.774   9.392   3.042  1.00  0.00     0.198 C 
BRANCH  29  30
HETATM   30  O10 UNL     1       0.634   8.929   4.337  1.00  0.00    -0.398 OA
ATOM     31  H10 UNL     1      -0.010   8.237   4.437  1.00  0.00     0.209 HD
ENDBRANCH  29  30
ENDBRANCH  26  29
ENDBRANCH  23  26
ENDBRANCH  22  23
ENDBRANCH  21  22
ENDBRANCH  20  21
BRANCH  20  32
HETATM   32  C5  UNL     1       4.377   5.706   3.238  1.00  0.00     0.209 C 
HETATM   33  O3  UNL     1       3.872   5.324   4.297  1.00  0.00    -0.646 OA
HETATM   34  O4  UNL     1       4.355   4.817   2.153  1.00  0.00    -0.646 OA
ENDBRANCH  20  32
ENDBRANCH   1  20
BRANCH  19  35
HETATM   35  N8  UNL     1       4.511  10.454   5.158  1.00  0.00    -0.117 NA
BRANCH  35  36
HETATM   36  N9  UNL     1       3.788  11.246   4.296  1.00  0.00    -0.346 N 
ATOM     37  H92 UNL     1       4.122  11.523   3.372  1.00  0.00     0.172 HD
ATOM     38  H91 UNL     1       2.891  11.512   4.701  1.00  0.00     0.172 HD
ENDBRANCH  35  36
ENDBRANCH  19  35
BRANCH   9  39
HETATM   39  O7  UNL     1       7.374   5.484   2.027  1.00  0.00    -0.343 OA
ATOM     40  H7  UNL     1       6.531   5.055   1.940  1.00  0.00     0.219 HD
ENDBRANCH   9  39
BRANCH   4  41
HETATM   41  O5  UNL     1       8.548   8.287   7.077  1.00  0.00    -0.355 OA
ATOM     42  H5  UNL     1       9.458   8.032   6.977  1.00  0.00     0.218 HD
ENDBRANCH   4  41
BRANCH   8  43
HETATM   43  O6  UNL     1      10.063   5.055   3.163  1.00  0.00    -0.343 OA
ATOM     44  H6  UNL     1      10.161   4.802   2.252  1.00  0.00     0.219 HD
ENDBRANCH   8  43
BRANCH  13  45
HETATM   45  O8  UNL     1       5.590   9.509   9.468  1.00  0.00    -0.362 OA
ATOM     46  H8  UNL     1       4.887   9.632  10.095  1.00  0.00     0.213 HD
ENDBRANCH  13  45
TORSDOF 16
ENDMDL
MODEL 4
REMARK VINA RESULT: -5.481920991      2.666      4.283
REMARK  16 active torsions:
REMARK  status: ('A' for Active; 'I' for Inactive)
REMARK    1  A    between atoms: O1_2  and  C2_3 
REMARK    2  A    between atoms: C2_3  and  C3_4 
REMARK    3  A    between atoms: C2_3  and  C15_41 
REMARK    4  A    between atoms: C3_4  and  O2_5 
REMARK    5  A    between atoms: O2_5  and  C4_6 
REMARK    6  A    between atoms: C4_6  and  C5_7 
REMARK    7  A    between atoms: C4_6  and  C6_10 
REMARK    8  A    between atoms: C9_13  and  O5_14 
REMARK    9  A    between atoms: C11_19  and  O6_20 
REMARK   10  A    between atoms: C12_22  and  O7_23 
REMARK   11  A    between atoms: C13_28  and  O8_29 
REMARK   12  A    between atoms: C14_36  and  N8_37 
REMARK   13  A    between atoms: N8_37  and  N9_38 
REMARK   14  A    between atoms: C15_41  and  O9_42 
REMARK   15  A    between atoms: C15_41  and  C16_44 
REMARK   16  A    between atoms: C16_44  and  O10_45 
ROOT
HETATM    1  C6  UNL     1       6.823   8.213   3.047  1.00  0.00     0.072 A 
HETATM    2  C7  UNL     1       7.918   7.620   3.647  1.00  0.00     0.038 A 
HETATM    3  C8  UNL     1       9.035   8.345   4.021  1.00  0.00     0.080 A 
HETATM    4  C9  UNL     1       8.980   9.724   3.756  1.00  0.00     0.138 A 
HETATM    5  C10 UNL     1       7.875  10.282   3.160  1.00  0.00     0.152 A 
HETATM    6  N1  UNL     1       7.628  11.592   2.825  1.00  0.00    -0.317 N 
ATOM      7  H1  UNL     1       8.273  12.367   2.981  1.00  0.00     0.169 HD
HETATM    8  C11 UNL     1       6.438  11.702   2.273  1.00  0.00     0.194 A 
HETATM    9  C12 UNL     1       5.885  10.405   2.247  1.00  0.00     0.201 A 
HETATM   10  N2  UNL     1       6.792   9.585   2.793  1.00  0.00    -0.272 N 
HETATM   11  N3  UNL     1      10.210   7.870   4.617  1.00  0.00    -0.347 N 
ATOM     12  H3  UNL     1      10.473   8.388   5.456  1.00  0.00     0.163 HD
HETATM   13  C13 UNL     1      11.116   6.813   4.298  1.00  0.00     0.335 C 
HETATM   14  N4  UNL     1      10.912   6.087   3.111  1.00  0.00    -0.076 NA
HETATM   15  N5  UNL     1      10.866   4.700   3.442  1.00  0.00    -0.013 NA
HETATM   16  N6  UNL     1       9.558   4.450   3.924  1.00  0.00    -0.015 NA
HETATM   17  N7  UNL     1       8.737   5.331   3.285  1.00  0.00    -0.296 N 
ATOM     18  H7  UNL     1       8.751   5.390   2.266  1.00  0.00     0.179 HD
HETATM   19  C14 UNL     1       7.875   6.155   4.017  1.00  0.00     0.247 C 
ENDROOT
BRANCH   1  20
HETATM   20  C4  UNL     1       5.650   7.473   2.555  1.00  0.00     0.273 C 
BRANCH  20  21
HETATM   21  O2  UNL     1       5.233   6.456   3.443  1.00  0.00    -0.366 OA
BRANCH  21  22
HETATM   22  C3  UNL     1       3.906   6.492   3.746  1.00  0.00     0.204 C 
BRANCH  22  23
HETATM   23  C2  UNL     1       3.412   7.923   3.784  1.00  0.00     0.175 C 
BRANCH  23  24
HETATM   24  O1  UNL     1       3.231   8.412   5.042  1.00  0.00    -0.386 OA
HETATM   25  C1  UNL     1       4.202   9.261   5.499  1.00  0.00     0.202 C 
ENDBRANCH  23  24
BRANCH  23  26
HETATM   26  C15 UNL     1       2.164   7.976   2.953  1.00  0.00     0.172 C 
BRANCH  26  27
HETATM   27  O9  UNL     1       2.464   8.043   1.586  1.00  0.00    -0.391 OA
ATOM     28  H9  UNL     1       1.716   8.342   1.083  1.00  0.00     0.210 HD
ENDBRANCH  26  27
BRANCH  26  29
HETATM   29  C16 UNL     1       1.255   9.125   3.254  1.00  0.00     0.198 C 
BRANCH  29  30
HETATM   30  O10 UNL     1       0.397   8.907   4.315  1.00  0.00    -0.398 OA
ATOM     31  H10 UNL     1       0.824   8.609   5.110  1.00  0.00     0.209 HD
ENDBRANCH  29  30
ENDBRANCH  26  29
ENDBRANCH  23  26
ENDBRANCH  22  23
ENDBRANCH  21  22
ENDBRANCH  20  21
BRANCH  20  32
HETATM   32  C5  UNL     1       5.926   6.756   1.283  1.00  0.00     0.209 C 
HETATM   33  O3  UNL     1       7.013   6.611   0.717  1.00  0.00    -0.646 OA
HETATM   34  O4  UNL     1       4.798   6.185   0.674  1.00  0.00    -0.646 OA
ENDBRANCH  20  32
ENDBRANCH   1  20
BRANCH  19  35
HETATM   35  N8  UNL     1       8.226   6.159   5.482  1.00  0.00    -0.117 NA
BRANCH  35  36
HETATM   36  N9  UNL     1       7.136   6.475   6.257  1.00  0.00    -0.346 N 
ATOM     37  H92 UNL     1       6.306   6.947   5.896  1.00  0.00     0.172 HD
ATOM     38  H91 UNL     1       7.270   6.180   7.224  1.00  0.00     0.172 HD
ENDBRANCH  35  36
ENDBRANCH  19  35
BRANCH   9  39
HETATM   39  O7  UNL     1       4.634  10.128   1.735  1.00  0.00    -0.343 OA
ATOM     40  H7  UNL     1       4.470   9.993   0.809  1.00  0.00     0.219 HD
ENDBRANCH   9  39
BRANCH   4  41
HETATM   41  O5  UNL     1      10.023  10.573   4.080  1.00  0.00    -0.355 OA
ATOM     42  H5  UNL     1      10.885  10.484   3.691  1.00  0.00     0.218 HD
ENDBRANCH   4  41
BRANCH   8  43
HETATM   43  O6  UNL     1       5.810  12.834   1.798  1.00  0.00    -0.343 OA
ATOM     44  H6  UNL     1       5.344  13.503   2.287  1.00  0.00     0.219 HD
ENDBRANCH   8  43
BRANCH  13  45
HETATM   45  O8  UNL     1      12.431   7.392   4.280  1.00  0.00    -0.362 OA
ATOM     46  H8  UNL     1      12.740   7.334   3.384  1.00  0.00     0.213 HD
ENDBRANCH  13  45
TORSDOF 16
ENDMDL
MODEL 5
REMARK VINA RESULT: -5.369141475      2.419      5.141
REMARK  16 active torsions:
REMARK  status: ('A' for Active; 'I' for Inactive)
REMARK    1  A    between atoms: O1_2  and  C2_3 
REMARK    2  A    between atoms: C2_3  and  C3_4 
REMARK    3  A    between atoms: C2_3  and  C15_41 
REMARK    4  A    between atoms: C3_4  and  O2_5 
REMARK    5  A    between atoms: O2_5  and  C4_6 
REMARK    6  A    between atoms: C4_6  and  C5_7 
REMARK    7  A    between atoms: C4_6  and  C6_10 
REMARK    8  A    between atoms: C9_13  and  O5_14 
REMARK    9  A    between atoms: C11_19  and  O6_20 
REMARK   10  A    between atoms: C12_22  and  O7_23 
REMARK   11  A    between atoms: C13_28  and  O8_29 
REMARK   12  A    between atoms: C14_36  and  N8_37 
REMARK   13  A    between atoms: N8_37  and  N9_38 
REMARK   14  A    between atoms: C15_41  and  O9_42 
REMARK   15  A    between atoms: C15_41  and  C16_44 
REMARK   16  A    between atoms: C16_44  and  O10_45 
ROOT
HETATM    1  C6  UNL     1       5.913   7.887   2.875  1.00  0.00     0.072 A 
HETATM    2  C7  UNL     1       5.683   8.618   4.025  1.00  0.00     0.038 A 
HETATM    3  C8  UNL     1       6.716   9.104   4.807  1.00  0.00     0.080 A 
HETATM    4  C9  UNL     1       8.012   8.811   4.350  1.00  0.00     0.138 A 
HETATM    5  C10 UNL     1       8.205   8.083   3.201  1.00  0.00     0.152 A 
HETATM    6  N1  UNL     1       9.377   7.701   2.592  1.00  0.00    -0.317 N 
ATOM      7  H1  UNL     1      10.312   7.916   2.937  1.00  0.00     0.169 HD
HETATM    8  C11 UNL     1       9.116   7.015   1.499  1.00  0.00     0.194 A 
HETATM    9  C12 UNL     1       7.712   6.948   1.390  1.00  0.00     0.201 A 
HETATM   10  N2  UNL     1       7.209   7.608   2.442  1.00  0.00    -0.272 N 
HETATM   11  N3  UNL     1       6.624   9.838   5.996  1.00  0.00    -0.347 N 
ATOM     12  H3  UNL     1       7.182  10.692   5.986  1.00  0.00     0.163 HD
HETATM   13  C13 UNL     1       5.914   9.642   7.219  1.00  0.00     0.335 C 
HETATM   14  N4  UNL     1       5.184   8.451   7.391  1.00  0.00    -0.076 NA
HETATM   15  N5  UNL     1       3.847   8.799   7.748  1.00  0.00    -0.013 NA
HETATM   16  N6  UNL     1       3.188   9.133   6.539  1.00  0.00    -0.015 NA
HETATM   17  N7  UNL     1       3.777   8.390   5.561  1.00  0.00    -0.296 N 
ATOM     18  H7  UNL     1       3.858   7.379   5.671  1.00  0.00     0.179 HD
HETATM   19  C14 UNL     1       4.272   9.005   4.405  1.00  0.00     0.247 C 
ENDROOT
BRANCH   1  20
HETATM   20  C4  UNL     1       4.850   7.277   2.059  1.00  0.00     0.273 C 
BRANCH  20  21
HETATM   21  O2  UNL     1       3.640   8.007   2.102  1.00  0.00    -0.366 OA
BRANCH  21  22
HETATM   22  C3  UNL     1       3.380   8.718   0.971  1.00  0.00     0.204 C 
BRANCH  22  23
HETATM   23  C2  UNL     1       2.013   9.363   1.056  1.00  0.00     0.175 C 
BRANCH  23  24
HETATM   24  O1  UNL     1       2.042  10.670   1.435  1.00  0.00    -0.386 OA
HETATM   25  C1  UNL     1       2.839  11.492   0.686  1.00  0.00     0.202 C 
ENDBRANCH  23  24
BRANCH  23  26
HETATM   26  C15 UNL     1       1.183   8.509   1.970  1.00  0.00     0.172 C 
BRANCH  26  27
HETATM   27  O9  UNL     1       0.217   7.788   1.257  1.00  0.00    -0.391 OA
ATOM     28  H9  UNL     1       0.454   6.871   1.184  1.00  0.00     0.210 HD
ENDBRANCH  26  27
BRANCH  26  29
HETATM   29  C16 UNL     1       0.461   9.256   3.045  1.00  0.00     0.198 C 
BRANCH  29  30
HETATM   30  O10 UNL     1       0.858   8.930   4.329  1.00  0.00    -0.398 OA
ATOM     31  H10 UNL     1       0.185   9.050   4.988  1.00  0.00     0.209 HD
ENDBRANCH  29  30
ENDBRANCH  26  29
ENDBRANCH  23  26
ENDBRANCH  22  23
ENDBRANCH  21  22
ENDBRANCH  20  21
BRANCH  20  32
HETATM   32  C5  UNL     1       4.476   5.921   2.539  1.00  0.00     0.209 C 
HETATM   33  O3  UNL     1       3.930   5.619   3.603  1.00  0.00    -0.646 OA
HETATM   34  O4  UNL     1       4.793   4.879   1.655  1.00  0.00    -0.646 OA
ENDBRANCH  20  32
ENDBRANCH   1  20
BRANCH  19  35
HETATM   35  N8  UNL     1       4.358  10.500   4.570  1.00  0.00    -0.117 NA
BRANCH  35  36
HETATM   36  N9  UNL     1       3.156  11.104   4.281  1.00  0.00    -0.346 N 
ATOM     37  H92 UNL     1       2.282  10.591   4.163  1.00  0.00     0.172 HD
ATOM     38  H91 UNL     1       3.260  12.115   4.202  1.00  0.00     0.172 HD
ENDBRANCH  35  36
ENDBRANCH  19  35
BRANCH   9  39
HETATM   39  O7  UNL     1       7.065   6.302   0.357  1.00  0.00    -0.343 OA
ATOM     40  H7  UNL     1       7.052   5.357   0.263  1.00  0.00     0.219 HD
ENDBRANCH   9  39
BRANCH   4  41
HETATM   41  O5  UNL     1       9.141   9.237   5.027  1.00  0.00    -0.355 OA
ATOM     42  H5  UNL     1       9.607   8.673   5.633  1.00  0.00     0.218 HD
ENDBRANCH   4  41
BRANCH   8  43
HETATM   43  O6  UNL     1      10.002   6.453   0.604  1.00  0.00    -0.343 OA
ATOM     44  H6  UNL     1       9.944   6.417  -0.345  1.00  0.00     0.219 HD
ENDBRANCH   8  43
BRANCH  13  45
HETATM   45  O8  UNL     1       6.878   9.764   8.277  1.00  0.00    -0.362 OA
ATOM     46  H8  UNL     1       6.712  10.597   8.702  1.00  0.00     0.213 HD
ENDBRANCH  13  45
TORSDOF 16
ENDMDL
