MODEL 1
REMARK VINA RESULT: -6.021028988      0.000      0.000
REMARK  19 active torsions:
REMARK  status: ('A' for Active; 'I' for Inactive)
REMARK    1  A    between atoms: C2_3  and  O1_4 
REMARK    2  A    between atoms: C3_6  and  O2_7 
REMARK    3  A    between atoms: C6_11  and  O3_12 
REMARK    4  A    between atoms: N2_15  and  O4_17 
REMARK    5  A    between atoms: O4_17  and  C8_18 
REMARK    6  A    between atoms: C8_18  and  N3_19 
REMARK    7  A    between atoms: C8_18  and  N4_23 
REMARK    8  A    between atoms: C9_27  and  N5_28 
REMARK    9  A    between atoms: N5_28  and  O5_29 
REMARK   10  A    between atoms: O5_29  and  C10_30 
REMARK   11  A    between atoms: C10_30  and  N6_31 
REMARK   12  A    between atoms: C10_30  and  C12_41 
REMARK   13  A    between atoms: N6_31  and  C11_34 
REMARK   14  A    between atoms: C11_34  and  N7_35 
REMARK   15  A    between atoms: C11_34  and  O6_39 
REMARK   16  A    between atoms: C13_44  and  C14_45 
REMARK   17  A    between atoms: C14_45  and  O7_46 
REMARK   18  A    between atoms: C14_45  and  O8_48 
REMARK   19  A    between atoms: C15_53  and  N10_54 
ROOT
HETATM    1  N1  UNL     1       1.954   8.152   1.301  1.00  0.00    -0.096 NA
HETATM    2  C1  UNL     1       2.811   8.074   2.440  1.00  0.00     0.116 A 
HETATM    3  C2  UNL     1       2.285   8.487   3.648  1.00  0.00     0.126 A 
HETATM    4  C3  UNL     1       3.108   8.420   4.774  1.00  0.00     0.108 A 
HETATM    5  C4  UNL     1       4.389   7.953   4.649  1.00  0.00    -0.005 A 
HETATM    6  C5  UNL     1       4.919   7.536   3.428  1.00  0.00     0.035 A 
HETATM    7  C6  UNL     1       4.100   7.606   2.321  1.00  0.00     0.105 A 
HETATM    8  C7  UNL     1       6.298   7.044   3.337  1.00  0.00     0.069 C 
HETATM    9  N2  UNL     1       6.797   6.926   2.156  1.00  0.00    -0.264 N 
ATOM     10  H2  UNL     1       6.201   7.182   1.368  1.00  0.00     0.194 HD
HETATM   11  C9  UNL     1       7.090   6.698   4.544  1.00  0.00     0.190 C 
HETATM   12  C15 UNL     1       6.099   6.563   5.678  1.00  0.00     0.215 C 
HETATM   13  C16 UNL     1       5.298   7.860   5.804  1.00  0.00     0.077 C 
ENDROOT
BRANCH  11  14
HETATM   14  N5  UNL     1       8.065   7.733   4.769  1.00  0.00    -0.085 NA
BRANCH  14  15
HETATM   15  O5  UNL     1       8.995   7.416   5.663  1.00  0.00    -0.243 OA
BRANCH  15  16
HETATM   16  C10 UNL     1      10.301   7.704   5.233  1.00  0.00     0.426 C 
BRANCH  16  17
HETATM   17  N6  UNL     1      11.057   8.056   6.401  1.00  0.00     0.013 N 
ATOM     18  H62 UNL     1      11.181   7.242   7.004  1.00  0.00     0.286 HD
ATOM     19  H61 UNL     1      12.029   8.240   6.153  1.00  0.00     0.286 HD
BRANCH  17  20
HETATM   20  C11 UNL     1      10.516   9.155   7.151  1.00  0.00     0.522 C 
BRANCH  20  21
HETATM   21  N7  UNL     1       9.810   8.745   8.344  1.00  0.00    -0.027 N 
ATOM     22  H73 UNL     1       8.809   8.666   8.163  1.00  0.00     0.279 HD
ATOM     23  H72 UNL     1      10.018   7.771   8.571  1.00  0.00     0.279 HD
ATOM     24  H71 UNL     1       9.987   9.348   9.148  1.00  0.00     0.279 HD
ENDBRANCH  20  21
BRANCH  20  25
HETATM   25  O6  UNL     1       9.742  10.002   6.346  1.00  0.00    -0.349 OA
ATOM     26  H6  UNL     1       9.442  10.766   6.824  1.00  0.00     0.213 HD
ENDBRANCH  20  25
ENDBRANCH  17  20
ENDBRANCH  16  17
BRANCH  16  27
HETATM   27  C12 UNL     1      10.869   6.589   4.465  1.00  0.00     0.207 A 
HETATM   28  N8  UNL     1      12.020   6.550   3.772  1.00  0.00    -0.319 N 
HETATM   29  C13 UNL     1      12.179   5.341   3.208  1.00  0.00     0.159 A 
ATOM     30  H8  UNL     1      12.677   7.326   3.687  1.00  0.00     0.169 HD
HETATM   31  N9  UNL     1      11.092   4.638   3.575  1.00  0.00    -0.242 N 
HETATM   32  O9  UNL     1      10.338   5.398   4.315  1.00  0.00    -0.218 OA
ATOM     33  H9  UNL     1      10.893   3.672   3.317  1.00  0.00     0.196 HD
BRANCH  29  34
HETATM   34  C14 UNL     1      13.286   4.825   2.356  1.00  0.00     0.325 C 
BRANCH  34  35
HETATM   35  O7  UNL     1      13.165   5.350   1.050  1.00  0.00    -0.365 OA
ATOM     36  H7  UNL     1      13.725   4.863   0.457  1.00  0.00     0.213 HD
ENDBRANCH  34  35
BRANCH  34  37
HETATM   37  O8  UNL     1      13.294   3.448   2.286  1.00  0.00    -0.365 OA
ATOM     38  H8  UNL     1      12.489   3.099   1.922  1.00  0.00     0.213 HD
ENDBRANCH  34  37
ENDBRANCH  29  34
ENDBRANCH  16  27
ENDBRANCH  15  16
ENDBRANCH  14  15
ENDBRANCH  11  14
BRANCH  12  39
HETATM   39  N10 UNL     1       5.149   5.533   5.297  1.00  0.00    -0.073 N 
ATOM     40 3H10 UNL     1       4.784   5.656   4.353  1.00  0.00     0.274 HD
ATOM     41 2H10 UNL     1       5.585   4.622   5.153  1.00  0.00     0.274 HD
ATOM     42 1H10 UNL     1       4.419   5.519   6.009  1.00  0.00     0.274 HD
ENDBRANCH  12  39
BRANCH   9  43
HETATM   43  O4  UNL     1       8.048   6.491   1.872  1.00  0.00    -0.220 OA
BRANCH  43  44
HETATM   44  C8  UNL     1       8.946   7.243   1.079  1.00  0.00     0.542 C 
BRANCH  44  45
HETATM   45  N3  UNL     1      10.085   6.427   0.700  1.00  0.00    -0.025 N 
ATOM     46  H33 UNL     1       9.918   5.436   0.873  1.00  0.00     0.279 HD
ATOM     47  H32 UNL     1      10.205   6.386  -0.312  1.00  0.00     0.279 HD
ATOM     48  H31 UNL     1      10.928   6.759   1.170  1.00  0.00     0.279 HD
ENDBRANCH  44  45
BRANCH  44  49
HETATM   49  N4  UNL     1       9.469   8.381   1.811  1.00  0.00    -0.025 N 
ATOM     50  H43 UNL     1       8.719   8.976   2.164  1.00  0.00     0.279 HD
ATOM     51  H42 UNL     1       9.877   8.098   2.701  1.00  0.00     0.279 HD
ATOM     52  H41 UNL     1      10.133   8.911   1.247  1.00  0.00     0.279 HD
ENDBRANCH  44  49
ENDBRANCH  43  44
ENDBRANCH   9  43
BRANCH   7  53
HETATM   53  O3  UNL     1       4.557   7.211   1.086  1.00  0.00    -0.358 OA
ATOM     54  H3  UNL     1       5.445   7.432   0.828  1.00  0.00     0.217 HD
ENDBRANCH   7  53
BRANCH   4  55
HETATM   55  O2  UNL     1       2.594   8.830   5.982  1.00  0.00    -0.357 OA
ATOM     56  H2  UNL     1       2.725   8.273   6.740  1.00  0.00     0.217 HD
ENDBRANCH   4  55
BRANCH   3  57
HETATM   57  O1  UNL     1       0.979   8.955   3.731  1.00  0.00    -0.356 OA
ATOM     58  H1  UNL     1       0.272   8.378   3.993  1.00  0.00     0.218 HD
ENDBRANCH   3  57
TORSDOF 19
ENDMDL
MODEL 2
REMARK VINA RESULT: -5.598590049      0.887      1.021
REMARK  19 active torsions:
REMARK  status: ('A' for Active; 'I' for Inactive)
REMARK    1  A    between atoms: C2_3  and  O1_4 
REMARK    2  A    between atoms: C3_6  and  O2_7 
REMARK    3  A    between atoms: C6_11  and  O3_12 
REMARK    4  A    between atoms: N2_15  and  O4_17 
REMARK    5  A    between atoms: O4_17  and  C8_18 
REMARK    6  A    between atoms: C8_18  and  N3_19 
REMARK    7  A    between atoms: C8_18  and  N4_23 
REMARK    8  A    between atoms: C9_27  and  N5_28 
REMARK    9  A    between atoms: N5_28  and  O5_29 
REMARK   10  A    between atoms: O5_29  and  C10_30 
REMARK   11  A    between atoms: C10_30  and  N6_31 
REMARK   12  A    between atoms: C10_30  and  C12_41 
REMARK   13  A    between atoms: N6_31  and  C11_34 
REMARK   14  A    between atoms: C11_34  and  N7_35 
REMARK   15  A    between atoms: C11_34  and  O6_39 
REMARK   16  A    between atoms: C13_44  and  C14_45 
REMARK   17  A    between atoms: C14_45  and  O7_46 
REMARK   18  A    between atoms: C14_45  and  O8_48 
REMARK   19  A    between atoms: C15_53  and  N10_54 
ROOT
HETATM    1  N1  UNL     1       1.932   8.086   1.316  1.00  0.00    -0.096 NA
HETATM    2  C1  UNL     1       2.801   8.032   2.447  1.00  0.00     0.116 A 
HETATM    3  C2  UNL     1       2.284   8.459   3.653  1.00  0.00     0.126 A 
HETATM    4  C3  UNL     1       3.119   8.415   4.773  1.00  0.00     0.108 A 
HETATM    5  C4  UNL     1       4.401   7.955   4.642  1.00  0.00    -0.005 A 
HETATM    6  C5  UNL     1       4.922   7.524   3.422  1.00  0.00     0.035 A 
HETATM    7  C6  UNL     1       4.093   7.571   2.322  1.00  0.00     0.105 A 
HETATM    8  C7  UNL     1       6.304   7.041   3.326  1.00  0.00     0.069 C 
HETATM    9  N2  UNL     1       6.792   6.908   2.141  1.00  0.00    -0.264 N 
ATOM     10  H2  UNL     1       6.187   7.148   1.356  1.00  0.00     0.194 HD
HETATM   11  C9  UNL     1       7.111   6.719   4.530  1.00  0.00     0.190 C 
HETATM   12  C15 UNL     1       6.131   6.594   5.675  1.00  0.00     0.215 C 
HETATM   13  C16 UNL     1       5.322   7.886   5.790  1.00  0.00     0.077 C 
ENDROOT
BRANCH  11  14
HETATM   14  N5  UNL     1       8.080   7.764   4.730  1.00  0.00    -0.085 NA
BRANCH  14  15
HETATM   15  O5  UNL     1       8.920   7.538   5.733  1.00  0.00    -0.243 OA
BRANCH  15  16
HETATM   16  C10 UNL     1      10.087   8.317   5.667  1.00  0.00     0.426 C 
BRANCH  16  17
HETATM   17  N6  UNL     1      10.318   8.836   6.985  1.00  0.00     0.013 N 
ATOM     18  H62 UNL     1      10.287   8.085   7.674  1.00  0.00     0.286 HD
ATOM     19  H61 UNL     1      11.291   9.128   7.087  1.00  0.00     0.286 HD
BRANCH  17  20
HETATM   20  C11 UNL     1       9.435   9.902   7.368  1.00  0.00     0.522 C 
BRANCH  20  21
HETATM   21  N7  UNL     1       8.445   9.505   8.345  1.00  0.00    -0.027 N 
ATOM     22  H73 UNL     1       8.240   8.508   8.268  1.00  0.00     0.279 HD
ATOM     23  H72 UNL     1       8.838   9.525   9.286  1.00  0.00     0.279 HD
ATOM     24  H71 UNL     1       7.586  10.055   8.299  1.00  0.00     0.279 HD
ENDBRANCH  20  21
BRANCH  20  25
HETATM   25  O6  UNL     1       8.854  10.521   6.252  1.00  0.00    -0.349 OA
ATOM     26  H6  UNL     1       8.122  10.021   5.912  1.00  0.00     0.213 HD
ENDBRANCH  20  25
ENDBRANCH  17  20
ENDBRANCH  16  17
BRANCH  16  27
HETATM   27  C12 UNL     1      11.212   7.549   5.120  1.00  0.00     0.207 A 
HETATM   28  N8  UNL     1      11.190   6.571   4.198  1.00  0.00    -0.319 N 
HETATM   29  C13 UNL     1      12.436   6.122   3.970  1.00  0.00     0.159 A 
ATOM     30  H8  UNL     1      10.349   6.221   3.738  1.00  0.00     0.169 HD
HETATM   31  N9  UNL     1      13.224   6.853   4.779  1.00  0.00    -0.242 N 
HETATM   32  O9  UNL     1      12.477   7.685   5.445  1.00  0.00    -0.218 OA
ATOM     33  H9  UNL     1      14.238   6.770   4.856  1.00  0.00     0.196 HD
BRANCH  29  34
HETATM   34  C14 UNL     1      12.911   5.058   3.043  1.00  0.00     0.325 C 
BRANCH  34  35
HETATM   35  O7  UNL     1      12.914   5.548   1.718  1.00  0.00    -0.365 OA
ATOM     36  H7  UNL     1      12.940   4.820   1.109  1.00  0.00     0.213 HD
ENDBRANCH  34  35
BRANCH  34  37
HETATM   37  O8  UNL     1      12.126   3.925   3.100  1.00  0.00    -0.365 OA
ATOM     38  H8  UNL     1      12.616   3.136   2.900  1.00  0.00     0.213 HD
ENDBRANCH  34  37
ENDBRANCH  29  34
ENDBRANCH  16  27
ENDBRANCH  15  16
ENDBRANCH  14  15
ENDBRANCH  11  14
BRANCH  12  39
HETATM   39  N10 UNL     1       5.185   5.551   5.319  1.00  0.00    -0.073 N 
ATOM     40 3H10 UNL     1       5.196   5.325   4.325  1.00  0.00     0.274 HD
ATOM     41 2H10 UNL     1       5.457   4.631   5.667  1.00  0.00     0.274 HD
ATOM     42 1H10 UNL     1       4.268   5.850   5.651  1.00  0.00     0.274 HD
ENDBRANCH  12  39
BRANCH   9  43
HETATM   43  O4  UNL     1       8.044   6.477   1.852  1.00  0.00    -0.220 OA
BRANCH  43  44
HETATM   44  C8  UNL     1       8.959   7.263   1.112  1.00  0.00     0.542 C 
BRANCH  44  45
HETATM   45  N3  UNL     1      10.148   6.490   0.803  1.00  0.00    -0.025 N 
ATOM     46  H33 UNL     1      10.507   6.000   1.622  1.00  0.00     0.279 HD
ATOM     47  H32 UNL     1       9.934   5.678   0.223  1.00  0.00     0.279 HD
ATOM     48  H31 UNL     1      10.855   7.087   0.375  1.00  0.00     0.279 HD
ENDBRANCH  44  45
BRANCH  44  49
HETATM   49  N4  UNL     1       9.396   8.418   1.873  1.00  0.00    -0.025 N 
ATOM     50  H43 UNL     1       8.695   8.704   2.557  1.00  0.00     0.279 HD
ATOM     51  H42 UNL     1      10.153   8.181   2.513  1.00  0.00     0.279 HD
ATOM     52  H41 UNL     1       9.654   9.190   1.258  1.00  0.00     0.279 HD
ENDBRANCH  44  49
ENDBRANCH  43  44
ENDBRANCH   9  43
BRANCH   7  53
HETATM   53  O3  UNL     1       4.540   7.161   1.089  1.00  0.00    -0.358 OA
ATOM     54  H3  UNL     1       4.989   6.326   1.014  1.00  0.00     0.217 HD
ENDBRANCH   7  53
BRANCH   4  55
HETATM   55  O2  UNL     1       2.612   8.840   5.979  1.00  0.00    -0.357 OA
ATOM     56  H2  UNL     1       3.198   9.286   6.580  1.00  0.00     0.217 HD
ENDBRANCH   4  55
BRANCH   3  57
HETATM   57  O1  UNL     1       0.975   8.919   3.743  1.00  0.00    -0.356 OA
ATOM     58  H1  UNL     1       0.249   8.309   3.806  1.00  0.00     0.218 HD
ENDBRANCH   3  57
TORSDOF 19
ENDMDL
MODEL 3
REMARK VINA RESULT: -5.591687054      2.709      5.071
REMARK  19 active torsions:
REMARK  status: ('A' for Active; 'I' for Inactive)
REMARK    1  A    between atoms: C2_3  and  O1_4 
REMARK    2  A    between atoms: C3_6  and  O2_7 
REMARK    3  A    between atoms: C6_11  and  O3_12 
REMARK    4  A    between atoms: N2_15  and  O4_17 
REMARK    5  A    between atoms: O4_17  and  C8_18 
REMARK    6  A    between atoms: C8_18  and  N3_19 
REMARK    7  A    between atoms: C8_18  and  N4_23 
REMARK    8  A    between atoms: C9_27  and  N5_28 
REMARK    9  A    between atoms: N5_28  and  O5_29 
REMARK   10  A    between atoms: O5_29  and  C10_30 
REMARK   11  A    between atoms: C10_30  and  N6_31 
REMARK   12  A    between atoms: C10_30  and  C12_41 
REMARK   13  A    between atoms: N6_31  and  C11_34 
REMARK   14  A    between atoms: C11_34  and  N7_35 
REMARK   15  A    between atoms: C11_34  and  O6_39 
REMARK   16  A    between atoms: C13_44  and  C14_45 
REMARK   17  A    between atoms: C14_45  and  O7_46 
REMARK   18  A    between atoms: C14_45  and  O8_48 
REMARK   19  A    between atoms: C15_53  and  N10_54 
ROOT
HETATM    1  N1  UNL     1       4.873   6.202   0.729  1.00  0.00    -0.096 NA
HETATM    2  C1  UNL     1       5.872   6.308   1.744  1.00  0.00     0.116 A 
HETATM    3  C2  UNL     1       5.436   6.295   3.053  1.00  0.00     0.126 A 
HETATM    4  C3  UNL     1       6.398   6.398   4.061  1.00  0.00     0.108 A 
HETATM    5  C4  UNL     1       7.720   6.506   3.725  1.00  0.00    -0.005 A 
HETATM    6  C5  UNL     1       8.159   6.519   2.401  1.00  0.00     0.035 A 
HETATM    7  C6  UNL     1       7.204   6.417   1.412  1.00  0.00     0.105 A 
HETATM    8  C7  UNL     1       9.586   6.638   2.085  1.00  0.00     0.069 C 
HETATM    9  N2  UNL     1       9.891   6.903   0.862  1.00  0.00    -0.264 N 
ATOM     10  H2  UNL     1       9.121   7.012   0.201  1.00  0.00     0.194 HD
HETATM   11  C9  UNL     1      10.638   6.465   3.119  1.00  0.00     0.190 C 
HETATM   12  C15 UNL     1       9.971   5.781   4.291  1.00  0.00     0.215 C 
HETATM   13  C16 UNL     1       8.775   6.616   4.748  1.00  0.00     0.077 C 
ENDROOT
BRANCH  11  14
HETATM   14  N5  UNL     1      11.175   7.758   3.453  1.00  0.00    -0.085 NA
BRANCH  14  15
HETATM   15  O5  UNL     1      10.573   8.769   2.836  1.00  0.00    -0.243 OA
BRANCH  15  16
HETATM   16  C10 UNL     1      10.297   9.853   3.685  1.00  0.00     0.426 C 
BRANCH  16  17
HETATM   17  N6  UNL     1      10.857  11.022   3.067  1.00  0.00     0.013 N 
ATOM     18  H62 UNL     1      10.523  11.110   2.107  1.00  0.00     0.286 HD
ATOM     19  H61 UNL     1      10.452  11.866   3.472  1.00  0.00     0.286 HD
BRANCH  17  20
HETATM   20  C11 UNL     1      12.290  11.086   3.106  1.00  0.00     0.522 C 
BRANCH  20  21
HETATM   21  N7  UNL     1      12.914  10.793   1.834  1.00  0.00    -0.027 N 
ATOM     22  H73 UNL     1      12.231  10.844   1.077  1.00  0.00     0.279 HD
ATOM     23  H72 UNL     1      13.535  11.552   1.553  1.00  0.00     0.279 HD
ATOM     24  H71 UNL     1      13.405   9.899   1.819  1.00  0.00     0.279 HD
ENDBRANCH  20  21
BRANCH  20  25
HETATM   25  O6  UNL     1      12.818  10.305   4.143  1.00  0.00    -0.349 OA
ATOM     26  H6  UNL     1      12.208  10.221   4.866  1.00  0.00     0.213 HD
ENDBRANCH  20  25
ENDBRANCH  17  20
ENDBRANCH  16  17
BRANCH  16  27
HETATM   27  C12 UNL     1       8.861   9.956   3.972  1.00  0.00     0.207 A 
HETATM   28  N8  UNL     1       7.833   9.975   3.106  1.00  0.00    -0.319 N 
HETATM   29  C13 UNL     1       6.670  10.081   3.771  1.00  0.00     0.159 A 
ATOM     30  H8  UNL     1       7.923   9.917   2.091  1.00  0.00     0.169 HD
HETATM   31  N9  UNL     1       7.014  10.127   5.071  1.00  0.00    -0.242 N 
HETATM   32  O9  UNL     1       8.310  10.052   5.160  1.00  0.00    -0.218 OA
ATOM     33  H9  UNL     1       6.367  10.206   5.855  1.00  0.00     0.196 HD
BRANCH  29  34
HETATM   34  C14 UNL     1       5.276  10.140   3.251  1.00  0.00     0.325 C 
BRANCH  34  35
HETATM   35  O7  UNL     1       4.435   9.338   4.054  1.00  0.00    -0.365 OA
ATOM     36  H7  UNL     1       4.021   9.876   4.718  1.00  0.00     0.213 HD
ENDBRANCH  34  35
BRANCH  34  37
HETATM   37  O8  UNL     1       5.187   9.712   1.943  1.00  0.00    -0.365 OA
ATOM     38  H8  UNL     1       4.503   9.064   1.820  1.00  0.00     0.213 HD
ENDBRANCH  34  37
ENDBRANCH  29  34
ENDBRANCH  16  27
ENDBRANCH  15  16
ENDBRANCH  14  15
ENDBRANCH  11  14
BRANCH  12  39
HETATM   39  N10 UNL     1       9.430   4.525   3.804  1.00  0.00    -0.073 N 
ATOM     40 3H10 UNL     1      10.028   4.076   3.111  1.00  0.00     0.274 HD
ATOM     41 2H10 UNL     1       9.456   3.782   4.503  1.00  0.00     0.274 HD
ATOM     42 1H10 UNL     1       8.490   4.716   3.458  1.00  0.00     0.274 HD
ENDBRANCH  12  39
BRANCH   9  43
HETATM   43  O4  UNL     1      11.149   7.051   0.380  1.00  0.00    -0.220 OA
BRANCH  43  44
HETATM   44  C8  UNL     1      11.573   8.233  -0.270  1.00  0.00     0.542 C 
BRANCH  44  45
HETATM   45  N3  UNL     1      10.480   9.183  -0.348  1.00  0.00    -0.025 N 
ATOM     46  H33 UNL     1      10.377   9.568  -1.287  1.00  0.00     0.279 HD
ATOM     47  H32 UNL     1       9.571   8.726  -0.272  1.00  0.00     0.279 HD
ATOM     48  H31 UNL     1      10.598   9.915   0.352  1.00  0.00     0.279 HD
ENDBRANCH  44  45
BRANCH  44  49
HETATM   49  N4  UNL     1      11.993   7.962  -1.632  1.00  0.00    -0.025 N 
ATOM     50  H43 UNL     1      11.778   7.004  -1.908  1.00  0.00     0.279 HD
ATOM     51  H42 UNL     1      11.411   8.455  -2.309  1.00  0.00     0.279 HD
ATOM     52  H41 UNL     1      12.982   8.176  -1.764  1.00  0.00     0.279 HD
ENDBRANCH  44  49
ENDBRANCH  43  44
ENDBRANCH   9  43
BRANCH   7  53
HETATM   53  O3  UNL     1       7.565   6.422   0.086  1.00  0.00    -0.358 OA
ATOM     54  H3  UNL     1       7.353   7.179  -0.448  1.00  0.00     0.217 HD
ENDBRANCH   7  53
BRANCH   4  55
HETATM   55  O2  UNL     1       5.973   6.387   5.370  1.00  0.00    -0.357 OA
ATOM     56  H2  UNL     1       6.559   6.729   6.036  1.00  0.00     0.217 HD
ENDBRANCH   4  55
BRANCH   3  57
HETATM   57  O1  UNL     1       4.083   6.184   3.351  1.00  0.00    -0.356 OA
ATOM     58  H1  UNL     1       3.748   5.428   3.819  1.00  0.00     0.218 HD
ENDBRANCH   3  57
TORSDOF 19
ENDMDL
MODEL 4
REMARK VINA RESULT: -5.575058879      4.304      7.520
REMARK  19 active torsions:
REMARK  status: ('A' for Active; 'I' for Inactive)
REMARK    1  A    between atoms: C2_3  and  O1_4 
REMARK    2  A    between atoms: C3_6  and  O2_7 
REMARK    3  A    between atoms: C6_11  and  O3_12 
REMARK    4  A    between atoms: N2_15  and  O4_17 
REMARK    5  A    between atoms: O4_17  and  C8_18 
REMARK    6  A    between atoms: C8_18  and  N3_19 
REMARK    7  A    between atoms: C8_18  and  N4_23 
REMARK    8  A    between atoms: C9_27  and  N5_28 
REMARK    9  A    between atoms: N5_28  and  O5_29 
REMARK   10  A    between atoms: O5_29  and  C10_30 
REMARK   11  A    between atoms: C10_30  and  N6_31 
REMARK   12  A    between atoms: C10_30  and  C12_41 
REMARK   13  A    between atoms: N6_31  and  C11_34 
REMARK   14  A    between atoms: C11_34  and  N7_35 
REMARK   15  A    between atoms: C11_34  and  O6_39 
REMARK   16  A    between atoms: C13_44  and  C14_45 
REMARK   17  A    between atoms: C14_45  and  O7_46 
REMARK   18  A    between atoms: C14_45  and  O8_48 
REMARK   19  A    between atoms: C15_53  and  N10_54 
ROOT
HETATM    1  N1  UNL     1       7.427   5.626   4.372  1.00  0.00    -0.096 NA
HETATM    2  C1  UNL     1       7.993   6.664   3.571  1.00  0.00     0.116 A 
HETATM    3  C2  UNL     1       7.248   7.817   3.424  1.00  0.00     0.126 A 
HETATM    4  C3  UNL     1       7.785   8.844   2.644  1.00  0.00     0.108 A 
HETATM    5  C4  UNL     1       9.011   8.679   2.060  1.00  0.00    -0.005 A 
HETATM    6  C5  UNL     1       9.762   7.514   2.209  1.00  0.00     0.035 A 
HETATM    7  C6  UNL     1       9.226   6.504   2.980  1.00  0.00     0.105 A 
HETATM    8  C7  UNL     1      11.073   7.378   1.564  1.00  0.00     0.069 C 
HETATM    9  N2  UNL     1      11.584   6.196   1.529  1.00  0.00    -0.264 N 
ATOM     10  H2  UNL     1      11.044   5.440   1.950  1.00  0.00     0.194 HD
HETATM   11  C9  UNL     1      11.784   8.540   0.974  1.00  0.00     0.190 C 
HETATM   12  C15 UNL     1      11.120   9.775   1.541  1.00  0.00     0.215 C 
HETATM   13  C16 UNL     1       9.623   9.731   1.229  1.00  0.00     0.077 C 
ENDROOT
BRANCH  11  14
HETATM   14  N5  UNL     1      11.691   8.459  -0.460  1.00  0.00    -0.085 NA
BRANCH  14  15
HETATM   15  O5  UNL     1      12.866   8.411  -1.077  1.00  0.00    -0.243 OA
BRANCH  15  16
HETATM   16  C10 UNL     1      13.229   9.627  -1.679  1.00  0.00     0.426 C 
BRANCH  16  17
HETATM   17  N6  UNL     1      14.275   9.333  -2.616  1.00  0.00     0.013 N 
ATOM     18  H62 UNL     1      14.265  10.007  -3.382  1.00  0.00     0.286 HD
ATOM     19  H61 UNL     1      15.187   9.544  -2.209  1.00  0.00     0.286 HD
BRANCH  17  20
HETATM   20  C11 UNL     1      14.255   7.993  -3.130  1.00  0.00     0.522 C 
BRANCH  20  21
HETATM   21  N7  UNL     1      15.156   7.098  -2.438  1.00  0.00    -0.027 N 
ATOM     22  H73 UNL     1      15.285   6.235  -2.966  1.00  0.00     0.279 HD
ATOM     23  H72 UNL     1      16.112   7.456  -2.465  1.00  0.00     0.279 HD
ATOM     24  H71 UNL     1      14.872   6.897  -1.479  1.00  0.00     0.279 HD
ENDBRANCH  20  21
BRANCH  20  25
HETATM   25  O6  UNL     1      14.447   7.965  -4.518  1.00  0.00    -0.349 OA
ATOM     26  H6  UNL     1      14.279   7.102  -4.880  1.00  0.00     0.213 HD
ENDBRANCH  20  25
ENDBRANCH  17  20
ENDBRANCH  16  17
BRANCH  16  27
HETATM   27  C12 UNL     1      12.066  10.299  -2.270  1.00  0.00     0.207 A 
HETATM   28  N8  UNL     1      11.201   9.827  -3.184  1.00  0.00    -0.319 N 
HETATM   29  C13 UNL     1      10.272  10.758  -3.465  1.00  0.00     0.159 A 
ATOM     30  H8  UNL     1      11.243   8.899  -3.604  1.00  0.00     0.169 HD
HETATM   31  N9  UNL     1      10.592  11.814  -2.696  1.00  0.00    -0.242 N 
HETATM   32  O9  UNL     1      11.653  11.516  -2.003  1.00  0.00    -0.218 OA
ATOM     33  H9  UNL     1      10.087  12.700  -2.661  1.00  0.00     0.196 HD
BRANCH  29  34
HETATM   34  C14 UNL     1       9.118  10.700  -4.404  1.00  0.00     0.325 C 
BRANCH  34  35
HETATM   35  O7  UNL     1       8.207  11.737  -4.103  1.00  0.00    -0.365 OA
ATOM     36  H7  UNL     1       7.379  11.363  -3.825  1.00  0.00     0.213 HD
ENDBRANCH  34  35
BRANCH  34  37
HETATM   37  O8  UNL     1       8.457   9.491  -4.348  1.00  0.00    -0.365 OA
ATOM     38  H8  UNL     1       8.706   8.909  -5.056  1.00  0.00     0.213 HD
ENDBRANCH  34  37
ENDBRANCH  29  34
ENDBRANCH  16  27
ENDBRANCH  15  16
ENDBRANCH  14  15
ENDBRANCH  11  14
BRANCH  12  39
HETATM   39  N10 UNL     1      11.237   9.700   2.986  1.00  0.00    -0.073 N 
ATOM     40 3H10 UNL     1      10.539  10.263   3.472  1.00  0.00     0.274 HD
ATOM     41 2H10 UNL     1      10.962   8.793   3.363  1.00  0.00     0.274 HD
ATOM     42 1H10 UNL     1      12.195   9.959   3.224  1.00  0.00     0.274 HD
ENDBRANCH  12  39
BRANCH   9  43
HETATM   43  O4  UNL     1      12.779   5.874   0.978  1.00  0.00    -0.220 OA
BRANCH  43  44
HETATM   44  C8  UNL     1      13.500   4.719   1.362  1.00  0.00     0.542 C 
BRANCH  44  45
HETATM   45  N3  UNL     1      13.459   3.726   0.305  1.00  0.00    -0.025 N 
ATOM     46  H33 UNL     1      12.616   3.154   0.352  1.00  0.00     0.279 HD
ATOM     47  H32 UNL     1      13.302   4.150  -0.610  1.00  0.00     0.279 HD
ATOM     48  H31 UNL     1      14.306   3.158   0.321  1.00  0.00     0.279 HD
ENDBRANCH  44  45
BRANCH  44  49
HETATM   49  N4  UNL     1      12.918   4.102   2.540  1.00  0.00    -0.025 N 
ATOM     50  H43 UNL     1      12.178   4.680   2.939  1.00  0.00     0.279 HD
ATOM     51  H42 UNL     1      12.363   3.282   2.298  1.00  0.00     0.279 HD
ATOM     52  H41 UNL     1      13.632   3.879   3.233  1.00  0.00     0.279 HD
ENDBRANCH  44  49
ENDBRANCH  43  44
ENDBRANCH   9  43
BRANCH   7  53
HETATM   53  O3  UNL     1       9.912   5.329   3.171  1.00  0.00    -0.358 OA
ATOM     54  H3  UNL     1      10.688   5.329   3.721  1.00  0.00     0.217 HD
ENDBRANCH   7  53
BRANCH   4  55
HETATM   55  O2  UNL     1       7.049   9.996   2.491  1.00  0.00    -0.357 OA
ATOM     56  H2  UNL     1       6.971  10.582   3.235  1.00  0.00     0.217 HD
ENDBRANCH   4  55
BRANCH   3  57
HETATM   57  O1  UNL     1       6.006   7.943   4.034  1.00  0.00    -0.356 OA
ATOM     58  H1  UNL     1       5.477   8.721   3.903  1.00  0.00     0.218 HD
ENDBRANCH   3  57
TORSDOF 19
ENDMDL
MODEL 5
REMARK VINA RESULT: -5.568408972      3.228      5.136
REMARK  19 active torsions:
REMARK  status: ('A' for Active; 'I' for Inactive)
REMARK    1  A    between atoms: C2_3  and  O1_4 
REMARK    2  A    between atoms: C3_6  and  O2_7 
REMARK    3  A    between atoms: C6_11  and  O3_12 
REMARK    4  A    between atoms: N2_15  and  O4_17 
REMARK    5  A    between atoms: O4_17  and  C8_18 
REMARK    6  A    between atoms: C8_18  and  N3_19 
REMARK    7  A    between atoms: C8_18  and  N4_23 
REMARK    8  A    between atoms: C9_27  and  N5_28 
REMARK    9  A    between atoms: N5_28  and  O5_29 
REMARK   10  A    between atoms: O5_29  and  C10_30 
REMARK   11  A    between atoms: C10_30  and  N6_31 
REMARK   12  A    between atoms: C10_30  and  C12_41 
REMARK   13  A    between atoms: N6_31  and  C11_34 
REMARK   14  A    between atoms: C11_34  and  N7_35 
REMARK   15  A    between atoms: C11_34  and  O6_39 
REMARK   16  A    between atoms: C13_44  and  C14_45 
REMARK   17  A    between atoms: C14_45  and  O7_46 
REMARK   18  A    between atoms: C14_45  and  O8_48 
REMARK   19  A    between atoms: C15_53  and  N10_54 
ROOT
HETATM    1  N1  UNL     1       5.826   6.441   1.474  1.00  0.00    -0.096 NA
HETATM    2  C1  UNL     1       7.030   6.491   2.240  1.00  0.00     0.116 A 
HETATM    3  C2  UNL     1       6.896   6.516   3.613  1.00  0.00     0.126 A 
HETATM    4  C3  UNL     1       8.062   6.565   4.381  1.00  0.00     0.108 A 
HETATM    5  C4  UNL     1       9.281   6.587   3.758  1.00  0.00    -0.005 A 
HETATM    6  C5  UNL     1       9.414   6.563   2.370  1.00  0.00     0.035 A 
HETATM    7  C6  UNL     1       8.259   6.515   1.620  1.00  0.00     0.105 A 
HETATM    8  C7  UNL     1      10.740   6.590   1.743  1.00  0.00     0.069 C 
HETATM    9  N2  UNL     1      10.780   6.827   0.477  1.00  0.00    -0.264 N 
ATOM     10  H2  UNL     1       9.891   6.979   0.001  1.00  0.00     0.194 HD
HETATM   11  C9  UNL     1      11.983   6.360   2.522  1.00  0.00     0.190 C 
HETATM   12  C15 UNL     1      11.554   5.727   3.826  1.00  0.00     0.215 C 
HETATM   13  C16 UNL     1      10.541   6.639   4.519  1.00  0.00     0.077 C 
ENDROOT
BRANCH  11  14
HETATM   14  N5  UNL     1      12.657   7.619   2.701  1.00  0.00    -0.085 NA
BRANCH  14  15
HETATM   15  O5  UNL     1      11.976   8.666   2.248  1.00  0.00    -0.243 OA
BRANCH  15  16
HETATM   16  C10 UNL     1      12.315   9.869   2.889  1.00  0.00     0.426 C 
BRANCH  16  17
HETATM   17  N6  UNL     1      11.108  10.389   3.466  1.00  0.00     0.013 N 
ATOM     18  H62 UNL     1      10.680   9.696   4.079  1.00  0.00     0.286 HD
ATOM     19  H61 UNL     1      11.325  11.117   4.148  1.00  0.00     0.286 HD
BRANCH  17  20
HETATM   20  C11 UNL     1      10.151  10.870   2.510  1.00  0.00     0.522 C 
BRANCH  20  21
HETATM   21  N7  UNL     1       9.012   9.994   2.345  1.00  0.00    -0.027 N 
ATOM     22  H73 UNL     1       9.315   9.045   2.127  1.00  0.00     0.279 HD
ATOM     23  H72 UNL     1       8.555   9.824   3.241  1.00  0.00     0.279 HD
ATOM     24  H71 UNL     1       8.340  10.328   1.654  1.00  0.00     0.279 HD
ENDBRANCH  20  21
BRANCH  20  25
HETATM   25  O6  UNL     1      10.754  11.186   1.284  1.00  0.00    -0.349 OA
ATOM     26  H6  UNL     1      10.374  10.692   0.567  1.00  0.00     0.213 HD
ENDBRANCH  20  25
ENDBRANCH  17  20
ENDBRANCH  16  17
BRANCH  16  27
HETATM   27  C12 UNL     1      13.405   9.674   3.853  1.00  0.00     0.207 A 
HETATM   28  N8  UNL     1      13.349   9.127   5.080  1.00  0.00    -0.319 N 
HETATM   29  C13 UNL     1      14.570   9.134   5.644  1.00  0.00     0.159 A 
ATOM     30  H8  UNL     1      12.504   8.761   5.519  1.00  0.00     0.169 HD
HETATM   31  N9  UNL     1      15.375   9.700   4.726  1.00  0.00    -0.242 N 
HETATM   32  O9  UNL     1      14.662  10.008   3.682  1.00  0.00    -0.218 OA
ATOM     33  H9  UNL     1      16.377   9.859   4.832  1.00  0.00     0.196 HD
BRANCH  29  34
HETATM   34  C14 UNL     1      15.005   8.641   6.980  1.00  0.00     0.325 C 
BRANCH  34  35
HETATM   35  O7  UNL     1      16.400   8.813   7.118  1.00  0.00    -0.365 OA
ATOM     36  H7  UNL     1      16.846   8.011   6.871  1.00  0.00     0.213 HD
ENDBRANCH  34  35
BRANCH  34  37
HETATM   37  O8  UNL     1      14.695   7.312   7.174  1.00  0.00    -0.365 OA
ATOM     38  H8  UNL     1      13.864   7.073   6.780  1.00  0.00     0.213 HD
ENDBRANCH  34  37
ENDBRANCH  29  34
ENDBRANCH  16  27
ENDBRANCH  15  16
ENDBRANCH  14  15
ENDBRANCH  11  14
BRANCH  12  39
HETATM   39  N10 UNL     1      10.845   4.504   3.498  1.00  0.00    -0.073 N 
ATOM     40 3H10 UNL     1      11.032   4.176   2.551  1.00  0.00     0.274 HD
ATOM     41 2H10 UNL     1      11.205   3.688   3.994  1.00  0.00     0.274 HD
ATOM     42 1H10 UNL     1       9.854   4.674   3.673  1.00  0.00     0.274 HD
ENDBRANCH  12  39
BRANCH   9  43
HETATM   43  O4  UNL     1      11.906   6.892  -0.274  1.00  0.00    -0.220 OA
BRANCH  43  44
HETATM   44  C8  UNL     1      12.237   8.035  -1.039  1.00  0.00     0.542 C 
BRANCH  44  45
HETATM   45  N3  UNL     1      11.249   9.078  -0.837  1.00  0.00    -0.025 N 
ATOM     46  H33 UNL     1      11.005   9.185   0.148  1.00  0.00     0.279 HD
ATOM     47  H32 UNL     1      11.638  10.007  -0.998  1.00  0.00     0.279 HD
ATOM     48  H31 UNL     1      10.428   8.903  -1.415  1.00  0.00     0.279 HD
ENDBRANCH  44  45
BRANCH  44  49
HETATM   49  N4  UNL     1      12.245   7.733  -2.458  1.00  0.00    -0.025 N 
ATOM     50  H43 UNL     1      13.190   7.555  -2.799  1.00  0.00     0.279 HD
ATOM     51  H42 UNL     1      11.834   6.819  -2.649  1.00  0.00     0.279 HD
ATOM     52  H41 UNL     1      11.786   8.469  -2.996  1.00  0.00     0.279 HD
ENDBRANCH  44  49
ENDBRANCH  43  44
ENDBRANCH   9  43
BRANCH   7  53
HETATM   53  O3  UNL     1       8.316   6.488   0.247  1.00  0.00    -0.358 OA
ATOM     54  H3  UNL     1       9.047   6.053  -0.178  1.00  0.00     0.217 HD
ENDBRANCH   7  53
BRANCH   4  55
HETATM   55  O2  UNL     1       7.939   6.591   5.751  1.00  0.00    -0.357 OA
ATOM     56  H2  UNL     1       8.218   7.372   6.213  1.00  0.00     0.217 HD
ENDBRANCH   4  55
BRANCH   3  57
HETATM   57  O1  UNL     1       5.639   6.492   4.206  1.00  0.00    -0.356 OA
ATOM     58  H1  UNL     1       5.545   6.546   5.150  1.00  0.00     0.218 HD
ENDBRANCH   3  57
TORSDOF 19
ENDMDL
