MODEL 1
REMARK VINA RESULT: -6.296890404      0.000      0.000
REMARK  15 active torsions:
REMARK  status: ('A' for Active; 'I' for Inactive)
REMARK    1  A    between atoms: C1_4  and  O1_5 
REMARK    2  A    between atoms: C1_4  and  O2_29 
REMARK    3  A    between atoms: O1_5  and  C2_6 
REMARK    4  A    between atoms: C2_6  and  C3_7 
REMARK    5  A    between atoms: C3_7  and  N2_8 
REMARK    6  A    between atoms: C5_14  and  C6_15 
REMARK    7  A    between atoms: O2_29  and  C10_30 
REMARK    8  A    between atoms: C10_30  and  O3_31 
REMARK    9  A    between atoms: O3_31  and  C11_32 
REMARK   10  A    between atoms: C12_36  and  O4_37 
REMARK   11  A    between atoms: C12_36  and  C13_39 
REMARK   12  A    between atoms: C13_39  and  O5_40 
REMARK   13  A    between atoms: C14_42  and  O6_43 
REMARK   14  A    between atoms: C15_45  and  O7_46 
REMARK   15  A    between atoms: C16_48  and  O8_49 
ROOT
HETATM    1  N1  UNL     1       8.561  11.137   6.870  1.00  0.00    -0.359 N 
ATOM      2  H11 UNL     1       8.851  11.640   6.031  1.00  0.00     0.160 HD
ATOM      3  H12 UNL     1       9.174  11.006   7.674  1.00  0.00     0.160 HD
HETATM    4  C1  UNL     1       7.379  10.660   6.886  1.00  0.00     0.260 C 
ENDROOT
BRANCH   4   5
HETATM    5  O1  UNL     1       6.986   9.978   8.021  1.00  0.00    -0.315 OA
BRANCH   5   6
HETATM    6  C2  UNL     1       5.913  10.325   8.803  1.00  0.00     0.201 C 
BRANCH   6   7
HETATM    7  C3  UNL     1       4.691   9.494   8.787  1.00  0.00     0.177 C 
BRANCH   7   8
HETATM    8  N2  UNL     1       4.222   9.105   7.477  1.00  0.00    -0.274 N 
HETATM    9  N3  UNL     1       4.772   8.137   6.716  1.00  0.00    -0.281 N 
HETATM   10  C4  UNL     1       4.129   8.039   5.542  1.00  0.00     0.139 A 
ATOM     11  H3  UNL     1       5.565   7.559   6.995  1.00  0.00     0.189 HD
HETATM   12  N4  UNL     1       4.302   7.232   4.458  1.00  0.00    -0.328 N 
HETATM   13  C8  UNL     1       3.124   8.978   5.539  1.00  0.00     0.095 A 
HETATM   14  C5  UNL     1       3.524   7.319   3.379  1.00  0.00     0.122 A 
ATOM     15  H4  UNL     1       5.051   6.540   4.472  1.00  0.00     0.169 HD
HETATM   16  N9  UNL     1       2.549   8.237   3.391  1.00  0.00    -0.329 N 
HETATM   17  C7  UNL     1       2.315   9.078   4.434  1.00  0.00     0.117 A 
ATOM     18  H9  UNL     1       1.947   8.310   2.570  1.00  0.00     0.168 HD
HETATM   19  N10 UNL     1       1.355   9.920   4.339  1.00  0.00    -0.385 N 
ATOM     20 2H10 UNL     1       0.754   9.994   3.518  1.00  0.00     0.157 HD
ATOM     21 1H10 UNL     1       1.180  10.550   5.121  1.00  0.00     0.157 HD
HETATM   22  C9  UNL     1       3.223   9.619   6.773  1.00  0.00     0.150 A 
HETATM   23  N11 UNL     1       2.296  10.644   7.122  1.00  0.00    -0.080 NA
BRANCH  14  24
HETATM   24  C6  UNL     1       3.776   6.413   2.252  1.00  0.00     0.274 C 
HETATM   25  N5  UNL     1       4.398   5.177   2.599  1.00  0.00    -0.098 NA
HETATM   26  N6  UNL     1       4.914   4.755   1.348  1.00  0.00    -0.019 NA
HETATM   27  N7  UNL     1       5.137   5.887   0.598  1.00  0.00    -0.019 NA
HETATM   28  N8  UNL     1       4.748   6.996   1.329  1.00  0.00    -0.098 NA
ENDBRANCH  14  24
ENDBRANCH   7   8
ENDBRANCH   6   7
ENDBRANCH   5   6
ENDBRANCH   4   5
BRANCH   4  29
HETATM   29  O2  UNL     1       6.545  10.839   5.791  1.00  0.00    -0.291 OA
BRANCH  29  30
HETATM   30  C10 UNL     1       6.779  10.155   4.578  1.00  0.00     0.351 C 
BRANCH  30  31
HETATM   31  O3  UNL     1       7.240   8.870   4.838  1.00  0.00    -0.332 OA
BRANCH  31  32
HETATM   32  C11 UNL     1       8.065   8.433   3.810  1.00  0.00     0.358 C 
HETATM   33  N12 UNL     1       7.404   7.301   3.184  1.00  0.00    -0.009 N 
HETATM   34  C12 UNL     1       8.287   6.466   2.431  1.00  0.00     0.277 C 
ATOM     35 2H12 UNL     1       6.893   6.754   3.877  1.00  0.00     0.284 HD
ATOM     36 1H12 UNL     1       6.624   7.614   2.605  1.00  0.00     0.284 HD
HETATM   37  C14 UNL     1       9.443   5.923   3.217  1.00  0.00     0.215 C 
HETATM   38  C15 UNL     1       9.534   6.603   4.588  1.00  0.00     0.184 C 
HETATM   39  C16 UNL     1       9.443   8.096   4.306  1.00  0.00     0.206 C 
BRANCH  34  40
HETATM   40  O4  UNL     1       7.528   5.355   2.011  1.00  0.00    -0.361 OA
ATOM     41  H4  UNL     1       8.106   4.817   1.482  1.00  0.00     0.212 HD
ENDBRANCH  34  40
BRANCH  34  42
HETATM   42  C13 UNL     1       8.709   7.203   1.182  1.00  0.00     0.235 C 
BRANCH  42  43
HETATM   43  O5  UNL     1       7.777   6.851   0.186  1.00  0.00    -0.396 OA
ATOM     44  H5  UNL     1       8.284   6.645  -0.591  1.00  0.00     0.209 HD
ENDBRANCH  42  43
ENDBRANCH  34  42
BRANCH  37  45
HETATM   45  O6  UNL     1       9.305   4.555   3.488  1.00  0.00    -0.388 OA
ATOM     46  H6  UNL     1       9.797   4.016   2.878  1.00  0.00     0.210 HD
ENDBRANCH  37  45
BRANCH  38  47
HETATM   47  O7  UNL     1       8.513   6.169   5.419  1.00  0.00    -0.390 OA
ATOM     48  H7  UNL     1       8.602   6.548   6.286  1.00  0.00     0.210 HD
ENDBRANCH  38  47
BRANCH  39  49
HETATM   49  O8  UNL     1       9.822   8.803   5.430  1.00  0.00    -0.388 OA
ATOM     50  H8  UNL     1      10.334   8.297   6.049  1.00  0.00     0.210 HD
ENDBRANCH  39  49
ENDBRANCH  31  32
ENDBRANCH  30  31
ENDBRANCH  29  30
ENDBRANCH   4  29
TORSDOF 15
ENDMDL
MODEL 2
REMARK VINA RESULT: -6.293174975      0.814      1.080
REMARK  15 active torsions:
REMARK  status: ('A' for Active; 'I' for Inactive)
REMARK    1  A    between atoms: C1_4  and  O1_5 
REMARK    2  A    between atoms: C1_4  and  O2_29 
REMARK    3  A    between atoms: O1_5  and  C2_6 
REMARK    4  A    between atoms: C2_6  and  C3_7 
REMARK    5  A    between atoms: C3_7  and  N2_8 
REMARK    6  A    between atoms: C5_14  and  C6_15 
REMARK    7  A    between atoms: O2_29  and  C10_30 
REMARK    8  A    between atoms: C10_30  and  O3_31 
REMARK    9  A    between atoms: O3_31  and  C11_32 
REMARK   10  A    between atoms: C12_36  and  O4_37 
REMARK   11  A    between atoms: C12_36  and  C13_39 
REMARK   12  A    between atoms: C13_39  and  O5_40 
REMARK   13  A    between atoms: C14_42  and  O6_43 
REMARK   14  A    between atoms: C15_45  and  O7_46 
REMARK   15  A    between atoms: C16_48  and  O8_49 
ROOT
HETATM    1  N1  UNL     1       8.880   9.940   7.017  1.00  0.00    -0.359 N 
ATOM      2  H11 UNL     1       9.324  10.171   6.129  1.00  0.00     0.160 HD
ATOM      3  H12 UNL     1       9.389   9.532   7.801  1.00  0.00     0.160 HD
HETATM    4  C1  UNL     1       7.632  10.180   7.128  1.00  0.00     0.260 C 
ENDROOT
BRANCH   4   5
HETATM    5  O1  UNL     1       7.030   9.868   8.330  1.00  0.00    -0.315 OA
BRANCH   5   6
HETATM    6  C2  UNL     1       5.926  10.507   8.835  1.00  0.00     0.201 C 
BRANCH   6   7
HETATM    7  C3  UNL     1       4.621   9.813   8.863  1.00  0.00     0.177 C 
BRANCH   7   8
HETATM    8  N2  UNL     1       4.134   9.357   7.581  1.00  0.00    -0.274 N 
HETATM    9  N3  UNL     1       4.735   8.426   6.814  1.00  0.00    -0.281 N 
HETATM   10  C4  UNL     1       4.054   8.246   5.671  1.00  0.00     0.139 A 
ATOM     11  H3  UNL     1       5.589   7.927   7.067  1.00  0.00     0.189 HD
HETATM   12  N4  UNL     1       4.253   7.435   4.594  1.00  0.00    -0.328 N 
HETATM   13  C8  UNL     1       2.970   9.091   5.697  1.00  0.00     0.095 A 
HETATM   14  C5  UNL     1       3.425   7.429   3.549  1.00  0.00     0.122 A 
ATOM     15  H4  UNL     1       5.061   6.813   4.587  1.00  0.00     0.169 HD
HETATM   16  N9  UNL     1       2.373   8.257   3.589  1.00  0.00    -0.329 N 
HETATM   17  C7  UNL     1       2.108   9.096   4.628  1.00  0.00     0.117 A 
ATOM     18  H9  UNL     1       1.733   8.259   2.795  1.00  0.00     0.168 HD
HETATM   19  N10 UNL     1       1.074   9.846   4.560  1.00  0.00    -0.385 N 
ATOM     20 2H10 UNL     1       0.433   9.849   3.766  1.00  0.00     0.157 HD
ATOM     21 1H10 UNL     1       0.876  10.474   5.339  1.00  0.00     0.157 HD
HETATM   22  C9  UNL     1       3.063   9.764   6.914  1.00  0.00     0.150 A 
HETATM   23  N11 UNL     1       2.063  10.710   7.286  1.00  0.00    -0.080 NA
BRANCH  14  24
HETATM   24  C6  UNL     1       3.710   6.527   2.428  1.00  0.00     0.274 C 
HETATM   25  N5  UNL     1       4.239   5.255   2.797  1.00  0.00    -0.098 NA
HETATM   26  N6  UNL     1       4.820   4.822   1.579  1.00  0.00    -0.019 NA
HETATM   27  N7  UNL     1       5.157   5.950   0.866  1.00  0.00    -0.019 NA
HETATM   28  N8  UNL     1       4.775   7.068   1.587  1.00  0.00    -0.098 NA
ENDBRANCH  14  24
ENDBRANCH   7   8
ENDBRANCH   6   7
ENDBRANCH   5   6
ENDBRANCH   4   5
BRANCH   4  29
HETATM   29  O2  UNL     1       6.937  10.736   6.061  1.00  0.00    -0.291 OA
BRANCH  29  30
HETATM   30  C10 UNL     1       7.197  10.333   4.733  1.00  0.00     0.351 C 
BRANCH  30  31
HETATM   31  O3  UNL     1       7.116   8.949   4.632  1.00  0.00    -0.332 OA
BRANCH  31  32
HETATM   32  C11 UNL     1       8.160   8.457   3.860  1.00  0.00     0.358 C 
HETATM   33  N12 UNL     1       7.638   8.249   2.519  1.00  0.00    -0.009 N 
HETATM   34  C12 UNL     1       8.419   7.346   1.734  1.00  0.00     0.277 C 
ATOM     35 2H12 UNL     1       6.665   7.947   2.555  1.00  0.00     0.284 HD
ATOM     36 1H12 UNL     1       7.522   9.140   2.036  1.00  0.00     0.284 HD
HETATM   37  C14 UNL     1       8.605   5.992   2.351  1.00  0.00     0.215 C 
HETATM   38  C15 UNL     1       8.114   5.985   3.803  1.00  0.00     0.184 C 
HETATM   39  C16 UNL     1       8.750   7.207   4.450  1.00  0.00     0.206 C 
BRANCH  34  40
HETATM   40  O4  UNL     1       7.713   7.147   0.529  1.00  0.00    -0.361 OA
ATOM     41  H4  UNL     1       8.310   6.707  -0.064  1.00  0.00     0.212 HD
ENDBRANCH  34  40
BRANCH  34  42
HETATM   42  C13 UNL     1       9.722   8.019   1.369  1.00  0.00     0.235 C 
BRANCH  42  43
HETATM   43  O5  UNL     1      10.369   7.156   0.463  1.00  0.00    -0.396 OA
ATOM     44  H5  UNL     1      10.239   7.532  -0.400  1.00  0.00     0.209 HD
ENDBRANCH  42  43
ENDBRANCH  34  42
BRANCH  37  45
HETATM   45  O6  UNL     1       7.853   5.004   1.698  1.00  0.00    -0.388 OA
ATOM     46  H6  UNL     1       7.325   4.496   2.303  1.00  0.00     0.210 HD
ENDBRANCH  37  45
BRANCH  38  47
HETATM   47  O7  UNL     1       6.729   6.034   3.852  1.00  0.00    -0.390 OA
ATOM     48  H7  UNL     1       6.436   6.422   4.668  1.00  0.00     0.210 HD
ENDBRANCH  38  47
BRANCH  39  49
HETATM   49  O8  UNL     1       8.623   7.123   5.823  1.00  0.00    -0.388 OA
ATOM     50  H8  UNL     1       8.892   6.287   6.183  1.00  0.00     0.210 HD
ENDBRANCH  39  49
ENDBRANCH  31  32
ENDBRANCH  30  31
ENDBRANCH  29  30
ENDBRANCH   4  29
TORSDOF 15
ENDMDL
MODEL 3
REMARK VINA RESULT: -6.184617190      1.301      2.204
REMARK  15 active torsions:
REMARK  status: ('A' for Active; 'I' for Inactive)
REMARK    1  A    between atoms: C1_4  and  O1_5 
REMARK    2  A    between atoms: C1_4  and  O2_29 
REMARK    3  A    between atoms: O1_5  and  C2_6 
REMARK    4  A    between atoms: C2_6  and  C3_7 
REMARK    5  A    between atoms: C3_7  and  N2_8 
REMARK    6  A    between atoms: C5_14  and  C6_15 
REMARK    7  A    between atoms: O2_29  and  C10_30 
REMARK    8  A    between atoms: C10_30  and  O3_31 
REMARK    9  A    between atoms: O3_31  and  C11_32 
REMARK   10  A    between atoms: C12_36  and  O4_37 
REMARK   11  A    between atoms: C12_36  and  C13_39 
REMARK   12  A    between atoms: C13_39  and  O5_40 
REMARK   13  A    between atoms: C14_42  and  O6_43 
REMARK   14  A    between atoms: C15_45  and  O7_46 
REMARK   15  A    between atoms: C16_48  and  O8_49 
ROOT
HETATM    1  N1  UNL     1       8.800  10.115   6.119  1.00  0.00    -0.359 N 
ATOM      2  H11 UNL     1       9.365   9.954   5.286  1.00  0.00     0.160 HD
ATOM      3  H12 UNL     1       8.152  10.899   6.204  1.00  0.00     0.160 HD
HETATM    4  C1  UNL     1       8.926   9.288   7.081  1.00  0.00     0.260 C 
ENDROOT
BRANCH   4   5
HETATM    5  O1  UNL     1       8.161   9.506   8.210  1.00  0.00    -0.315 OA
BRANCH   5   6
HETATM    6  C2  UNL     1       7.132  10.411   8.287  1.00  0.00     0.201 C 
BRANCH   6   7
HETATM    7  C3  UNL     1       5.753   9.939   8.535  1.00  0.00     0.177 C 
BRANCH   7   8
HETATM    8  N2  UNL     1       5.057   9.422   7.379  1.00  0.00    -0.274 N 
HETATM    9  N3  UNL     1       5.582   8.561   6.484  1.00  0.00    -0.281 N 
HETATM   10  C4  UNL     1       4.697   8.297   5.511  1.00  0.00     0.139 A 
ATOM     11  H3  UNL     1       6.521   8.165   6.539  1.00  0.00     0.189 HD
HETATM   12  N4  UNL     1       4.751   7.507   4.401  1.00  0.00    -0.328 N 
HETATM   13  C8  UNL     1       3.554   9.012   5.782  1.00  0.00     0.095 A 
HETATM   14  C5  UNL     1       3.724   7.399   3.557  1.00  0.00     0.122 A 
ATOM     15  H4  UNL     1       5.604   6.982   4.210  1.00  0.00     0.169 HD
HETATM   16  N9  UNL     1       2.617   8.100   3.836  1.00  0.00    -0.329 N 
HETATM   17  C7  UNL     1       2.488   8.910   4.923  1.00  0.00     0.117 A 
ATOM     18  H9  UNL     1       1.826   8.024   3.198  1.00  0.00     0.168 HD
HETATM   19  N10 UNL     1       1.385   9.536   5.092  1.00  0.00    -0.385 N 
ATOM     20 2H10 UNL     1       0.593   9.461   4.453  1.00  0.00     0.157 HD
ATOM     21 1H10 UNL     1       1.289  10.143   5.906  1.00  0.00     0.157 HD
HETATM   22  C9  UNL     1       3.829   9.699   6.964  1.00  0.00     0.150 A 
HETATM   23  N11 UNL     1       2.831  10.526   7.558  1.00  0.00    -0.080 NA
BRANCH  14  24
HETATM   24  C6  UNL     1       3.861   6.528   2.385  1.00  0.00     0.274 C 
HETATM   25  N5  UNL     1       4.624   5.342   2.601  1.00  0.00    -0.098 NA
HETATM   26  N6  UNL     1       4.965   4.975   1.276  1.00  0.00    -0.019 NA
HETATM   27  N7  UNL     1       4.977   6.128   0.525  1.00  0.00    -0.019 NA
HETATM   28  N8  UNL     1       4.625   7.195   1.333  1.00  0.00    -0.098 NA
ENDBRANCH  14  24
ENDBRANCH   7   8
ENDBRANCH   6   7
ENDBRANCH   5   6
ENDBRANCH   4   5
BRANCH   4  29
HETATM   29  O2  UNL     1       9.807   8.222   6.966  1.00  0.00    -0.291 OA
BRANCH  29  30
HETATM   30  C10 UNL     1      10.355   7.861   5.715  1.00  0.00     0.351 C 
BRANCH  30  31
HETATM   31  O3  UNL     1       9.344   7.454   4.853  1.00  0.00    -0.332 OA
BRANCH  31  32
HETATM   32  C11 UNL     1       9.879   7.040   3.640  1.00  0.00     0.358 C 
HETATM   33  N12 UNL     1       9.587   8.080   2.668  1.00  0.00    -0.009 N 
HETATM   34  C12 UNL     1       9.656   7.633   1.312  1.00  0.00     0.277 C 
ATOM     35 2H12 UNL     1       8.682   8.509   2.861  1.00  0.00     0.284 HD
ATOM     36 1H12 UNL     1      10.193   8.888   2.813  1.00  0.00     0.284 HD
HETATM   37  C14 UNL     1       8.761   6.472   0.999  1.00  0.00     0.215 C 
HETATM   38  C15 UNL     1       8.166   5.882   2.283  1.00  0.00     0.184 C 
HETATM   39  C16 UNL     1       9.347   5.696   3.226  1.00  0.00     0.206 C 
BRANCH  34  40
HETATM   40  O4  UNL     1       9.217   8.708   0.512  1.00  0.00    -0.361 OA
ATOM     41  H4  UNL     1       8.349   8.479   0.203  1.00  0.00     0.212 HD
ENDBRANCH  34  40
BRANCH  34  42
HETATM   42  C13 UNL     1      11.102   7.386   0.954  1.00  0.00     0.235 C 
BRANCH  42  43
HETATM   43  O5  UNL     1      11.116   6.222   0.160  1.00  0.00    -0.396 OA
ATOM     44  H5  UNL     1      11.241   6.513  -0.735  1.00  0.00     0.209 HD
ENDBRANCH  42  43
ENDBRANCH  34  42
BRANCH  37  45
HETATM   45  O6  UNL     1       7.659   6.847   0.216  1.00  0.00    -0.388 OA
ATOM     46  H6  UNL     1       6.927   7.144   0.744  1.00  0.00     0.210 HD
ENDBRANCH  37  45
BRANCH  38  47
HETATM   47  O7  UNL     1       7.207   6.730   2.813  1.00  0.00    -0.390 OA
ATOM     48  H7  UNL     1       6.846   6.369   3.615  1.00  0.00     0.210 HD
ENDBRANCH  38  47
BRANCH  39  49
HETATM   49  O8  UNL     1       8.971   4.893   4.284  1.00  0.00    -0.388 OA
ATOM     50  H8  UNL     1       8.475   5.347   4.955  1.00  0.00     0.210 HD
ENDBRANCH  39  49
ENDBRANCH  31  32
ENDBRANCH  30  31
ENDBRANCH  29  30
ENDBRANCH   4  29
TORSDOF 15
ENDMDL
MODEL 4
REMARK VINA RESULT: -6.113227159      3.891      6.598
REMARK  15 active torsions:
REMARK  status: ('A' for Active; 'I' for Inactive)
REMARK    1  A    between atoms: C1_4  and  O1_5 
REMARK    2  A    between atoms: C1_4  and  O2_29 
REMARK    3  A    between atoms: O1_5  and  C2_6 
REMARK    4  A    between atoms: C2_6  and  C3_7 
REMARK    5  A    between atoms: C3_7  and  N2_8 
REMARK    6  A    between atoms: C5_14  and  C6_15 
REMARK    7  A    between atoms: O2_29  and  C10_30 
REMARK    8  A    between atoms: C10_30  and  O3_31 
REMARK    9  A    between atoms: O3_31  and  C11_32 
REMARK   10  A    between atoms: C12_36  and  O4_37 
REMARK   11  A    between atoms: C12_36  and  C13_39 
REMARK   12  A    between atoms: C13_39  and  O5_40 
REMARK   13  A    between atoms: C14_42  and  O6_43 
REMARK   14  A    between atoms: C15_45  and  O7_46 
REMARK   15  A    between atoms: C16_48  and  O8_49 
ROOT
HETATM    1  N1  UNL     1       4.936   7.224   1.669  1.00  0.00    -0.359 N 
ATOM      2  H11 UNL     1       5.046   7.820   0.849  1.00  0.00     0.160 HD
ATOM      3  H12 UNL     1       4.024   6.939   2.026  1.00  0.00     0.160 HD
HETATM    4  C1  UNL     1       5.998   6.831   2.255  1.00  0.00     0.260 C 
ENDROOT
BRANCH   4   5
HETATM    5  O1  UNL     1       5.849   6.024   3.365  1.00  0.00    -0.315 OA
BRANCH   5   6
HETATM    6  C2  UNL     1       5.442   6.466   4.598  1.00  0.00     0.201 C 
BRANCH   6   7
HETATM    7  C3  UNL     1       6.430   6.624   5.687  1.00  0.00     0.177 C 
BRANCH   7   8
HETATM    8  N2  UNL     1       7.814   6.630   5.272  1.00  0.00    -0.274 N 
HETATM    9  N3  UNL     1       8.396   5.682   4.511  1.00  0.00    -0.281 N 
HETATM   10  C4  UNL     1       9.697   5.957   4.328  1.00  0.00     0.139 A 
ATOM     11  H3  UNL     1       7.914   4.868   4.128  1.00  0.00     0.189 HD
HETATM   12  N4  UNL     1      10.691   5.317   3.651  1.00  0.00    -0.328 N 
HETATM   13  C8  UNL     1       9.971   7.128   4.994  1.00  0.00     0.095 A 
HETATM   14  C5  UNL     1      11.937   5.789   3.608  1.00  0.00     0.122 A 
ATOM     15  H4  UNL     1      10.475   4.449   3.161  1.00  0.00     0.169 HD
HETATM   16  N9  UNL     1      12.189   6.932   4.261  1.00  0.00    -0.329 N 
HETATM   17  C7  UNL     1      11.250   7.627   4.959  1.00  0.00     0.117 A 
ATOM     18  H9  UNL     1      13.139   7.302   4.233  1.00  0.00     0.168 HD
HETATM   19  N10 UNL     1      11.600   8.708   5.547  1.00  0.00    -0.385 N 
ATOM     20 2H10 UNL     1      12.551   9.078   5.521  1.00  0.00     0.157 HD
ATOM     21 1H10 UNL     1      10.897   9.229   6.070  1.00  0.00     0.157 HD
HETATM   22  C9  UNL     1       8.759   7.511   5.568  1.00  0.00     0.150 A 
HETATM   23  N11 UNL     1       8.675   8.722   6.317  1.00  0.00    -0.080 NA
BRANCH  14  24
HETATM   24  C6  UNL     1      12.951   5.041   2.857  1.00  0.00     0.274 C 
HETATM   25  N5  UNL     1      13.025   5.353   1.468  1.00  0.00    -0.098 NA
HETATM   26  N6  UNL     1      13.702   4.219   0.954  1.00  0.00    -0.019 NA
HETATM   27  N7  UNL     1      13.427   3.166   1.796  1.00  0.00    -0.019 NA
HETATM   28  N8  UNL     1      12.627   3.616   2.833  1.00  0.00    -0.098 NA
ENDBRANCH  14  24
ENDBRANCH   7   8
ENDBRANCH   6   7
ENDBRANCH   5   6
ENDBRANCH   4   5
BRANCH   4  29
HETATM   29  O2  UNL     1       7.240   7.218   1.769  1.00  0.00    -0.291 OA
BRANCH  29  30
HETATM   30  C10 UNL     1       7.853   8.413   2.205  1.00  0.00     0.351 C 
BRANCH  30  31
HETATM   31  O3  UNL     1       9.222   8.357   1.972  1.00  0.00    -0.332 OA
BRANCH  31  32
HETATM   32  C11 UNL     1       9.603   9.355   1.084  1.00  0.00     0.358 C 
HETATM   33  N12 UNL     1      10.095   8.695  -0.114  1.00  0.00    -0.009 N 
HETATM   34  C12 UNL     1      10.929   9.526  -0.925  1.00  0.00     0.277 C 
ATOM     35 2H12 UNL     1      10.574   7.827   0.125  1.00  0.00     0.284 HD
ATOM     36 1H12 UNL     1       9.321   8.318  -0.661  1.00  0.00     0.284 HD
HETATM   37  C14 UNL     1      12.120  10.090  -0.210  1.00  0.00     0.215 C 
HETATM   38  C15 UNL     1      12.020   9.836   1.299  1.00  0.00     0.184 C 
HETATM   39  C16 UNL     1      10.618  10.284   1.691  1.00  0.00     0.206 C 
BRANCH  34  40
HETATM   40  O4  UNL     1      11.428   8.707  -1.958  1.00  0.00    -0.361 OA
ATOM     41  H4  UNL     1      12.366   8.856  -1.992  1.00  0.00     0.212 HD
ENDBRANCH  34  40
BRANCH  34  42
HETATM   42  C13 UNL     1      10.072  10.583  -1.582  1.00  0.00     0.235 C 
BRANCH  42  43
HETATM   43  O5  UNL     1       9.149   9.891  -2.391  1.00  0.00    -0.396 OA
ATOM     44  H5  UNL     1       9.665   9.367  -2.992  1.00  0.00     0.209 HD
ENDBRANCH  42  43
ENDBRANCH  34  42
BRANCH  37  45
HETATM   45  O6  UNL     1      13.317   9.481  -0.612  1.00  0.00    -0.388 OA
ATOM     46  H6  UNL     1      13.596   8.803  -0.007  1.00  0.00     0.210 HD
ENDBRANCH  37  45
BRANCH  38  47
HETATM   47  O7  UNL     1      12.236   8.497   1.585  1.00  0.00    -0.390 OA
ATOM     48  H7  UNL     1      11.624   7.949   1.107  1.00  0.00     0.210 HD
ENDBRANCH  38  47
BRANCH  39  49
HETATM   49  O8  UNL     1      10.532  10.384   3.065  1.00  0.00    -0.388 OA
ATOM     50  H8  UNL     1      11.353  10.610   3.486  1.00  0.00     0.210 HD
ENDBRANCH  39  49
ENDBRANCH  31  32
ENDBRANCH  30  31
ENDBRANCH  29  30
ENDBRANCH   4  29
TORSDOF 15
ENDMDL
MODEL 5
REMARK VINA RESULT: -5.932378265      3.799      7.411
REMARK  15 active torsions:
REMARK  status: ('A' for Active; 'I' for Inactive)
REMARK    1  A    between atoms: C1_4  and  O1_5 
REMARK    2  A    between atoms: C1_4  and  O2_29 
REMARK    3  A    between atoms: O1_5  and  C2_6 
REMARK    4  A    between atoms: C2_6  and  C3_7 
REMARK    5  A    between atoms: C3_7  and  N2_8 
REMARK    6  A    between atoms: C5_14  and  C6_15 
REMARK    7  A    between atoms: O2_29  and  C10_30 
REMARK    8  A    between atoms: C10_30  and  O3_31 
REMARK    9  A    between atoms: O3_31  and  C11_32 
REMARK   10  A    between atoms: C12_36  and  O4_37 
REMARK   11  A    between atoms: C12_36  and  C13_39 
REMARK   12  A    between atoms: C13_39  and  O5_40 
REMARK   13  A    between atoms: C14_42  and  O6_43 
REMARK   14  A    between atoms: C15_45  and  O7_46 
REMARK   15  A    between atoms: C16_48  and  O8_49 
ROOT
HETATM    1  N1  UNL     1       3.289   5.317   4.271  1.00  0.00    -0.359 N 
ATOM      2  H11 UNL     1       2.482   5.366   3.649  1.00  0.00     0.160 HD
ATOM      3  H12 UNL     1       3.202   5.178   5.277  1.00  0.00     0.160 HD
HETATM    4  C1  UNL     1       4.444   5.438   3.743  1.00  0.00     0.260 C 
ENDROOT
BRANCH   4   5
HETATM    5  O1  UNL     1       5.535   5.371   4.586  1.00  0.00    -0.315 OA
BRANCH   5   6
HETATM    6  C2  UNL     1       5.815   6.285   5.569  1.00  0.00     0.201 C 
BRANCH   6   7
HETATM    7  C3  UNL     1       6.608   7.491   5.251  1.00  0.00     0.177 C 
BRANCH   7   8
HETATM    8  N2  UNL     1       8.011   7.260   4.992  1.00  0.00    -0.274 N 
HETATM    9  N3  UNL     1       8.495   6.364   4.108  1.00  0.00    -0.281 N 
HETATM   10  C4  UNL     1       9.837   6.366   4.124  1.00  0.00     0.139 A 
ATOM     11  H3  UNL     1       7.921   5.768   3.511  1.00  0.00     0.189 HD
HETATM   12  N4  UNL     1      10.771   5.656   3.431  1.00  0.00    -0.328 N 
HETATM   13  C8  UNL     1      10.241   7.297   5.051  1.00  0.00     0.095 A 
HETATM   14  C5  UNL     1      12.079   5.831   3.619  1.00  0.00     0.122 A 
ATOM     15  H4  UNL     1      10.459   4.968   2.745  1.00  0.00     0.169 HD
HETATM   16  N9  UNL     1      12.457   6.743   4.525  1.00  0.00    -0.329 N 
HETATM   17  C7  UNL     1      11.585   7.490   5.256  1.00  0.00     0.117 A 
ATOM     18  H9  UNL     1      13.455   6.886   4.675  1.00  0.00     0.168 HD
HETATM   19  N10 UNL     1      12.056   8.332   6.096  1.00  0.00    -0.385 N 
ATOM     20 2H10 UNL     1      13.054   8.475   6.248  1.00  0.00     0.157 HD
ATOM     21 1H10 UNL     1      11.402   8.892   6.644  1.00  0.00     0.157 HD
HETATM   22  C9  UNL     1       9.060   7.831   5.567  1.00  0.00     0.150 A 
HETATM   23  N11 UNL     1       9.112   8.866   6.545  1.00  0.00    -0.080 NA
BRANCH  14  24
HETATM   24  C6  UNL     1      13.020   5.027   2.833  1.00  0.00     0.274 C 
HETATM   25  N5  UNL     1      13.018   5.293   1.431  1.00  0.00    -0.098 NA
HETATM   26  N6  UNL     1      13.626   4.122   0.916  1.00  0.00    -0.019 NA
HETATM   27  N7  UNL     1      13.372   3.105   1.807  1.00  0.00    -0.019 NA
HETATM   28  N8  UNL     1      12.652   3.613   2.876  1.00  0.00    -0.098 NA
ENDBRANCH  14  24
ENDBRANCH   7   8
ENDBRANCH   6   7
ENDBRANCH   5   6
ENDBRANCH   4   5
BRANCH   4  29
HETATM   29  O2  UNL     1       4.562   5.627   2.373  1.00  0.00    -0.291 OA
BRANCH  29  30
HETATM   30  C10 UNL     1       5.281   6.723   1.848  1.00  0.00     0.351 C 
BRANCH  30  31
HETATM   31  O3  UNL     1       4.500   7.403   0.921  1.00  0.00    -0.332 OA
BRANCH  31  32
HETATM   32  C11 UNL     1       4.053   8.605   1.455  1.00  0.00     0.358 C 
HETATM   33  N12 UNL     1       4.112   8.478   2.901  1.00  0.00    -0.009 N 
HETATM   34  C12 UNL     1       3.284   9.417   3.593  1.00  0.00     0.277 C 
ATOM     35 2H12 UNL     1       3.893   7.524   3.188  1.00  0.00     0.284 HD
ATOM     36 1H12 UNL     1       5.076   8.538   3.229  1.00  0.00     0.284 HD
HETATM   37  C14 UNL     1       1.837   9.369   3.203  1.00  0.00     0.215 C 
HETATM   38  C15 UNL     1       1.636   8.485   1.967  1.00  0.00     0.184 C 
HETATM   39  C16 UNL     1       2.677   8.956   0.960  1.00  0.00     0.206 C 
BRANCH  34  40
HETATM   40  O4  UNL     1       3.346   9.075   4.959  1.00  0.00    -0.361 OA
ATOM     41  H4  UNL     1       4.266   9.078   5.197  1.00  0.00     0.212 HD
ENDBRANCH  34  40
BRANCH  34  42
HETATM   42  C13 UNL     1       3.893  10.793   3.460  1.00  0.00     0.235 C 
BRANCH  42  43
HETATM   43  O5  UNL     1       2.815  11.682   3.281  1.00  0.00    -0.396 OA
ATOM     44  H5  UNL     1       2.430  11.465   2.440  1.00  0.00     0.209 HD
ENDBRANCH  42  43
ENDBRANCH  34  42
BRANCH  37  45
HETATM   45  O6  UNL     1       1.037   8.798   4.204  1.00  0.00    -0.388 OA
ATOM     46  H6  UNL     1       0.352   9.388   4.496  1.00  0.00     0.210 HD
ENDBRANCH  37  45
BRANCH  38  47
HETATM   47  O7  UNL     1       1.796   7.147   2.290  1.00  0.00    -0.390 OA
ATOM     48  H7  UNL     1       1.481   6.592   1.586  1.00  0.00     0.210 HD
ENDBRANCH  38  47
BRANCH  39  49
HETATM   49  O8  UNL     1       2.382   8.441  -0.286  1.00  0.00    -0.388 OA
ATOM     50  H8  UNL     1       1.818   8.997  -0.809  1.00  0.00     0.210 HD
ENDBRANCH  39  49
ENDBRANCH  31  32
ENDBRANCH  30  31
ENDBRANCH  29  30
ENDBRANCH   4  29
TORSDOF 15
ENDMDL
