MODEL 1
REMARK VINA RESULT: -8.428768958      0.000      0.000
REMARK  7 active torsions:
REMARK  status: ('A' for Active; 'I' for Inactive)
REMARK    1  A    between atoms: C2_2  and  C3_3 
REMARK    2  A    between atoms: C4_4  and  C5_5 
REMARK    3  A    between atoms: C5_5  and  O1_6 
REMARK    4  A    between atoms: C20_22  and  C21_23 
REMARK    5  A    between atoms: C22_24  and  C23_25 
REMARK    6  A    between atoms: C23_25  and  C24_26 
REMARK    7  A    between atoms: C24_26  and  N1_27 
ROOT
HETATM    1  C5  UNL     1     -11.473  -9.383 -18.321  1.00  0.00     0.090 C 
HETATM    2  C6  UNL     1     -11.736 -10.836 -18.229  1.00  0.00    -0.012 C 
HETATM    3  C7  UNL     1     -13.242 -11.077 -18.248  1.00  0.00     0.018 C 
HETATM    4  C8  UNL     1     -11.169 -11.630 -19.417  1.00  0.00     0.018 C 
HETATM    5  C9  UNL     1     -11.230 -11.552 -17.007  1.00  0.00     0.012 C 
HETATM    6  C10 UNL     1     -11.492 -10.852 -15.719  1.00  0.00     0.007 C 
HETATM    7  C11 UNL     1     -11.787  -9.378 -15.919  1.00  0.00     0.005 C 
HETATM    8  C12 UNL     1     -11.722  -8.606 -14.633  1.00  0.00    -0.043 C 
HETATM    9  C13 UNL     1     -12.941  -7.701 -14.494  1.00  0.00     0.015 C 
HETATM   10  C14 UNL     1     -11.722  -9.500 -13.405  1.00  0.00     0.015 C 
HETATM   11  C15 UNL     1     -10.510  -7.707 -14.516  1.00  0.00     0.009 C 
HETATM   12  C16 UNL     1     -10.278  -6.854 -15.724  1.00  0.00     0.002 C 
HETATM   13  C17 UNL     1     -10.918  -7.387 -16.978  1.00  0.00     0.013 C 
HETATM   14  C18 UNL     1     -10.847  -8.902 -16.965  1.00  0.00    -0.004 C 
HETATM   15  C19 UNL     1      -9.431  -9.294 -16.828  1.00  0.00     0.019 C 
ENDROOT
BRANCH   1  16
HETATM   16  C4  UNL     1     -10.635  -8.895 -19.396  1.00  0.00     0.013 C 
HETATM   17  C3  UNL     1     -10.727  -8.137 -20.430  1.00  0.00     0.006 C 
BRANCH  17  18
HETATM   18  C2  UNL     1     -11.706  -7.355 -21.100  1.00  0.00    -0.062 C 
HETATM   19  C1  UNL     1     -12.148  -7.372 -22.494  1.00  0.00     0.048 C 
HETATM   20  C20 UNL     1     -12.353  -6.427 -20.333  1.00  0.00     0.006 C 
BRANCH  20  21
HETATM   21  C21 UNL     1     -13.350  -5.593 -20.911  1.00  0.00    -0.003 C 
HETATM   22  C22 UNL     1     -14.251  -4.945 -20.231  1.00  0.00    -0.025 C 
BRANCH  22  23
HETATM   23  C23 UNL     1     -14.340  -5.004 -18.769  1.00  0.00     0.057 C 
BRANCH  23  24
HETATM   24  C24 UNL     1     -15.812  -4.937 -18.364  1.00  0.00     0.275 C 
BRANCH  24  25
HETATM   25  N1  UNL     1     -16.184  -6.205 -17.814  1.00  0.00     0.080 N 
HETATM   26  C25 UNL     1     -15.135  -6.798 -17.058  1.00  0.00     0.309 C 
HETATM   27  C26 UNL     1     -16.859  -7.076 -18.722  1.00  0.00     0.309 C 
ENDBRANCH  24  25
ENDBRANCH  23  24
ENDBRANCH  22  23
ENDBRANCH  20  21
ENDBRANCH  17  18
ENDBRANCH   1  16
BRANCH   1  28
HETATM   28  O1  UNL     1     -12.666  -8.616 -18.327  1.00  0.00    -0.384 OA
ATOM     29  H1  UNL     1     -13.254  -8.996 -17.684  1.00  0.00     0.211 HD
ENDBRANCH   1  28
TORSDOF 7
ENDMDL
MODEL 2
REMARK VINA RESULT: -8.211386293      2.253      4.470
REMARK  7 active torsions:
REMARK  status: ('A' for Active; 'I' for Inactive)
REMARK    1  A    between atoms: C2_2  and  C3_3 
REMARK    2  A    between atoms: C4_4  and  C5_5 
REMARK    3  A    between atoms: C5_5  and  O1_6 
REMARK    4  A    between atoms: C20_22  and  C21_23 
REMARK    5  A    between atoms: C22_24  and  C23_25 
REMARK    6  A    between atoms: C23_25  and  C24_26 
REMARK    7  A    between atoms: C24_26  and  N1_27 
ROOT
HETATM    1  C5  UNL     1     -11.869  -8.771 -17.463  1.00  0.00     0.090 C 
HETATM    2  C6  UNL     1     -10.563  -8.889 -18.147  1.00  0.00    -0.012 C 
HETATM    3  C7  UNL     1     -10.753  -9.627 -19.469  1.00  0.00     0.018 C 
HETATM    4  C8  UNL     1      -9.945  -7.530 -18.511  1.00  0.00     0.018 C 
HETATM    5  C9  UNL     1      -9.472  -9.631 -17.426  1.00  0.00     0.012 C 
HETATM    6  C10 UNL     1      -9.896 -10.915 -16.801  1.00  0.00     0.007 C 
HETATM    7  C11 UNL     1     -11.399 -10.990 -16.613  1.00  0.00     0.005 C 
HETATM    8  C12 UNL     1     -11.801 -12.110 -15.697  1.00  0.00    -0.043 C 
HETATM    9  C13 UNL     1     -12.945 -12.911 -16.307  1.00  0.00     0.015 C 
HETATM   10  C14 UNL     1     -10.680 -13.103 -15.449  1.00  0.00     0.015 C 
HETATM   11  C15 UNL     1     -12.283 -11.649 -14.339  1.00  0.00     0.009 C 
HETATM   12  C16 UNL     1     -13.298 -10.551 -14.403  1.00  0.00     0.002 C 
HETATM   13  C17 UNL     1     -13.268  -9.768 -15.689  1.00  0.00     0.013 C 
HETATM   14  C18 UNL     1     -11.832  -9.645 -16.160  1.00  0.00    -0.004 C 
HETATM   15  C19 UNL     1     -11.048  -9.013 -15.081  1.00  0.00     0.019 C 
ENDROOT
BRANCH   1  16
HETATM   16  C4  UNL     1     -12.348  -7.453 -17.101  1.00  0.00     0.013 C 
HETATM   17  C3  UNL     1     -13.005  -6.482 -17.627  1.00  0.00     0.006 C 
BRANCH  17  18
HETATM   18  C2  UNL     1     -13.630  -6.156 -18.860  1.00  0.00    -0.062 C 
HETATM   19  C1  UNL     1     -14.990  -5.701 -19.148  1.00  0.00     0.048 C 
HETATM   20  C20 UNL     1     -12.850  -6.283 -19.976  1.00  0.00     0.006 C 
BRANCH  20  21
HETATM   21  C21 UNL     1     -13.383  -5.982 -21.259  1.00  0.00    -0.003 C 
HETATM   22  C22 UNL     1     -12.926  -6.467 -22.377  1.00  0.00    -0.025 C 
BRANCH  22  23
HETATM   23  C23 UNL     1     -11.792  -7.392 -22.439  1.00  0.00     0.057 C 
BRANCH  23  24
HETATM   24  C24 UNL     1     -10.959  -7.068 -23.678  1.00  0.00     0.275 C 
BRANCH  24  25
HETATM   25  N1  UNL     1      -9.579  -7.053 -23.300  1.00  0.00     0.080 N 
HETATM   26  C25 UNL     1      -8.764  -7.804 -24.193  1.00  0.00     0.309 C 
HETATM   27  C26 UNL     1      -9.336  -7.272 -21.910  1.00  0.00     0.309 C 
ENDBRANCH  24  25
ENDBRANCH  23  24
ENDBRANCH  22  23
ENDBRANCH  20  21
ENDBRANCH  17  18
ENDBRANCH   1  16
BRANCH   1  28
HETATM   28  O1  UNL     1     -12.912  -9.426 -18.167  1.00  0.00    -0.384 OA
ATOM     29  H1  UNL     1     -12.530  -9.818 -18.944  1.00  0.00     0.211 HD
ENDBRANCH   1  28
TORSDOF 7
ENDMDL
MODEL 3
REMARK VINA RESULT: -8.195166414      2.219      4.866
REMARK  7 active torsions:
REMARK  status: ('A' for Active; 'I' for Inactive)
REMARK    1  A    between atoms: C2_2  and  C3_3 
REMARK    2  A    between atoms: C4_4  and  C5_5 
REMARK    3  A    between atoms: C5_5  and  O1_6 
REMARK    4  A    between atoms: C20_22  and  C21_23 
REMARK    5  A    between atoms: C22_24  and  C23_25 
REMARK    6  A    between atoms: C23_25  and  C24_26 
REMARK    7  A    between atoms: C24_26  and  N1_27 
ROOT
HETATM    1  C5  UNL     1     -10.861  -7.542 -17.835  1.00  0.00     0.090 C 
HETATM    2  C6  UNL     1      -9.449  -7.289 -17.475  1.00  0.00    -0.012 C 
HETATM    3  C7  UNL     1      -8.586  -7.373 -18.730  1.00  0.00     0.018 C 
HETATM    4  C8  UNL     1      -9.214  -5.884 -16.898  1.00  0.00     0.018 C 
HETATM    5  C9  UNL     1      -8.812  -8.226 -16.486  1.00  0.00     0.012 C 
HETATM    6  C10 UNL     1      -9.078  -9.671 -16.732  1.00  0.00     0.007 C 
HETATM    7  C11 UNL     1     -10.287  -9.886 -17.623  1.00  0.00     0.005 C 
HETATM    8  C12 UNL     1     -10.759 -11.311 -17.605  1.00  0.00    -0.043 C 
HETATM    9  C13 UNL     1     -11.002 -11.807 -19.025  1.00  0.00     0.015 C 
HETATM   10  C14 UNL     1      -9.744 -12.263 -16.997  1.00  0.00     0.015 C 
HETATM   11  C15 UNL     1     -12.056 -11.519 -16.854  1.00  0.00     0.009 C 
HETATM   12  C16 UNL     1     -13.131 -10.551 -17.235  1.00  0.00     0.002 C 
HETATM   13  C17 UNL     1     -12.615  -9.279 -17.854  1.00  0.00     0.013 C 
HETATM   14  C18 UNL     1     -11.307  -8.899 -17.187  1.00  0.00    -0.004 C 
HETATM   15  C19 UNL     1     -11.551  -8.777 -15.737  1.00  0.00     0.019 C 
ENDROOT
BRANCH   1  16
HETATM   16  C4  UNL     1     -11.854  -6.542 -17.502  1.00  0.00     0.013 C 
HETATM   17  C3  UNL     1     -12.874  -5.971 -18.037  1.00  0.00     0.006 C 
BRANCH  17  18
HETATM   18  C2  UNL     1     -13.599  -6.002 -19.258  1.00  0.00    -0.062 C 
HETATM   19  C1  UNL     1     -15.039  -6.071 -19.508  1.00  0.00     0.048 C 
HETATM   20  C20 UNL     1     -12.848  -5.962 -20.399  1.00  0.00     0.006 C 
BRANCH  20  21
HETATM   21  C21 UNL     1     -13.481  -5.989 -21.672  1.00  0.00    -0.003 C 
HETATM   22  C22 UNL     1     -13.067  -6.697 -22.683  1.00  0.00    -0.025 C 
BRANCH  22  23
HETATM   23  C23 UNL     1     -11.884  -7.559 -22.621  1.00  0.00     0.057 C 
BRANCH  23  24
HETATM   24  C24 UNL     1     -10.856  -7.057 -23.634  1.00  0.00     0.275 C 
BRANCH  24  25
HETATM   25  N1  UNL     1      -9.549  -7.340 -23.126  1.00  0.00     0.080 N 
HETATM   26  C25 UNL     1      -8.574  -7.434 -24.158  1.00  0.00     0.309 C 
HETATM   27  C26 UNL     1      -9.501  -8.368 -22.136  1.00  0.00     0.309 C 
ENDBRANCH  24  25
ENDBRANCH  23  24
ENDBRANCH  22  23
ENDBRANCH  20  21
ENDBRANCH  17  18
ENDBRANCH   1  16
BRANCH   1  28
HETATM   28  O1  UNL     1     -11.021  -7.862 -19.208  1.00  0.00    -0.384 OA
ATOM     29  H1  UNL     1     -11.788  -8.417 -19.285  1.00  0.00     0.211 HD
ENDBRANCH   1  28
TORSDOF 7
ENDMDL
MODEL 4
REMARK VINA RESULT: -8.146456601      1.308      2.184
REMARK  7 active torsions:
REMARK  status: ('A' for Active; 'I' for Inactive)
REMARK    1  A    between atoms: C2_2  and  C3_3 
REMARK    2  A    between atoms: C4_4  and  C5_5 
REMARK    3  A    between atoms: C5_5  and  O1_6 
REMARK    4  A    between atoms: C20_22  and  C21_23 
REMARK    5  A    between atoms: C22_24  and  C23_25 
REMARK    6  A    between atoms: C23_25  and  C24_26 
REMARK    7  A    between atoms: C24_26  and  N1_27 
ROOT
HETATM    1  C5  UNL     1     -11.618  -9.623 -18.388  1.00  0.00     0.090 C 
HETATM    2  C6  UNL     1     -12.700 -10.304 -17.643  1.00  0.00    -0.012 C 
HETATM    3  C7  UNL     1     -13.910  -9.378 -17.556  1.00  0.00     0.018 C 
HETATM    4  C8  UNL     1     -13.199 -11.583 -18.334  1.00  0.00     0.018 C 
HETATM    5  C9  UNL     1     -12.406 -10.716 -16.227  1.00  0.00     0.012 C 
HETATM    6  C10 UNL     1     -11.723  -9.681 -15.403  1.00  0.00     0.007 C 
HETATM    7  C11 UNL     1     -11.051  -8.623 -16.256  1.00  0.00     0.005 C 
HETATM    8  C12 UNL     1     -10.094  -7.778 -15.465  1.00  0.00    -0.043 C 
HETATM    9  C13 UNL     1     -10.320  -6.301 -15.760  1.00  0.00     0.015 C 
HETATM   10  C14 UNL     1     -10.266  -7.937 -13.965  1.00  0.00     0.015 C 
HETATM   11  C15 UNL     1      -8.637  -8.055 -15.768  1.00  0.00     0.009 C 
HETATM   12  C16 UNL     1      -8.324  -8.082 -17.231  1.00  0.00     0.002 C 
HETATM   13  C17 UNL     1      -9.518  -8.355 -18.105  1.00  0.00     0.013 C 
HETATM   14  C18 UNL     1     -10.433  -9.338 -17.400  1.00  0.00    -0.004 C 
HETATM   15  C19 UNL     1      -9.652 -10.552 -17.093  1.00  0.00     0.019 C 
ENDROOT
BRANCH   1  16
HETATM   16  C4  UNL     1     -11.072 -10.268 -19.564  1.00  0.00     0.013 C 
HETATM   17  C3  UNL     1     -10.761  -9.973 -20.776  1.00  0.00     0.006 C 
BRANCH  17  18
HETATM   18  C2  UNL     1     -10.781  -8.847 -21.642  1.00  0.00    -0.062 C 
HETATM   19  C1  UNL     1      -9.686  -8.132 -22.299  1.00  0.00     0.048 C 
HETATM   20  C20 UNL     1     -12.015  -8.329 -21.920  1.00  0.00     0.006 C 
BRANCH  20  21
HETATM   21  C21 UNL     1     -12.140  -7.201 -22.776  1.00  0.00    -0.003 C 
HETATM   22  C22 UNL     1     -12.475  -6.009 -22.376  1.00  0.00    -0.025 C 
BRANCH  22  23
HETATM   23  C23 UNL     1     -12.765  -5.691 -20.975  1.00  0.00     0.057 C 
BRANCH  23  24
HETATM   24  C24 UNL     1     -14.267  -5.835 -20.738  1.00  0.00     0.275 C 
BRANCH  24  25
HETATM   25  N1  UNL     1     -14.522  -5.650 -19.343  1.00  0.00     0.080 N 
HETATM   26  C25 UNL     1     -15.688  -6.340 -18.908  1.00  0.00     0.309 C 
HETATM   27  C26 UNL     1     -14.394  -4.304 -18.884  1.00  0.00     0.309 C 
ENDBRANCH  24  25
ENDBRANCH  23  24
ENDBRANCH  22  23
ENDBRANCH  20  21
ENDBRANCH  17  18
ENDBRANCH   1  16
BRANCH   1  28
HETATM   28  O1  UNL     1     -11.961  -8.295 -18.749  1.00  0.00    -0.384 OA
ATOM     29  H1  UNL     1     -11.253  -7.951 -19.282  1.00  0.00     0.211 HD
ENDBRANCH   1  28
TORSDOF 7
ENDMDL
MODEL 5
REMARK VINA RESULT: -8.065385507      1.668      2.444
REMARK  7 active torsions:
REMARK  status: ('A' for Active; 'I' for Inactive)
REMARK    1  A    between atoms: C2_2  and  C3_3 
REMARK    2  A    between atoms: C4_4  and  C5_5 
REMARK    3  A    between atoms: C5_5  and  O1_6 
REMARK    4  A    between atoms: C20_22  and  C21_23 
REMARK    5  A    between atoms: C22_24  and  C23_25 
REMARK    6  A    between atoms: C23_25  and  C24_26 
REMARK    7  A    between atoms: C24_26  and  N1_27 
ROOT
HETATM    1  C5  UNL     1      -9.886  -8.556 -19.025  1.00  0.00     0.090 C 
HETATM    2  C6  UNL     1     -10.303  -9.973 -18.955  1.00  0.00    -0.012 C 
HETATM    3  C7  UNL     1     -11.776 -10.084 -19.340  1.00  0.00     0.018 C 
HETATM    4  C8  UNL     1      -9.544 -10.878 -19.938  1.00  0.00     0.018 C 
HETATM    5  C9  UNL     1     -10.184 -10.661 -17.623  1.00  0.00     0.012 C 
HETATM    6  C10 UNL     1     -10.684  -9.871 -16.464  1.00  0.00     0.007 C 
HETATM    7  C11 UNL     1     -10.775  -8.390 -16.778  1.00  0.00     0.005 C 
HETATM    8  C12 UNL     1     -10.952  -7.557 -15.542  1.00  0.00    -0.043 C 
HETATM    9  C13 UNL     1     -12.073  -6.543 -15.740  1.00  0.00     0.015 C 
HETATM   10  C14 UNL     1     -11.339  -8.378 -14.325  1.00  0.00     0.015 C 
HETATM   11  C15 UNL     1      -9.723  -6.761 -15.157  1.00  0.00     0.009 C 
HETATM   12  C16 UNL     1      -9.121  -6.000 -16.296  1.00  0.00     0.002 C 
HETATM   13  C17 UNL     1      -9.483  -6.544 -17.652  1.00  0.00     0.013 C 
HETATM   14  C18 UNL     1      -9.567  -8.056 -17.573  1.00  0.00    -0.004 C 
HETATM   15  C19 UNL     1      -8.272  -8.561 -17.076  1.00  0.00     0.019 C 
ENDROOT
BRANCH   1  16
HETATM   16  C4  UNL     1      -8.767  -8.203 -19.874  1.00  0.00     0.013 C 
HETATM   17  C3  UNL     1      -8.546  -7.837 -21.086  1.00  0.00     0.006 C 
BRANCH  17  18
HETATM   18  C2  UNL     1      -9.278  -7.576 -22.275  1.00  0.00    -0.062 C 
HETATM   19  C1  UNL     1      -8.924  -7.793 -23.678  1.00  0.00     0.048 C 
HETATM   20  C20 UNL     1     -10.521  -7.033 -22.104  1.00  0.00     0.006 C 
BRANCH  20  21
HETATM   21  C21 UNL     1     -11.332  -6.734 -23.232  1.00  0.00    -0.003 C 
HETATM   22  C22 UNL     1     -12.631  -6.666 -23.206  1.00  0.00    -0.025 C 
BRANCH  22  23
HETATM   23  C23 UNL     1     -13.416  -6.893 -21.990  1.00  0.00     0.057 C 
BRANCH  23  24
HETATM   24  C24 UNL     1     -13.345  -5.641 -21.117  1.00  0.00     0.275 C 
BRANCH  24  25
HETATM   25  N1  UNL     1     -14.359  -5.737 -20.112  1.00  0.00     0.080 N 
HETATM   26  C25 UNL     1     -14.915  -4.470 -19.780  1.00  0.00     0.309 C 
HETATM   27  C26 UNL     1     -14.027  -6.574 -19.004  1.00  0.00     0.309 C 
ENDBRANCH  24  25
ENDBRANCH  23  24
ENDBRANCH  22  23
ENDBRANCH  20  21
ENDBRANCH  17  18
ENDBRANCH   1  16
BRANCH   1  28
HETATM   28  O1  UNL     1     -10.960  -7.690 -19.352  1.00  0.00    -0.384 OA
ATOM     29  H1  UNL     1     -10.695  -6.806 -19.126  1.00  0.00     0.211 HD
ENDBRANCH   1  28
TORSDOF 7
ENDMDL
