MODEL 1
REMARK VINA RESULT: -7.813360348      0.000      0.000
REMARK  6 active torsions:
REMARK  status: ('A' for Active; 'I' for Inactive)
REMARK    1  A    between atoms: C2_2  and  S1_4 
REMARK    2  A    between atoms: S1_4  and  C4_5 
REMARK    3  A    between atoms: C4_5  and  C5_6 
REMARK    4  A    between atoms: C5_6  and  C6_7 
REMARK    5  A    between atoms: C6_7  and  N1_8 
REMARK    6  A    between atoms: N1_8  and  C7_10 
ROOT
HETATM    1  C7  UNL     1     -12.718 -10.621 -17.062  1.00  0.00    -0.005 C 
HETATM    2  C8  UNL     1     -13.803  -9.549 -17.096  1.00  0.00     0.057 C 
HETATM    3  C9  UNL     1     -13.065  -8.401 -17.818  1.00  0.00    -0.008 C 
HETATM    4  C10 UNL     1     -14.195  -7.521 -18.375  1.00  0.00     0.011 C 
HETATM    5  C11 UNL     1     -12.341  -9.131 -18.864  1.00  0.00     0.008 C 
HETATM    6  C12 UNL     1     -11.228  -8.499 -19.574  1.00  0.00    -0.001 C 
HETATM    7  C13 UNL     1     -11.627  -7.478 -20.624  1.00  0.00     0.006 C 
HETATM    8  C14 UNL     1     -10.494  -7.390 -21.597  1.00  0.00     0.005 C 
HETATM    9  C15 UNL     1      -9.136  -7.442 -21.055  1.00  0.00    -0.010 C 
HETATM   10  C16 UNL     1      -8.382  -8.724 -21.435  1.00  0.00     0.005 C 
HETATM   11  C17 UNL     1      -7.963  -8.819 -19.980  1.00  0.00     0.006 C 
HETATM   12  C18 UNL     1      -8.897  -7.705 -19.640  1.00  0.00    -0.002 C 
HETATM   13  C19 UNL     1     -10.082  -7.983 -18.759  1.00  0.00    -0.036 C 
HETATM   14  C20 UNL     1     -10.400  -6.667 -18.047  1.00  0.00     0.016 C 
HETATM   15  C21 UNL     1      -9.819  -8.997 -17.677  1.00  0.00     0.011 C 
HETATM   16  C22 UNL     1     -10.393 -10.331 -17.844  1.00  0.00     0.016 C 
HETATM   17  C23 UNL     1     -11.851 -10.427 -18.233  1.00  0.00    -0.001 C 
HETATM   18  C24 UNL     1     -12.029 -11.494 -19.281  1.00  0.00     0.022 C 
ENDROOT
BRANCH   1  19
HETATM   19  N1  UNL     1     -13.154 -11.867 -16.630  1.00  0.00    -0.375 N 
ATOM     20  H1  UNL     1     -13.940 -12.312 -17.103  1.00  0.00     0.164 HD
BRANCH  19  21
HETATM   21  C6  UNL     1     -12.539 -12.524 -15.557  1.00  0.00     0.061 C 
BRANCH  21  22
HETATM   22  C5  UNL     1     -12.170 -11.545 -14.446  1.00  0.00     0.054 C 
BRANCH  22  23
HETATM   23  C4  UNL     1     -13.363 -11.018 -13.719  1.00  0.00     0.079 C 
BRANCH  23  24
HETATM   24  S1  UNL     1     -12.962  -9.394 -12.965  1.00  0.00    -0.165 SA
BRANCH  24  25
HETATM   25  C2  UNL     1     -12.057  -8.402 -14.191  1.00  0.00     0.039 C 
HETATM   26  C1  UNL     1     -12.845  -7.132 -14.513  1.00  0.00     0.021 C 
HETATM   27  C3  UNL     1     -10.722  -7.961 -13.665  1.00  0.00     0.021 C 
ENDBRANCH  24  25
ENDBRANCH  23  24
ENDBRANCH  22  23
ENDBRANCH  21  22
ENDBRANCH  19  21
ENDBRANCH   1  19
TORSDOF 6
ENDMDL
MODEL 2
REMARK VINA RESULT: -7.456247639      2.912      6.286
REMARK  6 active torsions:
REMARK  status: ('A' for Active; 'I' for Inactive)
REMARK    1  A    between atoms: C2_2  and  S1_4 
REMARK    2  A    between atoms: S1_4  and  C4_5 
REMARK    3  A    between atoms: C4_5  and  C5_6 
REMARK    4  A    between atoms: C5_6  and  C6_7 
REMARK    5  A    between atoms: C6_7  and  N1_8 
REMARK    6  A    between atoms: N1_8  and  C7_10 
ROOT
HETATM    1  C7  UNL     1     -10.057  -9.301 -18.714  1.00  0.00    -0.005 C 
HETATM    2  C8  UNL     1     -10.398 -10.255 -17.574  1.00  0.00     0.057 C 
HETATM    3  C9  UNL     1     -11.607  -9.539 -16.935  1.00  0.00    -0.008 C 
HETATM    4  C10 UNL     1     -12.337 -10.649 -16.165  1.00  0.00     0.011 C 
HETATM    5  C11 UNL     1     -12.341  -9.089 -18.123  1.00  0.00     0.008 C 
HETATM    6  C12 UNL     1     -13.372  -8.056 -18.010  1.00  0.00    -0.001 C 
HETATM    7  C13 UNL     1     -14.692  -8.523 -17.423  1.00  0.00     0.006 C 
HETATM    8  C14 UNL     1     -15.742  -7.574 -17.909  1.00  0.00     0.005 C 
HETATM    9  C15 UNL     1     -15.390  -6.155 -17.971  1.00  0.00    -0.010 C 
HETATM   10  C16 UNL     1     -15.300  -5.619 -19.407  1.00  0.00     0.005 C 
HETATM   11  C17 UNL     1     -13.993  -4.965 -19.000  1.00  0.00     0.006 C 
HETATM   12  C18 UNL     1     -14.030  -5.702 -17.703  1.00  0.00    -0.002 C 
HETATM   13  C19 UNL     1     -12.979  -6.738 -17.417  1.00  0.00    -0.036 C 
HETATM   14  C20 UNL     1     -12.834  -6.787 -15.895  1.00  0.00     0.016 C 
HETATM   15  C21 UNL     1     -11.617  -6.399 -17.961  1.00  0.00     0.011 C 
HETATM   16  C22 UNL     1     -11.157  -7.130 -19.140  1.00  0.00     0.016 C 
HETATM   17  C23 UNL     1     -11.299  -8.636 -19.135  1.00  0.00    -0.001 C 
HETATM   18  C24 UNL     1     -11.791  -9.104 -20.479  1.00  0.00     0.022 C 
ENDROOT
BRANCH   1  19
HETATM   19  N1  UNL     1      -9.106  -9.783 -19.604  1.00  0.00    -0.375 N 
ATOM     20  H1  UNL     1      -9.069 -10.783 -19.800  1.00  0.00     0.164 HD
BRANCH  19  21
HETATM   21  C6  UNL     1      -8.197  -8.927 -20.236  1.00  0.00     0.061 C 
BRANCH  21  22
HETATM   22  C5  UNL     1      -8.552  -8.731 -21.707  1.00  0.00     0.054 C 
BRANCH  22  23
HETATM   23  C4  UNL     1      -9.181  -7.404 -21.980  1.00  0.00     0.079 C 
BRANCH  23  24
HETATM   24  S1  UNL     1      -9.982  -7.425 -23.631  1.00  0.00    -0.165 SA
BRANCH  24  25
HETATM   25  C2  UNL     1     -11.750  -7.059 -23.413  1.00  0.00     0.039 C 
HETATM   26  C1  UNL     1     -11.935  -6.060 -22.271  1.00  0.00     0.021 C 
HETATM   27  C3  UNL     1     -12.335  -6.425 -24.642  1.00  0.00     0.021 C 
ENDBRANCH  24  25
ENDBRANCH  23  24
ENDBRANCH  22  23
ENDBRANCH  21  22
ENDBRANCH  19  21
ENDBRANCH   1  19
TORSDOF 6
ENDMDL
MODEL 3
REMARK VINA RESULT: -7.248990091      1.630      3.684
REMARK  6 active torsions:
REMARK  status: ('A' for Active; 'I' for Inactive)
REMARK    1  A    between atoms: C2_2  and  S1_4 
REMARK    2  A    between atoms: S1_4  and  C4_5 
REMARK    3  A    between atoms: C4_5  and  C5_6 
REMARK    4  A    between atoms: C5_6  and  C6_7 
REMARK    5  A    between atoms: C6_7  and  N1_8 
REMARK    6  A    between atoms: N1_8  and  C7_10 
ROOT
HETATM    1  C7  UNL     1     -11.906  -8.050 -16.226  1.00  0.00    -0.005 C 
HETATM    2  C8  UNL     1     -10.515  -8.315 -15.659  1.00  0.00     0.057 C 
HETATM    3  C9  UNL     1      -9.741  -8.705 -16.936  1.00  0.00    -0.008 C 
HETATM    4  C10 UNL     1      -8.269  -8.456 -16.573  1.00  0.00     0.011 C 
HETATM    5  C11 UNL     1     -10.263  -7.733 -17.903  1.00  0.00     0.008 C 
HETATM    6  C12 UNL     1     -10.081  -7.946 -19.340  1.00  0.00    -0.001 C 
HETATM    7  C13 UNL     1      -8.687  -7.653 -19.864  1.00  0.00     0.006 C 
HETATM    8  C14 UNL     1      -8.826  -7.354 -21.324  1.00  0.00     0.005 C 
HETATM    9  C15 UNL     1      -9.780  -8.160 -22.087  1.00  0.00    -0.010 C 
HETATM   10  C16 UNL     1     -10.997  -7.358 -22.568  1.00  0.00     0.005 C 
HETATM   11  C17 UNL     1     -11.855  -8.507 -22.071  1.00  0.00     0.006 C 
HETATM   12  C18 UNL     1     -10.656  -9.120 -21.427  1.00  0.00    -0.002 C 
HETATM   13  C19 UNL     1     -10.599  -9.222 -19.929  1.00  0.00    -0.036 C 
HETATM   14  C20 UNL     1      -9.711 -10.427 -19.618  1.00  0.00     0.016 C 
HETATM   15  C21 UNL     1     -11.929  -9.498 -19.280  1.00  0.00     0.011 C 
HETATM   16  C22 UNL     1     -12.583  -8.395 -18.577  1.00  0.00     0.016 C 
HETATM   17  C23 UNL     1     -11.749  -7.582 -17.612  1.00  0.00    -0.001 C 
HETATM   18  C24 UNL     1     -12.061  -6.118 -17.778  1.00  0.00     0.022 C 
ENDROOT
BRANCH   1  19
HETATM   19  N1  UNL     1     -12.798  -7.485 -15.324  1.00  0.00    -0.375 N 
ATOM     20  H1  UNL     1     -13.699  -7.146 -15.658  1.00  0.00     0.164 HD
BRANCH  19  21
HETATM   21  C6  UNL     1     -12.485  -7.370 -13.964  1.00  0.00     0.061 C 
BRANCH  21  22
HETATM   22  C5  UNL     1     -13.302  -8.347 -13.123  1.00  0.00     0.054 C 
BRANCH  22  23
HETATM   23  C4  UNL     1     -12.601  -9.646 -12.900  1.00  0.00     0.079 C 
BRANCH  23  24
HETATM   24  S1  UNL     1     -13.326 -10.936 -13.986  1.00  0.00    -0.165 SA
BRANCH  24  25
HETATM   25  C2  UNL     1     -11.996 -11.638 -15.006  1.00  0.00     0.039 C 
HETATM   26  C1  UNL     1     -11.718 -13.078 -14.576  1.00  0.00     0.021 C 
HETATM   27  C3  UNL     1     -12.382 -11.687 -16.457  1.00  0.00     0.021 C 
ENDBRANCH  24  25
ENDBRANCH  23  24
ENDBRANCH  22  23
ENDBRANCH  21  22
ENDBRANCH  19  21
ENDBRANCH   1  19
TORSDOF 6
ENDMDL
MODEL 4
REMARK VINA RESULT: -7.232214189      2.897      6.853
REMARK  6 active torsions:
REMARK  status: ('A' for Active; 'I' for Inactive)
REMARK    1  A    between atoms: C2_2  and  S1_4 
REMARK    2  A    between atoms: S1_4  and  C4_5 
REMARK    3  A    between atoms: C4_5  and  C5_6 
REMARK    4  A    between atoms: C5_6  and  C6_7 
REMARK    5  A    between atoms: C6_7  and  N1_8 
REMARK    6  A    between atoms: N1_8  and  C7_10 
ROOT
HETATM    1  C7  UNL     1     -12.603  -7.024 -18.977  1.00  0.00    -0.005 C 
HETATM    2  C8  UNL     1     -11.707  -8.085 -19.607  1.00  0.00     0.057 C 
HETATM    3  C9  UNL     1     -11.117  -8.763 -18.352  1.00  0.00    -0.008 C 
HETATM    4  C10 UNL     1     -10.660 -10.142 -18.849  1.00  0.00     0.011 C 
HETATM    5  C11 UNL     1     -12.293  -8.831 -17.477  1.00  0.00     0.008 C 
HETATM    6  C12 UNL     1     -12.136  -9.075 -16.042  1.00  0.00    -0.001 C 
HETATM    7  C13 UNL     1     -11.822 -10.510 -15.661  1.00  0.00     0.006 C 
HETATM    8  C14 UNL     1     -12.266 -10.690 -14.244  1.00  0.00     0.005 C 
HETATM    9  C15 UNL     1     -12.028  -9.581 -13.319  1.00  0.00    -0.010 C 
HETATM   10  C16 UNL     1     -13.320  -8.896 -12.853  1.00  0.00     0.005 C 
HETATM   11  C17 UNL     1     -12.633  -7.574 -13.140  1.00  0.00     0.006 C 
HETATM   12  C18 UNL     1     -11.505  -8.304 -13.789  1.00  0.00    -0.002 C 
HETATM   13  C19 UNL     1     -11.271  -8.131 -15.263  1.00  0.00    -0.036 C 
HETATM   14  C20 UNL     1      -9.776  -8.368 -15.487  1.00  0.00     0.016 C 
HETATM   15  C21 UNL     1     -11.560  -6.745 -15.774  1.00  0.00     0.011 C 
HETATM   16  C22 UNL     1     -12.779  -6.553 -16.558  1.00  0.00     0.016 C 
HETATM   17  C23 UNL     1     -13.061  -7.532 -17.675  1.00  0.00    -0.001 C 
HETATM   18  C24 UNL     1     -14.520  -7.905 -17.668  1.00  0.00     0.022 C 
ENDROOT
BRANCH   1  19
HETATM   19  N1  UNL     1     -13.431  -6.362 -19.875  1.00  0.00    -0.375 N 
ATOM     20  H1  UNL     1     -14.411  -6.215 -19.635  1.00  0.00     0.164 HD
BRANCH  19  21
HETATM   21  C6  UNL     1     -12.948  -5.893 -21.102  1.00  0.00     0.061 C 
BRANCH  21  22
HETATM   22  C5  UNL     1     -13.578  -6.646 -22.270  1.00  0.00     0.054 C 
BRANCH  22  23
HETATM   23  C4  UNL     1     -12.569  -7.127 -23.261  1.00  0.00     0.079 C 
BRANCH  23  24
HETATM   24  S1  UNL     1     -10.893  -6.578 -22.755  1.00  0.00    -0.165 SA
BRANCH  24  25
HETATM   25  C2  UNL     1      -9.735  -7.954 -23.023  1.00  0.00     0.039 C 
HETATM   26  C1  UNL     1      -8.702  -7.564 -24.079  1.00  0.00     0.021 C 
HETATM   27  C3  UNL     1      -8.973  -8.282 -21.771  1.00  0.00     0.021 C 
ENDBRANCH  24  25
ENDBRANCH  23  24
ENDBRANCH  22  23
ENDBRANCH  21  22
ENDBRANCH  19  21
ENDBRANCH   1  19
TORSDOF 6
ENDMDL
MODEL 5
REMARK VINA RESULT: -7.221628062      2.619      6.367
REMARK  6 active torsions:
REMARK  status: ('A' for Active; 'I' for Inactive)
REMARK    1  A    between atoms: C2_2  and  S1_4 
REMARK    2  A    between atoms: S1_4  and  C4_5 
REMARK    3  A    between atoms: C4_5  and  C5_6 
REMARK    4  A    between atoms: C5_6  and  C6_7 
REMARK    5  A    between atoms: C6_7  and  N1_8 
REMARK    6  A    between atoms: N1_8  and  C7_10 
ROOT
HETATM    1  C7  UNL     1      -9.811  -7.790 -18.171  1.00  0.00    -0.005 C 
HETATM    2  C8  UNL     1     -11.009  -6.849 -18.091  1.00  0.00     0.057 C 
HETATM    3  C9  UNL     1     -12.087  -7.787 -17.506  1.00  0.00    -0.008 C 
HETATM    4  C10 UNL     1     -13.121  -6.833 -16.891  1.00  0.00     0.011 C 
HETATM    5  C11 UNL     1     -11.316  -8.523 -16.496  1.00  0.00     0.008 C 
HETATM    6  C12 UNL     1     -11.835  -9.769 -15.931  1.00  0.00    -0.001 C 
HETATM    7  C13 UNL     1     -12.940  -9.603 -14.904  1.00  0.00     0.006 C 
HETATM    8  C14 UNL     1     -12.928 -10.831 -14.050  1.00  0.00     0.005 C 
HETATM    9  C15 UNL     1     -12.687 -12.111 -14.717  1.00  0.00    -0.010 C 
HETATM   10  C16 UNL     1     -11.339 -12.742 -14.343  1.00  0.00     0.005 C 
HETATM   11  C17 UNL     1     -11.132 -12.997 -15.824  1.00  0.00     0.006 C 
HETATM   12  C18 UNL     1     -12.338 -12.172 -16.132  1.00  0.00    -0.002 C 
HETATM   13  C19 UNL     1     -12.172 -10.880 -16.879  1.00  0.00    -0.036 C 
HETATM   14  C20 UNL     1     -13.486 -10.649 -17.627  1.00  0.00     0.016 C 
HETATM   15  C21 UNL     1     -11.089 -10.908 -17.925  1.00  0.00     0.011 C 
HETATM   16  C22 UNL     1      -9.844 -10.200 -17.632  1.00  0.00     0.016 C 
HETATM   17  C23 UNL     1      -9.945  -8.788 -17.101  1.00  0.00    -0.001 C 
HETATM   18  C24 UNL     1      -8.952  -8.593 -15.985  1.00  0.00     0.022 C 
ENDROOT
BRANCH   1  19
HETATM   19  N1  UNL     1      -8.612  -7.167 -18.493  1.00  0.00    -0.375 N 
ATOM     20  H1  UNL     1      -8.230  -6.464 -17.860  1.00  0.00     0.164 HD
BRANCH  19  21
HETATM   21  C6  UNL     1      -7.916  -7.483 -19.666  1.00  0.00     0.061 C 
BRANCH  21  22
HETATM   22  C5  UNL     1      -8.751  -8.373 -20.583  1.00  0.00     0.054 C 
BRANCH  22  23
HETATM   23  C4  UNL     1      -9.378  -7.618 -21.709  1.00  0.00     0.079 C 
BRANCH  23  24
HETATM   24  S1  UNL     1     -11.159  -8.042 -21.825  1.00  0.00    -0.165 SA
BRANCH  24  25
HETATM   25  C2  UNL     1     -12.077  -6.537 -22.269  1.00  0.00     0.039 C 
HETATM   26  C1  UNL     1     -13.035  -6.836 -23.422  1.00  0.00     0.021 C 
HETATM   27  C3  UNL     1     -12.917  -6.048 -21.124  1.00  0.00     0.021 C 
ENDBRANCH  24  25
ENDBRANCH  23  24
ENDBRANCH  22  23
ENDBRANCH  21  22
ENDBRANCH  19  21
ENDBRANCH   1  19
TORSDOF 6
ENDMDL
