MODEL 1
REMARK VINA RESULT: -7.958633950      0.000      0.000
REMARK  7 active torsions:
REMARK  status: ('A' for Active; 'I' for Inactive)
REMARK    1  A    between atoms: C2_2  and  C3_3 
REMARK    2  A    between atoms: C3_3  and  C4_4 
REMARK    3  A    between atoms: C4_4  and  C5_5 
REMARK    4  A    between atoms: C5_5  and  C6_6 
REMARK    5  A    between atoms: C6_6  and  O1_7 
REMARK    6  A    between atoms: O1_7  and  C7_8 
REMARK    7  A    between atoms: C14_15  and  O2_16 
ROOT
HETATM    1  C7  UNL     1     -13.258  -5.949 -18.043  1.00  0.00     0.121 C 
HETATM    2  C8  UNL     1     -14.290  -7.011 -18.354  1.00  0.00     0.033 C 
HETATM    3  C9  UNL     1     -14.228  -8.138 -17.381  1.00  0.00     0.012 C 
HETATM    4  C10 UNL     1     -12.870  -8.801 -17.303  1.00  0.00    -0.034 C 
HETATM    5  C11 UNL     1     -12.582  -9.476 -18.622  1.00  0.00     0.016 C 
HETATM    6  C12 UNL     1     -11.817  -7.750 -17.041  1.00  0.00     0.025 C 
HETATM    7  C13 UNL     1     -11.915  -6.618 -18.025  1.00  0.00     0.039 C 
HETATM    8  C14 UNL     1     -11.864  -7.190 -15.657  1.00  0.00     0.123 C 
HETATM    9  C15 UNL     1     -12.037  -8.274 -14.594  1.00  0.00     0.037 C 
HETATM   10  C16 UNL     1     -11.789  -9.576 -15.238  1.00  0.00    -0.003 C 
HETATM   11  C17 UNL     1     -11.915 -10.783 -14.373  1.00  0.00    -0.002 C 
HETATM   12  C18 UNL     1     -13.177 -10.890 -13.604  1.00  0.00     0.006 C 
HETATM   13  C19 UNL     1     -13.905 -12.139 -14.080  1.00  0.00     0.005 C 
HETATM   14  C20 UNL     1     -12.858 -12.900 -14.812  1.00  0.00    -0.010 C 
HETATM   15  C21 UNL     1     -13.406 -13.911 -15.782  1.00  0.00     0.011 C 
HETATM   16  C22 UNL     1     -11.987 -11.873 -15.443  1.00  0.00    -0.036 C 
HETATM   17  C23 UNL     1     -10.582 -12.350 -15.693  1.00  0.00     0.016 C 
HETATM   18  C24 UNL     1     -12.608 -11.226 -16.663  1.00  0.00     0.015 C 
HETATM   19  C25 UNL     1     -12.922  -9.832 -16.240  1.00  0.00    -0.001 C 
ENDROOT
BRANCH   1  20
HETATM   20  O1  UNL     1     -13.253  -5.032 -19.092  1.00  0.00    -0.386 OA
BRANCH  20  21
HETATM   21  C6  UNL     1     -13.816  -5.608 -20.244  1.00  0.00     0.168 C 
BRANCH  21  22
HETATM   22  C5  UNL     1     -12.857  -5.613 -21.392  1.00  0.00     0.026 C 
BRANCH  22  23
HETATM   23  C4  UNL     1     -12.445  -7.016 -21.702  1.00  0.00     0.002 C 
BRANCH  23  24
HETATM   24  C3  UNL     1     -10.955  -7.170 -21.909  1.00  0.00    -0.000 C 
BRANCH  24  25
HETATM   25  C2  UNL     1     -10.692  -7.128 -23.408  1.00  0.00    -0.005 C 
HETATM   26  C1  UNL     1      -9.247  -7.532 -23.702  1.00  0.00     0.005 C 
ENDBRANCH  24  25
ENDBRANCH  23  24
ENDBRANCH  22  23
ENDBRANCH  21  22
ENDBRANCH  20  21
ENDBRANCH   1  20
BRANCH   8  27
HETATM   27  O2  UNL     1     -10.597  -6.616 -15.404  1.00  0.00    -0.395 OA
ATOM     28  H2  UNL     1     -10.674  -5.687 -15.589  1.00  0.00     0.210 HD
ENDBRANCH   8  27
TORSDOF 7
ENDMDL
MODEL 2
REMARK VINA RESULT: -7.466664135      2.181      7.085
REMARK  7 active torsions:
REMARK  status: ('A' for Active; 'I' for Inactive)
REMARK    1  A    between atoms: C2_2  and  C3_3 
REMARK    2  A    between atoms: C3_3  and  C4_4 
REMARK    3  A    between atoms: C4_4  and  C5_5 
REMARK    4  A    between atoms: C5_5  and  C6_6 
REMARK    5  A    between atoms: C6_6  and  O1_7 
REMARK    6  A    between atoms: O1_7  and  C7_8 
REMARK    7  A    between atoms: C14_15  and  O2_16 
ROOT
HETATM    1  C7  UNL     1     -11.218  -7.400 -15.312  1.00  0.00     0.121 C 
HETATM    2  C8  UNL     1     -11.100  -6.168 -16.183  1.00  0.00     0.033 C 
HETATM    3  C9  UNL     1     -11.154  -6.513 -17.633  1.00  0.00     0.012 C 
HETATM    4  C10 UNL     1     -10.095  -7.503 -18.062  1.00  0.00    -0.034 C 
HETATM    5  C11 UNL     1      -8.738  -6.858 -17.917  1.00  0.00     0.016 C 
HETATM    6  C12 UNL     1     -10.162  -8.722 -17.173  1.00  0.00     0.025 C 
HETATM    7  C13 UNL     1     -10.124  -8.344 -15.718  1.00  0.00     0.039 C 
HETATM    8  C14 UNL     1     -11.366  -9.574 -17.418  1.00  0.00     0.123 C 
HETATM    9  C15 UNL     1     -11.636  -9.789 -18.906  1.00  0.00     0.037 C 
HETATM   10  C16 UNL     1     -10.440  -9.350 -19.645  1.00  0.00    -0.003 C 
HETATM   11  C17 UNL     1     -10.493  -9.466 -21.130  1.00  0.00    -0.002 C 
HETATM   12  C18 UNL     1     -11.678  -8.855 -21.778  1.00  0.00     0.006 C 
HETATM   13  C19 UNL     1     -11.185  -7.735 -22.684  1.00  0.00     0.005 C 
HETATM   14  C20 UNL     1      -9.729  -8.006 -22.818  1.00  0.00    -0.010 C 
HETATM   15  C21 UNL     1      -8.924  -6.809 -23.245  1.00  0.00     0.011 C 
HETATM   16  C22 UNL     1      -9.308  -8.579 -21.512  1.00  0.00    -0.036 C 
HETATM   17  C23 UNL     1      -8.096  -9.467 -21.609  1.00  0.00     0.016 C 
HETATM   18  C24 UNL     1      -9.185  -7.543 -20.413  1.00  0.00     0.015 C 
HETATM   19  C25 UNL     1     -10.320  -7.828 -19.490  1.00  0.00    -0.001 C 
ENDROOT
BRANCH   1  20
HETATM   20  O1  UNL     1     -10.974  -7.021 -13.994  1.00  0.00    -0.386 OA
BRANCH  20  21
HETATM   21  C6  UNL     1     -11.382  -8.036 -13.112  1.00  0.00     0.168 C 
BRANCH  21  22
HETATM   22  C5  UNL     1     -12.865  -8.226 -13.127  1.00  0.00     0.026 C 
BRANCH  22  23
HETATM   23  C4  UNL     1     -13.194  -9.666 -12.904  1.00  0.00     0.002 C 
BRANCH  23  24
HETATM   24  C3  UNL     1     -12.972 -10.528 -14.126  1.00  0.00    -0.000 C 
BRANCH  24  25
HETATM   25  C2  UNL     1     -13.542 -11.907 -13.827  1.00  0.00    -0.005 C 
HETATM   26  C1  UNL     1     -12.737 -12.981 -14.559  1.00  0.00     0.005 C 
ENDBRANCH  24  25
ENDBRANCH  23  24
ENDBRANCH  22  23
ENDBRANCH  21  22
ENDBRANCH  20  21
ENDBRANCH   1  20
BRANCH   8  27
HETATM   27  O2  UNL     1     -11.072 -10.856 -16.900  1.00  0.00    -0.395 OA
ATOM     28  H2  UNL     1     -11.135 -11.467 -17.625  1.00  0.00     0.210 HD
ENDBRANCH   8  27
TORSDOF 7
ENDMDL
MODEL 3
REMARK VINA RESULT: -7.339520360      2.126      3.816
REMARK  7 active torsions:
REMARK  status: ('A' for Active; 'I' for Inactive)
REMARK    1  A    between atoms: C2_2  and  C3_3 
REMARK    2  A    between atoms: C3_3  and  C4_4 
REMARK    3  A    between atoms: C4_4  and  C5_5 
REMARK    4  A    between atoms: C5_5  and  C6_6 
REMARK    5  A    between atoms: C6_6  and  O1_7 
REMARK    6  A    between atoms: O1_7  and  C7_8 
REMARK    7  A    between atoms: C14_15  and  O2_16 
ROOT
HETATM    1  C7  UNL     1     -11.951  -6.313 -18.445  1.00  0.00     0.121 C 
HETATM    2  C8  UNL     1     -12.400  -6.578 -17.024  1.00  0.00     0.033 C 
HETATM    3  C9  UNL     1     -12.056  -7.961 -16.588  1.00  0.00     0.012 C 
HETATM    4  C10 UNL     1     -12.631  -9.040 -17.478  1.00  0.00    -0.034 C 
HETATM    5  C11 UNL     1     -14.136  -9.013 -17.364  1.00  0.00     0.016 C 
HETATM    6  C12 UNL     1     -12.236  -8.768 -18.910  1.00  0.00     0.025 C 
HETATM    7  C13 UNL     1     -12.577  -7.362 -19.316  1.00  0.00     0.039 C 
HETATM    8  C14 UNL     1     -10.787  -9.011 -19.185  1.00  0.00     0.123 C 
HETATM    9  C15 UNL     1     -10.284 -10.314 -18.566  1.00  0.00     0.037 C 
HETATM   10  C16 UNL     1     -11.463 -11.094 -18.150  1.00  0.00    -0.003 C 
HETATM   11  C17 UNL     1     -11.197 -12.412 -17.506  1.00  0.00    -0.002 C 
HETATM   12  C18 UNL     1     -10.243 -12.390 -16.372  1.00  0.00     0.006 C 
HETATM   13  C19 UNL     1     -10.995 -12.834 -15.125  1.00  0.00     0.005 C 
HETATM   14  C20 UNL     1     -12.230 -13.463 -15.664  1.00  0.00    -0.010 C 
HETATM   15  C21 UNL     1     -13.355 -13.545 -14.668  1.00  0.00     0.011 C 
HETATM   16  C22 UNL     1     -12.568 -12.691 -16.889  1.00  0.00    -0.036 C 
HETATM   17  C23 UNL     1     -13.360 -13.481 -17.896  1.00  0.00     0.016 C 
HETATM   18  C24 UNL     1     -13.182 -11.338 -16.597  1.00  0.00     0.015 C 
HETATM   19  C25 UNL     1     -12.138 -10.350 -16.990  1.00  0.00    -0.001 C 
ENDROOT
BRANCH   1  20
HETATM   20  O1  UNL     1     -12.468  -5.081 -18.838  1.00  0.00    -0.386 OA
BRANCH  20  21
HETATM   21  C6  UNL     1     -13.196  -5.218 -20.032  1.00  0.00     0.168 C 
BRANCH  21  22
HETATM   22  C5  UNL     1     -14.503  -4.493 -19.975  1.00  0.00     0.026 C 
BRANCH  22  23
HETATM   23  C4  UNL     1     -14.882  -4.242 -18.552  1.00  0.00     0.002 C 
BRANCH  23  24
HETATM   24  C3  UNL     1     -16.242  -4.795 -18.188  1.00  0.00    -0.000 C 
BRANCH  24  25
HETATM   25  C2  UNL     1     -16.059  -6.261 -17.821  1.00  0.00    -0.005 C 
HETATM   26  C1  UNL     1     -16.856  -7.148 -18.779  1.00  0.00     0.005 C 
ENDBRANCH  24  25
ENDBRANCH  23  24
ENDBRANCH  22  23
ENDBRANCH  21  22
ENDBRANCH  20  21
ENDBRANCH   1  20
BRANCH   8  27
HETATM   27  O2  UNL     1     -10.660  -9.186 -20.583  1.00  0.00    -0.395 OA
ATOM     28  H2  UNL     1     -10.699  -8.320 -20.973  1.00  0.00     0.210 HD
ENDBRANCH   8  27
TORSDOF 7
ENDMDL
MODEL 4
REMARK VINA RESULT: -7.301118890      1.699      2.933
REMARK  7 active torsions:
REMARK  status: ('A' for Active; 'I' for Inactive)
REMARK    1  A    between atoms: C2_2  and  C3_3 
REMARK    2  A    between atoms: C3_3  and  C4_4 
REMARK    3  A    between atoms: C4_4  and  C5_5 
REMARK    4  A    between atoms: C5_5  and  C6_6 
REMARK    5  A    between atoms: C6_6  and  O1_7 
REMARK    6  A    between atoms: O1_7  and  C7_8 
REMARK    7  A    between atoms: C14_15  and  O2_16 
ROOT
HETATM    1  C7  UNL     1     -12.257  -6.858 -18.901  1.00  0.00     0.121 C 
HETATM    2  C8  UNL     1     -13.440  -7.784 -19.082  1.00  0.00     0.033 C 
HETATM    3  C9  UNL     1     -13.587  -8.719 -17.929  1.00  0.00     0.012 C 
HETATM    4  C10 UNL     1     -12.358  -9.561 -17.669  1.00  0.00    -0.034 C 
HETATM    5  C11 UNL     1     -12.150 -10.493 -18.837  1.00  0.00     0.016 C 
HETATM    6  C12 UNL     1     -11.155  -8.658 -17.533  1.00  0.00     0.025 C 
HETATM    7  C13 UNL     1     -11.042  -7.715 -18.699  1.00  0.00     0.039 C 
HETATM    8  C14 UNL     1     -11.144  -7.862 -16.268  1.00  0.00     0.123 C 
HETATM    9  C15 UNL     1     -11.518  -8.702 -15.047  1.00  0.00     0.037 C 
HETATM   10  C16 UNL     1     -11.469 -10.119 -15.447  1.00  0.00    -0.003 C 
HETATM   11  C17 UNL     1     -11.811 -11.121 -14.398  1.00  0.00    -0.002 C 
HETATM   12  C18 UNL     1     -13.093 -10.893 -13.690  1.00  0.00     0.006 C 
HETATM   13  C19 UNL     1     -14.003 -12.077 -13.985  1.00  0.00     0.005 C 
HETATM   14  C20 UNL     1     -13.075 -13.109 -14.522  1.00  0.00    -0.010 C 
HETATM   15  C21 UNL     1     -13.756 -14.177 -15.334  1.00  0.00     0.011 C 
HETATM   16  C22 UNL     1     -12.033 -12.357 -15.270  1.00  0.00    -0.036 C 
HETATM   17  C23 UNL     1     -10.718 -13.084 -15.360  1.00  0.00     0.016 C 
HETATM   18  C24 UNL     1     -12.510 -11.846 -16.614  1.00  0.00     0.015 C 
HETATM   19  C25 UNL     1     -12.603 -10.368 -16.450  1.00  0.00    -0.001 C 
ENDROOT
BRANCH   1  20
HETATM   20  O1  UNL     1     -12.077  -6.152 -20.089  1.00  0.00    -0.386 OA
BRANCH  20  21
HETATM   21  C6  UNL     1     -13.321  -5.804 -20.641  1.00  0.00     0.168 C 
BRANCH  21  22
HETATM   22  C5  UNL     1     -13.908  -4.598 -19.979  1.00  0.00     0.026 C 
BRANCH  22  23
HETATM   23  C4  UNL     1     -15.338  -4.857 -19.631  1.00  0.00     0.002 C 
BRANCH  23  24
HETATM   24  C3  UNL     1     -15.621  -4.754 -18.149  1.00  0.00    -0.000 C 
BRANCH  24  25
HETATM   25  C2  UNL     1     -16.209  -6.084 -17.700  1.00  0.00    -0.005 C 
HETATM   26  C1  UNL     1     -16.904  -6.777 -18.872  1.00  0.00     0.005 C 
ENDBRANCH  24  25
ENDBRANCH  23  24
ENDBRANCH  22  23
ENDBRANCH  21  22
ENDBRANCH  20  21
ENDBRANCH   1  20
BRANCH   8  27
HETATM   27  O2  UNL     1      -9.807  -7.457 -16.050  1.00  0.00    -0.395 OA
ATOM     28  H2  UNL     1      -9.251  -8.134 -16.420  1.00  0.00     0.210 HD
ENDBRANCH   8  27
TORSDOF 7
ENDMDL
MODEL 5
REMARK VINA RESULT: -7.222230414      1.836      7.048
REMARK  7 active torsions:
REMARK  status: ('A' for Active; 'I' for Inactive)
REMARK    1  A    between atoms: C2_2  and  C3_3 
REMARK    2  A    between atoms: C3_3  and  C4_4 
REMARK    3  A    between atoms: C4_4  and  C5_5 
REMARK    4  A    between atoms: C5_5  and  C6_6 
REMARK    5  A    between atoms: C6_6  and  O1_7 
REMARK    6  A    between atoms: O1_7  and  C7_8 
REMARK    7  A    between atoms: C14_15  and  O2_16 
ROOT
HETATM    1  C7  UNL     1     -10.536  -6.921 -15.186  1.00  0.00     0.121 C 
HETATM    2  C8  UNL     1      -9.537  -6.156 -16.027  1.00  0.00     0.033 C 
HETATM    3  C9  UNL     1      -9.914  -6.160 -17.469  1.00  0.00     0.012 C 
HETATM    4  C10 UNL     1     -10.066  -7.547 -18.054  1.00  0.00    -0.034 C 
HETATM    5  C11 UNL     1      -8.717  -8.225 -18.054  1.00  0.00     0.016 C 
HETATM    6  C12 UNL     1     -11.023  -8.345 -17.201  1.00  0.00     0.025 C 
HETATM    7  C13 UNL     1     -10.629  -8.309 -15.751  1.00  0.00     0.039 C 
HETATM    8  C14 UNL     1     -12.445  -7.902 -17.325  1.00  0.00     0.123 C 
HETATM    9  C15 UNL     1     -12.855  -7.653 -18.775  1.00  0.00     0.037 C 
HETATM   10  C16 UNL     1     -11.812  -8.232 -19.640  1.00  0.00    -0.003 C 
HETATM   11  C17 UNL     1     -12.011  -8.092 -21.110  1.00  0.00    -0.002 C 
HETATM   12  C18 UNL     1     -12.289  -6.718 -21.591  1.00  0.00     0.006 C 
HETATM   13  C19 UNL     1     -11.150  -6.310 -22.514  1.00  0.00     0.005 C 
HETATM   14  C20 UNL     1     -10.477  -7.598 -22.832  1.00  0.00    -0.010 C 
HETATM   15  C21 UNL     1      -9.061  -7.441 -23.316  1.00  0.00     0.011 C 
HETATM   16  C22 UNL     1     -10.604  -8.428 -21.605  1.00  0.00    -0.036 C 
HETATM   17  C23 UNL     1     -10.565  -9.908 -21.875  1.00  0.00     0.016 C 
HETATM   18  C24 UNL     1      -9.658  -8.012 -20.498  1.00  0.00     0.015 C 
HETATM   19  C25 UNL     1     -10.531  -7.407 -19.453  1.00  0.00    -0.001 C 
ENDROOT
BRANCH   1  20
HETATM   20  O1  UNL     1     -10.021  -7.030 -13.896  1.00  0.00    -0.386 OA
BRANCH  20  21
HETATM   21  C6  UNL     1     -10.827  -7.881 -13.121  1.00  0.00     0.168 C 
BRANCH  21  22
HETATM   22  C5  UNL     1     -12.250  -7.422 -13.085  1.00  0.00     0.026 C 
BRANCH  22  23
HETATM   23  C4  UNL     1     -13.162  -8.604 -13.031  1.00  0.00     0.002 C 
BRANCH  23  24
HETATM   24  C3  UNL     1     -12.433  -9.927 -13.103  1.00  0.00    -0.000 C 
BRANCH  24  25
HETATM   25  C2  UNL     1     -13.314 -10.897 -13.877  1.00  0.00    -0.005 C 
HETATM   26  C1  UNL     1     -12.462 -11.741 -14.825  1.00  0.00     0.005 C 
ENDBRANCH  24  25
ENDBRANCH  23  24
ENDBRANCH  22  23
ENDBRANCH  21  22
ENDBRANCH  20  21
ENDBRANCH   1  20
BRANCH   8  27
HETATM   27  O2  UNL     1     -13.249  -8.979 -16.886  1.00  0.00    -0.395 OA
ATOM     28  H2  UNL     1     -12.691  -9.545 -16.364  1.00  0.00     0.210 HD
ENDBRANCH   8  27
TORSDOF 7
ENDMDL
