MODEL 1
REMARK VINA RESULT: -9.234150689      0.000      0.000
REMARK  7 active torsions:
REMARK  status: ('A' for Active; 'I' for Inactive)
REMARK    1  A    between atoms: C6_7  and  O2_9 
REMARK    2  A    between atoms: C8_11  and  C9_12 
REMARK    3  A    between atoms: C10_13  and  C11_14 
REMARK    4  A    between atoms: C11_14  and  C13_16 
REMARK    5  A    between atoms: C14_17  and  C15_18 
REMARK    6  A    between atoms: C16_19  and  C18_21 
REMARK    7  A    between atoms: C19_22  and  C20_23 
ROOT
HETATM    1  C11 UNL     1     -13.419  -7.560 -17.103  1.00  0.00     0.026 C 
HETATM    2  C12 UNL     1     -12.803  -6.969 -15.828  1.00  0.00     0.018 C 
ENDROOT
BRANCH   1   3
HETATM    3  C10 UNL     1     -13.656  -9.043 -16.948  1.00  0.00    -0.022 C 
HETATM    4  C9  UNL     1     -12.698  -9.857 -16.671  1.00  0.00    -0.018 C 
BRANCH   4   5
HETATM    5  C8  UNL     1     -12.739 -11.322 -16.488  1.00  0.00     0.073 C 
HETATM    6  C2  UNL     1     -12.425 -11.867 -17.863  1.00  0.00    -0.076 C 
HETATM    7  C1  UNL     1     -13.281 -12.535 -18.590  1.00  0.00     0.015 C 
HETATM    8  C3  UNL     1     -11.058 -11.590 -18.342  1.00  0.00     0.068 C 
HETATM    9  C4  UNL     1     -10.101 -12.192 -17.369  1.00  0.00     0.158 A 
HETATM   10  O1  UNL     1      -9.491 -11.440 -16.376  1.00  0.00    -0.372 OA
HETATM   11  C5  UNL     1     -10.474 -12.371 -16.029  1.00  0.00     0.186 A 
HETATM   12  C6  UNL     1     -11.796 -11.929 -15.523  1.00  0.00     0.093 C 
HETATM   13  C7  UNL     1     -12.492 -13.230 -15.041  1.00  0.00     0.050 C 
BRANCH  12  14
HETATM   14  O2  UNL     1     -11.632 -11.216 -14.328  1.00  0.00    -0.387 OA
ATOM     15  H2  UNL     1     -12.306 -10.550 -14.257  1.00  0.00     0.210 HD
ENDBRANCH  12  14
ENDBRANCH   4   5
ENDBRANCH   1   3
BRANCH   1  16
HETATM   16  C13 UNL     1     -14.702  -6.900 -17.315  1.00  0.00    -0.019 C 
HETATM   17  C14 UNL     1     -15.126  -6.421 -18.447  1.00  0.00    -0.003 C 
BRANCH  17  18
HETATM   18  C15 UNL     1     -14.366  -6.490 -19.652  1.00  0.00     0.006 C 
HETATM   19  C16 UNL     1     -13.676  -5.470 -20.230  1.00  0.00    -0.062 C 
HETATM   20  C17 UNL     1     -13.666  -4.149 -19.613  1.00  0.00     0.048 C 
BRANCH  19  21
HETATM   21  C18 UNL     1     -13.021  -5.791 -21.465  1.00  0.00     0.007 C 
HETATM   22  C19 UNL     1     -12.105  -6.431 -22.014  1.00  0.00     0.009 C 
BRANCH  22  23
HETATM   23  C20 UNL     1     -11.027  -7.348 -21.687  1.00  0.00    -0.041 A 
HETATM   24  C21 UNL     1      -9.894  -7.621 -22.374  1.00  0.00    -0.057 A 
HETATM   25  C22 UNL     1      -9.311  -7.125 -23.679  1.00  0.00     0.048 C 
HETATM   26  C23 UNL     1      -9.405  -8.535 -21.405  1.00  0.00    -0.006 A 
HETATM   27  C24 UNL     1     -10.689  -8.321 -20.683  1.00  0.00    -0.002 A 
HETATM   28  C25 UNL     1     -10.392  -7.868 -19.264  1.00  0.00     0.024 C 
HETATM   29  C26 UNL     1     -11.541  -9.604 -20.702  1.00  0.00     0.024 C 
ENDBRANCH  22  23
ENDBRANCH  19  21
ENDBRANCH  17  18
ENDBRANCH   1  16
TORSDOF 7
ENDMDL
MODEL 2
REMARK VINA RESULT: -8.849404151      2.002      4.767
REMARK  7 active torsions:
REMARK  status: ('A' for Active; 'I' for Inactive)
REMARK    1  A    between atoms: C6_7  and  O2_9 
REMARK    2  A    between atoms: C8_11  and  C9_12 
REMARK    3  A    between atoms: C10_13  and  C11_14 
REMARK    4  A    between atoms: C11_14  and  C13_16 
REMARK    5  A    between atoms: C14_17  and  C15_18 
REMARK    6  A    between atoms: C16_19  and  C18_21 
REMARK    7  A    between atoms: C19_22  and  C20_23 
ROOT
HETATM    1  C11 UNL     1      -8.937  -7.924 -18.541  1.00  0.00     0.026 C 
HETATM    2  C12 UNL     1      -7.848  -8.345 -19.536  1.00  0.00     0.018 C 
ENDROOT
BRANCH   1   3
HETATM    3  C10 UNL     1      -9.266  -9.054 -17.594  1.00  0.00    -0.022 C 
HETATM    4  C9  UNL     1     -10.440  -9.580 -17.551  1.00  0.00    -0.018 C 
BRANCH   4   5
HETATM    5  C8  UNL     1     -10.942 -10.677 -16.698  1.00  0.00     0.073 C 
HETATM    6  C2  UNL     1     -12.369 -10.275 -16.396  1.00  0.00    -0.076 C 
HETATM    7  C1  UNL     1     -12.793  -9.955 -15.202  1.00  0.00     0.015 C 
HETATM    8  C3  UNL     1     -13.271 -10.268 -17.562  1.00  0.00     0.068 C 
HETATM    9  C4  UNL     1     -13.283 -11.643 -18.140  1.00  0.00     0.158 A 
HETATM   10  O1  UNL     1     -12.501 -11.989 -19.232  1.00  0.00    -0.372 OA
HETATM   11  C5  UNL     1     -12.180 -12.492 -17.968  1.00  0.00     0.186 A 
HETATM   12  C6  UNL     1     -10.956 -12.045 -17.260  1.00  0.00     0.093 C 
HETATM   13  C7  UNL     1     -10.840 -12.988 -16.032  1.00  0.00     0.050 C 
BRANCH  12  14
HETATM   14  O2  UNL     1      -9.823 -12.387 -18.010  1.00  0.00    -0.387 OA
ATOM     15  H2  UNL     1      -9.859 -13.307 -18.243  1.00  0.00     0.210 HD
ENDBRANCH  12  14
ENDBRANCH   4   5
ENDBRANCH   1   3
BRANCH   1  16
HETATM   16  C13 UNL     1      -8.414  -6.804 -17.768  1.00  0.00    -0.019 C 
HETATM   17  C14 UNL     1      -9.125  -5.986 -17.050  1.00  0.00    -0.003 C 
BRANCH  17  18
HETATM   18  C15 UNL     1     -10.542  -6.093 -16.925  1.00  0.00     0.006 C 
HETATM   19  C16 UNL     1     -11.222  -6.618 -15.871  1.00  0.00    -0.062 C 
HETATM   20  C17 UNL     1     -10.498  -7.141 -14.719  1.00  0.00     0.048 C 
BRANCH  19  21
HETATM   21  C18 UNL     1     -12.649  -6.643 -16.007  1.00  0.00     0.007 C 
HETATM   22  C19 UNL     1     -13.619  -6.449 -16.764  1.00  0.00     0.009 C 
BRANCH  22  23
HETATM   23  C20 UNL     1     -13.914  -6.040 -18.125  1.00  0.00    -0.041 A 
HETATM   24  C21 UNL     1     -13.364  -6.462 -19.288  1.00  0.00    -0.057 A 
HETATM   25  C22 UNL     1     -12.287  -7.464 -19.637  1.00  0.00     0.048 C 
HETATM   26  C23 UNL     1     -14.194  -5.641 -20.096  1.00  0.00    -0.006 A 
HETATM   27  C24 UNL     1     -14.743  -5.095 -18.826  1.00  0.00    -0.002 A 
HETATM   28  C25 UNL     1     -16.252  -5.269 -18.821  1.00  0.00     0.024 C 
HETATM   29  C26 UNL     1     -14.341  -3.619 -18.653  1.00  0.00     0.024 C 
ENDBRANCH  22  23
ENDBRANCH  19  21
ENDBRANCH  17  18
ENDBRANCH   1  16
TORSDOF 7
ENDMDL
MODEL 3
REMARK VINA RESULT: -8.765412510      2.382      5.651
REMARK  7 active torsions:
REMARK  status: ('A' for Active; 'I' for Inactive)
REMARK    1  A    between atoms: C6_7  and  O2_9 
REMARK    2  A    between atoms: C8_11  and  C9_12 
REMARK    3  A    between atoms: C10_13  and  C11_14 
REMARK    4  A    between atoms: C11_14  and  C13_16 
REMARK    5  A    between atoms: C14_17  and  C15_18 
REMARK    6  A    between atoms: C16_19  and  C18_21 
REMARK    7  A    between atoms: C19_22  and  C20_23 
ROOT
HETATM    1  C11 UNL     1      -9.779  -7.215 -15.906  1.00  0.00     0.026 C 
HETATM    2  C12 UNL     1      -8.732  -6.159 -15.530  1.00  0.00     0.018 C 
ENDROOT
BRANCH   1   3
HETATM    3  C10 UNL     1      -9.193  -8.244 -16.843  1.00  0.00    -0.022 C 
HETATM    4  C9  UNL     1      -9.735  -8.513 -17.979  1.00  0.00    -0.018 C 
BRANCH   4   5
HETATM    5  C8  UNL     1      -9.311  -9.479 -19.012  1.00  0.00     0.073 C 
HETATM    6  C2  UNL     1     -10.602 -10.147 -19.433  1.00  0.00    -0.076 C 
HETATM    7  C1  UNL     1     -10.868 -11.407 -19.216  1.00  0.00     0.015 C 
HETATM    8  C3  UNL     1     -11.562  -9.263 -20.120  1.00  0.00     0.068 C 
HETATM    9  C4  UNL     1     -10.894  -8.723 -21.340  1.00  0.00     0.158 A 
HETATM   10  O1  UNL     1     -10.311  -7.465 -21.362  1.00  0.00    -0.372 OA
HETATM   11  C5  UNL     1      -9.497  -8.602 -21.387  1.00  0.00     0.186 A 
HETATM   12  C6  UNL     1      -8.646  -8.954 -20.225  1.00  0.00     0.093 C 
HETATM   13  C7  UNL     1      -7.747 -10.115 -20.728  1.00  0.00     0.050 C 
BRANCH  12  14
HETATM   14  O2  UNL     1      -7.716  -7.932 -19.993  1.00  0.00    -0.387 OA
ATOM     15  H2  UNL     1      -7.916  -7.497 -19.173  1.00  0.00     0.210 HD
ENDBRANCH  12  14
ENDBRANCH   4   5
ENDBRANCH   1   3
BRANCH   1  16
HETATM   16  C13 UNL     1     -10.189  -7.882 -14.676  1.00  0.00    -0.019 C 
HETATM   17  C14 UNL     1     -11.333  -8.468 -14.480  1.00  0.00    -0.003 C 
BRANCH  17  18
HETATM   18  C15 UNL     1     -12.352  -8.533 -15.477  1.00  0.00     0.006 C 
HETATM   19  C16 UNL     1     -12.735  -9.640 -16.167  1.00  0.00    -0.062 C 
HETATM   20  C17 UNL     1     -12.087 -10.922 -15.917  1.00  0.00     0.048 C 
BRANCH  19  21
HETATM   21  C18 UNL     1     -13.763  -9.432 -17.145  1.00  0.00     0.007 C 
HETATM   22  C19 UNL     1     -14.367  -8.602 -17.849  1.00  0.00     0.009 C 
BRANCH  22  23
HETATM   23  C20 UNL     1     -14.387  -7.178 -18.136  1.00  0.00    -0.041 A 
HETATM   24  C21 UNL     1     -15.335  -6.257 -17.847  1.00  0.00    -0.057 A 
HETATM   25  C22 UNL     1     -16.678  -6.313 -17.155  1.00  0.00     0.048 C 
HETATM   26  C23 UNL     1     -14.598  -5.177 -18.401  1.00  0.00    -0.006 A 
HETATM   27  C24 UNL     1     -13.589  -6.190 -18.813  1.00  0.00    -0.002 A 
HETATM   28  C25 UNL     1     -12.234  -5.800 -18.249  1.00  0.00     0.024 C 
HETATM   29  C26 UNL     1     -13.549  -6.321 -20.347  1.00  0.00     0.024 C 
ENDBRANCH  22  23
ENDBRANCH  19  21
ENDBRANCH  17  18
ENDBRANCH   1  16
TORSDOF 7
ENDMDL
MODEL 4
REMARK VINA RESULT: -8.631119845      2.285      5.964
REMARK  7 active torsions:
REMARK  status: ('A' for Active; 'I' for Inactive)
REMARK    1  A    between atoms: C6_7  and  O2_9 
REMARK    2  A    between atoms: C8_11  and  C9_12 
REMARK    3  A    between atoms: C10_13  and  C11_14 
REMARK    4  A    between atoms: C11_14  and  C13_16 
REMARK    5  A    between atoms: C14_17  and  C15_18 
REMARK    6  A    between atoms: C16_19  and  C18_21 
REMARK    7  A    between atoms: C19_22  and  C20_23 
ROOT
HETATM    1  C11 UNL     1     -12.900  -6.624 -21.374  1.00  0.00     0.026 C 
HETATM    2  C12 UNL     1     -12.804  -6.224 -22.852  1.00  0.00     0.018 C 
ENDROOT
BRANCH   1   3
HETATM    3  C10 UNL     1     -11.526  -6.792 -20.772  1.00  0.00    -0.022 C 
HETATM    4  C9  UNL     1     -11.132  -7.917 -20.285  1.00  0.00    -0.018 C 
BRANCH   4   5
HETATM    5  C8  UNL     1      -9.840  -8.264 -19.659  1.00  0.00     0.073 C 
HETATM    6  C2  UNL     1     -10.235  -9.037 -18.421  1.00  0.00    -0.076 C 
HETATM    7  C1  UNL     1     -10.028  -8.608 -17.204  1.00  0.00     0.015 C 
HETATM    8  C3  UNL     1     -10.884 -10.335 -18.680  1.00  0.00     0.068 C 
HETATM    9  C4  UNL     1      -9.935 -11.171 -19.472  1.00  0.00     0.158 A 
HETATM   10  O1  UNL     1     -10.029 -11.284 -20.851  1.00  0.00    -0.372 OA
HETATM   11  C5  UNL     1      -8.970 -10.564 -20.290  1.00  0.00     0.186 A 
HETATM   12  C6  UNL     1      -8.891  -9.090 -20.436  1.00  0.00     0.093 C 
HETATM   13  C7  UNL     1      -7.487  -8.712 -19.893  1.00  0.00     0.050 C 
BRANCH  12  14
HETATM   14  O2  UNL     1      -8.788  -8.755 -21.793  1.00  0.00    -0.387 OA
ATOM     15  H2  UNL     1      -9.086  -7.863 -21.926  1.00  0.00     0.210 HD
ENDBRANCH  12  14
ENDBRANCH   4   5
ENDBRANCH   1   3
BRANCH   1  16
HETATM   16  C13 UNL     1     -13.590  -5.548 -20.674  1.00  0.00    -0.019 C 
HETATM   17  C14 UNL     1     -14.196  -5.659 -19.529  1.00  0.00    -0.003 C 
BRANCH  17  18
HETATM   18  C15 UNL     1     -14.257  -6.884 -18.799  1.00  0.00     0.006 C 
HETATM   19  C16 UNL     1     -13.585  -7.174 -17.652  1.00  0.00    -0.062 C 
HETATM   20  C17 UNL     1     -12.699  -6.184 -17.051  1.00  0.00     0.048 C 
BRANCH  19  21
HETATM   21  C18 UNL     1     -13.791  -8.495 -17.134  1.00  0.00     0.007 C 
HETATM   22  C19 UNL     1     -13.570  -9.284 -16.197  1.00  0.00     0.009 C 
BRANCH  22  23
HETATM   23  C20 UNL     1     -12.892  -9.338 -14.914  1.00  0.00    -0.041 A 
HETATM   24  C21 UNL     1     -12.598 -10.411 -14.143  1.00  0.00    -0.057 A 
HETATM   25  C22 UNL     1     -12.834 -11.898 -14.278  1.00  0.00     0.048 C 
HETATM   26  C23 UNL     1     -11.939  -9.642 -13.147  1.00  0.00    -0.006 A 
HETATM   27  C24 UNL     1     -12.338  -8.443 -13.933  1.00  0.00    -0.002 A 
HETATM   28  C25 UNL     1     -11.098  -7.633 -14.268  1.00  0.00     0.024 C 
HETATM   29  C26 UNL     1     -13.370  -7.605 -13.156  1.00  0.00     0.024 C 
ENDBRANCH  22  23
ENDBRANCH  19  21
ENDBRANCH  17  18
ENDBRANCH   1  16
TORSDOF 7
ENDMDL
MODEL 5
REMARK VINA RESULT: -8.611011136      2.043      4.789
REMARK  7 active torsions:
REMARK  status: ('A' for Active; 'I' for Inactive)
REMARK    1  A    between atoms: C6_7  and  O2_9 
REMARK    2  A    between atoms: C8_11  and  C9_12 
REMARK    3  A    between atoms: C10_13  and  C11_14 
REMARK    4  A    between atoms: C11_14  and  C13_16 
REMARK    5  A    between atoms: C14_17  and  C15_18 
REMARK    6  A    between atoms: C16_19  and  C18_21 
REMARK    7  A    between atoms: C19_22  and  C20_23 
ROOT
HETATM    1  C11 UNL     1     -11.984  -7.230 -21.891  1.00  0.00     0.026 C 
HETATM    2  C12 UNL     1     -10.775  -7.258 -22.835  1.00  0.00     0.018 C 
ENDROOT
BRANCH   1   3
HETATM    3  C10 UNL     1     -11.571  -7.570 -20.479  1.00  0.00    -0.022 C 
HETATM    4  C9  UNL     1     -11.682  -8.764 -20.010  1.00  0.00    -0.018 C 
BRANCH   4   5
HETATM    5  C8  UNL     1     -11.338  -9.277 -18.669  1.00  0.00     0.073 C 
HETATM    6  C2  UNL     1     -12.318 -10.409 -18.453  1.00  0.00    -0.076 C 
HETATM    7  C1  UNL     1     -13.260 -10.388 -17.547  1.00  0.00     0.015 C 
HETATM    8  C3  UNL     1     -12.138 -11.565 -19.351  1.00  0.00     0.068 C 
HETATM    9  C4  UNL     1     -10.758 -12.093 -19.146  1.00  0.00     0.158 A 
HETATM   10  O1  UNL     1      -9.711 -11.762 -19.993  1.00  0.00    -0.372 OA
HETATM   11  C5  UNL     1      -9.736 -11.246 -18.694  1.00  0.00     0.186 A 
HETATM   12  C6  UNL     1      -9.972  -9.802 -18.454  1.00  0.00     0.093 C 
HETATM   13  C7  UNL     1      -9.694  -9.600 -16.940  1.00  0.00     0.050 C 
BRANCH  12  14
HETATM   14  O2  UNL     1      -8.950  -9.050 -19.049  1.00  0.00    -0.387 OA
ATOM     15  H2  UNL     1      -8.387  -9.621 -19.557  1.00  0.00     0.210 HD
ENDBRANCH  12  14
ENDBRANCH   4   5
ENDBRANCH   1   3
BRANCH   1  16
HETATM   16  C13 UNL     1     -12.520  -5.874 -21.908  1.00  0.00    -0.019 C 
HETATM   17  C14 UNL     1     -13.318  -5.367 -21.015  1.00  0.00    -0.003 C 
BRANCH  17  18
HETATM   18  C15 UNL     1     -13.773  -6.097 -19.877  1.00  0.00     0.006 C 
HETATM   19  C16 UNL     1     -14.307  -5.572 -18.742  1.00  0.00    -0.062 C 
HETATM   20  C17 UNL     1     -14.462  -4.129 -18.604  1.00  0.00     0.048 C 
BRANCH  19  21
HETATM   21  C18 UNL     1     -14.653  -6.522 -17.726  1.00  0.00     0.007 C 
HETATM   22  C19 UNL     1     -14.287  -7.108 -16.690  1.00  0.00     0.009 C 
BRANCH  22  23
HETATM   23  C20 UNL     1     -13.154  -7.180 -15.784  1.00  0.00    -0.041 A 
HETATM   24  C21 UNL     1     -11.875  -6.784 -15.976  1.00  0.00    -0.057 A 
HETATM   25  C22 UNL     1     -11.134  -6.146 -17.130  1.00  0.00     0.048 C 
HETATM   26  C23 UNL     1     -11.459  -7.151 -14.669  1.00  0.00    -0.006 A 
HETATM   27  C24 UNL     1     -12.835  -7.680 -14.473  1.00  0.00    -0.002 A 
HETATM   28  C25 UNL     1     -13.449  -7.027 -13.247  1.00  0.00     0.024 C 
HETATM   29  C26 UNL     1     -12.812  -9.215 -14.346  1.00  0.00     0.024 C 
ENDBRANCH  22  23
ENDBRANCH  19  21
ENDBRANCH  17  18
ENDBRANCH   1  16
TORSDOF 7
ENDMDL
