MODEL 1
REMARK VINA RESULT: -8.023433875      0.000      0.000
REMARK  8 active torsions:
REMARK  status: ('A' for Active; 'I' for Inactive)
REMARK    1  A    between atoms: C2_2  and  O1_3 
REMARK    2  A    between atoms: O1_3  and  C3_4 
REMARK       I    between atoms: C3_4  and  N1_6 
REMARK    3  A    between atoms: N1_6  and  C4_8 
REMARK    4  A    between atoms: C13_17  and  O3_18 
REMARK    5  A    between atoms: O3_18  and  C14_19 
REMARK    6  A    between atoms: C14_19  and  C15_20 
REMARK    7  A    between atoms: C14_19  and  C17_22 
REMARK    8  A    between atoms: C17_22  and  C18_23 
ROOT
HETATM    1  C4  UNL     1       5.762   7.168  16.075  1.00  0.00     0.060 C 
HETATM    2  C5  UNL     1       6.960   6.500  15.367  1.00  0.00     0.041 C 
HETATM    3  C6  UNL     1       4.729   6.110  16.215  1.00  0.00     0.037 C 
HETATM    4  C7  UNL     1       3.338   6.573  16.520  1.00  0.00     0.030 C 
HETATM    5  C8  UNL     1       2.722   5.703  17.569  1.00  0.00    -0.024 C 
HETATM    6  C9  UNL     1       2.722   5.927  18.854  1.00  0.00    -0.087 C 
HETATM    7  C10 UNL     1       2.046   4.934  19.772  1.00  0.00     0.043 C 
HETATM    8  C11 UNL     1       3.354   7.125  19.526  1.00  0.00     0.036 C 
HETATM    9  C12 UNL     1       4.676   6.680  20.001  1.00  0.00     0.037 C 
HETATM   10  C13 UNL     1       5.686   7.729  20.377  1.00  0.00     0.128 C 
HETATM   11  C21 UNL     1       5.720   8.914  19.501  1.00  0.00     0.042 C 
HETATM   12  C22 UNL     1       4.635   9.927  19.904  1.00  0.00     0.015 C 
HETATM   13  C23 UNL     1       5.636   8.628  18.025  1.00  0.00     0.159 A 
HETATM   14  O4  UNL     1       6.868   8.972  17.250  1.00  0.00    -0.372 OA
HETATM   15  C24 UNL     1       6.310   7.636  17.410  1.00  0.00     0.179 A 
ENDROOT
BRANCH   1  16
HETATM   16  N1  UNL     1       5.351   8.255  15.238  1.00  0.00    -0.325 N 
HETATM   17  C3  UNL     1       5.201   8.156  13.848  1.00  0.00     0.361 C 
HETATM   18  O2  UNL     1       5.428   7.081  13.261  1.00  0.00    -0.238 OA
ATOM     19  H1  UNL     1       5.157   9.154  15.680  1.00  0.00     0.165 HD
BRANCH  17  20
HETATM   20  O1  UNL     1       4.798   9.250  13.111  1.00  0.00    -0.304 OA
BRANCH  20  21
HETATM   21  C2  UNL     1       3.453   9.676  13.227  1.00  0.00     0.176 C 
HETATM   22  C1  UNL     1       3.430  10.820  14.220  1.00  0.00     0.034 C 
ENDBRANCH  20  21
ENDBRANCH  17  20
ENDBRANCH   1  16
BRANCH  10  23
HETATM   23  O3  UNL     1       5.569   7.992  21.710  1.00  0.00    -0.380 OA
BRANCH  23  24
HETATM   24  C14 UNL     1       5.831   6.878  22.566  1.00  0.00     0.122 C 
BRANCH  24  25
HETATM   25  C15 UNL     1       7.272   6.934  22.912  1.00  0.00     0.027 C 
HETATM   26  C16 UNL     1       7.588   7.659  24.223  1.00  0.00     0.007 C 
ENDBRANCH  24  25
BRANCH  24  27
HETATM   27  C17 UNL     1       4.966   7.018  23.771  1.00  0.00     0.035 C 
BRANCH  27  28
HETATM   28  C18 UNL     1       3.687   6.296  23.815  1.00  0.00    -0.020 C 
HETATM   29  C19 UNL     1       3.052   5.962  25.124  1.00  0.00     0.009 C 
HETATM   30  C20 UNL     1       2.593   7.098  23.044  1.00  0.00     0.009 C 
ENDBRANCH  27  28
ENDBRANCH  24  27
ENDBRANCH  23  24
ENDBRANCH  10  23
TORSDOF 8
ENDMDL
MODEL 2
REMARK VINA RESULT: -7.960445761      2.621      4.939
REMARK  8 active torsions:
REMARK  status: ('A' for Active; 'I' for Inactive)
REMARK    1  A    between atoms: C2_2  and  O1_3 
REMARK    2  A    between atoms: O1_3  and  C3_4 
REMARK       I    between atoms: C3_4  and  N1_6 
REMARK    3  A    between atoms: N1_6  and  C4_8 
REMARK    4  A    between atoms: C13_17  and  O3_18 
REMARK    5  A    between atoms: O3_18  and  C14_19 
REMARK    6  A    between atoms: C14_19  and  C15_20 
REMARK    7  A    between atoms: C14_19  and  C17_22 
REMARK    8  A    between atoms: C17_22  and  C18_23 
ROOT
HETATM    1  C4  UNL     1       3.713  11.816  18.368  1.00  0.00     0.060 C 
HETATM    2  C5  UNL     1       2.659  12.831  18.858  1.00  0.00     0.041 C 
HETATM    3  C6  UNL     1       4.873  11.957  19.286  1.00  0.00     0.037 C 
HETATM    4  C7  UNL     1       6.168  11.369  18.818  1.00  0.00     0.030 C 
HETATM    5  C8  UNL     1       6.839  10.640  19.939  1.00  0.00    -0.024 C 
HETATM    6  C9  UNL     1       6.739   9.366  20.200  1.00  0.00    -0.087 C 
HETATM    7  C10 UNL     1       7.494   8.798  21.380  1.00  0.00     0.043 C 
HETATM    8  C11 UNL     1       5.912   8.380  19.406  1.00  0.00     0.036 C 
HETATM    9  C12 UNL     1       4.640   8.230  20.135  1.00  0.00     0.037 C 
HETATM   10  C13 UNL     1       3.476   7.610  19.411  1.00  0.00     0.128 C 
HETATM   11  C21 UNL     1       3.328   8.007  17.999  1.00  0.00     0.042 C 
HETATM   12  C22 UNL     1       4.239   7.164  17.092  1.00  0.00     0.015 C 
HETATM   13  C23 UNL     1       3.531   9.472  17.716  1.00  0.00     0.159 A 
HETATM   14  O4  UNL     1       2.307  10.195  17.249  1.00  0.00    -0.372 OA
HETATM   15  C24 UNL     1       3.034  10.463  18.482  1.00  0.00     0.179 A 
ENDROOT
BRANCH   1  16
HETATM   16  N1  UNL     1       4.016  12.166  17.014  1.00  0.00    -0.325 N 
HETATM   17  C3  UNL     1       3.340  13.162  16.295  1.00  0.00     0.361 C 
HETATM   18  O2  UNL     1       2.413  13.806  16.824  1.00  0.00    -0.238 OA
ATOM     19  H1  UNL     1       4.768  11.662  16.544  1.00  0.00     0.165 HD
BRANCH  17  20
HETATM   20  O1  UNL     1       3.693  13.443  14.992  1.00  0.00    -0.304 OA
BRANCH  20  21
HETATM   21  C2  UNL     1       3.936  12.357  14.117  1.00  0.00     0.176 C 
HETATM   22  C1  UNL     1       2.615  11.642  13.915  1.00  0.00     0.034 C 
ENDBRANCH  20  21
ENDBRANCH  17  20
ENDBRANCH   1  16
BRANCH  10  23
HETATM   23  O3  UNL     1       3.483   6.266  19.641  1.00  0.00    -0.380 OA
BRANCH  23  24
HETATM   24  C14 UNL     1       2.632   5.837  20.706  1.00  0.00     0.122 C 
BRANCH  24  25
HETATM   25  C15 UNL     1       1.972   4.589  20.250  1.00  0.00     0.027 C 
HETATM   26  C16 UNL     1       1.139   4.735  18.975  1.00  0.00     0.007 C 
ENDBRANCH  24  25
BRANCH  24  27
HETATM   27  C17 UNL     1       3.487   5.605  21.905  1.00  0.00     0.035 C 
BRANCH  27  28
HETATM   28  C18 UNL     1       3.481   6.600  22.985  1.00  0.00    -0.020 C 
HETATM   29  C19 UNL     1       2.781   6.316  24.272  1.00  0.00     0.009 C 
HETATM   30  C20 UNL     1       4.945   6.943  23.404  1.00  0.00     0.009 C 
ENDBRANCH  27  28
ENDBRANCH  24  27
ENDBRANCH  23  24
ENDBRANCH  10  23
TORSDOF 8
ENDMDL
MODEL 3
REMARK VINA RESULT: -7.796713595      2.491      4.722
REMARK  8 active torsions:
REMARK  status: ('A' for Active; 'I' for Inactive)
REMARK    1  A    between atoms: C2_2  and  O1_3 
REMARK    2  A    between atoms: O1_3  and  C3_4 
REMARK       I    between atoms: C3_4  and  N1_6 
REMARK    3  A    between atoms: N1_6  and  C4_8 
REMARK    4  A    between atoms: C13_17  and  O3_18 
REMARK    5  A    between atoms: O3_18  and  C14_19 
REMARK    6  A    between atoms: C14_19  and  C15_20 
REMARK    7  A    between atoms: C14_19  and  C17_22 
REMARK    8  A    between atoms: C17_22  and  C18_23 
ROOT
HETATM    1  C4  UNL     1       3.466  11.268  17.659  1.00  0.00     0.060 C 
HETATM    2  C5  UNL     1       2.890  12.441  18.479  1.00  0.00     0.041 C 
HETATM    3  C6  UNL     1       4.935  11.294  17.884  1.00  0.00     0.037 C 
HETATM    4  C7  UNL     1       5.771  10.512  16.919  1.00  0.00     0.030 C 
HETATM    5  C8  UNL     1       6.833   9.754  17.652  1.00  0.00    -0.024 C 
HETATM    6  C9  UNL     1       6.752   8.521  18.067  1.00  0.00    -0.087 C 
HETATM    7  C10 UNL     1       7.930   7.913  18.794  1.00  0.00     0.043 C 
HETATM    8  C11 UNL     1       5.552   7.619  17.882  1.00  0.00     0.036 C 
HETATM    9  C12 UNL     1       4.793   7.681  19.144  1.00  0.00     0.037 C 
HETATM   10  C13 UNL     1       3.371   7.192  19.142  1.00  0.00     0.128 C 
HETATM   11  C21 UNL     1       2.588   7.534  17.941  1.00  0.00     0.042 C 
HETATM   12  C22 UNL     1       2.851   6.531  16.806  1.00  0.00     0.015 C 
HETATM   13  C23 UNL     1       2.765   8.942  17.436  1.00  0.00     0.159 A 
HETATM   14  O4  UNL     1       1.545   9.802  17.538  1.00  0.00    -0.372 OA
HETATM   15  C24 UNL     1       2.805  10.029  18.233  1.00  0.00     0.179 A 
ENDROOT
BRANCH   1  16
HETATM   16  N1  UNL     1       3.098  11.507  16.296  1.00  0.00    -0.325 N 
HETATM   17  C3  UNL     1       3.572  12.585  15.536  1.00  0.00     0.361 C 
HETATM   18  O2  UNL     1       4.362  13.411  16.033  1.00  0.00    -0.238 OA
ATOM     19  H1  UNL     1       2.452  10.854  15.852  1.00  0.00     0.165 HD
BRANCH  17  20
HETATM   20  O1  UNL     1       3.171  12.745  14.226  1.00  0.00    -0.304 OA
BRANCH  20  21
HETATM   21  C2  UNL     1       2.588  11.637  13.566  1.00  0.00     0.176 C 
HETATM   22  C1  UNL     1       3.574  10.491  13.661  1.00  0.00     0.034 C 
ENDBRANCH  20  21
ENDBRANCH  17  20
ENDBRANCH   1  16
BRANCH  10  23
HETATM   23  O3  UNL     1       3.362   5.872  19.486  1.00  0.00    -0.380 OA
BRANCH  23  24
HETATM   24  C14 UNL     1       2.398   5.520  20.481  1.00  0.00     0.122 C 
BRANCH  24  25
HETATM   25  C15 UNL     1       1.726   4.285  20.008  1.00  0.00     0.027 C 
HETATM   26  C16 UNL     1       0.658   4.508  18.934  1.00  0.00     0.007 C 
ENDBRANCH  24  25
BRANCH  24  27
HETATM   27  C17 UNL     1       3.127   5.299  21.761  1.00  0.00     0.035 C 
BRANCH  27  28
HETATM   28  C18 UNL     1       3.457   6.457  22.601  1.00  0.00    -0.020 C 
HETATM   29  C19 UNL     1       3.011   6.513  24.024  1.00  0.00     0.009 C 
HETATM   30  C20 UNL     1       5.006   6.644  22.670  1.00  0.00     0.009 C 
ENDBRANCH  27  28
ENDBRANCH  24  27
ENDBRANCH  23  24
ENDBRANCH  10  23
TORSDOF 8
ENDMDL
MODEL 4
REMARK VINA RESULT: -7.639210805      2.193      7.800
REMARK  8 active torsions:
REMARK  status: ('A' for Active; 'I' for Inactive)
REMARK    1  A    between atoms: C2_2  and  O1_3 
REMARK    2  A    between atoms: O1_3  and  C3_4 
REMARK       I    between atoms: C3_4  and  N1_6 
REMARK    3  A    between atoms: N1_6  and  C4_8 
REMARK    4  A    between atoms: C13_17  and  O3_18 
REMARK    5  A    between atoms: O3_18  and  C14_19 
REMARK    6  A    between atoms: C14_19  and  C15_20 
REMARK    7  A    between atoms: C14_19  and  C17_22 
REMARK    8  A    between atoms: C17_22  and  C18_23 
ROOT
HETATM    1  C4  UNL     1       6.601   8.425  19.863  1.00  0.00     0.060 C 
HETATM    2  C5  UNL     1       8.136   8.303  19.770  1.00  0.00     0.041 C 
HETATM    3  C6  UNL     1       6.325   9.832  20.252  1.00  0.00     0.037 C 
HETATM    4  C7  UNL     1       4.953  10.121  20.776  1.00  0.00     0.030 C 
HETATM    5  C8  UNL     1       4.432  11.394  20.186  1.00  0.00    -0.024 C 
HETATM    6  C9  UNL     1       3.687  11.503  19.122  1.00  0.00    -0.087 C 
HETATM    7  C10 UNL     1       3.251  12.877  18.669  1.00  0.00     0.043 C 
HETATM    8  C11 UNL     1       3.207  10.344  18.277  1.00  0.00     0.036 C 
HETATM    9  C12 UNL     1       4.138  10.253  17.137  1.00  0.00     0.037 C 
HETATM   10  C13 UNL     1       4.147   8.986  16.328  1.00  0.00     0.128 C 
HETATM   11  C21 UNL     1       4.009   7.740  17.104  1.00  0.00     0.042 C 
HETATM   12  C22 UNL     1       2.532   7.441  17.408  1.00  0.00     0.015 C 
HETATM   13  C23 UNL     1       4.819   7.678  18.372  1.00  0.00     0.159 A 
HETATM   14  O4  UNL     1       5.906   6.650  18.370  1.00  0.00    -0.372 OA
HETATM   15  C24 UNL     1       6.099   8.091  18.470  1.00  0.00     0.179 A 
ENDROOT
BRANCH   1  16
HETATM   16  N1  UNL     1       6.176   7.472  20.843  1.00  0.00    -0.325 N 
HETATM   17  C3  UNL     1       6.556   7.516  22.192  1.00  0.00     0.361 C 
HETATM   18  O2  UNL     1       7.307   8.419  22.608  1.00  0.00    -0.238 OA
ATOM     19  H1  UNL     1       5.561   6.715  20.542  1.00  0.00     0.165 HD
BRANCH  17  20
HETATM   20  O1  UNL     1       6.103   6.560  23.076  1.00  0.00    -0.304 OA
BRANCH  20  21
HETATM   21  C2  UNL     1       5.084   6.924  23.988  1.00  0.00     0.176 C 
HETATM   22  C1  UNL     1       3.757   6.688  23.295  1.00  0.00     0.034 C 
ENDBRANCH  20  21
ENDBRANCH  17  20
ENDBRANCH   1  16
BRANCH  10  23
HETATM   23  O3  UNL     1       3.275   9.124  15.288  1.00  0.00    -0.380 OA
BRANCH  23  24
HETATM   24  C14 UNL     1       3.689  10.045  14.278  1.00  0.00     0.122 C 
BRANCH  24  25
HETATM   25  C15 UNL     1       3.740   9.289  13.003  1.00  0.00     0.027 C 
HETATM   26  C16 UNL     1       3.404   7.800  13.128  1.00  0.00     0.007 C 
ENDBRANCH  24  25
BRANCH  24  27
HETATM   27  C17 UNL     1       2.687  11.146  14.229  1.00  0.00     0.035 C 
BRANCH  27  28
HETATM   28  C18 UNL     1       3.158  12.537  14.234  1.00  0.00    -0.020 C 
HETATM   29  C19 UNL     1       2.504  13.555  15.108  1.00  0.00     0.009 C 
HETATM   30  C20 UNL     1       4.666  12.591  14.633  1.00  0.00     0.009 C 
ENDBRANCH  27  28
ENDBRANCH  24  27
ENDBRANCH  23  24
ENDBRANCH  10  23
TORSDOF 8
ENDMDL
MODEL 5
REMARK VINA RESULT: -7.636842773      2.804      5.326
REMARK  8 active torsions:
REMARK  status: ('A' for Active; 'I' for Inactive)
REMARK    1  A    between atoms: C2_2  and  O1_3 
REMARK    2  A    between atoms: O1_3  and  C3_4 
REMARK       I    between atoms: C3_4  and  N1_6 
REMARK    3  A    between atoms: N1_6  and  C4_8 
REMARK    4  A    between atoms: C13_17  and  O3_18 
REMARK    5  A    between atoms: O3_18  and  C14_19 
REMARK    6  A    between atoms: C14_19  and  C15_20 
REMARK    7  A    between atoms: C14_19  and  C17_22 
REMARK    8  A    between atoms: C17_22  and  C18_23 
ROOT
HETATM    1  C4  UNL     1       3.770  11.659  18.396  1.00  0.00     0.060 C 
HETATM    2  C5  UNL     1       2.680  12.592  18.967  1.00  0.00     0.041 C 
HETATM    3  C6  UNL     1       4.863  11.645  19.403  1.00  0.00     0.037 C 
HETATM    4  C7  UNL     1       6.190  11.130  18.937  1.00  0.00     0.030 C 
HETATM    5  C8  UNL     1       6.785  10.228  19.972  1.00  0.00    -0.024 C 
HETATM    6  C9  UNL     1       6.672   8.930  20.021  1.00  0.00    -0.087 C 
HETATM    7  C10 UNL     1       7.346   8.176  21.144  1.00  0.00     0.043 C 
HETATM    8  C11 UNL     1       5.906   8.088  19.025  1.00  0.00     0.036 C 
HETATM    9  C12 UNL     1       4.587   7.833  19.631  1.00  0.00     0.037 C 
HETATM   10  C13 UNL     1       3.479   7.344  18.740  1.00  0.00     0.128 C 
HETATM   11  C21 UNL     1       3.427   7.960  17.402  1.00  0.00     0.042 C 
HETATM   12  C22 UNL     1       4.402   7.265  16.437  1.00  0.00     0.015 C 
HETATM   13  C23 UNL     1       3.643   9.450  17.369  1.00  0.00     0.159 A 
HETATM   14  O4  UNL     1       2.452  10.246  16.940  1.00  0.00    -0.372 OA
HETATM   15  C24 UNL     1       3.090  10.311  18.247  1.00  0.00     0.179 A 
ENDROOT
BRANCH   1  16
HETATM   16  N1  UNL     1       4.164  12.218  17.139  1.00  0.00    -0.325 N 
HETATM   17  C3  UNL     1       3.430  13.197  16.454  1.00  0.00     0.361 C 
HETATM   18  O2  UNL     1       2.365  13.636  16.929  1.00  0.00    -0.238 OA
ATOM     19  H1  UNL     1       5.030  11.885  16.715  1.00  0.00     0.165 HD
BRANCH  17  20
HETATM   20  O1  UNL     1       3.878  13.687  15.246  1.00  0.00    -0.304 OA
BRANCH  20  21
HETATM   21  C2  UNL     1       4.101  12.768  14.193  1.00  0.00     0.176 C 
HETATM   22  C1  UNL     1       2.796  12.034  13.957  1.00  0.00     0.034 C 
ENDBRANCH  20  21
ENDBRANCH  17  20
ENDBRANCH   1  16
BRANCH  10  23
HETATM   23  O3  UNL     1       3.476   5.980  18.754  1.00  0.00    -0.380 OA
BRANCH  23  24
HETATM   24  C14 UNL     1       2.237   5.388  19.153  1.00  0.00     0.122 C 
BRANCH  24  25
HETATM   25  C15 UNL     1       2.528   4.544  20.337  1.00  0.00     0.027 C 
HETATM   26  C16 UNL     1       2.951   5.319  21.588  1.00  0.00     0.007 C 
ENDBRANCH  24  25
BRANCH  24  27
HETATM   27  C17 UNL     1       1.291   6.492  19.478  1.00  0.00     0.035 C 
BRANCH  27  28
HETATM   28  C18 UNL     1       0.105   6.684  18.635  1.00  0.00    -0.020 C 
HETATM   29  C19 UNL     1      -0.231   8.035  18.095  1.00  0.00     0.009 C 
HETATM   30  C20 UNL     1       0.192   5.770  17.372  1.00  0.00     0.009 C 
ENDBRANCH  27  28
ENDBRANCH  24  27
ENDBRANCH  23  24
ENDBRANCH  10  23
TORSDOF 8
ENDMDL
