MODEL 1
REMARK VINA RESULT: -8.088183276      0.000      0.000
REMARK  9 active torsions:
REMARK  status: ('A' for Active; 'I' for Inactive)
REMARK    1  A    between atoms: C2_2  and  C3_3 
REMARK    2  A    between atoms: C2_2  and  C13_20 
REMARK    3  A    between atoms: C3_3  and  C4_4 
REMARK    4  A    between atoms: C4_4  and  C5_5 
REMARK    5  A    between atoms: C5_5  and  C6_6 
REMARK    6  A    between atoms: C6_6  and  N2_16 
REMARK       I    between atoms: N1_7  and  C7_9 
REMARK    7  A    between atoms: C7_9  and  O2_11 
REMARK    8  A    between atoms: O2_11  and  C8_12 
REMARK    9  A    between atoms: N2_16  and  C12_18 
ROOT
HETATM    1  C3  UNL     1       6.736   9.085  20.835  1.00  0.00     0.005 C 
ENDROOT
BRANCH   1   2
HETATM    2  C2  UNL     1       6.682   8.056  19.740  1.00  0.00    -0.014 C 
HETATM    3  C1  UNL     1       7.964   7.346  19.506  1.00  0.00     0.010 C 
BRANCH   2   4
HETATM    4  C13 UNL     1       5.605   7.085  20.091  1.00  0.00    -0.002 C 
HETATM    5  C14 UNL     1       4.861   7.543  21.355  1.00  0.00     0.006 C 
HETATM    6  C15 UNL     1       3.537   6.830  21.325  1.00  0.00     0.007 C 
HETATM    7  C16 UNL     1       3.570   6.072  20.064  1.00  0.00     0.009 C 
HETATM    8  C17 UNL     1       2.285   5.654  19.483  1.00  0.00     0.017 C 
HETATM    9  C23 UNL     1       4.448   6.955  19.166  1.00  0.00    -0.035 C 
HETATM   10  C18 UNL     1       1.799   4.451  20.308  1.00  0.00     0.023 C 
HETATM   11  C19 UNL     1       1.186   6.641  19.461  1.00  0.00     0.023 C 
HETATM   12  C20 UNL     1       2.527   5.127  18.112  1.00  0.00     0.135 C 
HETATM   13  O4  UNL     1       2.025   4.066  17.716  1.00  0.00    -0.297 OA
HETATM   14  C21 UNL     1       3.384   5.873  17.188  1.00  0.00     0.080 C 
HETATM   15  C22 UNL     1       4.701   6.306  17.853  1.00  0.00     0.017 C 
HETATM   16  C24 UNL     1       3.782   8.302  18.916  1.00  0.00     0.016 C 
ENDBRANCH   2   4
ENDBRANCH   1   2
BRANCH   1  17
HETATM   17  C4  UNL     1       6.842  10.490  20.382  1.00  0.00     0.008 C 
BRANCH  17  18
HETATM   18  C5  UNL     1       5.495  11.211  20.293  1.00  0.00     0.076 C 
BRANCH  18  19
HETATM   19  C6  UNL     1       5.288  11.554  18.869  1.00  0.00     0.087 C 
HETATM   20  N1  UNL     1       6.039  11.021  17.939  1.00  0.00    -0.292 N 
HETATM   21  C7  UNL     1       5.877  11.317  16.575  1.00  0.00     0.366 C 
ATOM     22  H1  UNL     1       6.771  10.365  18.215  1.00  0.00     0.172 HD
HETATM   23  O1  UNL     1       6.213  12.424  16.046  1.00  0.00    -0.238 OA
BRANCH  21  24
HETATM   24  O2  UNL     1       5.323  10.373  15.729  1.00  0.00    -0.294 OA
BRANCH  24  25
HETATM   25  C8  UNL     1       4.012  10.396  15.245  1.00  0.00     0.061 C 
HETATM   26  C9  UNL     1       3.541  11.795  14.902  1.00  0.00     0.046 C 
HETATM   27  C10 UNL     1       3.989   9.599  13.937  1.00  0.00     0.046 C 
HETATM   28  C11 UNL     1       3.009   9.756  16.161  1.00  0.00     0.046 C 
ENDBRANCH  24  25
ENDBRANCH  21  24
BRANCH  19  29
HETATM   29  N2  UNL     1       4.284  12.451  18.467  1.00  0.00    -0.324 N 
ATOM     30  H2  UNL     1       4.556  13.286  17.946  1.00  0.00     0.169 HD
BRANCH  29  31
HETATM   31  C12 UNL     1       2.927  12.251  18.750  1.00  0.00     0.354 C 
HETATM   32  O3  UNL     1       2.202  13.174  19.130  1.00  0.00    -0.283 OA
ENDBRANCH  29  31
ENDBRANCH  19  29
ENDBRANCH  18  19
ENDBRANCH  17  18
ENDBRANCH   1  17
TORSDOF 9
ENDMDL
MODEL 2
REMARK VINA RESULT: -8.078971721      2.516      5.352
REMARK  9 active torsions:
REMARK  status: ('A' for Active; 'I' for Inactive)
REMARK    1  A    between atoms: C2_2  and  C3_3 
REMARK    2  A    between atoms: C2_2  and  C13_20 
REMARK    3  A    between atoms: C3_3  and  C4_4 
REMARK    4  A    between atoms: C4_4  and  C5_5 
REMARK    5  A    between atoms: C5_5  and  C6_6 
REMARK    6  A    between atoms: C6_6  and  N2_16 
REMARK       I    between atoms: N1_7  and  C7_9 
REMARK    7  A    between atoms: C7_9  and  O2_11 
REMARK    8  A    between atoms: O2_11  and  C8_12 
REMARK    9  A    between atoms: N2_16  and  C12_18 
ROOT
HETATM    1  C3  UNL     1       2.090   9.672  17.627  1.00  0.00     0.005 C 
ENDROOT
BRANCH   1   2
HETATM    2  C2  UNL     1       2.492   8.223  17.632  1.00  0.00    -0.014 C 
HETATM    3  C1  UNL     1       1.354   7.275  17.714  1.00  0.00     0.010 C 
BRANCH   2   4
HETATM    4  C13 UNL     1       3.289   7.975  16.395  1.00  0.00    -0.002 C 
HETATM    5  C14 UNL     1       3.534   9.292  15.642  1.00  0.00     0.006 C 
HETATM    6  C15 UNL     1       4.720   9.034  14.754  1.00  0.00     0.007 C 
HETATM    7  C16 UNL     1       5.111   7.652  15.074  1.00  0.00     0.009 C 
HETATM    8  C17 UNL     1       6.488   7.240  14.761  1.00  0.00     0.017 C 
HETATM    9  C23 UNL     1       4.697   7.520  16.547  1.00  0.00    -0.035 C 
HETATM   10  C18 UNL     1       6.545   7.008  13.243  1.00  0.00     0.023 C 
HETATM   11  C19 UNL     1       7.580   8.174  15.103  1.00  0.00     0.023 C 
HETATM   12  C20 UNL     1       6.741   5.909  15.378  1.00  0.00     0.135 C 
HETATM   13  O4  UNL     1       7.281   4.986  14.753  1.00  0.00    -0.297 OA
HETATM   14  C21 UNL     1       6.347   5.665  16.767  1.00  0.00     0.080 C 
HETATM   15  C22 UNL     1       4.910   6.136  17.045  1.00  0.00     0.017 C 
HETATM   16  C24 UNL     1       5.499   8.475  17.421  1.00  0.00     0.016 C 
ENDBRANCH   2   4
ENDBRANCH   1   2
BRANCH   1  17
HETATM   17  C4  UNL     1       2.525  10.457  18.804  1.00  0.00     0.008 C 
BRANCH  17  18
HETATM   18  C5  UNL     1       3.270  11.743  18.444  1.00  0.00     0.076 C 
BRANCH  18  19
HETATM   19  C6  UNL     1       4.649  11.597  18.959  1.00  0.00     0.087 C 
HETATM   20  N1  UNL     1       4.906  10.784  19.953  1.00  0.00    -0.292 N 
HETATM   21  C7  UNL     1       6.200  10.613  20.474  1.00  0.00     0.366 C 
ATOM     22  H1  UNL     1       4.137  10.255  20.366  1.00  0.00     0.172 HD
HETATM   23  O1  UNL     1       6.798  11.482  21.185  1.00  0.00    -0.238 OA
BRANCH  21  24
HETATM   24  O2  UNL     1       6.894   9.444  20.218  1.00  0.00    -0.294 OA
BRANCH  24  25
HETATM   25  C8  UNL     1       6.690   8.226  20.873  1.00  0.00     0.061 C 
HETATM   26  C9  UNL     1       5.248   7.764  20.809  1.00  0.00     0.046 C 
HETATM   27  C10 UNL     1       7.518   7.164  20.143  1.00  0.00     0.046 C 
HETATM   28  C11 UNL     1       7.140   8.218  22.305  1.00  0.00     0.046 C 
ENDBRANCH  24  25
ENDBRANCH  21  24
BRANCH  19  29
HETATM   29  N2  UNL     1       5.723  12.313  18.404  1.00  0.00    -0.324 N 
ATOM     30  H2  UNL     1       6.104  13.104  18.924  1.00  0.00     0.169 HD
BRANCH  29  31
HETATM   31  C12 UNL     1       6.294  11.988  17.166  1.00  0.00     0.354 C 
HETATM   32  O3  UNL     1       5.772  12.335  16.103  1.00  0.00    -0.283 OA
ENDBRANCH  29  31
ENDBRANCH  19  29
ENDBRANCH  18  19
ENDBRANCH  17  18
ENDBRANCH   1  17
TORSDOF 9
ENDMDL
MODEL 3
REMARK VINA RESULT: -8.055094727      2.064      3.624
REMARK  9 active torsions:
REMARK  status: ('A' for Active; 'I' for Inactive)
REMARK    1  A    between atoms: C2_2  and  C3_3 
REMARK    2  A    between atoms: C2_2  and  C13_20 
REMARK    3  A    between atoms: C3_3  and  C4_4 
REMARK    4  A    between atoms: C4_4  and  C5_5 
REMARK    5  A    between atoms: C5_5  and  C6_6 
REMARK    6  A    between atoms: C6_6  and  N2_16 
REMARK       I    between atoms: N1_7  and  C7_9 
REMARK    7  A    between atoms: C7_9  and  O2_11 
REMARK    8  A    between atoms: O2_11  and  C8_12 
REMARK    9  A    between atoms: N2_16  and  C12_18 
ROOT
HETATM    1  C3  UNL     1       6.307   7.816  20.255  1.00  0.00     0.005 C 
ENDROOT
BRANCH   1   2
HETATM    2  C2  UNL     1       5.348   6.886  20.943  1.00  0.00    -0.014 C 
HETATM    3  C1  UNL     1       5.380   6.962  22.425  1.00  0.00     0.010 C 
BRANCH   2   4
HETATM    4  C13 UNL     1       3.980   7.196  20.435  1.00  0.00    -0.002 C 
HETATM    5  C14 UNL     1       4.019   8.419  19.505  1.00  0.00     0.006 C 
HETATM    6  C15 UNL     1       2.766   8.336  18.675  1.00  0.00     0.007 C 
HETATM    7  C16 UNL     1       2.128   7.086  19.120  1.00  0.00     0.009 C 
HETATM    8  C17 UNL     1       1.162   6.451  18.212  1.00  0.00     0.017 C 
HETATM    9  C23 UNL     1       3.332   6.220  19.520  1.00  0.00    -0.035 C 
HETATM   10  C18 UNL     1      -0.138   7.265  18.311  1.00  0.00     0.023 C 
HETATM   11  C19 UNL     1       1.516   6.366  16.780  1.00  0.00     0.023 C 
HETATM   12  C20 UNL     1       0.828   5.098  18.737  1.00  0.00     0.135 C 
HETATM   13  O4  UNL     1      -0.340   4.692  18.812  1.00  0.00    -0.297 OA
HETATM   14  C21 UNL     1       1.900   4.207  19.184  1.00  0.00     0.080 C 
HETATM   15  C22 UNL     1       2.894   4.928  20.110  1.00  0.00     0.017 C 
HETATM   16  C24 UNL     1       4.209   5.924  18.311  1.00  0.00     0.016 C 
ENDBRANCH   2   4
ENDBRANCH   1   2
BRANCH   1  17
HETATM   17  C4  UNL     1       7.177   7.191  19.233  1.00  0.00     0.008 C 
BRANCH  17  18
HETATM   18  C5  UNL     1       7.836   8.198  18.288  1.00  0.00     0.076 C 
BRANCH  18  19
HETATM   19  C6  UNL     1       6.979   8.279  17.085  1.00  0.00     0.087 C 
HETATM   20  N1  UNL     1       5.902   9.025  17.083  1.00  0.00    -0.292 N 
HETATM   21  C7  UNL     1       5.060   9.133  15.964  1.00  0.00     0.366 C 
ATOM     22  H1  UNL     1       5.666   9.548  17.927  1.00  0.00     0.172 HD
HETATM   23  O1  UNL     1       4.276   8.208  15.576  1.00  0.00    -0.238 OA
BRANCH  21  24
HETATM   24  O2  UNL     1       5.056  10.297  15.217  1.00  0.00    -0.294 OA
BRANCH  24  25
HETATM   25  C8  UNL     1       4.241  11.406  15.457  1.00  0.00     0.061 C 
HETATM   26  C9  UNL     1       4.979  12.719  15.291  1.00  0.00     0.046 C 
HETATM   27  C10 UNL     1       3.128  11.398  14.406  1.00  0.00     0.046 C 
HETATM   28  C11 UNL     1       3.570  11.394  16.800  1.00  0.00     0.046 C 
ENDBRANCH  24  25
ENDBRANCH  21  24
BRANCH  19  29
HETATM   29  N2  UNL     1       7.287   7.570  15.912  1.00  0.00    -0.324 N 
ATOM     30  H2  UNL     1       7.472   8.096  15.058  1.00  0.00     0.169 HD
BRANCH  29  31
HETATM   31  C12 UNL     1       7.351   6.171  15.865  1.00  0.00     0.354 C 
HETATM   32  O3  UNL     1       6.388   5.492  15.502  1.00  0.00    -0.283 OA
ENDBRANCH  29  31
ENDBRANCH  19  29
ENDBRANCH  18  19
ENDBRANCH  17  18
ENDBRANCH   1  17
TORSDOF 9
ENDMDL
MODEL 4
REMARK VINA RESULT: -7.916153893      2.451      6.093
REMARK  9 active torsions:
REMARK  status: ('A' for Active; 'I' for Inactive)
REMARK    1  A    between atoms: C2_2  and  C3_3 
REMARK    2  A    between atoms: C2_2  and  C13_20 
REMARK    3  A    between atoms: C3_3  and  C4_4 
REMARK    4  A    between atoms: C4_4  and  C5_5 
REMARK    5  A    between atoms: C5_5  and  C6_6 
REMARK    6  A    between atoms: C6_6  and  N2_16 
REMARK       I    between atoms: N1_7  and  C7_9 
REMARK    7  A    between atoms: C7_9  and  O2_11 
REMARK    8  A    between atoms: O2_11  and  C8_12 
REMARK    9  A    between atoms: N2_16  and  C12_18 
ROOT
HETATM    1  C3  UNL     1       4.220   8.395  20.645  1.00  0.00     0.005 C 
ENDROOT
BRANCH   1   2
HETATM    2  C2  UNL     1       5.238   9.234  19.926  1.00  0.00    -0.014 C 
HETATM    3  C1  UNL     1       6.565   8.588  19.774  1.00  0.00     0.010 C 
BRANCH   2   4
HETATM    4  C13 UNL     1       4.671   9.579  18.589  1.00  0.00    -0.002 C 
HETATM    5  C14 UNL     1       3.135   9.551  18.636  1.00  0.00     0.006 C 
HETATM    6  C15 UNL     1       2.680  10.377  17.464  1.00  0.00     0.007 C 
HETATM    7  C16 UNL     1       3.933  10.862  16.863  1.00  0.00     0.009 C 
HETATM    8  C17 UNL     1       3.866  12.061  16.014  1.00  0.00     0.017 C 
HETATM    9  C23 UNL     1       4.869  10.961  18.077  1.00  0.00    -0.035 C 
HETATM   10  C18 UNL     1       3.279  11.614  14.665  1.00  0.00     0.023 C 
HETATM   11  C19 UNL     1       3.051  13.197  16.491  1.00  0.00     0.023 C 
HETATM   12  C20 UNL     1       5.252  12.515  15.715  1.00  0.00     0.135 C 
HETATM   13  O4  UNL     1       5.611  12.824  14.570  1.00  0.00    -0.297 OA
HETATM   14  C21 UNL     1       6.236  12.605  16.795  1.00  0.00     0.080 C 
HETATM   15  C22 UNL     1       6.248  11.337  17.665  1.00  0.00     0.017 C 
HETATM   16  C24 UNL     1       4.362  12.000  19.067  1.00  0.00     0.016 C 
ENDBRANCH   2   4
ENDBRANCH   1   2
BRANCH   1  17
HETATM   17  C4  UNL     1       4.402   6.931  20.525  1.00  0.00     0.008 C 
BRANCH  17  18
HETATM   18  C5  UNL     1       3.100   6.168  20.277  1.00  0.00     0.076 C 
BRANCH  18  19
HETATM   19  C6  UNL     1       3.112   5.755  18.856  1.00  0.00     0.087 C 
HETATM   20  N1  UNL     1       3.818   6.418  17.975  1.00  0.00    -0.292 N 
HETATM   21  C7  UNL     1       3.859   6.061  16.616  1.00  0.00     0.366 C 
ATOM     22  H1  UNL     1       4.359   7.225  18.287  1.00  0.00     0.172 HD
HETATM   23  O1  UNL     1       2.895   6.245  15.806  1.00  0.00    -0.238 OA
BRANCH  21  24
HETATM   24  O2  UNL     1       4.998   5.474  16.096  1.00  0.00    -0.294 OA
BRANCH  24  25
HETATM   25  C8  UNL     1       6.239   6.101  15.961  1.00  0.00     0.061 C 
HETATM   26  C9  UNL     1       6.114   7.588  15.696  1.00  0.00     0.046 C 
HETATM   27  C10 UNL     1       6.976   5.960  17.296  1.00  0.00     0.046 C 
HETATM   28  C11 UNL     1       7.123   5.493  14.911  1.00  0.00     0.046 C 
ENDBRANCH  24  25
ENDBRANCH  21  24
BRANCH  19  29
HETATM   29  N2  UNL     1       2.377   4.645  18.406  1.00  0.00    -0.324 N 
ATOM     30  H2  UNL     1       2.862   3.920  17.878  1.00  0.00     0.169 HD
BRANCH  29  31
HETATM   31  C12 UNL     1       1.006   4.491  18.651  1.00  0.00     0.354 C 
HETATM   32  O3  UNL     1       0.158   5.061  17.959  1.00  0.00    -0.283 OA
ENDBRANCH  29  31
ENDBRANCH  19  29
ENDBRANCH  18  19
ENDBRANCH  17  18
ENDBRANCH   1  17
TORSDOF 9
ENDMDL
MODEL 5
REMARK VINA RESULT: -7.893962918      2.293      4.788
REMARK  9 active torsions:
REMARK  status: ('A' for Active; 'I' for Inactive)
REMARK    1  A    between atoms: C2_2  and  C3_3 
REMARK    2  A    between atoms: C2_2  and  C13_20 
REMARK    3  A    between atoms: C3_3  and  C4_4 
REMARK    4  A    between atoms: C4_4  and  C5_5 
REMARK    5  A    between atoms: C5_5  and  C6_6 
REMARK    6  A    between atoms: C6_6  and  N2_16 
REMARK       I    between atoms: N1_7  and  C7_9 
REMARK    7  A    between atoms: C7_9  and  O2_11 
REMARK    8  A    between atoms: O2_11  and  C8_12 
REMARK    9  A    between atoms: N2_16  and  C12_18 
ROOT
HETATM    1  C3  UNL     1       5.383   8.763  16.068  1.00  0.00     0.005 C 
ENDROOT
BRANCH   1   2
HETATM    2  C2  UNL     1       4.030   8.232  15.686  1.00  0.00    -0.014 C 
HETATM    3  C1  UNL     1       3.869   7.955  14.237  1.00  0.00     0.010 C 
BRANCH   2   4
HETATM    4  C13 UNL     1       3.793   6.992  16.482  1.00  0.00    -0.002 C 
HETATM    5  C14 UNL     1       4.993   6.708  17.399  1.00  0.00     0.006 C 
HETATM    6  C15 UNL     1       4.470   5.800  18.479  1.00  0.00     0.007 C 
HETATM    7  C16 UNL     1       3.039   5.662  18.164  1.00  0.00     0.009 C 
HETATM    8  C17 UNL     1       2.137   5.251  19.251  1.00  0.00     0.017 C 
HETATM    9  C23 UNL     1       2.711   7.008  17.502  1.00  0.00    -0.035 C 
HETATM   10  C18 UNL     1       2.340   3.740  19.446  1.00  0.00     0.023 C 
HETATM   11  C19 UNL     1       2.314   5.891  20.571  1.00  0.00     0.023 C 
HETATM   12  C20 UNL     1       0.730   5.409  18.790  1.00  0.00     0.135 C 
HETATM   13  O4  UNL     1      -0.122   4.527  18.963  1.00  0.00    -0.297 OA
HETATM   14  C21 UNL     1       0.322   6.640  18.110  1.00  0.00     0.080 C 
HETATM   15  C22 UNL     1       1.311   7.035  17.001  1.00  0.00     0.017 C 
HETATM   16  C24 UNL     1       2.892   8.154  18.488  1.00  0.00     0.016 C 
ENDBRANCH   2   4
ENDBRANCH   1   2
BRANCH   1  17
HETATM   17  C4  UNL     1       5.374   9.977  16.915  1.00  0.00     0.008 C 
BRANCH  17  18
HETATM   18  C5  UNL     1       6.579  10.081  17.853  1.00  0.00     0.076 C 
BRANCH  18  19
HETATM   19  C6  UNL     1       6.042  10.206  19.226  1.00  0.00     0.087 C 
HETATM   20  N1  UNL     1       5.818   9.140  19.953  1.00  0.00    -0.292 N 
HETATM   21  C7  UNL     1       5.310   9.212  21.262  1.00  0.00     0.366 C 
ATOM     22  H1  UNL     1       6.020   8.223  19.555  1.00  0.00     0.172 HD
HETATM   23  O1  UNL     1       4.104   9.509  21.538  1.00  0.00    -0.238 OA
BRANCH  21  24
HETATM   24  O2  UNL     1       6.141   8.951  22.336  1.00  0.00    -0.294 OA
BRANCH  24  25
HETATM   25  C8  UNL     1       6.322   7.699  22.929  1.00  0.00     0.061 C 
HETATM   26  C9  UNL     1       6.861   6.667  21.959  1.00  0.00     0.046 C 
HETATM   27  C10 UNL     1       7.380   7.855  24.026  1.00  0.00     0.046 C 
HETATM   28  C11 UNL     1       5.091   7.150  23.588  1.00  0.00     0.046 C 
ENDBRANCH  24  25
ENDBRANCH  21  24
BRANCH  19  29
HETATM   29  N2  UNL     1       5.760  11.459  19.794  1.00  0.00    -0.324 N 
ATOM     30  H2  UNL     1       6.373  11.810  20.531  1.00  0.00     0.169 HD
BRANCH  29  31
HETATM   31  C12 UNL     1       4.674  12.249  19.394  1.00  0.00     0.354 C 
HETATM   32  O3  UNL     1       3.524  11.801  19.368  1.00  0.00    -0.283 OA
ENDBRANCH  29  31
ENDBRANCH  19  29
ENDBRANCH  18  19
ENDBRANCH  17  18
ENDBRANCH   1  17
TORSDOF 9
ENDMDL
