MODEL 1
REMARK VINA RESULT: -9.053633406      0.000      0.000
REMARK  8 active torsions:
REMARK  status: ('A' for Active; 'I' for Inactive)
REMARK    1  A    between atoms: C2_2  and  C4_4 
REMARK    2  A    between atoms: C7_7  and  C8_8 
REMARK    3  A    between atoms: C9_11  and  C10_12 
REMARK    4  A    between atoms: C11_13  and  C12_14 
REMARK    5  A    between atoms: C13_15  and  C14_16 
REMARK    6  A    between atoms: C15_17  and  C16_18 
REMARK    7  A    between atoms: C21_23  and  C22_24 
REMARK    8  A    between atoms: C22_24  and  O3_27 
ROOT
HETATM    1  C14 UNL     1       3.100  10.435  16.827  1.00  0.00    -0.003 C 
HETATM    2  C15 UNL     1       3.213   9.307  16.181  1.00  0.00    -0.014 C 
ENDROOT
BRANCH   1   3
HETATM    3  C13 UNL     1       3.371  10.652  18.233  1.00  0.00    -0.000 C 
HETATM    4  C12 UNL     1       4.594  10.999  18.651  1.00  0.00    -0.000 C 
BRANCH   4   5
HETATM    5  C11 UNL     1       4.827  11.206  20.055  1.00  0.00    -0.004 C 
HETATM    6  C10 UNL     1       5.419  10.325  20.818  1.00  0.00    -0.021 C 
BRANCH   6   7
HETATM    7  C9  UNL     1       5.938   9.020  20.417  1.00  0.00     0.027 C 
HETATM    8  C4  UNL     1       5.560   7.847  21.228  1.00  0.00    -0.003 C 
HETATM    9  C5  UNL     1       6.803   6.976  21.224  1.00  0.00     0.006 C 
HETATM   10  C6  UNL     1       7.714   7.525  20.154  1.00  0.00     0.016 C 
HETATM   11  C7  UNL     1       7.448   9.004  20.283  1.00  0.00     0.095 C 
BRANCH   8  12
HETATM   12  C2  UNL     1       5.096   8.123  22.640  1.00  0.00    -0.018 C 
HETATM   13  C1  UNL     1       5.942   7.281  23.623  1.00  0.00     0.010 C 
HETATM   14  C3  UNL     1       3.674   7.659  22.864  1.00  0.00     0.010 C 
ENDBRANCH   8  12
BRANCH  11  15
HETATM   15  C8  UNL     1       8.190   9.514  21.421  1.00  0.00     0.177 C 
HETATM   16  O1  UNL     1       8.817  10.596  21.324  1.00  0.00    -0.648 OA
HETATM   17  O2  UNL     1       8.283   8.896  22.673  1.00  0.00    -0.648 OA
ENDBRANCH  11  15
ENDBRANCH   6   7
ENDBRANCH   4   5
ENDBRANCH   1   3
BRANCH   2  18
HETATM   18  C16 UNL     1       3.655   8.030  16.826  1.00  0.00     0.007 C 
HETATM   19  C17 UNL     1       5.127   7.808  16.741  1.00  0.00     0.017 C 
HETATM   20  C18 UNL     1       4.949   6.710  15.727  1.00  0.00     0.007 C 
HETATM   21  C19 UNL     1       3.433   6.816  15.929  1.00  0.00     0.003 C 
HETATM   22  C20 UNL     1       2.886   5.631  16.652  1.00  0.00     0.047 C 
HETATM   23  C21 UNL     1       2.373   6.012  18.017  1.00  0.00     0.094 C 
HETATM   24  C25 UNL     1       3.458   6.624  18.873  1.00  0.00     0.074 C 
HETATM   25  O4  UNL     1       1.733   7.226  18.032  1.00  0.00    -0.370 OA
HETATM   26  C26 UNL     1       2.992   7.842  18.150  1.00  0.00     0.138 C 
BRANCH  23  27
HETATM   27  C22 UNL     1       1.695   4.886  18.738  1.00  0.00     0.082 C 
HETATM   28  C23 UNL     1       2.071   4.840  20.202  1.00  0.00     0.049 C 
HETATM   29  C24 UNL     1       0.203   5.031  18.564  1.00  0.00     0.049 C 
BRANCH  27  30
HETATM   30  O3  UNL     1       2.110   3.694  18.147  1.00  0.00    -0.388 OA
ATOM     31  H3  UNL     1       2.184   3.042  18.834  1.00  0.00     0.210 HD
ENDBRANCH  27  30
ENDBRANCH  23  27
ENDBRANCH   2  18
TORSDOF 8
ENDMDL
MODEL 2
REMARK VINA RESULT: -8.738655052      2.106      4.156
REMARK  8 active torsions:
REMARK  status: ('A' for Active; 'I' for Inactive)
REMARK    1  A    between atoms: C2_2  and  C4_4 
REMARK    2  A    between atoms: C7_7  and  C8_8 
REMARK    3  A    between atoms: C9_11  and  C10_12 
REMARK    4  A    between atoms: C11_13  and  C12_14 
REMARK    5  A    between atoms: C13_15  and  C14_16 
REMARK    6  A    between atoms: C15_17  and  C16_18 
REMARK    7  A    between atoms: C21_23  and  C22_24 
REMARK    8  A    between atoms: C22_24  and  O3_27 
ROOT
HETATM    1  C14 UNL     1       1.684   5.372  18.716  1.00  0.00    -0.003 C 
HETATM    2  C15 UNL     1       2.303   5.455  17.571  1.00  0.00    -0.014 C 
ENDROOT
BRANCH   1   3
HETATM    3  C13 UNL     1       1.901   6.214  19.874  1.00  0.00    -0.000 C 
HETATM    4  C12 UNL     1       2.752   5.847  20.839  1.00  0.00    -0.000 C 
BRANCH   4   5
HETATM    5  C11 UNL     1       2.943   6.708  21.976  1.00  0.00    -0.004 C 
HETATM    6  C10 UNL     1       4.062   7.341  22.213  1.00  0.00    -0.021 C 
BRANCH   6   7
HETATM    7  C9  UNL     1       5.282   7.303  21.409  1.00  0.00     0.027 C 
HETATM    8  C4  UNL     1       6.575   7.249  22.119  1.00  0.00    -0.003 C 
HETATM    9  C5  UNL     1       7.502   8.096  21.265  1.00  0.00     0.006 C 
HETATM   10  C6  UNL     1       6.796   8.323  19.951  1.00  0.00     0.016 C 
HETATM   11  C7  UNL     1       5.365   8.441  20.412  1.00  0.00     0.095 C 
BRANCH   8  12
HETATM   12  C2  UNL     1       6.578   7.721  23.554  1.00  0.00    -0.018 C 
HETATM   13  C1  UNL     1       7.949   7.395  24.191  1.00  0.00     0.010 C 
HETATM   14  C3  UNL     1       5.575   6.964  24.396  1.00  0.00     0.010 C 
ENDBRANCH   8  12
BRANCH  11  15
HETATM   15  C8  UNL     1       5.158   9.772  20.952  1.00  0.00     0.177 C 
HETATM   16  O1  UNL     1       3.995  10.235  21.043  1.00  0.00    -0.648 OA
HETATM   17  O2  UNL     1       6.165  10.632  21.403  1.00  0.00    -0.648 OA
ENDBRANCH  11  15
ENDBRANCH   6   7
ENDBRANCH   4   5
ENDBRANCH   1   3
BRANCH   2  18
HETATM   18  C16 UNL     1       3.365   6.470  17.281  1.00  0.00     0.007 C 
HETATM   19  C17 UNL     1       3.122   7.780  17.951  1.00  0.00     0.017 C 
HETATM   20  C18 UNL     1       2.769   8.436  16.643  1.00  0.00     0.007 C 
HETATM   21  C19 UNL     1       3.174   7.143  15.925  1.00  0.00     0.003 C 
HETATM   22  C20 UNL     1       4.443   7.309  15.158  1.00  0.00     0.047 C 
HETATM   23  C21 UNL     1       5.554   6.482  15.751  1.00  0.00     0.094 C 
HETATM   24  C25 UNL     1       5.824   6.856  17.190  1.00  0.00     0.074 C 
HETATM   25  O4  UNL     1       5.133   5.253  16.192  1.00  0.00    -0.370 OA
HETATM   26  C26 UNL     1       4.726   5.867  17.390  1.00  0.00     0.138 C 
BRANCH  23  27
HETATM   27  C22 UNL     1       6.817   6.510  14.945  1.00  0.00     0.082 C 
HETATM   28  C23 UNL     1       6.611   7.142  13.586  1.00  0.00     0.049 C 
HETATM   29  C24 UNL     1       7.875   7.245  15.731  1.00  0.00     0.049 C 
BRANCH  27  30
HETATM   30  O3  UNL     1       7.225   5.192  14.751  1.00  0.00    -0.388 OA
ATOM     31  H3  UNL     1       6.554   4.754  14.240  1.00  0.00     0.210 HD
ENDBRANCH  27  30
ENDBRANCH  23  27
ENDBRANCH   2  18
TORSDOF 8
ENDMDL
MODEL 3
REMARK VINA RESULT: -8.644712919      1.835      6.034
REMARK  8 active torsions:
REMARK  status: ('A' for Active; 'I' for Inactive)
REMARK    1  A    between atoms: C2_2  and  C4_4 
REMARK    2  A    between atoms: C7_7  and  C8_8 
REMARK    3  A    between atoms: C9_11  and  C10_12 
REMARK    4  A    between atoms: C11_13  and  C12_14 
REMARK    5  A    between atoms: C13_15  and  C14_16 
REMARK    6  A    between atoms: C15_17  and  C16_18 
REMARK    7  A    between atoms: C21_23  and  C22_24 
REMARK    8  A    between atoms: C22_24  and  O3_27 
ROOT
HETATM    1  C14 UNL     1       7.257  10.911  20.281  1.00  0.00    -0.003 C 
HETATM    2  C15 UNL     1       7.966   9.882  20.657  1.00  0.00    -0.014 C 
ENDROOT
BRANCH   1   3
HETATM    3  C13 UNL     1       5.842  10.914  19.974  1.00  0.00    -0.000 C 
HETATM    4  C12 UNL     1       5.367  11.616  18.938  1.00  0.00    -0.000 C 
BRANCH   4   5
HETATM    5  C11 UNL     1       3.955  11.596  18.662  1.00  0.00    -0.004 C 
HETATM    6  C10 UNL     1       3.375  10.650  17.972  1.00  0.00    -0.021 C 
BRANCH   6   7
HETATM    7  C9  UNL     1       4.013   9.479  17.374  1.00  0.00     0.027 C 
HETATM    8  C4  UNL     1       4.264   9.497  15.920  1.00  0.00    -0.003 C 
HETATM    9  C5  UNL     1       4.022   8.063  15.484  1.00  0.00     0.006 C 
HETATM   10  C6  UNL     1       3.964   7.231  16.740  1.00  0.00     0.016 C 
HETATM   11  C7  UNL     1       3.284   8.188  17.687  1.00  0.00     0.095 C 
BRANCH   8  12
HETATM   12  C2  UNL     1       3.435  10.460  15.103  1.00  0.00    -0.018 C 
HETATM   13  C1  UNL     1       3.309   9.919  13.659  1.00  0.00     0.010 C 
HETATM   14  C3  UNL     1       4.118  11.800  14.951  1.00  0.00     0.010 C 
ENDBRANCH   8  12
BRANCH  11  15
HETATM   15  C8  UNL     1       1.859   8.183  17.410  1.00  0.00     0.177 C 
HETATM   16  O1  UNL     1       1.266   7.097  17.204  1.00  0.00    -0.648 OA
HETATM   17  O2  UNL     1       1.039   9.316  17.346  1.00  0.00    -0.648 OA
ENDBRANCH  11  15
ENDBRANCH   6   7
ENDBRANCH   4   5
ENDBRANCH   1   3
BRANCH   2  18
HETATM   18  C16 UNL     1       7.395   8.508  20.831  1.00  0.00     0.007 C 
HETATM   19  C17 UNL     1       8.135   7.466  20.063  1.00  0.00     0.017 C 
HETATM   20  C18 UNL     1       7.005   7.323  19.079  1.00  0.00     0.007 C 
HETATM   21  C19 UNL     1       6.172   8.270  19.951  1.00  0.00     0.003 C 
HETATM   22  C20 UNL     1       5.066   7.551  20.649  1.00  0.00     0.047 C 
HETATM   23  C21 UNL     1       5.285   7.526  22.140  1.00  0.00     0.094 C 
HETATM   24  C25 UNL     1       6.587   6.849  22.504  1.00  0.00     0.074 C 
HETATM   25  O4  UNL     1       5.805   8.698  22.627  1.00  0.00    -0.370 OA
HETATM   26  C26 UNL     1       7.083   8.235  22.264  1.00  0.00     0.138 C 
BRANCH  23  27
HETATM   27  C22 UNL     1       4.141   6.929  22.903  1.00  0.00     0.082 C 
HETATM   28  C23 UNL     1       3.503   5.776  22.161  1.00  0.00     0.049 C 
HETATM   29  C24 UNL     1       4.641   6.494  24.258  1.00  0.00     0.049 C 
BRANCH  27  30
HETATM   30  O3  UNL     1       3.178   7.923  23.067  1.00  0.00    -0.388 OA
ATOM     31  H3  UNL     1       2.776   8.079  22.221  1.00  0.00     0.210 HD
ENDBRANCH  27  30
ENDBRANCH  23  27
ENDBRANCH   2  18
TORSDOF 8
ENDMDL
MODEL 4
REMARK VINA RESULT: -8.461380991      2.303      5.602
REMARK  8 active torsions:
REMARK  status: ('A' for Active; 'I' for Inactive)
REMARK    1  A    between atoms: C2_2  and  C4_4 
REMARK    2  A    between atoms: C7_7  and  C8_8 
REMARK    3  A    between atoms: C9_11  and  C10_12 
REMARK    4  A    between atoms: C11_13  and  C12_14 
REMARK    5  A    between atoms: C13_15  and  C14_16 
REMARK    6  A    between atoms: C15_17  and  C16_18 
REMARK    7  A    between atoms: C21_23  and  C22_24 
REMARK    8  A    between atoms: C22_24  and  O3_27 
ROOT
HETATM    1  C14 UNL     1       7.094   7.529  21.155  1.00  0.00    -0.003 C 
HETATM    2  C15 UNL     1       6.125   6.864  21.721  1.00  0.00    -0.014 C 
ENDROOT
BRANCH   1   3
HETATM    3  C13 UNL     1       6.954   8.582  20.170  1.00  0.00    -0.000 C 
HETATM    4  C12 UNL     1       7.322   8.384  18.899  1.00  0.00    -0.000 C 
BRANCH   4   5
HETATM    5  C11 UNL     1       7.170   9.452  17.947  1.00  0.00    -0.004 C 
HETATM    6  C10 UNL     1       6.209   9.488  17.061  1.00  0.00    -0.021 C 
BRANCH   6   7
HETATM    7  C9  UNL     1       5.150   8.499  16.871  1.00  0.00     0.027 C 
HETATM    8  C4  UNL     1       5.489   7.252  16.160  1.00  0.00    -0.003 C 
HETATM    9  C5  UNL     1       4.244   6.936  15.350  1.00  0.00     0.006 C 
HETATM   10  C6  UNL     1       3.145   7.824  15.879  1.00  0.00     0.016 C 
HETATM   11  C7  UNL     1       3.919   9.078  16.200  1.00  0.00     0.095 C 
BRANCH   8  12
HETATM   12  C2  UNL     1       6.715   7.289  15.277  1.00  0.00    -0.018 C 
HETATM   13  C1  UNL     1       6.276   7.182  13.798  1.00  0.00     0.010 C 
HETATM   14  C3  UNL     1       7.605   6.087  15.501  1.00  0.00     0.010 C 
ENDBRANCH   8  12
BRANCH  11  15
HETATM   15  C8  UNL     1       4.155   9.809  14.969  1.00  0.00     0.177 C 
HETATM   16  O1  UNL     1       4.829  10.867  14.989  1.00  0.00    -0.648 OA
HETATM   17  O2  UNL     1       3.687   9.440  13.703  1.00  0.00    -0.648 OA
ENDBRANCH  11  15
ENDBRANCH   6   7
ENDBRANCH   4   5
ENDBRANCH   1   3
BRANCH   2  18
HETATM   18  C16 UNL     1       4.677   7.103  21.421  1.00  0.00     0.007 C 
HETATM   19  C17 UNL     1       4.076   8.184  22.254  1.00  0.00     0.017 C 
HETATM   20  C18 UNL     1       3.283   7.189  23.056  1.00  0.00     0.007 C 
HETATM   21  C19 UNL     1       3.764   6.089  22.102  1.00  0.00     0.003 C 
HETATM   22  C20 UNL     1       2.663   5.593  21.227  1.00  0.00     0.047 C 
HETATM   23  C21 UNL     1       2.905   5.955  19.785  1.00  0.00     0.094 C 
HETATM   24  C25 UNL     1       3.020   7.450  19.593  1.00  0.00     0.074 C 
HETATM   25  O4  UNL     1       4.223   5.848  19.418  1.00  0.00    -0.370 OA
HETATM   26  C26 UNL     1       4.433   7.134  19.949  1.00  0.00     0.138 C 
BRANCH  23  27
HETATM   27  C22 UNL     1       1.896   5.371  18.843  1.00  0.00     0.082 C 
HETATM   28  C23 UNL     1       1.149   4.209  19.458  1.00  0.00     0.049 C 
HETATM   29  C24 UNL     1       0.946   6.463  18.417  1.00  0.00     0.049 C 
BRANCH  27  30
HETATM   30  O3  UNL     1       2.583   4.901  17.725  1.00  0.00    -0.388 OA
ATOM     31  H3  UNL     1       2.020   5.018  16.969  1.00  0.00     0.210 HD
ENDBRANCH  27  30
ENDBRANCH  23  27
ENDBRANCH   2  18
TORSDOF 8
ENDMDL
MODEL 5
REMARK VINA RESULT: -8.383775820      2.185      5.598
REMARK  8 active torsions:
REMARK  status: ('A' for Active; 'I' for Inactive)
REMARK    1  A    between atoms: C2_2  and  C4_4 
REMARK    2  A    between atoms: C7_7  and  C8_8 
REMARK    3  A    between atoms: C9_11  and  C10_12 
REMARK    4  A    between atoms: C11_13  and  C12_14 
REMARK    5  A    between atoms: C13_15  and  C14_16 
REMARK    6  A    between atoms: C15_17  and  C16_18 
REMARK    7  A    between atoms: C21_23  and  C22_24 
REMARK    8  A    between atoms: C22_24  and  O3_27 
ROOT
HETATM    1  C14 UNL     1       6.777   8.355  21.287  1.00  0.00    -0.003 C 
HETATM    2  C15 UNL     1       6.101   7.275  21.566  1.00  0.00    -0.014 C 
ENDROOT
BRANCH   1   3
HETATM    3  C13 UNL     1       6.231   9.621  20.843  1.00  0.00    -0.000 C 
HETATM    4  C12 UNL     1       6.425  10.049  19.590  1.00  0.00    -0.000 C 
BRANCH   4   5
HETATM    5  C11 UNL     1       5.869  11.312  19.183  1.00  0.00    -0.004 C 
HETATM    6  C10 UNL     1       5.242  11.484  18.049  1.00  0.00    -0.021 C 
BRANCH   6   7
HETATM    7  C9  UNL     1       4.992  10.478  17.020  1.00  0.00     0.027 C 
HETATM    8  C4  UNL     1       4.763  10.944  15.639  1.00  0.00    -0.003 C 
HETATM    9  C5  UNL     1       3.716   9.990  15.093  1.00  0.00     0.006 C 
HETATM   10  C6  UNL     1       3.634   8.836  16.061  1.00  0.00     0.016 C 
HETATM   11  C7  UNL     1       3.848   9.547  17.373  1.00  0.00     0.095 C 
BRANCH   8  12
HETATM   12  C2  UNL     1       4.325  12.381  15.475  1.00  0.00    -0.018 C 
HETATM   13  C1  UNL     1       3.120  12.435  14.507  1.00  0.00     0.010 C 
HETATM   14  C3  UNL     1       5.391  13.220  14.806  1.00  0.00     0.010 C 
ENDBRANCH   8  12
BRANCH  11  15
HETATM   15  C8  UNL     1       2.607  10.190  17.764  1.00  0.00     0.177 C 
HETATM   16  O1  UNL     1       1.513   9.613  17.555  1.00  0.00    -0.648 OA
HETATM   17  O2  UNL     1       2.498  11.443  18.376  1.00  0.00    -0.648 OA
ENDBRANCH  11  15
ENDBRANCH   6   7
ENDBRANCH   4   5
ENDBRANCH   1   3
BRANCH   2  18
HETATM   18  C16 UNL     1       4.609   7.188  21.463  1.00  0.00     0.007 C 
HETATM   19  C17 UNL     1       3.902   7.952  22.530  1.00  0.00     0.017 C 
HETATM   20  C18 UNL     1       3.479   6.685  23.222  1.00  0.00     0.007 C 
HETATM   21  C19 UNL     1       4.059   5.890  22.045  1.00  0.00     0.003 C 
HETATM   22  C20 UNL     1       2.987   5.270  21.214  1.00  0.00     0.047 C 
HETATM   23  C21 UNL     1       2.933   5.887  19.841  1.00  0.00     0.094 C 
HETATM   24  C25 UNL     1       2.675   7.376  19.905  1.00  0.00     0.074 C 
HETATM   25  O4  UNL     1       4.174   6.166  19.327  1.00  0.00    -0.370 OA
HETATM   26  C26 UNL     1       4.158   7.372  20.052  1.00  0.00     0.138 C 
BRANCH  23  27
HETATM   27  C22 UNL     1       1.961   5.215  18.919  1.00  0.00     0.082 C 
HETATM   28  C23 UNL     1       1.260   4.050  19.583  1.00  0.00     0.049 C 
HETATM   29  C24 UNL     1       0.967   6.242  18.434  1.00  0.00     0.049 C 
BRANCH  27  30
HETATM   30  O3  UNL     1       2.679   4.724  17.831  1.00  0.00    -0.388 OA
ATOM     31  H3  UNL     1       2.973   3.848  18.051  1.00  0.00     0.210 HD
ENDBRANCH  27  30
ENDBRANCH  23  27
ENDBRANCH   2  18
TORSDOF 8
ENDMDL
