MODEL 1
REMARK VINA RESULT: -8.980631465      0.000      0.000
REMARK  9 active torsions:
REMARK  status: ('A' for Active; 'I' for Inactive)
REMARK    1  A    between atoms: C2_2  and  C3_3 
REMARK    2  A    between atoms: C3_3  and  C4_4 
REMARK    3  A    between atoms: C8_10  and  C9_11 
REMARK    4  A    between atoms: C9_11  and  C10_12 
REMARK    5  A    between atoms: C21_23  and  C23_25 
REMARK    6  A    between atoms: C23_25  and  C24_26 
REMARK    7  A    between atoms: C24_26  and  C25_27 
REMARK    8  A    between atoms: C25_27  and  C26_28 
REMARK    9  A    between atoms: C26_28  and  O3_31 
ROOT
HETATM    1  C10 UNL     1       6.253   9.260  18.797  1.00  0.00    -0.006 C 
HETATM    2  C11 UNL     1       5.990   7.857  18.378  1.00  0.00     0.006 C 
HETATM    3  C12 UNL     1       6.088   6.775  19.383  1.00  0.00     0.007 C 
HETATM    4  C13 UNL     1       7.164   6.938  20.399  1.00  0.00     0.008 C 
HETATM    5  C14 UNL     1       8.305   7.785  19.957  1.00  0.00     0.007 C 
HETATM    6  C15 UNL     1       8.085   9.194  20.420  1.00  0.00     0.010 C 
HETATM    7  C16 UNL     1       6.582   9.489  20.217  1.00  0.00    -0.035 C 
HETATM    8  C17 UNL     1       6.524  11.004  20.499  1.00  0.00     0.016 C 
HETATM    9  C18 UNL     1       5.895   8.840  21.319  1.00  0.00     0.017 C 
HETATM   10  C19 UNL     1       4.400   8.909  21.396  1.00  0.00     0.010 C 
HETATM   11  C20 UNL     1       3.988   8.288  22.720  1.00  0.00     0.031 C 
HETATM   12  C21 UNL     1       4.390   6.815  22.775  1.00  0.00     0.022 C 
HETATM   13  C22 UNL     1       4.545   6.503  24.282  1.00  0.00     0.038 C 
HETATM   14  N1  UNL     1       5.562   6.490  22.070  1.00  0.00    -0.408 N 
ATOM     15  H1  UNL     1       5.769   5.513  21.863  1.00  0.00     0.154 HD
HETATM   16  C29 UNL     1       6.457   7.499  21.644  1.00  0.00     0.086 C 
ENDROOT
BRANCH   1  17
HETATM   17  C9  UNL     1       5.138  10.130  18.286  1.00  0.00     0.011 C 
BRANCH  17  18
HETATM   18  C8  UNL     1       3.984   9.502  17.635  1.00  0.00     0.005 C 
HETATM   19  C3  UNL     1       3.538   9.843  16.284  1.00  0.00     0.052 C 
HETATM   20  C5  UNL     1       2.180   9.052  16.285  1.00  0.00     0.021 C 
HETATM   21  C6  UNL     1       1.557   9.529  17.553  1.00  0.00     0.002 C 
HETATM   22  C7  UNL     1       2.713   9.647  18.510  1.00  0.00     0.006 C 
BRANCH  19  23
HETATM   23  C2  UNL     1       3.103  11.245  16.018  1.00  0.00     0.016 C 
HETATM   24  C1  UNL     1       4.067  12.168  15.381  1.00  0.00     0.006 C 
ENDBRANCH  19  23
BRANCH  19  25
HETATM   25  C4  UNL     1       4.238   9.220  15.140  1.00  0.00     0.182 C 
HETATM   26  O1  UNL     1       5.437   8.894  15.088  1.00  0.00    -0.647 OA
HETATM   27  O2  UNL     1       3.492   8.958  13.978  1.00  0.00    -0.647 OA
ENDBRANCH  19  25
ENDBRANCH  17  18
ENDBRANCH   1  17
BRANCH  12  28
HETATM   28  C23 UNL     1       3.211   6.048  22.281  1.00  0.00     0.030 C 
BRANCH  28  29
HETATM   29  C24 UNL     1       3.191   5.473  20.940  1.00  0.00     0.005 C 
BRANCH  29  30
HETATM   30  C25 UNL     1       2.459   6.148  19.845  1.00  0.00     0.037 C 
BRANCH  30  31
HETATM   31  C26 UNL     1       2.269   5.215  18.638  1.00  0.00     0.051 C 
HETATM   32  C27 UNL     1       3.045   5.689  17.444  1.00  0.00     0.045 C 
HETATM   33  C28 UNL     1       0.805   5.034  18.326  1.00  0.00     0.045 C 
BRANCH  31  34
HETATM   34  O3  UNL     1       2.779   3.977  19.022  1.00  0.00    -0.391 OA
ATOM     35  H3  UNL     1       2.050   3.368  18.985  1.00  0.00     0.210 HD
ENDBRANCH  31  34
ENDBRANCH  30  31
ENDBRANCH  29  30
ENDBRANCH  28  29
ENDBRANCH  12  28
TORSDOF 9
ENDMDL
MODEL 2
REMARK VINA RESULT: -8.341671226      0.913      1.082
REMARK  9 active torsions:
REMARK  status: ('A' for Active; 'I' for Inactive)
REMARK    1  A    between atoms: C2_2  and  C3_3 
REMARK    2  A    between atoms: C3_3  and  C4_4 
REMARK    3  A    between atoms: C8_10  and  C9_11 
REMARK    4  A    between atoms: C9_11  and  C10_12 
REMARK    5  A    between atoms: C21_23  and  C23_25 
REMARK    6  A    between atoms: C23_25  and  C24_26 
REMARK    7  A    between atoms: C24_26  and  C25_27 
REMARK    8  A    between atoms: C25_27  and  C26_28 
REMARK    9  A    between atoms: C26_28  and  O3_31 
ROOT
HETATM    1  C10 UNL     1       6.286   9.079  18.589  1.00  0.00    -0.006 C 
HETATM    2  C11 UNL     1       6.323   7.619  18.312  1.00  0.00     0.006 C 
HETATM    3  C12 UNL     1       6.519   6.677  19.437  1.00  0.00     0.007 C 
HETATM    4  C13 UNL     1       7.445   7.139  20.508  1.00  0.00     0.008 C 
HETATM    5  C14 UNL     1       8.450   8.142  20.061  1.00  0.00     0.007 C 
HETATM    6  C15 UNL     1       7.935   9.521  20.344  1.00  0.00     0.010 C 
HETATM    7  C16 UNL     1       6.431   9.504  19.995  1.00  0.00    -0.035 C 
HETATM    8  C17 UNL     1       6.072  11.000  20.099  1.00  0.00     0.016 C 
HETATM    9  C18 UNL     1       5.769   8.844  21.107  1.00  0.00     0.017 C 
HETATM   10  C19 UNL     1       4.286   8.636  21.062  1.00  0.00     0.010 C 
HETATM   11  C20 UNL     1       3.869   8.078  22.412  1.00  0.00     0.031 C 
HETATM   12  C21 UNL     1       4.523   6.721  22.663  1.00  0.00     0.022 C 
HETATM   13  C22 UNL     1       4.587   6.591  24.204  1.00  0.00     0.038 C 
HETATM   14  N1  UNL     1       5.797   6.558  22.091  1.00  0.00    -0.408 N 
ATOM     15  H1  UNL     1       6.197   5.623  22.012  1.00  0.00     0.154 HD
HETATM   16  C29 UNL     1       6.531   7.673  21.623  1.00  0.00     0.086 C 
ENDROOT
BRANCH   1  17
HETATM   17  C9  UNL     1       5.087   9.668  17.899  1.00  0.00     0.011 C 
BRANCH  17  18
HETATM   18  C8  UNL     1       4.111   8.770  17.274  1.00  0.00     0.005 C 
HETATM   19  C3  UNL     1       3.868   8.723  15.832  1.00  0.00     0.052 C 
HETATM   20  C5  UNL     1       2.597   7.799  15.844  1.00  0.00     0.021 C 
HETATM   21  C6  UNL     1       1.737   8.486  16.850  1.00  0.00     0.002 C 
HETATM   22  C7  UNL     1       2.706   8.967  17.897  1.00  0.00     0.006 C 
BRANCH  19  23
HETATM   23  C2  UNL     1       3.371   9.959  15.160  1.00  0.00     0.016 C 
HETATM   24  C1  UNL     1       2.795   9.835  13.805  1.00  0.00     0.006 C 
ENDBRANCH  19  23
BRANCH  19  25
HETATM   25  C4  UNL     1       4.795   7.933  14.994  1.00  0.00     0.182 C 
HETATM   26  O1  UNL     1       5.587   8.372  14.141  1.00  0.00    -0.647 OA
HETATM   27  O2  UNL     1       4.801   6.537  15.159  1.00  0.00    -0.647 OA
ENDBRANCH  19  25
ENDBRANCH  17  18
ENDBRANCH   1  17
BRANCH  12  28
HETATM   28  C23 UNL     1       3.556   5.699  22.170  1.00  0.00     0.030 C 
BRANCH  28  29
HETATM   29  C24 UNL     1       3.115   5.685  20.780  1.00  0.00     0.005 C 
BRANCH  29  30
HETATM   30  C25 UNL     1       2.041   4.765  20.343  1.00  0.00     0.037 C 
BRANCH  30  31
HETATM   31  C26 UNL     1       2.158   4.437  18.846  1.00  0.00     0.051 C 
HETATM   32  C27 UNL     1       3.356   5.095  18.226  1.00  0.00     0.045 C 
HETATM   33  C28 UNL     1       0.883   4.786  18.119  1.00  0.00     0.045 C 
BRANCH  31  34
HETATM   34  O3  UNL     1       2.331   3.057  18.764  1.00  0.00    -0.391 OA
ATOM     35  H3  UNL     1       1.482   2.698  18.533  1.00  0.00     0.210 HD
ENDBRANCH  31  34
ENDBRANCH  30  31
ENDBRANCH  29  30
ENDBRANCH  28  29
ENDBRANCH  12  28
TORSDOF 9
ENDMDL
MODEL 3
REMARK VINA RESULT: -8.097298810      1.097      1.802
REMARK  9 active torsions:
REMARK  status: ('A' for Active; 'I' for Inactive)
REMARK    1  A    between atoms: C2_2  and  C3_3 
REMARK    2  A    between atoms: C3_3  and  C4_4 
REMARK    3  A    between atoms: C8_10  and  C9_11 
REMARK    4  A    between atoms: C9_11  and  C10_12 
REMARK    5  A    between atoms: C21_23  and  C23_25 
REMARK    6  A    between atoms: C23_25  and  C24_26 
REMARK    7  A    between atoms: C24_26  and  C25_27 
REMARK    8  A    between atoms: C25_27  and  C26_28 
REMARK    9  A    between atoms: C26_28  and  O3_31 
ROOT
HETATM    1  C10 UNL     1       6.147   9.172  18.710  1.00  0.00    -0.006 C 
HETATM    2  C11 UNL     1       5.897   7.754  18.335  1.00  0.00     0.006 C 
HETATM    3  C12 UNL     1       6.031   6.703  19.369  1.00  0.00     0.007 C 
HETATM    4  C13 UNL     1       7.123   6.910  20.359  1.00  0.00     0.008 C 
HETATM    5  C14 UNL     1       8.242   7.761  19.871  1.00  0.00     0.007 C 
HETATM    6  C15 UNL     1       8.010   9.179  20.298  1.00  0.00     0.010 C 
HETATM    7  C16 UNL     1       6.500   9.447  20.116  1.00  0.00    -0.035 C 
HETATM    8  C17 UNL     1       6.424  10.968  20.356  1.00  0.00     0.016 C 
HETATM    9  C18 UNL     1       5.843   8.819  21.248  1.00  0.00     0.017 C 
HETATM   10  C19 UNL     1       4.349   8.869  21.353  1.00  0.00     0.010 C 
HETATM   11  C20 UNL     1       3.972   8.280  22.701  1.00  0.00     0.031 C 
HETATM   12  C21 UNL     1       4.397   6.815  22.790  1.00  0.00     0.022 C 
HETATM   13  C22 UNL     1       4.585   6.548  24.302  1.00  0.00     0.038 C 
HETATM   14  N1  UNL     1       5.560   6.487  22.072  1.00  0.00    -0.408 N 
ATOM     15  H1  UNL     1       5.778   5.508  21.888  1.00  0.00     0.154 HD
HETATM   16  C29 UNL     1       6.431   7.496  21.600  1.00  0.00     0.086 C 
ENDROOT
BRANCH   1  17
HETATM   17  C9  UNL     1       5.010  10.011  18.195  1.00  0.00     0.011 C 
BRANCH  17  18
HETATM   18  C8  UNL     1       4.700   9.991  16.763  1.00  0.00     0.005 C 
HETATM   19  C3  UNL     1       3.335   9.995  16.234  1.00  0.00     0.052 C 
HETATM   20  C5  UNL     1       3.673   9.716  14.725  1.00  0.00     0.021 C 
HETATM   21  C6  UNL     1       4.561   8.523  14.833  1.00  0.00     0.002 C 
HETATM   22  C7  UNL     1       5.379   8.782  16.070  1.00  0.00     0.006 C 
BRANCH  19  23
HETATM   23  C2  UNL     1       2.439   8.856  16.588  1.00  0.00     0.016 C 
HETATM   24  C1  UNL     1       1.470   9.043  17.688  1.00  0.00     0.006 C 
ENDBRANCH  19  23
BRANCH  19  25
HETATM   25  C4  UNL     1       2.628  11.290  16.140  1.00  0.00     0.182 C 
HETATM   26  O1  UNL     1       2.668  12.223  16.962  1.00  0.00    -0.647 OA
HETATM   27  O2  UNL     1       1.818  11.515  15.014  1.00  0.00    -0.647 OA
ENDBRANCH  19  25
ENDBRANCH  17  18
ENDBRANCH   1  17
BRANCH  12  28
HETATM   28  C23 UNL     1       3.220   6.017  22.341  1.00  0.00     0.030 C 
BRANCH  28  29
HETATM   29  C24 UNL     1       3.184   5.404  21.017  1.00  0.00     0.005 C 
BRANCH  29  30
HETATM   30  C25 UNL     1       2.406   6.026  19.923  1.00  0.00     0.037 C 
BRANCH  30  31
HETATM   31  C26 UNL     1       2.241   5.066  18.735  1.00  0.00     0.051 C 
HETATM   32  C27 UNL     1       3.043   5.511  17.546  1.00  0.00     0.045 C 
HETATM   33  C28 UNL     1       0.784   4.878  18.396  1.00  0.00     0.045 C 
BRANCH  31  34
HETATM   34  O3  UNL     1       2.742   3.836  19.158  1.00  0.00    -0.391 OA
ATOM     35  H3  UNL     1       2.141   3.179  18.828  1.00  0.00     0.210 HD
ENDBRANCH  31  34
ENDBRANCH  30  31
ENDBRANCH  29  30
ENDBRANCH  28  29
ENDBRANCH  12  28
TORSDOF 9
ENDMDL
MODEL 4
REMARK VINA RESULT: -7.963048204      2.205      4.859
REMARK  9 active torsions:
REMARK  status: ('A' for Active; 'I' for Inactive)
REMARK    1  A    between atoms: C2_2  and  C3_3 
REMARK    2  A    between atoms: C3_3  and  C4_4 
REMARK    3  A    between atoms: C8_10  and  C9_11 
REMARK    4  A    between atoms: C9_11  and  C10_12 
REMARK    5  A    between atoms: C21_23  and  C23_25 
REMARK    6  A    between atoms: C23_25  and  C24_26 
REMARK    7  A    between atoms: C24_26  and  C25_27 
REMARK    8  A    between atoms: C25_27  and  C26_28 
REMARK    9  A    between atoms: C26_28  and  O3_31 
ROOT
HETATM    1  C10 UNL     1       2.055   7.545  16.718  1.00  0.00    -0.006 C 
HETATM    2  C11 UNL     1       1.140   8.177  17.705  1.00  0.00     0.006 C 
HETATM    3  C12 UNL     1       1.019   7.584  19.056  1.00  0.00     0.007 C 
HETATM    4  C13 UNL     1       1.078   6.098  19.113  1.00  0.00     0.008 C 
HETATM    5  C14 UNL     1       0.672   5.417  17.853  1.00  0.00     0.007 C 
HETATM    6  C15 UNL     1       1.892   5.123  17.033  1.00  0.00     0.010 C 
HETATM    7  C16 UNL     1       2.810   6.358  17.161  1.00  0.00    -0.035 C 
HETATM    8  C17 UNL     1       3.897   6.044  16.112  1.00  0.00     0.016 C 
HETATM    9  C18 UNL     1       3.449   6.249  18.460  1.00  0.00     0.017 C 
HETATM   10  C19 UNL     1       4.391   7.324  18.909  1.00  0.00     0.010 C 
HETATM   11  C20 UNL     1       5.015   6.860  20.215  1.00  0.00     0.031 C 
HETATM   12  C21 UNL     1       3.948   6.692  21.295  1.00  0.00     0.022 C 
HETATM   13  C22 UNL     1       4.534   5.644  22.271  1.00  0.00     0.038 C 
HETATM   14  N1  UNL     1       2.683   6.294  20.828  1.00  0.00    -0.408 N 
ATOM     15  H1  UNL     1       1.871   6.383  21.438  1.00  0.00     0.154 HD
HETATM   16  C29 UNL     1       2.523   5.770  19.524  1.00  0.00     0.086 C 
ENDROOT
BRANCH   1  17
HETATM   17  C9  UNL     1       2.914   8.616  16.106  1.00  0.00     0.011 C 
BRANCH  17  18
HETATM   18  C8  UNL     1       2.595  10.023  16.368  1.00  0.00     0.005 C 
HETATM   19  C3  UNL     1       2.910  11.107  15.437  1.00  0.00     0.052 C 
HETATM   20  C5  UNL     1       2.566  12.321  16.373  1.00  0.00     0.021 C 
HETATM   21  C6  UNL     1       3.337  11.978  17.603  1.00  0.00     0.002 C 
HETATM   22  C7  UNL     1       3.205  10.483  17.716  1.00  0.00     0.006 C 
BRANCH  19  23
HETATM   23  C2  UNL     1       4.341  11.350  15.095  1.00  0.00     0.016 C 
HETATM   24  C1  UNL     1       4.676  12.542  14.288  1.00  0.00     0.006 C 
ENDBRANCH  19  23
BRANCH  19  25
HETATM   25  C4  UNL     1       1.989  11.343  14.304  1.00  0.00     0.182 C 
HETATM   26  O1  UNL     1       1.086  12.196  14.242  1.00  0.00    -0.647 OA
HETATM   27  O2  UNL     1       2.126  10.528  13.167  1.00  0.00    -0.647 OA
ENDBRANCH  19  25
ENDBRANCH  17  18
ENDBRANCH   1  17
BRANCH  12  28
HETATM   28  C23 UNL     1       3.890   7.993  22.022  1.00  0.00     0.030 C 
BRANCH  28  29
HETATM   29  C24 UNL     1       5.044   8.884  22.070  1.00  0.00     0.005 C 
BRANCH  29  30
HETATM   30  C25 UNL     1       5.085  10.104  21.234  1.00  0.00     0.037 C 
BRANCH  30  31
HETATM   31  C26 UNL     1       6.478  10.317  20.618  1.00  0.00     0.051 C 
HETATM   32  C27 UNL     1       6.400  10.550  19.137  1.00  0.00     0.045 C 
HETATM   33  C28 UNL     1       7.396   9.171  20.963  1.00  0.00     0.045 C 
BRANCH  31  34
HETATM   34  O3  UNL     1       6.992  11.468  21.212  1.00  0.00    -0.391 OA
ATOM     35  H3  UNL     1       7.003  12.132  20.532  1.00  0.00     0.210 HD
ENDBRANCH  31  34
ENDBRANCH  30  31
ENDBRANCH  29  30
ENDBRANCH  28  29
ENDBRANCH  12  28
TORSDOF 9
ENDMDL
MODEL 5
REMARK VINA RESULT: -7.954152111      1.291      1.974
REMARK  9 active torsions:
REMARK  status: ('A' for Active; 'I' for Inactive)
REMARK    1  A    between atoms: C2_2  and  C3_3 
REMARK    2  A    between atoms: C3_3  and  C4_4 
REMARK    3  A    between atoms: C8_10  and  C9_11 
REMARK    4  A    between atoms: C9_11  and  C10_12 
REMARK    5  A    between atoms: C21_23  and  C23_25 
REMARK    6  A    between atoms: C23_25  and  C24_26 
REMARK    7  A    between atoms: C24_26  and  C25_27 
REMARK    8  A    between atoms: C25_27  and  C26_28 
REMARK    9  A    between atoms: C26_28  and  O3_31 
ROOT
HETATM    1  C10 UNL     1       5.596   9.446  18.957  1.00  0.00    -0.006 C 
HETATM    2  C11 UNL     1       5.561   8.037  18.480  1.00  0.00     0.006 C 
HETATM    3  C12 UNL     1       5.950   6.953  19.409  1.00  0.00     0.007 C 
HETATM    4  C13 UNL     1       7.064   7.275  20.343  1.00  0.00     0.008 C 
HETATM    5  C14 UNL     1       7.982   8.342  19.859  1.00  0.00     0.007 C 
HETATM    6  C15 UNL     1       7.547   9.663  20.419  1.00  0.00     0.010 C 
HETATM    7  C16 UNL     1       6.004   9.675  20.356  1.00  0.00    -0.035 C 
HETATM    8  C17 UNL     1       5.691  11.138  20.729  1.00  0.00     0.016 C 
HETATM    9  C18 UNL     1       5.552   8.861  21.471  1.00  0.00     0.017 C 
HETATM   10  C19 UNL     1       4.083   8.641  21.673  1.00  0.00     0.010 C 
HETATM   11  C20 UNL     1       3.916   7.898  22.987  1.00  0.00     0.031 C 
HETATM   12  C21 UNL     1       4.588   6.528  22.924  1.00  0.00     0.022 C 
HETATM   13  C22 UNL     1       4.935   6.189  24.394  1.00  0.00     0.038 C 
HETATM   14  N1  UNL     1       5.731   6.461  22.109  1.00  0.00    -0.408 N 
ATOM     15  H1  UNL     1       6.097   5.552  21.829  1.00  0.00     0.154 HD
HETATM   16  C29 UNL     1       6.381   7.639  21.671  1.00  0.00     0.086 C 
ENDROOT
BRANCH   1  17
HETATM   17  C9  UNL     1       4.297  10.108  18.589  1.00  0.00     0.011 C 
BRANCH  17  18
HETATM   18  C8  UNL     1       4.275  11.067  17.479  1.00  0.00     0.005 C 
HETATM   19  C3  UNL     1       3.794  10.734  16.138  1.00  0.00     0.052 C 
HETATM   20  C5  UNL     1       4.255  12.042  15.399  1.00  0.00     0.021 C 
HETATM   21  C6  UNL     1       5.685  12.132  15.813  1.00  0.00     0.002 C 
HETATM   22  C7  UNL     1       5.683  11.671  17.246  1.00  0.00     0.006 C 
BRANCH  19  23
HETATM   23  C2  UNL     1       4.501   9.661  15.381  1.00  0.00     0.016 C 
HETATM   24  C1  UNL     1       3.827   8.355  15.225  1.00  0.00     0.006 C 
ENDBRANCH  19  23
BRANCH  19  25
HETATM   25  C4  UNL     1       2.336  10.760  15.894  1.00  0.00     0.182 C 
HETATM   26  O1  UNL     1       1.452  10.245  16.601  1.00  0.00    -0.647 OA
HETATM   27  O2  UNL     1       1.874  11.431  14.748  1.00  0.00    -0.647 OA
ENDBRANCH  19  25
ENDBRANCH  17  18
ENDBRANCH   1  17
BRANCH  12  28
HETATM   28  C23 UNL     1       3.533   5.572  22.484  1.00  0.00     0.030 C 
BRANCH  28  29
HETATM   29  C24 UNL     1       2.797   5.777  21.241  1.00  0.00     0.005 C 
BRANCH  29  30
HETATM   30  C25 UNL     1       2.766   4.721  20.205  1.00  0.00     0.037 C 
BRANCH  30  31
HETATM   31  C26 UNL     1       2.240   5.264  18.866  1.00  0.00     0.051 C 
HETATM   32  C27 UNL     1       2.136   6.761  18.877  1.00  0.00     0.045 C 
HETATM   33  C28 UNL     1       0.933   4.608  18.498  1.00  0.00     0.045 C 
BRANCH  31  34
HETATM   34  O3  UNL     1       3.183   4.903  17.905  1.00  0.00    -0.391 OA
ATOM     35  H3  UNL     1       3.696   5.684  17.733  1.00  0.00     0.210 HD
ENDBRANCH  31  34
ENDBRANCH  30  31
ENDBRANCH  29  30
ENDBRANCH  28  29
ENDBRANCH  12  28
TORSDOF 9
ENDMDL
