MODEL 1
REMARK VINA RESULT: -9.700268080      0.000      0.000
REMARK  11 active torsions:
REMARK  status: ('A' for Active; 'I' for Inactive)
REMARK    1  A    between atoms: C2_2  and  C5_5 
REMARK    2  A    between atoms: C5_5  and  C6_6 
REMARK    3  A    between atoms: C6_6  and  C8_8 
REMARK    4  A    between atoms: C6_6  and  C24_29 
REMARK    5  A    between atoms: C9_9  and  C10_10 
REMARK    6  A    between atoms: C11_11  and  C12_12 
REMARK    7  A    between atoms: C17_17  and  C18_18 
REMARK    8  A    between atoms: C18_18  and  C19_19 
REMARK    9  A    between atoms: C21_22  and  O2_23 
REMARK   10  A    between atoms: C22_25  and  O3_26 
REMARK   11  A    between atoms: C25_30  and  C26_31 
ROOT
HETATM    1  C10 UNL     1       3.811   6.178  22.914  1.00  0.00    -0.004 C 
HETATM    2  C11 UNL     1       4.951   6.623  23.341  1.00  0.00    -0.018 C 
ENDROOT
BRANCH   2   3
HETATM    3  C12 UNL     1       5.948   7.438  22.624  1.00  0.00    -0.026 C 
HETATM    4  C13 UNL     1       7.059   7.941  23.486  1.00  0.00     0.019 C 
HETATM    5  C14 UNL     1       6.415   6.611  21.444  1.00  0.00     0.013 C 
HETATM    6  C15 UNL     1       7.418   7.398  20.682  1.00  0.00     0.001 C 
HETATM    7  C16 UNL     1       6.978   8.739  20.200  1.00  0.00     0.005 C 
HETATM    8  C17 UNL     1       6.068   9.474  21.127  1.00  0.00    -0.011 C 
HETATM    9  C23 UNL     1       5.226   8.620  22.000  1.00  0.00     0.017 C 
BRANCH   8  10
HETATM   10  C18 UNL     1       5.143  10.407  20.374  1.00  0.00     0.039 C 
BRANCH  10  11
HETATM   11  C19 UNL     1       5.508  10.598  18.946  1.00  0.00     0.153 C 
HETATM   12  O1  UNL     1       6.271  11.707  18.675  1.00  0.00    -0.381 OA
HETATM   13  C20 UNL     1       6.082  12.017  17.329  1.00  0.00     0.202 C 
HETATM   14  C21 UNL     1       4.672  11.612  16.979  1.00  0.00     0.173 C 
HETATM   15  C22 UNL     1       4.344  10.564  18.018  1.00  0.00     0.177 C 
BRANCH  14  16
HETATM   16  O2  UNL     1       3.796  12.686  17.010  1.00  0.00    -0.391 OA
ATOM     17  H2  UNL     1       4.154  13.454  16.582  1.00  0.00     0.210 HD
ENDBRANCH  14  16
BRANCH  15  18
HETATM   18  O3  UNL     1       4.254   9.339  17.324  1.00  0.00    -0.390 OA
ATOM     19  H3  UNL     1       3.635   9.381  16.605  1.00  0.00     0.210 HD
ENDBRANCH  15  18
ENDBRANCH  10  11
ENDBRANCH   8  10
ENDBRANCH   2   3
BRANCH   1  20
HETATM   20  C9  UNL     1       3.211   6.366  21.613  1.00  0.00    -0.003 C 
HETATM   21  C8  UNL     1       3.185   5.437  20.675  1.00  0.00    -0.013 C 
BRANCH  21  22
HETATM   22  C6  UNL     1       2.575   5.638  19.359  1.00  0.00    -0.008 C 
HETATM   23  C7  UNL     1       1.544   4.563  19.103  1.00  0.00     0.024 C 
BRANCH  22  24
HETATM   24  C5  UNL     1       2.066   7.012  19.113  1.00  0.00     0.025 C 
BRANCH  24  25
HETATM   25  C2  UNL     1       1.037   7.222  18.081  1.00  0.00    -0.050 C 
HETATM   26  C1  UNL     1       0.881   8.755  17.965  1.00  0.00     0.014 C 
HETATM   27  C3  UNL     1      -0.337   6.716  18.467  1.00  0.00     0.014 C 
HETATM   28  C4  UNL     1       1.346   6.765  16.698  1.00  0.00     0.014 C 
ENDBRANCH  24  25
ENDBRANCH  22  24
BRANCH  22  29
HETATM   29  C24 UNL     1       3.639   5.397  18.331  1.00  0.00    -0.011 C 
HETATM   30  C25 UNL     1       4.742   6.090  18.236  1.00  0.00     0.034 C 
BRANCH  30  31
HETATM   31  C26 UNL     1       5.720   5.793  17.214  1.00  0.00     0.074 A 
HETATM   32  C27 UNL     1       7.039   6.194  17.184  1.00  0.00     0.039 A 
HETATM   33  C28 UNL     1       7.618   5.695  16.032  1.00  0.00     0.027 A 
HETATM   34  C29 UNL     1       6.593   4.997  15.404  1.00  0.00     0.142 A 
HETATM   35  O4  UNL     1       5.522   5.085  16.125  1.00  0.00    -0.323 OA
ENDBRANCH  30  31
ENDBRANCH  22  29
ENDBRANCH  21  22
ENDBRANCH   1  20
TORSDOF 11
ENDMDL
MODEL 2
REMARK VINA RESULT: -8.906446314      1.953      5.458
REMARK  11 active torsions:
REMARK  status: ('A' for Active; 'I' for Inactive)
REMARK    1  A    between atoms: C2_2  and  C5_5 
REMARK    2  A    between atoms: C5_5  and  C6_6 
REMARK    3  A    between atoms: C6_6  and  C8_8 
REMARK    4  A    between atoms: C6_6  and  C24_29 
REMARK    5  A    between atoms: C9_9  and  C10_10 
REMARK    6  A    between atoms: C11_11  and  C12_12 
REMARK    7  A    between atoms: C17_17  and  C18_18 
REMARK    8  A    between atoms: C18_18  and  C19_19 
REMARK    9  A    between atoms: C21_22  and  O2_23 
REMARK   10  A    between atoms: C22_25  and  O3_26 
REMARK   11  A    between atoms: C25_30  and  C26_31 
ROOT
HETATM    1  C10 UNL     1       5.994  10.717  20.135  1.00  0.00    -0.004 C 
HETATM    2  C11 UNL     1       6.560   9.618  20.523  1.00  0.00    -0.018 C 
ENDROOT
BRANCH   2   3
HETATM    3  C12 UNL     1       6.004   8.252  20.542  1.00  0.00    -0.026 C 
HETATM    4  C13 UNL     1       6.963   7.209  21.012  1.00  0.00     0.019 C 
HETATM    5  C14 UNL     1       4.725   8.317  21.351  1.00  0.00     0.013 C 
HETATM    6  C15 UNL     1       4.121   6.961  21.390  1.00  0.00     0.001 C 
HETATM    7  C16 UNL     1       3.837   6.326  20.070  1.00  0.00     0.005 C 
HETATM    8  C17 UNL     1       4.840   6.616  19.003  1.00  0.00    -0.011 C 
HETATM    9  C23 UNL     1       5.548   7.912  19.133  1.00  0.00     0.017 C 
BRANCH   8  10
HETATM   10  C18 UNL     1       4.213   6.576  17.625  1.00  0.00     0.039 C 
BRANCH  10  11
HETATM   11  C19 UNL     1       5.134   6.105  16.556  1.00  0.00     0.153 C 
HETATM   12  O1  UNL     1       6.291   5.510  16.994  1.00  0.00    -0.381 OA
HETATM   13  C20 UNL     1       7.222   5.612  15.961  1.00  0.00     0.202 C 
HETATM   14  C21 UNL     1       6.923   6.895  15.226  1.00  0.00     0.173 C 
HETATM   15  C22 UNL     1       5.469   7.149  15.550  1.00  0.00     0.177 C 
BRANCH  14  16
HETATM   16  O2  UNL     1       7.748   7.933  15.629  1.00  0.00    -0.391 OA
ATOM     17  H2  UNL     1       7.614   8.719  15.114  1.00  0.00     0.210 HD
ENDBRANCH  14  16
BRANCH  15  18
HETATM   18  O3  UNL     1       4.761   6.968  14.342  1.00  0.00    -0.390 OA
ATOM     19  H3  UNL     1       3.877   7.310  14.392  1.00  0.00     0.210 HD
ENDBRANCH  15  18
ENDBRANCH  10  11
ENDBRANCH   8  10
ENDBRANCH   2   3
BRANCH   1  20
HETATM   20  C9  UNL     1       4.658  10.896  19.614  1.00  0.00    -0.003 C 
HETATM   21  C8  UNL     1       4.397  11.386  18.416  1.00  0.00    -0.013 C 
BRANCH  21  22
HETATM   22  C6  UNL     1       3.039  11.563  17.897  1.00  0.00    -0.008 C 
HETATM   23  C7  UNL     1       2.149  12.132  18.977  1.00  0.00     0.024 C 
BRANCH  22  24
HETATM   24  C5  UNL     1       2.956  12.306  16.613  1.00  0.00     0.025 C 
BRANCH  24  25
HETATM   25  C2  UNL     1       3.973  12.063  15.576  1.00  0.00    -0.050 C 
HETATM   26  C1  UNL     1       3.421  12.733  14.297  1.00  0.00     0.014 C 
HETATM   27  C3  UNL     1       4.148  10.605  15.211  1.00  0.00     0.014 C 
HETATM   28  C4  UNL     1       5.318  12.673  15.775  1.00  0.00     0.014 C 
ENDBRANCH  24  25
ENDBRANCH  22  24
BRANCH  22  29
HETATM   29  C24 UNL     1       2.482  10.198  17.625  1.00  0.00    -0.011 C 
HETATM   30  C25 UNL     1       1.510   9.650  18.304  1.00  0.00     0.034 C 
BRANCH  30  31
HETATM   31  C26 UNL     1       1.029   8.327  17.977  1.00  0.00     0.074 A 
HETATM   32  C27 UNL     1       0.474   7.407  18.842  1.00  0.00     0.039 A 
HETATM   33  C28 UNL     1       0.151   6.273  18.119  1.00  0.00     0.027 A 
HETATM   34  C29 UNL     1       0.536   6.571  16.817  1.00  0.00     0.142 A 
HETATM   35  O4  UNL     1       1.035   7.764  16.790  1.00  0.00    -0.323 OA
ENDBRANCH  30  31
ENDBRANCH  22  29
ENDBRANCH  21  22
ENDBRANCH   1  20
TORSDOF 11
ENDMDL
MODEL 3
REMARK VINA RESULT: -8.906076227      1.640      5.188
REMARK  11 active torsions:
REMARK  status: ('A' for Active; 'I' for Inactive)
REMARK    1  A    between atoms: C2_2  and  C5_5 
REMARK    2  A    between atoms: C5_5  and  C6_6 
REMARK    3  A    between atoms: C6_6  and  C8_8 
REMARK    4  A    between atoms: C6_6  and  C24_29 
REMARK    5  A    between atoms: C9_9  and  C10_10 
REMARK    6  A    between atoms: C11_11  and  C12_12 
REMARK    7  A    between atoms: C17_17  and  C18_18 
REMARK    8  A    between atoms: C18_18  and  C19_19 
REMARK    9  A    between atoms: C21_22  and  O2_23 
REMARK   10  A    between atoms: C22_25  and  O3_26 
REMARK   11  A    between atoms: C25_30  and  C26_31 
ROOT
HETATM    1  C10 UNL     1       2.845   5.196  20.919  1.00  0.00    -0.004 C 
HETATM    2  C11 UNL     1       1.922   4.687  20.165  1.00  0.00    -0.018 C 
ENDROOT
BRANCH   2   3
HETATM    3  C12 UNL     1       1.577   5.030  18.773  1.00  0.00    -0.026 C 
HETATM    4  C13 UNL     1       1.083   3.875  17.965  1.00  0.00     0.019 C 
HETATM    5  C14 UNL     1       0.606   6.189  18.842  1.00  0.00     0.013 C 
HETATM    6  C15 UNL     1       0.235   6.578  17.457  1.00  0.00     0.001 C 
HETATM    7  C16 UNL     1       1.362   6.934  16.546  1.00  0.00     0.005 C 
HETATM    8  C17 UNL     1       2.605   6.130  16.739  1.00  0.00    -0.011 C 
HETATM    9  C23 UNL     1       2.816   5.608  18.112  1.00  0.00     0.017 C 
BRANCH   8  10
HETATM   10  C18 UNL     1       3.841   6.915  16.355  1.00  0.00     0.039 C 
BRANCH  10  11
HETATM   11  C19 UNL     1       3.572   8.339  16.020  1.00  0.00     0.153 C 
HETATM   12  O1  UNL     1       4.054   8.761  14.805  1.00  0.00    -0.381 OA
HETATM   13  C20 UNL     1       4.190  10.146  14.875  1.00  0.00     0.202 C 
HETATM   14  C21 UNL     1       4.531  10.482  16.305  1.00  0.00     0.173 C 
HETATM   15  C22 UNL     1       3.999   9.296  17.077  1.00  0.00     0.177 C 
BRANCH  14  16
HETATM   16  O2  UNL     1       5.892  10.670  16.488  1.00  0.00    -0.391 OA
ATOM     17  H2  UNL     1       6.079  11.262  17.207  1.00  0.00     0.210 HD
ENDBRANCH  14  16
BRANCH  15  18
HETATM   18  O3  UNL     1       2.907   9.776  17.831  1.00  0.00    -0.390 OA
ATOM     19  H3  UNL     1       2.372  10.385  17.336  1.00  0.00     0.210 HD
ENDBRANCH  15  18
ENDBRANCH  10  11
ENDBRANCH   8  10
ENDBRANCH   2   3
BRANCH   1  20
HETATM   20  C9  UNL     1       3.787   6.242  20.592  1.00  0.00    -0.003 C 
HETATM   21  C8  UNL     1       4.181   7.168  21.446  1.00  0.00    -0.013 C 
BRANCH  21  22
HETATM   22  C6  UNL     1       5.137   8.224  21.104  1.00  0.00    -0.008 C 
HETATM   23  C7  UNL     1       4.430   9.559  21.062  1.00  0.00     0.024 C 
BRANCH  22  24
HETATM   24  C5  UNL     1       6.371   8.238  21.931  1.00  0.00     0.025 C 
BRANCH  24  25
HETATM   25  C2  UNL     1       6.482   7.311  23.071  1.00  0.00    -0.050 C 
HETATM   26  C1  UNL     1       7.599   7.894  23.965  1.00  0.00     0.014 C 
HETATM   27  C3  UNL     1       6.962   5.925  22.696  1.00  0.00     0.014 C 
HETATM   28  C4  UNL     1       5.301   7.184  23.971  1.00  0.00     0.014 C 
ENDBRANCH  24  25
ENDBRANCH  22  24
BRANCH  22  29
HETATM   29  C24 UNL     1       5.583   7.985  19.693  1.00  0.00    -0.011 C 
HETATM   30  C25 UNL     1       6.650   7.309  19.363  1.00  0.00     0.034 C 
BRANCH  30  31
HETATM   31  C26 UNL     1       7.012   7.122  17.976  1.00  0.00     0.074 A 
HETATM   32  C27 UNL     1       7.107   5.927  17.296  1.00  0.00     0.039 A 
HETATM   33  C28 UNL     1       7.482   6.198  15.992  1.00  0.00     0.027 A 
HETATM   34  C29 UNL     1       7.598   7.583  15.947  1.00  0.00     0.142 A 
HETATM   35  O4  UNL     1       7.317   8.066  17.114  1.00  0.00    -0.323 OA
ENDBRANCH  30  31
ENDBRANCH  22  29
ENDBRANCH  21  22
ENDBRANCH   1  20
TORSDOF 11
ENDMDL
MODEL 4
REMARK VINA RESULT: -8.863519678      1.708      2.724
REMARK  11 active torsions:
REMARK  status: ('A' for Active; 'I' for Inactive)
REMARK    1  A    between atoms: C2_2  and  C5_5 
REMARK    2  A    between atoms: C5_5  and  C6_6 
REMARK    3  A    between atoms: C6_6  and  C8_8 
REMARK    4  A    between atoms: C6_6  and  C24_29 
REMARK    5  A    between atoms: C9_9  and  C10_10 
REMARK    6  A    between atoms: C11_11  and  C12_12 
REMARK    7  A    between atoms: C17_17  and  C18_18 
REMARK    8  A    between atoms: C18_18  and  C19_19 
REMARK    9  A    between atoms: C21_22  and  O2_23 
REMARK   10  A    between atoms: C22_25  and  O3_26 
REMARK   11  A    between atoms: C25_30  and  C26_31 
ROOT
HETATM    1  C10 UNL     1       4.122   7.976  21.698  1.00  0.00    -0.004 C 
HETATM    2  C11 UNL     1       4.628   9.157  21.528  1.00  0.00    -0.018 C 
ENDROOT
BRANCH   2   3
HETATM    3  C12 UNL     1       5.235   9.733  20.315  1.00  0.00    -0.026 C 
HETATM    4  C13 UNL     1       6.385  10.648  20.582  1.00  0.00     0.019 C 
HETATM    5  C14 UNL     1       5.577   8.569  19.408  1.00  0.00     0.013 C 
HETATM    6  C15 UNL     1       6.185   9.103  18.163  1.00  0.00     0.001 C 
HETATM    7  C16 UNL     1       5.371  10.096  17.403  1.00  0.00     0.005 C 
HETATM    8  C17 UNL     1       4.569  11.030  18.247  1.00  0.00    -0.011 C 
HETATM    9  C23 UNL     1       4.155  10.495  19.567  1.00  0.00     0.017 C 
BRANCH   8  10
HETATM   10  C18 UNL     1       3.318  11.492  17.530  1.00  0.00     0.039 C 
BRANCH  10  11
HETATM   11  C19 UNL     1       3.471  11.599  16.054  1.00  0.00     0.153 C 
HETATM   12  O1  UNL     1       3.620  12.874  15.567  1.00  0.00    -0.381 OA
HETATM   13  C20 UNL     1       3.232  12.851  14.229  1.00  0.00     0.202 C 
HETATM   14  C21 UNL     1       2.150  11.807  14.103  1.00  0.00     0.173 C 
HETATM   15  C22 UNL     1       2.403  10.902  15.287  1.00  0.00     0.177 C 
BRANCH  14  16
HETATM   16  O2  UNL     1       0.881  12.364  14.120  1.00  0.00    -0.391 OA
ATOM     17  H2  UNL     1       0.287  11.922  13.526  1.00  0.00     0.210 HD
ENDBRANCH  14  16
BRANCH  15  18
HETATM   18  O3  UNL     1       2.848   9.673  14.753  1.00  0.00    -0.390 OA
ATOM     19  H3  UNL     1       2.182   9.252  14.224  1.00  0.00     0.210 HD
ENDBRANCH  15  18
ENDBRANCH  10  11
ENDBRANCH   8  10
ENDBRANCH   2   3
BRANCH   1  20
HETATM   20  C9  UNL     1       4.018   6.904  20.734  1.00  0.00    -0.003 C 
HETATM   21  C8  UNL     1       2.893   6.569  20.129  1.00  0.00    -0.013 C 
BRANCH  21  22
HETATM   22  C6  UNL     1       2.798   5.481  19.153  1.00  0.00    -0.008 C 
HETATM   23  C7  UNL     1       2.670   4.158  19.873  1.00  0.00     0.024 C 
BRANCH  22  24
HETATM   24  C5  UNL     1       1.771   5.679  18.099  1.00  0.00     0.025 C 
BRANCH  24  25
HETATM   25  C2  UNL     1       1.045   6.959  18.036  1.00  0.00    -0.050 C 
HETATM   26  C1  UNL     1       0.279   6.929  16.694  1.00  0.00     0.014 C 
HETATM   27  C3  UNL     1       1.943   8.175  17.947  1.00  0.00     0.014 C 
HETATM   28  C4  UNL     1      -0.001   7.209  19.067  1.00  0.00     0.014 C 
ENDBRANCH  24  25
ENDBRANCH  22  24
BRANCH  22  29
HETATM   29  C24 UNL     1       4.115   5.401  18.442  1.00  0.00    -0.011 C 
HETATM   30  C25 UNL     1       4.299   5.733  17.192  1.00  0.00     0.034 C 
BRANCH  30  31
HETATM   31  C26 UNL     1       5.603   5.627  16.579  1.00  0.00     0.074 A 
HETATM   32  C27 UNL     1       6.822   5.578  17.221  1.00  0.00     0.039 A 
HETATM   33  C28 UNL     1       7.814   5.478  16.263  1.00  0.00     0.027 A 
HETATM   34  C29 UNL     1       7.127   5.471  15.054  1.00  0.00     0.142 A 
HETATM   35  O4  UNL     1       5.858   5.559  15.292  1.00  0.00    -0.323 OA
ENDBRANCH  30  31
ENDBRANCH  22  29
ENDBRANCH  21  22
ENDBRANCH   1  20
TORSDOF 11
ENDMDL
MODEL 5
REMARK VINA RESULT: -8.862875949      2.128      4.985
REMARK  11 active torsions:
REMARK  status: ('A' for Active; 'I' for Inactive)
REMARK    1  A    between atoms: C2_2  and  C5_5 
REMARK    2  A    between atoms: C5_5  and  C6_6 
REMARK    3  A    between atoms: C6_6  and  C8_8 
REMARK    4  A    between atoms: C6_6  and  C24_29 
REMARK    5  A    between atoms: C9_9  and  C10_10 
REMARK    6  A    between atoms: C11_11  and  C12_12 
REMARK    7  A    between atoms: C17_17  and  C18_18 
REMARK    8  A    between atoms: C18_18  and  C19_19 
REMARK    9  A    between atoms: C21_22  and  O2_23 
REMARK   10  A    between atoms: C22_25  and  O3_26 
REMARK   11  A    between atoms: C25_30  and  C26_31 
ROOT
HETATM    1  C10 UNL     1       0.841   8.885  17.841  1.00  0.00    -0.004 C 
HETATM    2  C11 UNL     1       0.741   7.748  18.455  1.00  0.00    -0.018 C 
ENDROOT
BRANCH   2   3
HETATM    3  C12 UNL     1       1.764   6.701  18.629  1.00  0.00    -0.026 C 
HETATM    4  C13 UNL     1       1.294   5.509  19.397  1.00  0.00     0.019 C 
HETATM    5  C14 UNL     1       2.285   6.372  17.246  1.00  0.00     0.013 C 
HETATM    6  C15 UNL     1       3.330   5.324  17.372  1.00  0.00     0.001 C 
HETATM    7  C16 UNL     1       4.480   5.642  18.268  1.00  0.00     0.005 C 
HETATM    8  C17 UNL     1       4.130   6.431  19.485  1.00  0.00    -0.011 C 
HETATM    9  C23 UNL     1       2.951   7.321  19.347  1.00  0.00     0.017 C 
BRANCH   8  10
HETATM   10  C18 UNL     1       5.292   7.284  19.948  1.00  0.00     0.039 C 
BRANCH  10  11
HETATM   11  C19 UNL     1       5.026   8.746  19.900  1.00  0.00     0.153 C 
HETATM   12  O1  UNL     1       5.541   9.404  18.810  1.00  0.00    -0.381 OA
HETATM   13  C20 UNL     1       5.667  10.747  19.162  1.00  0.00     0.202 C 
HETATM   14  C21 UNL     1       5.966  10.787  20.640  1.00  0.00     0.173 C 
HETATM   15  C22 UNL     1       5.418   9.470  21.140  1.00  0.00     0.177 C 
BRANCH  14  16
HETATM   16  O2  UNL     1       7.320  10.933  20.896  1.00  0.00    -0.391 OA
ATOM     17  H2  UNL     1       7.490  11.196  21.792  1.00  0.00     0.210 HD
ENDBRANCH  14  16
BRANCH  15  18
HETATM   18  O3  UNL     1       4.303   9.789  21.944  1.00  0.00    -0.390 OA
ATOM     19  H3  UNL     1       3.637  10.263  21.459  1.00  0.00     0.210 HD
ENDBRANCH  15  18
ENDBRANCH  10  11
ENDBRANCH   8  10
ENDBRANCH   2   3
BRANCH   1  20
HETATM   20  C9  UNL     1       1.993   9.430  17.160  1.00  0.00    -0.003 C 
HETATM   21  C8  UNL     1       2.259   9.220  15.884  1.00  0.00    -0.013 C 
BRANCH  21  22
HETATM   22  C6  UNL     1       3.429   9.778  15.202  1.00  0.00    -0.008 C 
HETATM   23  C7  UNL     1       3.240   9.691  13.706  1.00  0.00     0.024 C 
BRANCH  22  24
HETATM   24  C5  UNL     1       3.833  11.130  15.667  1.00  0.00     0.025 C 
BRANCH  24  25
HETATM   25  C2  UNL     1       3.258  12.316  15.009  1.00  0.00    -0.050 C 
HETATM   26  C1  UNL     1       4.354  12.819  14.042  1.00  0.00     0.014 C 
HETATM   27  C3  UNL     1       2.998  13.477  15.945  1.00  0.00     0.014 C 
HETATM   28  C4  UNL     1       2.057  12.113  14.151  1.00  0.00     0.014 C 
ENDBRANCH  24  25
ENDBRANCH  22  24
BRANCH  22  29
HETATM   29  C24 UNL     1       4.589   8.874  15.492  1.00  0.00    -0.011 C 
HETATM   30  C25 UNL     1       4.819   7.748  14.872  1.00  0.00     0.034 C 
BRANCH  30  31
HETATM   31  C26 UNL     1       5.963   6.933  15.211  1.00  0.00     0.074 A 
HETATM   32  C27 UNL     1       6.966   7.239  16.106  1.00  0.00     0.039 A 
HETATM   33  C28 UNL     1       7.863   6.187  16.129  1.00  0.00     0.027 A 
HETATM   34  C29 UNL     1       7.345   5.270  15.222  1.00  0.00     0.142 A 
HETATM   35  O4  UNL     1       6.251   5.748  14.722  1.00  0.00    -0.323 OA
ENDBRANCH  30  31
ENDBRANCH  22  29
ENDBRANCH  21  22
ENDBRANCH   1  20
TORSDOF 11
ENDMDL
