MODEL 1
REMARK VINA RESULT: -8.717768223      0.000      0.000
REMARK  12 active torsions:
REMARK  status: ('A' for Active; 'I' for Inactive)
REMARK    1  A    between atoms: C2_2  and  O2_4 
REMARK    2  A    between atoms: O2_4  and  C3_5 
REMARK    3  A    between atoms: C7_9  and  O3_10 
REMARK    4  A    between atoms: C11_15  and  C12_16 
REMARK    5  A    between atoms: C12_16  and  C13_17 
REMARK    6  A    between atoms: C13_17  and  C14_18 
REMARK    7  A    between atoms: C14_18  and  C15_20 
REMARK    8  A    between atoms: C15_20  and  C16_21 
REMARK    9  A    between atoms: C16_21  and  C17_22 
REMARK   10  A    between atoms: C17_22  and  C18_23 
REMARK   11  A    between atoms: C18_23  and  N1_25 
REMARK   12  A    between atoms: N1_25  and  C20_27 
ROOT
HETATM    1  C3  UNL     1       4.686   7.194  21.325  1.00  0.00     0.137 C 
HETATM    2  C4  UNL     1       5.699   8.255  21.528  1.00  0.00     0.045 C 
HETATM    3  C5  UNL     1       6.155   8.951  20.292  1.00  0.00    -0.011 C 
HETATM    4  C6  UNL     1       7.618   8.776  20.091  1.00  0.00     0.018 C 
HETATM    5  C7  UNL     1       5.901  10.454  20.342  1.00  0.00     0.126 C 
HETATM    6  C8  UNL     1       5.831  10.811  18.875  1.00  0.00     0.033 C 
HETATM    7  C9  UNL     1       5.737   9.510  18.088  1.00  0.00     0.009 C 
HETATM    8  C10 UNL     1       5.261   8.592  19.176  1.00  0.00     0.005 C 
HETATM    9  C11 UNL     1       5.033   7.194  18.825  1.00  0.00    -0.030 C 
HETATM   10  C24 UNL     1       3.783   7.179  17.928  1.00  0.00     0.010 C 
HETATM   11  C25 UNL     1       2.534   7.636  18.589  1.00  0.00     0.001 C 
HETATM   12  C26 UNL     1       2.214   6.736  19.765  1.00  0.00     0.001 C 
HETATM   13  C27 UNL     1       3.320   5.763  19.963  1.00  0.00     0.008 C 
HETATM   14  C28 UNL     1       4.707   6.429  20.058  1.00  0.00     0.024 C 
ENDROOT
BRANCH   9  15
HETATM   15  C12 UNL     1       6.097   6.543  17.945  1.00  0.00     0.018 C 
BRANCH  15  16
HETATM   16  C13 UNL     1       5.524   5.671  16.907  1.00  0.00     0.079 C 
BRANCH  16  17
HETATM   17  C14 UNL     1       6.408   5.662  15.682  1.00  0.00     0.127 C 
HETATM   18  O4  UNL     1       6.869   4.694  15.167  1.00  0.00    -0.298 OA
BRANCH  17  19
HETATM   19  C15 UNL     1       6.686   7.041  15.133  1.00  0.00     0.082 C 
BRANCH  19  20
HETATM   20  C16 UNL     1       5.791   7.519  14.078  1.00  0.00     0.037 C 
BRANCH  20  21
HETATM   21  C17 UNL     1       4.739   8.421  14.580  1.00  0.00     0.002 C 
BRANCH  21  22
HETATM   22  C18 UNL     1       3.779   9.003  13.844  1.00  0.00     0.015 C 
HETATM   23  C19 UNL     1       2.726   8.575  13.020  1.00  0.00     0.042 C 
BRANCH  22  24
HETATM   24  N1  UNL     1       3.921  10.484  13.938  1.00  0.00    -0.383 N 
ATOM     25  H1  UNL     1       4.569  10.963  13.313  1.00  0.00     0.160 HD
BRANCH  24  26
HETATM   26  C20 UNL     1       3.180  11.236  14.874  1.00  0.00     0.019 C 
HETATM   27  C21 UNL     1       2.554  10.498  16.007  1.00  0.00     0.037 C 
HETATM   28  C22 UNL     1       2.064  11.967  14.119  1.00  0.00     0.037 C 
HETATM   29  C23 UNL     1       4.120  12.280  15.486  1.00  0.00     0.037 C 
ENDBRANCH  24  26
ENDBRANCH  22  24
ENDBRANCH  21  22
ENDBRANCH  20  21
ENDBRANCH  19  20
ENDBRANCH  17  19
ENDBRANCH  16  17
ENDBRANCH  15  16
ENDBRANCH   9  15
BRANCH   1  30
HETATM   30  O2  UNL     1       4.838   6.273  22.422  1.00  0.00    -0.316 OA
BRANCH  30  31
HETATM   31  C2  UNL     1       4.454   6.629  23.728  1.00  0.00     0.255 C 
HETATM   32  C1  UNL     1       2.983   6.644  23.979  1.00  0.00     0.126 C 
HETATM   33  O1  UNL     1       5.335   6.892  24.545  1.00  0.00    -0.266 OA
ENDBRANCH  30  31
ENDBRANCH   1  30
BRANCH   5  34
HETATM   34  O3  UNL     1       6.930  11.148  20.992  1.00  0.00    -0.395 OA
ATOM     35  H3  UNL     1       7.051  12.025  20.645  1.00  0.00     0.210 HD
ENDBRANCH   5  34
TORSDOF 12
ENDMDL
MODEL 2
REMARK VINA RESULT: -8.695429920      2.889      6.313
REMARK  12 active torsions:
REMARK  status: ('A' for Active; 'I' for Inactive)
REMARK    1  A    between atoms: C2_2  and  O2_4 
REMARK    2  A    between atoms: O2_4  and  C3_5 
REMARK    3  A    between atoms: C7_9  and  O3_10 
REMARK    4  A    between atoms: C11_15  and  C12_16 
REMARK    5  A    between atoms: C12_16  and  C13_17 
REMARK    6  A    between atoms: C13_17  and  C14_18 
REMARK    7  A    between atoms: C14_18  and  C15_20 
REMARK    8  A    between atoms: C15_20  and  C16_21 
REMARK    9  A    between atoms: C16_21  and  C17_22 
REMARK   10  A    between atoms: C17_22  and  C18_23 
REMARK   11  A    between atoms: C18_23  and  N1_25 
REMARK   12  A    between atoms: N1_25  and  C20_27 
ROOT
HETATM    1  C3  UNL     1       2.924   9.139  17.693  1.00  0.00     0.137 C 
HETATM    2  C4  UNL     1       3.726   9.567  16.524  1.00  0.00     0.045 C 
HETATM    3  C5  UNL     1       3.833   8.570  15.422  1.00  0.00    -0.011 C 
HETATM    4  C6  UNL     1       5.251   8.192  15.182  1.00  0.00     0.018 C 
HETATM    5  C7  UNL     1       3.297   9.105  14.098  1.00  0.00     0.126 C 
HETATM    6  C8  UNL     1       2.927   7.832  13.371  1.00  0.00     0.033 C 
HETATM    7  C9  UNL     1       2.970   6.694  14.382  1.00  0.00     0.009 C 
HETATM    8  C10 UNL     1       2.864   7.484  15.654  1.00  0.00     0.005 C 
HETATM    9  C11 UNL     1       2.865   6.740  16.909  1.00  0.00    -0.030 C 
HETATM   10  C24 UNL     1       1.517   6.001  16.968  1.00  0.00     0.010 C 
HETATM   11  C25 UNL     1       0.323   6.881  17.024  1.00  0.00     0.001 C 
HETATM   12  C26 UNL     1       0.378   7.746  18.267  1.00  0.00     0.001 C 
HETATM   13  C27 UNL     1       1.672   7.532  18.966  1.00  0.00     0.008 C 
HETATM   14  C28 UNL     1       2.897   7.702  18.044  1.00  0.00     0.024 C 
ENDROOT
BRANCH   9  15
HETATM   15  C12 UNL     1       3.885   5.609  17.016  1.00  0.00     0.018 C 
BRANCH  15  16
HETATM   16  C13 UNL     1       4.726   5.711  18.220  1.00  0.00     0.079 C 
BRANCH  16  17
HETATM   17  C14 UNL     1       6.173   5.918  17.834  1.00  0.00     0.127 C 
HETATM   18  O4  UNL     1       6.793   5.238  17.081  1.00  0.00    -0.298 OA
BRANCH  17  19
HETATM   19  C15 UNL     1       6.810   7.107  18.512  1.00  0.00     0.082 C 
BRANCH  19  20
HETATM   20  C16 UNL     1       6.250   7.501  19.806  1.00  0.00     0.037 C 
BRANCH  20  21
HETATM   21  C17 UNL     1       6.981   6.927  20.950  1.00  0.00     0.002 C 
BRANCH  21  22
HETATM   22  C18 UNL     1       6.627   7.021  22.242  1.00  0.00     0.015 C 
HETATM   23  C19 UNL     1       7.085   7.707  23.376  1.00  0.00     0.042 C 
BRANCH  22  24
HETATM   24  N1  UNL     1       5.455   6.135  22.493  1.00  0.00    -0.383 N 
ATOM     25  H1  UNL     1       5.595   5.126  22.546  1.00  0.00     0.160 HD
BRANCH  24  26
HETATM   26  C20 UNL     1       4.156   6.661  22.657  1.00  0.00     0.019 C 
HETATM   27  C21 UNL     1       3.974   8.123  22.433  1.00  0.00     0.037 C 
HETATM   28  C22 UNL     1       3.692   6.346  24.083  1.00  0.00     0.037 C 
HETATM   29  C23 UNL     1       3.230   5.940  21.671  1.00  0.00     0.037 C 
ENDBRANCH  24  26
ENDBRANCH  22  24
ENDBRANCH  21  22
ENDBRANCH  20  21
ENDBRANCH  19  20
ENDBRANCH  17  19
ENDBRANCH  16  17
ENDBRANCH  15  16
ENDBRANCH   9  15
BRANCH   1  30
HETATM   30  O2  UNL     1       3.427   9.879  18.822  1.00  0.00    -0.316 OA
BRANCH  30  31
HETATM   31  C2  UNL     1       3.031  11.210  19.053  1.00  0.00     0.255 C 
HETATM   32  C1  UNL     1       4.129  12.147  19.427  1.00  0.00     0.126 C 
HETATM   33  O1  UNL     1       1.840  11.495  18.929  1.00  0.00    -0.266 OA
ENDBRANCH  30  31
ENDBRANCH   1  30
BRANCH   5  34
HETATM   34  O3  UNL     1       4.257   9.840  13.391  1.00  0.00    -0.395 OA
ATOM     35  H3  UNL     1       4.280  10.754  13.652  1.00  0.00     0.210 HD
ENDBRANCH   5  34
TORSDOF 12
ENDMDL
MODEL 3
REMARK VINA RESULT: -8.629425962      2.843      6.893
REMARK  12 active torsions:
REMARK  status: ('A' for Active; 'I' for Inactive)
REMARK    1  A    between atoms: C2_2  and  O2_4 
REMARK    2  A    between atoms: O2_4  and  C3_5 
REMARK    3  A    between atoms: C7_9  and  O3_10 
REMARK    4  A    between atoms: C11_15  and  C12_16 
REMARK    5  A    between atoms: C12_16  and  C13_17 
REMARK    6  A    between atoms: C13_17  and  C14_18 
REMARK    7  A    between atoms: C14_18  and  C15_20 
REMARK    8  A    between atoms: C15_20  and  C16_21 
REMARK    9  A    between atoms: C16_21  and  C17_22 
REMARK   10  A    between atoms: C17_22  and  C18_23 
REMARK   11  A    between atoms: C18_23  and  N1_25 
REMARK   12  A    between atoms: N1_25  and  C20_27 
ROOT
HETATM    1  C3  UNL     1       4.704   6.544  17.527  1.00  0.00     0.137 C 
HETATM    2  C4  UNL     1       4.275   5.686  18.656  1.00  0.00     0.045 C 
HETATM    3  C5  UNL     1       2.807   5.649  18.911  1.00  0.00    -0.011 C 
HETATM    4  C6  UNL     1       2.492   6.141  20.278  1.00  0.00     0.018 C 
HETATM    5  C7  UNL     1       2.235   4.239  18.815  1.00  0.00     0.126 C 
HETATM    6  C8  UNL     1       0.786   4.510  18.479  1.00  0.00     0.033 C 
HETATM    7  C9  UNL     1       0.667   5.981  18.103  1.00  0.00     0.009 C 
HETATM    8  C10 UNL     1       2.102   6.274  17.777  1.00  0.00     0.005 C 
HETATM    9  C11 UNL     1       2.432   7.630  17.352  1.00  0.00    -0.030 C 
HETATM   10  C24 UNL     1       1.824   7.796  15.948  1.00  0.00     0.010 C 
HETATM   11  C25 UNL     1       2.394   6.900  14.911  1.00  0.00     0.001 C 
HETATM   12  C26 UNL     1       3.877   7.168  14.756  1.00  0.00     0.001 C 
HETATM   13  C27 UNL     1       4.316   8.149  15.783  1.00  0.00     0.008 C 
HETATM   14  C28 UNL     1       3.909   7.753  17.216  1.00  0.00     0.024 C 
ENDROOT
BRANCH   9  15
HETATM   15  C12 UNL     1       1.779   8.758  18.147  1.00  0.00     0.018 C 
BRANCH  15  16
HETATM   16  C13 UNL     1       1.951  10.076  17.514  1.00  0.00     0.079 C 
BRANCH  16  17
HETATM   17  C14 UNL     1       2.422  11.090  18.530  1.00  0.00     0.127 C 
HETATM   18  O4  UNL     1       1.733  11.883  19.089  1.00  0.00    -0.298 OA
BRANCH  17  19
HETATM   19  C15 UNL     1       3.907  11.026  18.796  1.00  0.00     0.082 C 
BRANCH  19  20
HETATM   20  C16 UNL     1       4.315  10.721  20.167  1.00  0.00     0.037 C 
BRANCH  20  21
HETATM   21  C17 UNL     1       4.869   9.363  20.315  1.00  0.00     0.002 C 
BRANCH  21  22
HETATM   22  C18 UNL     1       5.949   9.024  21.037  1.00  0.00     0.015 C 
HETATM   23  C19 UNL     1       7.319   8.840  20.797  1.00  0.00     0.042 C 
BRANCH  22  24
HETATM   24  N1  UNL     1       5.534   8.764  22.446  1.00  0.00    -0.383 N 
ATOM     25  H1  UNL     1       5.293   9.551  23.048  1.00  0.00     0.160 HD
BRANCH  24  26
HETATM   26  C20 UNL     1       5.466   7.453  22.963  1.00  0.00     0.019 C 
HETATM   27  C21 UNL     1       5.791   6.331  22.037  1.00  0.00     0.037 C 
HETATM   28  C22 UNL     1       4.046   7.224  23.493  1.00  0.00     0.037 C 
HETATM   29  C23 UNL     1       6.446   7.361  24.137  1.00  0.00     0.037 C 
ENDBRANCH  24  26
ENDBRANCH  22  24
ENDBRANCH  21  22
ENDBRANCH  20  21
ENDBRANCH  19  20
ENDBRANCH  17  19
ENDBRANCH  16  17
ENDBRANCH  15  16
ENDBRANCH   9  15
BRANCH   1  30
HETATM   30  O2  UNL     1       6.057   6.945  17.814  1.00  0.00    -0.316 OA
BRANCH  30  31
HETATM   31  C2  UNL     1       7.132   6.489  17.028  1.00  0.00     0.255 C 
HETATM   32  C1  UNL     1       7.861   7.546  16.269  1.00  0.00     0.126 C 
HETATM   33  O1  UNL     1       7.385   5.285  17.026  1.00  0.00    -0.266 OA
ENDBRANCH  30  31
ENDBRANCH   1  30
BRANCH   5  34
HETATM   34  O3  UNL     1       2.360   3.528  20.016  1.00  0.00    -0.395 OA
ATOM     35  H3  UNL     1       1.609   2.972  20.188  1.00  0.00     0.210 HD
ENDBRANCH   5  34
TORSDOF 12
ENDMDL
MODEL 4
REMARK VINA RESULT: -8.583822638      2.239      4.374
REMARK  12 active torsions:
REMARK  status: ('A' for Active; 'I' for Inactive)
REMARK    1  A    between atoms: C2_2  and  O2_4 
REMARK    2  A    between atoms: O2_4  and  C3_5 
REMARK    3  A    between atoms: C7_9  and  O3_10 
REMARK    4  A    between atoms: C11_15  and  C12_16 
REMARK    5  A    between atoms: C12_16  and  C13_17 
REMARK    6  A    between atoms: C13_17  and  C14_18 
REMARK    7  A    between atoms: C14_18  and  C15_20 
REMARK    8  A    between atoms: C15_20  and  C16_21 
REMARK    9  A    between atoms: C16_21  and  C17_22 
REMARK   10  A    between atoms: C17_22  and  C18_23 
REMARK   11  A    between atoms: C18_23  and  N1_25 
REMARK   12  A    between atoms: N1_25  and  C20_27 
ROOT
HETATM    1  C3  UNL     1       3.219   8.853  18.882  1.00  0.00     0.137 C 
HETATM    2  C4  UNL     1       2.137   8.512  17.928  1.00  0.00     0.045 C 
HETATM    3  C5  UNL     1       1.830   7.060  17.801  1.00  0.00    -0.011 C 
HETATM    4  C6  UNL     1       2.045   6.591  16.406  1.00  0.00     0.018 C 
HETATM    5  C7  UNL     1       0.380   6.738  18.147  1.00  0.00     0.126 C 
HETATM    6  C8  UNL     1       0.469   5.286  18.556  1.00  0.00     0.033 C 
HETATM    7  C9  UNL     1       1.943   4.942  18.721  1.00  0.00     0.009 C 
HETATM    8  C10 UNL     1       2.507   6.324  18.884  1.00  0.00     0.005 C 
HETATM    9  C11 UNL     1       3.948   6.444  19.079  1.00  0.00    -0.030 C 
HETATM   10  C24 UNL     1       4.234   5.896  20.488  1.00  0.00     0.010 C 
HETATM   11  C25 UNL     1       3.613   6.665  21.596  1.00  0.00     0.001 C 
HETATM   12  C26 UNL     1       4.132   8.088  21.589  1.00  0.00     0.001 C 
HETATM   13  C27 UNL     1       4.996   8.298  20.399  1.00  0.00     0.008 C 
HETATM   14  C28 UNL     1       4.321   7.884  19.076  1.00  0.00     0.024 C 
ENDROOT
BRANCH   9  15
HETATM   15  C12 UNL     1       4.820   5.568  18.183  1.00  0.00     0.018 C 
BRANCH  15  16
HETATM   16  C13 UNL     1       5.871   6.329  17.489  1.00  0.00     0.079 C 
BRANCH  16  17
HETATM   17  C14 UNL     1       5.943   5.922  16.036  1.00  0.00     0.127 C 
HETATM   18  O4  UNL     1       5.858   4.810  15.623  1.00  0.00    -0.298 OA
BRANCH  17  19
HETATM   19  C15 UNL     1       6.147   7.087  15.097  1.00  0.00     0.082 C 
BRANCH  19  20
HETATM   20  C16 UNL     1       4.943   7.669  14.504  1.00  0.00     0.037 C 
BRANCH  20  21
HETATM   21  C17 UNL     1       4.576   8.967  15.099  1.00  0.00     0.002 C 
BRANCH  21  22
HETATM   22  C18 UNL     1       3.634   9.808  14.642  1.00  0.00     0.015 C 
HETATM   23  C19 UNL     1       2.805   9.894  13.514  1.00  0.00     0.042 C 
BRANCH  22  24
HETATM   24  N1  UNL     1       3.480  10.937  15.604  1.00  0.00    -0.383 N 
ATOM     25  H1  UNL     1       2.945  10.794  16.460  1.00  0.00     0.160 HD
BRANCH  24  26
HETATM   26  C20 UNL     1       4.059  12.200  15.355  1.00  0.00     0.019 C 
HETATM   27  C21 UNL     1       4.386  12.539  13.941  1.00  0.00     0.037 C 
HETATM   28  C22 UNL     1       5.353  12.298  16.170  1.00  0.00     0.037 C 
HETATM   29  C23 UNL     1       3.084  13.270  15.857  1.00  0.00     0.037 C 
ENDBRANCH  24  26
ENDBRANCH  22  24
ENDBRANCH  21  22
ENDBRANCH  20  21
ENDBRANCH  19  20
ENDBRANCH  17  19
ENDBRANCH  16  17
ENDBRANCH  15  16
ENDBRANCH   9  15
BRANCH   1  30
HETATM   30  O2  UNL     1       3.778  10.102  18.431  1.00  0.00    -0.316 OA
BRANCH  30  31
HETATM   31  C2  UNL     1       3.567  11.293  19.150  1.00  0.00     0.255 C 
HETATM   32  C1  UNL     1       4.792  11.910  19.737  1.00  0.00     0.126 C 
HETATM   33  O1  UNL     1       2.419  11.727  19.238  1.00  0.00    -0.266 OA
ENDBRANCH  30  31
ENDBRANCH   1  30
BRANCH   5  34
HETATM   34  O3  UNL     1      -0.482   6.914  17.057  1.00  0.00    -0.395 OA
ATOM     35  H3  UNL     1      -0.657   6.100  16.597  1.00  0.00     0.210 HD
ENDBRANCH   5  34
TORSDOF 12
ENDMDL
MODEL 5
REMARK VINA RESULT: -8.541663845      2.742      7.506
REMARK  12 active torsions:
REMARK  status: ('A' for Active; 'I' for Inactive)
REMARK    1  A    between atoms: C2_2  and  O2_4 
REMARK    2  A    between atoms: O2_4  and  C3_5 
REMARK    3  A    between atoms: C7_9  and  O3_10 
REMARK    4  A    between atoms: C11_15  and  C12_16 
REMARK    5  A    between atoms: C12_16  and  C13_17 
REMARK    6  A    between atoms: C13_17  and  C14_18 
REMARK    7  A    between atoms: C14_18  and  C15_20 
REMARK    8  A    between atoms: C15_20  and  C16_21 
REMARK    9  A    between atoms: C16_21  and  C17_22 
REMARK   10  A    between atoms: C17_22  and  C18_23 
REMARK   11  A    between atoms: C18_23  and  N1_25 
REMARK   12  A    between atoms: N1_25  and  C20_27 
ROOT
HETATM    1  C3  UNL     1       3.785   7.261  15.848  1.00  0.00     0.137 C 
HETATM    2  C4  UNL     1       3.093   6.049  16.345  1.00  0.00     0.045 C 
HETATM    3  C5  UNL     1       2.251   6.245  17.558  1.00  0.00    -0.011 C 
HETATM    4  C6  UNL     1       2.729   5.396  18.681  1.00  0.00     0.018 C 
HETATM    5  C7  UNL     1       0.792   5.869  17.322  1.00  0.00     0.126 C 
HETATM    6  C8  UNL     1       0.080   6.697  18.367  1.00  0.00     0.033 C 
HETATM    7  C9  UNL     1       1.082   7.701  18.921  1.00  0.00     0.009 C 
HETATM    8  C10 UNL     1       2.091   7.689  17.810  1.00  0.00     0.005 C 
HETATM    9  C11 UNL     1       3.258   8.553  17.950  1.00  0.00    -0.030 C 
HETATM   10  C24 UNL     1       2.741   9.994  17.795  1.00  0.00     0.010 C 
HETATM   11  C25 UNL     1       2.165  10.311  16.464  1.00  0.00     0.001 C 
HETATM   12  C26 UNL     1       3.218  10.127  15.389  1.00  0.00     0.001 C 
HETATM   13  C27 UNL     1       4.453   9.563  15.993  1.00  0.00     0.008 C 
HETATM   14  C28 UNL     1       4.197   8.291  16.827  1.00  0.00     0.024 C 
ENDROOT
BRANCH   9  15
HETATM   15  C12 UNL     1       3.917   8.569  19.328  1.00  0.00     0.018 C 
BRANCH  15  16
HETATM   16  C13 UNL     1       4.278   9.925  19.772  1.00  0.00     0.079 C 
BRANCH  16  17
HETATM   17  C14 UNL     1       5.681   9.939  20.331  1.00  0.00     0.127 C 
HETATM   18  O4  UNL     1       6.073  10.644  21.205  1.00  0.00    -0.298 OA
BRANCH  17  19
HETATM   19  C15 UNL     1       6.602   8.947  19.662  1.00  0.00     0.082 C 
BRANCH  19  20
HETATM   20  C16 UNL     1       7.486   8.178  20.539  1.00  0.00     0.037 C 
BRANCH  20  21
HETATM   21  C17 UNL     1       6.784   7.109  21.272  1.00  0.00     0.002 C 
BRANCH  21  22
HETATM   22  C18 UNL     1       6.604   7.049  22.601  1.00  0.00     0.015 C 
HETATM   23  C19 UNL     1       7.214   7.599  23.738  1.00  0.00     0.042 C 
BRANCH  22  24
HETATM   24  N1  UNL     1       5.467   6.131  22.898  1.00  0.00    -0.383 N 
ATOM     25  H1  UNL     1       5.647   5.134  23.010  1.00  0.00     0.160 HD
BRANCH  24  26
HETATM   26  C20 UNL     1       4.147   6.613  23.027  1.00  0.00     0.019 C 
HETATM   27  C21 UNL     1       3.937   8.084  22.903  1.00  0.00     0.037 C 
HETATM   28  C22 UNL     1       3.614   6.179  24.397  1.00  0.00     0.037 C 
HETATM   29  C23 UNL     1       3.297   5.948  21.939  1.00  0.00     0.037 C 
ENDBRANCH  24  26
ENDBRANCH  22  24
ENDBRANCH  21  22
ENDBRANCH  20  21
ENDBRANCH  19  20
ENDBRANCH  17  19
ENDBRANCH  16  17
ENDBRANCH  15  16
ENDBRANCH   9  15
BRANCH   1  30
HETATM   30  O2  UNL     1       4.956   6.800  15.145  1.00  0.00    -0.316 OA
BRANCH  30  31
HETATM   31  C2  UNL     1       5.174   7.140  13.798  1.00  0.00     0.255 C 
HETATM   32  C1  UNL     1       6.605   7.190  13.376  1.00  0.00     0.126 C 
HETATM   33  O1  UNL     1       4.197   7.363  13.085  1.00  0.00    -0.266 OA
ENDBRANCH  30  31
ENDBRANCH   1  30
BRANCH   5  34
HETATM   34  O3  UNL     1       0.556   4.500  17.502  1.00  0.00    -0.395 OA
ATOM     35  H3  UNL     1       1.054   4.138  18.226  1.00  0.00     0.210 HD
ENDBRANCH   5  34
TORSDOF 12
ENDMDL
