MODEL 1
REMARK VINA RESULT: -9.013592680      0.000      0.000
REMARK  12 active torsions:
REMARK  status: ('A' for Active; 'I' for Inactive)
REMARK    1  A    between atoms: C6_8  and  O3_9 
REMARK    2  A    between atoms: C7_11  and  C8_12 
REMARK    3  A    between atoms: C8_12  and  C9_13 
REMARK    4  A    between atoms: C9_13  and  C10_14 
REMARK    5  A    between atoms: C10_14  and  C11_15 
REMARK    6  A    between atoms: C11_15  and  C12_16 
REMARK    7  A    between atoms: C13_17  and  C14_18 
REMARK    8  A    between atoms: C14_18  and  C15_19 
REMARK    9  A    between atoms: C15_19  and  C16_20 
REMARK   10  A    between atoms: C16_20  and  C17_21 
REMARK   11  A    between atoms: C19_23  and  C21_25 
REMARK   12  A    between atoms: C27_31  and  O4_32 
ROOT
HETATM    1  C1  UNL     1       4.143  11.397  14.385  1.00  0.00     0.025 C 
HETATM    2  C2  UNL     1       3.666  11.825  15.535  1.00  0.00     0.014 C 
HETATM    3  C3  UNL     1       2.728  12.989  15.709  1.00  0.00     0.289 C 
HETATM    4  O1  UNL     1       2.404  13.687  14.708  1.00  0.00    -0.260 OA
HETATM    5  O2  UNL     1       2.382  13.066  17.037  1.00  0.00    -0.311 OA
HETATM    6  C4  UNL     1       2.794  11.933  17.669  1.00  0.00     0.147 C 
HETATM    7  C5  UNL     1       3.178  11.998  19.106  1.00  0.00     0.098 C 
HETATM    8  C6  UNL     1       4.540  11.599  19.436  1.00  0.00     0.052 C 
HETATM    9  C7  UNL     1       5.059  10.202  19.208  1.00  0.00    -0.020 C 
HETATM   10  C19 UNL     1       4.412   9.300  18.287  1.00  0.00    -0.008 C 
HETATM   11  C20 UNL     1       3.252   8.578  18.942  1.00  0.00     0.021 C 
HETATM   12  C28 UNL     1       3.813   9.898  17.026  1.00  0.00     0.026 C 
HETATM   13  C29 UNL     1       3.920  11.373  16.899  1.00  0.00     0.055 C 
ENDROOT
BRANCH   9  14
HETATM   14  C8  UNL     1       5.534   9.762  20.572  1.00  0.00     0.010 C 
BRANCH  14  15
HETATM   15  C9  UNL     1       6.621   8.867  20.787  1.00  0.00    -0.003 C 
BRANCH  15  16
HETATM   16  C10 UNL     1       6.523   7.652  21.263  1.00  0.00    -0.023 C 
BRANCH  16  17
HETATM   17  C11 UNL     1       5.339   7.074  21.990  1.00  0.00     0.054 C 
BRANCH  17  18
HETATM   18  C12 UNL     1       4.596   6.234  21.053  1.00  0.00    -0.015 C 
HETATM   19  C13 UNL     1       3.310   5.858  21.311  1.00  0.00     0.047 C 
BRANCH  19  20
HETATM   20  C14 UNL     1       2.632   5.057  20.406  1.00  0.00    -0.156 C 
BRANCH  20  21
HETATM   21  C15 UNL     1       2.073   4.325  19.588  1.00  0.00     0.085 C 
BRANCH  21  22
HETATM   22  C16 UNL     1       1.287   4.597  18.389  1.00  0.00     0.011 C 
BRANCH  22  23
HETATM   23  C17 UNL     1       0.646   5.955  18.340  1.00  0.00    -0.004 C 
HETATM   24  C18 UNL     1       0.635   6.532  16.938  1.00  0.00     0.005 C 
ENDBRANCH  22  23
ENDBRANCH  21  22
ENDBRANCH  20  21
ENDBRANCH  19  20
ENDBRANCH  17  18
ENDBRANCH  16  17
ENDBRANCH  15  16
ENDBRANCH  14  15
ENDBRANCH   9  14
BRANCH   8  25
HETATM   25  O3  UNL     1       5.531  12.599  19.208  1.00  0.00    -0.364 OA
ATOM     26  H3  UNL     1       6.353  12.276  18.859  1.00  0.00     0.217 HD
ENDBRANCH   8  25
BRANCH  10  27
HETATM   27  C21 UNL     1       5.299   8.182  17.742  1.00  0.00     0.027 C 
HETATM   28  C22 UNL     1       6.309   8.613  16.737  1.00  0.00     0.009 C 
HETATM   29  C23 UNL     1       7.334   7.457  16.623  1.00  0.00     0.005 C 
HETATM   30  C24 UNL     1       6.537   6.287  16.083  1.00  0.00    -0.016 C 
HETATM   31  C25 UNL     1       7.394   5.189  15.550  1.00  0.00     0.010 C 
HETATM   32  C26 UNL     1       5.617   5.865  17.213  1.00  0.00     0.036 C 
HETATM   33  C27 UNL     1       4.520   6.969  17.276  1.00  0.00     0.123 C 
BRANCH  33  34
HETATM   34  O4  UNL     1       4.015   7.005  16.015  1.00  0.00    -0.395 OA
ATOM     35  H4  UNL     1       3.667   6.193  15.665  1.00  0.00     0.210 HD
ENDBRANCH  33  34
ENDBRANCH  10  27
TORSDOF 12
ENDMDL
MODEL 2
REMARK VINA RESULT: -9.011111318      0.973      1.261
REMARK  12 active torsions:
REMARK  status: ('A' for Active; 'I' for Inactive)
REMARK    1  A    between atoms: C6_8  and  O3_9 
REMARK    2  A    between atoms: C7_11  and  C8_12 
REMARK    3  A    between atoms: C8_12  and  C9_13 
REMARK    4  A    between atoms: C9_13  and  C10_14 
REMARK    5  A    between atoms: C10_14  and  C11_15 
REMARK    6  A    between atoms: C11_15  and  C12_16 
REMARK    7  A    between atoms: C13_17  and  C14_18 
REMARK    8  A    between atoms: C14_18  and  C15_19 
REMARK    9  A    between atoms: C15_19  and  C16_20 
REMARK   10  A    between atoms: C16_20  and  C17_21 
REMARK   11  A    between atoms: C19_23  and  C21_25 
REMARK   12  A    between atoms: C27_31  and  O4_32 
ROOT
HETATM    1  C1  UNL     1       3.456  11.516  14.145  1.00  0.00     0.025 C 
HETATM    2  C2  UNL     1       3.251  11.919  15.382  1.00  0.00     0.014 C 
HETATM    3  C3  UNL     1       2.490  13.155  15.780  1.00  0.00     0.289 C 
HETATM    4  O1  UNL     1       2.061  13.940  14.888  1.00  0.00    -0.260 OA
HETATM    5  O2  UNL     1       2.410  13.186  17.152  1.00  0.00    -0.311 OA
HETATM    6  C4  UNL     1       2.810  11.983  17.647  1.00  0.00     0.147 C 
HETATM    7  C5  UNL     1       3.460  11.924  18.984  1.00  0.00     0.098 C 
HETATM    8  C6  UNL     1       4.811  11.377  19.029  1.00  0.00     0.052 C 
HETATM    9  C7  UNL     1       5.127   9.953  18.650  1.00  0.00    -0.020 C 
HETATM   10  C19 UNL     1       4.227   9.174  17.835  1.00  0.00    -0.008 C 
HETATM   11  C20 UNL     1       3.141   8.530  18.671  1.00  0.00     0.021 C 
HETATM   12  C28 UNL     1       3.469   9.901  16.738  1.00  0.00     0.026 C 
HETATM   13  C29 UNL     1       3.706  11.364  16.653  1.00  0.00     0.055 C 
ENDROOT
BRANCH   9  14
HETATM   14  C8  UNL     1       5.799   9.388  19.878  1.00  0.00     0.010 C 
BRANCH  14  15
HETATM   15  C9  UNL     1       5.396   9.681  21.213  1.00  0.00    -0.003 C 
BRANCH  15  16
HETATM   16  C10 UNL     1       4.648   8.915  21.966  1.00  0.00    -0.023 C 
BRANCH  16  17
HETATM   17  C11 UNL     1       5.024   7.563  22.511  1.00  0.00     0.054 C 
BRANCH  17  18
HETATM   18  C12 UNL     1       4.544   6.547  21.576  1.00  0.00    -0.015 C 
HETATM   19  C13 UNL     1       3.215   6.261  21.469  1.00  0.00     0.047 C 
BRANCH  19  20
HETATM   20  C14 UNL     1       2.790   5.289  20.578  1.00  0.00    -0.156 C 
BRANCH  20  21
HETATM   21  C15 UNL     1       2.417   4.390  19.821  1.00  0.00     0.085 C 
BRANCH  21  22
HETATM   22  C16 UNL     1       1.300   4.280  18.889  1.00  0.00     0.011 C 
BRANCH  22  23
HETATM   23  C17 UNL     1       1.207   5.380  17.870  1.00  0.00    -0.004 C 
HETATM   24  C18 UNL     1       0.153   6.408  18.233  1.00  0.00     0.005 C 
ENDBRANCH  22  23
ENDBRANCH  21  22
ENDBRANCH  20  21
ENDBRANCH  19  20
ENDBRANCH  17  18
ENDBRANCH  16  17
ENDBRANCH  15  16
ENDBRANCH  14  15
ENDBRANCH   9  14
BRANCH   8  25
HETATM   25  O3  UNL     1       5.841  12.289  18.655  1.00  0.00    -0.364 OA
ATOM     26  H3  UNL     1       6.560  12.357  19.273  1.00  0.00     0.217 HD
ENDBRANCH   8  25
BRANCH  10  27
HETATM   27  C21 UNL     1       4.873   8.011  17.085  1.00  0.00     0.027 C 
HETATM   28  C22 UNL     1       5.447   6.944  17.949  1.00  0.00     0.009 C 
HETATM   29  C23 UNL     1       5.675   5.715  17.035  1.00  0.00     0.005 C 
HETATM   30  C24 UNL     1       6.708   6.170  16.025  1.00  0.00    -0.016 C 
HETATM   31  C25 UNL     1       7.343   5.042  15.286  1.00  0.00     0.010 C 
HETATM   32  C26 UNL     1       5.996   7.174  15.138  1.00  0.00     0.036 C 
HETATM   33  C27 UNL     1       5.847   8.454  16.012  1.00  0.00     0.123 C 
BRANCH  33  34
HETATM   34  O4  UNL     1       7.116   8.733  16.407  1.00  0.00    -0.395 OA
ATOM     35  H4  UNL     1       7.822   8.366  15.887  1.00  0.00     0.210 HD
ENDBRANCH  33  34
ENDBRANCH  10  27
TORSDOF 12
ENDMDL
MODEL 3
REMARK VINA RESULT: -8.545352427      1.578      4.268
REMARK  12 active torsions:
REMARK  status: ('A' for Active; 'I' for Inactive)
REMARK    1  A    between atoms: C6_8  and  O3_9 
REMARK    2  A    between atoms: C7_11  and  C8_12 
REMARK    3  A    between atoms: C8_12  and  C9_13 
REMARK    4  A    between atoms: C9_13  and  C10_14 
REMARK    5  A    between atoms: C10_14  and  C11_15 
REMARK    6  A    between atoms: C11_15  and  C12_16 
REMARK    7  A    between atoms: C13_17  and  C14_18 
REMARK    8  A    between atoms: C14_18  and  C15_19 
REMARK    9  A    between atoms: C15_19  and  C16_20 
REMARK   10  A    between atoms: C16_20  and  C17_21 
REMARK   11  A    between atoms: C19_23  and  C21_25 
REMARK   12  A    between atoms: C27_31  and  O4_32 
ROOT
HETATM    1  C1  UNL     1       1.760  11.089  18.634  1.00  0.00     0.025 C 
HETATM    2  C2  UNL     1       2.887  11.363  18.011  1.00  0.00     0.014 C 
HETATM    3  C3  UNL     1       3.092  12.494  17.039  1.00  0.00     0.289 C 
HETATM    4  O1  UNL     1       2.113  13.219  16.708  1.00  0.00    -0.260 OA
HETATM    5  O2  UNL     1       4.417  12.512  16.676  1.00  0.00    -0.311 OA
HETATM    6  C4  UNL     1       5.115  11.684  17.501  1.00  0.00     0.147 C 
HETATM    7  C5  UNL     1       6.326  10.990  16.984  1.00  0.00     0.098 C 
HETATM    8  C6  UNL     1       6.307   9.533  17.018  1.00  0.00     0.052 C 
HETATM    9  C7  UNL     1       6.226   8.748  18.303  1.00  0.00    -0.020 C 
HETATM   10  C19 UNL     1       5.746   9.351  19.523  1.00  0.00    -0.008 C 
HETATM   11  C20 UNL     1       6.850  10.092  20.247  1.00  0.00     0.021 C 
HETATM   12  C28 UNL     1       4.627  10.371  19.406  1.00  0.00     0.026 C 
HETATM   13  C29 UNL     1       4.175  10.677  18.026  1.00  0.00     0.055 C 
ENDROOT
BRANCH   9  14
HETATM   14  C8  UNL     1       7.445   7.859  18.266  1.00  0.00     0.010 C 
BRANCH  14  15
HETATM   15  C9  UNL     1       7.486   6.590  17.620  1.00  0.00    -0.003 C 
BRANCH  15  16
HETATM   16  C10 UNL     1       6.494   5.740  17.552  1.00  0.00    -0.023 C 
BRANCH  16  17
HETATM   17  C11 UNL     1       5.507   5.611  16.422  1.00  0.00     0.054 C 
BRANCH  17  18
HETATM   18  C12 UNL     1       4.164   5.793  16.970  1.00  0.00    -0.015 C 
HETATM   19  C13 UNL     1       3.415   6.886  16.648  1.00  0.00     0.047 C 
BRANCH  19  20
HETATM   20  C14 UNL     1       2.147   7.034  17.187  1.00  0.00    -0.156 C 
BRANCH  20  21
HETATM   21  C15 UNL     1       1.013   7.117  17.662  1.00  0.00     0.085 C 
BRANCH  21  22
HETATM   22  C16 UNL     1       0.194   6.192  18.439  1.00  0.00     0.011 C 
BRANCH  22  23
HETATM   23  C17 UNL     1       0.558   4.742  18.294  1.00  0.00    -0.004 C 
HETATM   24  C18 UNL     1       1.465   4.265  19.411  1.00  0.00     0.005 C 
ENDBRANCH  22  23
ENDBRANCH  21  22
ENDBRANCH  20  21
ENDBRANCH  19  20
ENDBRANCH  17  18
ENDBRANCH  16  17
ENDBRANCH  15  16
ENDBRANCH  14  15
ENDBRANCH   9  14
BRANCH   8  25
HETATM   25  O3  UNL     1       5.594   8.916  15.949  1.00  0.00    -0.364 OA
ATOM     26  H3  UNL     1       5.972   8.105  15.631  1.00  0.00     0.217 HD
ENDBRANCH   8  25
BRANCH  10  27
HETATM   27  C21 UNL     1       5.201   8.370  20.560  1.00  0.00     0.027 C 
HETATM   28  C22 UNL     1       3.877   7.774  20.230  1.00  0.00     0.009 C 
HETATM   29  C23 UNL     1       3.702   6.551  21.163  1.00  0.00     0.005 C 
HETATM   30  C24 UNL     1       3.670   7.134  22.561  1.00  0.00    -0.016 C 
HETATM   31  C25 UNL     1       3.141   6.184  23.581  1.00  0.00     0.010 C 
HETATM   32  C26 UNL     1       5.082   7.617  22.833  1.00  0.00     0.036 C 
HETATM   33  C27 UNL     1       5.241   8.907  21.976  1.00  0.00     0.123 C 
BRANCH  33  34
HETATM   34  O4  UNL     1       4.206   9.694  22.368  1.00  0.00    -0.395 OA
ATOM     35  H4  UNL     1       4.152   9.910  23.292  1.00  0.00     0.210 HD
ENDBRANCH  33  34
ENDBRANCH  10  27
TORSDOF 12
ENDMDL
MODEL 4
REMARK VINA RESULT: -8.523668389      2.353      5.312
REMARK  12 active torsions:
REMARK  status: ('A' for Active; 'I' for Inactive)
REMARK    1  A    between atoms: C6_8  and  O3_9 
REMARK    2  A    between atoms: C7_11  and  C8_12 
REMARK    3  A    between atoms: C8_12  and  C9_13 
REMARK    4  A    between atoms: C9_13  and  C10_14 
REMARK    5  A    between atoms: C10_14  and  C11_15 
REMARK    6  A    between atoms: C11_15  and  C12_16 
REMARK    7  A    between atoms: C13_17  and  C14_18 
REMARK    8  A    between atoms: C14_18  and  C15_19 
REMARK    9  A    between atoms: C15_19  and  C16_20 
REMARK   10  A    between atoms: C16_20  and  C17_21 
REMARK   11  A    between atoms: C19_23  and  C21_25 
REMARK   12  A    between atoms: C27_31  and  O4_32 
ROOT
HETATM    1  C1  UNL     1       3.059   6.167  20.919  1.00  0.00     0.025 C 
HETATM    2  C2  UNL     1       4.194   6.804  21.114  1.00  0.00     0.014 C 
HETATM    3  C3  UNL     1       4.996   6.783  22.388  1.00  0.00     0.289 C 
HETATM    4  O1  UNL     1       4.544   6.182  23.402  1.00  0.00    -0.260 OA
HETATM    5  O2  UNL     1       6.159   7.485  22.174  1.00  0.00    -0.311 OA
HETATM    6  C4  UNL     1       6.294   7.724  20.841  1.00  0.00     0.147 C 
HETATM    7  C5  UNL     1       7.000   8.953  20.389  1.00  0.00     0.098 C 
HETATM    8  C6  UNL     1       6.236   9.878  19.561  1.00  0.00     0.052 C 
HETATM    9  C7  UNL     1       5.703   9.506  18.201  1.00  0.00    -0.020 C 
HETATM   10  C19 UNL     1       5.542   8.128  17.807  1.00  0.00    -0.008 C 
HETATM   11  C20 UNL     1       6.835   7.552  17.269  1.00  0.00     0.021 C 
HETATM   12  C28 UNL     1       5.112   7.140  18.877  1.00  0.00     0.026 C 
HETATM   13  C29 UNL     1       4.947   7.700  20.241  1.00  0.00     0.055 C 
ENDROOT
BRANCH   9  14
HETATM   14  C8  UNL     1       6.294  10.547  17.280  1.00  0.00     0.010 C 
BRANCH  14  15
HETATM   15  C9  UNL     1       5.733  11.840  17.075  1.00  0.00    -0.003 C 
BRANCH  15  16
HETATM   16  C10 UNL     1       4.524  12.083  16.636  1.00  0.00    -0.023 C 
BRANCH  16  17
HETATM   17  C11 UNL     1       3.278  12.189  17.474  1.00  0.00     0.054 C 
BRANCH  17  18
HETATM   18  C12 UNL     1       2.474  10.990  17.246  1.00  0.00    -0.015 C 
HETATM   19  C13 UNL     1       2.120  10.174  18.280  1.00  0.00     0.047 C 
BRANCH  19  20
HETATM   20  C14 UNL     1       1.362   9.040  18.033  1.00  0.00    -0.156 C 
BRANCH  20  21
HETATM   21  C15 UNL     1       0.654   8.049  17.845  1.00  0.00     0.085 C 
BRANCH  21  22
HETATM   22  C16 UNL     1       0.466   6.809  18.591  1.00  0.00     0.011 C 
BRANCH  22  23
HETATM   23  C17 UNL     1       0.593   5.551  17.781  1.00  0.00    -0.004 C 
HETATM   24  C18 UNL     1       0.934   4.349  18.640  1.00  0.00     0.005 C 
ENDBRANCH  22  23
ENDBRANCH  21  22
ENDBRANCH  20  21
ENDBRANCH  19  20
ENDBRANCH  17  18
ENDBRANCH  16  17
ENDBRANCH  15  16
ENDBRANCH  14  15
ENDBRANCH   9  14
BRANCH   8  25
HETATM   25  O3  UNL     1       5.358  10.743  20.280  1.00  0.00    -0.364 OA
ATOM     26  H3  UNL     1       5.321  11.635  19.956  1.00  0.00     0.217 HD
ENDBRANCH   8  25
BRANCH  10  27
HETATM   27  C21 UNL     1       4.523   7.885  16.695  1.00  0.00     0.027 C 
HETATM   28  C22 UNL     1       4.246   6.455  16.395  1.00  0.00     0.009 C 
HETATM   29  C23 UNL     1       2.941   6.426  15.562  1.00  0.00     0.005 C 
HETATM   30  C24 UNL     1       3.281   7.163  14.284  1.00  0.00    -0.016 C 
HETATM   31  C25 UNL     1       2.291   6.935  13.193  1.00  0.00     0.010 C 
HETATM   32  C26 UNL     1       3.443   8.618  14.683  1.00  0.00     0.036 C 
HETATM   33  C27 UNL     1       4.803   8.683  15.438  1.00  0.00     0.123 C 
BRANCH  33  34
HETATM   34  O4  UNL     1       5.694   8.156  14.558  1.00  0.00    -0.395 OA
ATOM     35  H4  UNL     1       5.475   7.316  14.170  1.00  0.00     0.210 HD
ENDBRANCH  33  34
ENDBRANCH  10  27
TORSDOF 12
ENDMDL
MODEL 5
REMARK VINA RESULT: -8.419659030      1.419      2.400
REMARK  12 active torsions:
REMARK  status: ('A' for Active; 'I' for Inactive)
REMARK    1  A    between atoms: C6_8  and  O3_9 
REMARK    2  A    between atoms: C7_11  and  C8_12 
REMARK    3  A    between atoms: C8_12  and  C9_13 
REMARK    4  A    between atoms: C9_13  and  C10_14 
REMARK    5  A    between atoms: C10_14  and  C11_15 
REMARK    6  A    between atoms: C11_15  and  C12_16 
REMARK    7  A    between atoms: C13_17  and  C14_18 
REMARK    8  A    between atoms: C14_18  and  C15_19 
REMARK    9  A    between atoms: C15_19  and  C16_20 
REMARK   10  A    between atoms: C16_20  and  C17_21 
REMARK   11  A    between atoms: C19_23  and  C21_25 
REMARK   12  A    between atoms: C27_31  and  O4_32 
ROOT
HETATM    1  C1  UNL     1       3.921  11.280  14.296  1.00  0.00     0.025 C 
HETATM    2  C2  UNL     1       3.554  11.727  15.479  1.00  0.00     0.014 C 
HETATM    3  C3  UNL     1       2.626  12.887  15.722  1.00  0.00     0.289 C 
HETATM    4  O1  UNL     1       2.201  13.563  14.744  1.00  0.00    -0.260 OA
HETATM    5  O2  UNL     1       2.410  12.987  17.076  1.00  0.00    -0.311 OA
HETATM    6  C4  UNL     1       2.891  11.869  17.686  1.00  0.00     0.147 C 
HETATM    7  C5  UNL     1       3.412  11.964  19.077  1.00  0.00     0.098 C 
HETATM    8  C6  UNL     1       4.803  11.582  19.280  1.00  0.00     0.052 C 
HETATM    9  C7  UNL     1       5.310  10.184  19.029  1.00  0.00    -0.020 C 
HETATM   10  C19 UNL     1       4.584   9.260  18.192  1.00  0.00    -0.008 C 
HETATM   11  C20 UNL     1       3.500   8.543  18.969  1.00  0.00     0.021 C 
HETATM   12  C28 UNL     1       3.861   9.830  16.984  1.00  0.00     0.026 C 
HETATM   13  C29 UNL     1       3.942  11.302  16.821  1.00  0.00     0.055 C 
ENDROOT
BRANCH   9  14
HETATM   14  C8  UNL     1       5.918   9.773  20.349  1.00  0.00     0.010 C 
BRANCH  14  15
HETATM   15  C9  UNL     1       7.313   9.565  20.553  1.00  0.00    -0.003 C 
BRANCH  15  16
HETATM   16  C10 UNL     1       8.003   8.550  20.101  1.00  0.00    -0.023 C 
BRANCH  16  17
HETATM   17  C11 UNL     1       7.654   7.094  20.259  1.00  0.00     0.054 C 
BRANCH  17  18
HETATM   18  C12 UNL     1       6.592   6.988  21.258  1.00  0.00    -0.015 C 
HETATM   19  C13 UNL     1       6.880   6.738  22.567  1.00  0.00     0.047 C 
BRANCH  19  20
HETATM   20  C14 UNL     1       5.852   6.638  23.491  1.00  0.00    -0.156 C 
BRANCH  20  21
HETATM   21  C15 UNL     1       4.937   6.499  24.306  1.00  0.00     0.085 C 
BRANCH  21  22
HETATM   22  C16 UNL     1       3.487   6.421  24.164  1.00  0.00     0.011 C 
BRANCH  22  23
HETATM   23  C17 UNL     1       2.946   6.920  22.855  1.00  0.00    -0.004 C 
HETATM   24  C18 UNL     1       3.124   5.909  21.739  1.00  0.00     0.005 C 
ENDBRANCH  22  23
ENDBRANCH  21  22
ENDBRANCH  20  21
ENDBRANCH  19  20
ENDBRANCH  17  18
ENDBRANCH  16  17
ENDBRANCH  15  16
ENDBRANCH  14  15
ENDBRANCH   9  14
BRANCH   8  25
HETATM   25  O3  UNL     1       5.758  12.584  18.939  1.00  0.00    -0.364 OA
ATOM     26  H3  UNL     1       6.088  12.536  18.049  1.00  0.00     0.217 HD
ENDBRANCH   8  25
BRANCH  10  27
HETATM   27  C21 UNL     1       5.425   8.138  17.584  1.00  0.00     0.027 C 
HETATM   28  C22 UNL     1       6.338   8.559  16.487  1.00  0.00     0.009 C 
HETATM   29  C23 UNL     1       7.354   7.406  16.296  1.00  0.00     0.005 C 
HETATM   30  C24 UNL     1       6.518   6.225  15.845  1.00  0.00    -0.016 C 
HETATM   31  C25 UNL     1       7.329   5.124  15.252  1.00  0.00     0.010 C 
HETATM   32  C26 UNL     1       5.705   5.815  17.059  1.00  0.00     0.036 C 
HETATM   33  C27 UNL     1       4.613   6.916  17.206  1.00  0.00     0.123 C 
BRANCH  33  34
HETATM   34  O4  UNL     1       3.997   6.933  15.996  1.00  0.00    -0.395 OA
ATOM     35  H4  UNL     1       3.335   7.601  15.857  1.00  0.00     0.210 HD
ENDBRANCH  33  34
ENDBRANCH  10  27
TORSDOF 12
ENDMDL
