MODEL 1
REMARK VINA RESULT: -7.285535513      0.000      0.000
REMARK  1 active torsions:
REMARK  status: ('A' for Active; 'I' for Inactive)
REMARK    1  A    between atoms: C13_16  and  O1_17 
ROOT
HETATM    1  C1  UNL     1       7.227  61.164  47.974  1.00  0.00     0.040 C 
HETATM    2  C2  UNL     1       5.877  61.538  48.546  1.00  0.00     0.121 C 
HETATM    3  C3  UNL     1       5.835  63.025  48.901  1.00  0.00     0.032 C 
HETATM    4  C4  UNL     1       4.968  63.130  50.147  1.00  0.00     0.008 C 
HETATM    5  C5  UNL     1       3.792  62.179  49.905  1.00  0.00     0.071 C 
HETATM    6  C6  UNL     1       4.329  60.795  50.030  1.00  0.00     0.197 C 
HETATM    7  C7  UNL     1       3.581  59.779  49.194  1.00  0.00     0.074 C 
HETATM    8  C8  UNL     1       4.151  58.426  49.567  1.00  0.00     0.047 C 
HETATM    9  C9  UNL     1       3.321  57.717  50.610  1.00  0.00     0.155 C 
HETATM   10  C10 UNL     1       2.180  57.025  49.921  1.00  0.00     0.044 C 
HETATM   11  C11 UNL     1       2.238  55.584  50.386  1.00  0.00     0.038 C 
HETATM   12  C12 UNL     1       3.199  55.650  51.526  1.00  0.00     0.215 C 
HETATM   13  N1  UNL     1       4.165  56.621  51.114  1.00  0.00    -0.057 N 
ATOM     14  H11 UNL     1       4.835  56.892  51.835  1.00  0.00     0.278 HD
ATOM     15  H12 UNL     1       4.863  56.278  50.454  1.00  0.00     0.278 HD
HETATM   16  C13 UNL     1       2.574  55.942  52.852  1.00  0.00     0.149 C 
HETATM   17  C14 UNL     1       1.391  56.849  52.793  1.00  0.00     0.036 C 
HETATM   18  C15 UNL     1       1.641  58.239  52.406  1.00  0.00     0.040 C 
HETATM   19  C16 UNL     1       2.937  58.555  51.765  1.00  0.00     0.196 C 
HETATM   20  O2  UNL     1       2.919  59.934  51.438  1.00  0.00    -0.230 OA
HETATM   21  O3  UNL     1       4.153  60.388  51.372  1.00  0.00    -0.200 OA
HETATM   22  O4  UNL     1       5.659  60.755  49.665  1.00  0.00    -0.348 OA
ENDROOT
BRANCH  16  23
HETATM   23  O1  UNL     1       3.540  56.353  53.757  1.00  0.00    -0.393 OA
ATOM     24  H1  UNL     1       3.243  56.203  54.646  1.00  0.00     0.210 HD
ENDBRANCH  16  23
TORSDOF 1
ENDMDL
MODEL 2
REMARK VINA RESULT: -6.992286676      0.957      1.084
REMARK  1 active torsions:
REMARK  status: ('A' for Active; 'I' for Inactive)
REMARK    1  A    between atoms: C13_16  and  O1_17 
ROOT
HETATM    1  C1  UNL     1       6.823  61.206  48.538  1.00  0.00     0.040 C 
HETATM    2  C2  UNL     1       5.387  61.228  49.013  1.00  0.00     0.121 C 
HETATM    3  C3  UNL     1       4.971  62.644  49.410  1.00  0.00     0.032 C 
HETATM    4  C4  UNL     1       4.020  62.483  50.588  1.00  0.00     0.008 C 
HETATM    5  C5  UNL     1       3.120  61.297  50.224  1.00  0.00     0.071 C 
HETATM    6  C6  UNL     1       3.959  60.072  50.347  1.00  0.00     0.197 C 
HETATM    7  C7  UNL     1       3.532  58.952  49.423  1.00  0.00     0.074 C 
HETATM    8  C8  UNL     1       4.378  57.752  49.797  1.00  0.00     0.047 C 
HETATM    9  C9  UNL     1       3.669  56.819  50.748  1.00  0.00     0.155 C 
HETATM   10  C10 UNL     1       2.774  55.915  49.951  1.00  0.00     0.044 C 
HETATM   11  C11 UNL     1       3.138  54.506  50.373  1.00  0.00     0.038 C 
HETATM   12  C12 UNL     1       3.976  54.738  51.586  1.00  0.00     0.215 C 
HETATM   13  N1  UNL     1       4.712  55.926  51.283  1.00  0.00    -0.057 N 
ATOM     14  H11 UNL     1       5.247  56.310  52.061  1.00  0.00     0.278 HD
ATOM     15  H12 UNL     1       5.514  55.789  50.669  1.00  0.00     0.278 HD
HETATM   16  C13 UNL     1       3.210  54.810  52.868  1.00  0.00     0.149 C 
HETATM   17  C14 UNL     1       1.853  55.419  52.745  1.00  0.00     0.036 C 
HETATM   18  C15 UNL     1       1.794  56.846  52.423  1.00  0.00     0.040 C 
HETATM   19  C16 UNL     1       3.019  57.487  51.896  1.00  0.00     0.196 C 
HETATM   20  O2  UNL     1       2.699  58.838  51.613  1.00  0.00    -0.230 OA
HETATM   21  O3  UNL     1       3.792  59.570  51.658  1.00  0.00    -0.200 OA
HETATM   22  O4  UNL     1       5.284  60.361  50.086  1.00  0.00    -0.348 OA
ENDROOT
BRANCH  16  23
HETATM   23  O1  UNL     1       3.987  55.391  53.859  1.00  0.00    -0.393 OA
ATOM     24  H1  UNL     1       4.909  55.279  53.660  1.00  0.00     0.210 HD
ENDBRANCH  16  23
TORSDOF 1
ENDMDL
MODEL 3
REMARK VINA RESULT: -6.507525596      1.771      2.557
REMARK  1 active torsions:
REMARK  status: ('A' for Active; 'I' for Inactive)
REMARK    1  A    between atoms: C13_16  and  O1_17 
ROOT
HETATM    1  C1  UNL     1       4.954  59.283  47.809  1.00  0.00     0.040 C 
HETATM    2  C2  UNL     1       3.887  59.579  48.840  1.00  0.00     0.121 C 
HETATM    3  C3  UNL     1       3.855  61.071  49.172  1.00  0.00     0.032 C 
HETATM    4  C4  UNL     1       3.508  61.160  50.651  1.00  0.00     0.008 C 
HETATM    5  C5  UNL     1       2.410  60.116  50.874  1.00  0.00     0.071 C 
HETATM    6  C6  UNL     1       3.069  58.781  50.802  1.00  0.00     0.197 C 
HETATM    7  C7  UNL     1       2.152  57.680  50.315  1.00  0.00     0.074 C 
HETATM    8  C8  UNL     1       2.931  56.389  50.459  1.00  0.00     0.047 C 
HETATM    9  C9  UNL     1       2.611  55.662  51.743  1.00  0.00     0.155 C 
HETATM   10  C10 UNL     1       1.358  54.860  51.537  1.00  0.00     0.044 C 
HETATM   11  C11 UNL     1       1.705  53.447  51.959  1.00  0.00     0.038 C 
HETATM   12  C12 UNL     1       3.012  53.629  52.656  1.00  0.00     0.215 C 
HETATM   13  N1  UNL     1       3.671  54.652  51.905  1.00  0.00    -0.057 N 
ATOM     14  H11 UNL     1       4.535  55.000  52.321  1.00  0.00     0.278 HD
ATOM     15  H12 UNL     1       4.099  54.337  51.035  1.00  0.00     0.278 HD
HETATM   16  C13 UNL     1       2.902  53.925  54.117  1.00  0.00     0.149 C 
HETATM   17  C14 UNL     1       1.711  54.739  54.497  1.00  0.00     0.036 C 
HETATM   18  C15 UNL     1       1.681  56.127  54.032  1.00  0.00     0.040 C 
HETATM   19  C16 UNL     1       2.615  56.514  52.951  1.00  0.00     0.196 C 
HETATM   20  O2  UNL     1       2.361  57.874  52.643  1.00  0.00    -0.230 OA
HETATM   21  O3  UNL     1       3.439  58.416  52.116  1.00  0.00    -0.200 OA
HETATM   22  O4  UNL     1       4.167  58.826  49.966  1.00  0.00    -0.348 OA
ENDROOT
BRANCH  16  23
HETATM   23  O1  UNL     1       4.098  54.443  54.592  1.00  0.00    -0.393 OA
ATOM     24  H1  UNL     1       3.930  55.091  55.267  1.00  0.00     0.210 HD
ENDBRANCH  16  23
TORSDOF 1
ENDMDL
MODEL 4
REMARK VINA RESULT: -6.380509277      1.783      6.196
REMARK  1 active torsions:
REMARK  status: ('A' for Active; 'I' for Inactive)
REMARK    1  A    between atoms: C13_16  and  O1_17 
ROOT
HETATM    1  C1  UNL     1       2.090  56.218  54.469  1.00  0.00     0.040 C 
HETATM    2  C2  UNL     1       2.105  55.932  52.983  1.00  0.00     0.121 C 
HETATM    3  C3  UNL     1       2.113  54.425  52.724  1.00  0.00     0.032 C 
HETATM    4  C4  UNL     1       2.963  54.224  51.477  1.00  0.00     0.008 C 
HETATM    5  C5  UNL     1       2.555  55.348  50.520  1.00  0.00     0.071 C 
HETATM    6  C6  UNL     1       3.128  56.607  51.072  1.00  0.00     0.197 C 
HETATM    7  C7  UNL     1       2.323  57.841  50.726  1.00  0.00     0.074 C 
HETATM    8  C8  UNL     1       3.130  59.023  51.222  1.00  0.00     0.047 C 
HETATM    9  C9  UNL     1       3.971  59.646  50.133  1.00  0.00     0.155 C 
HETATM   10  C10 UNL     1       3.109  60.590  49.346  1.00  0.00     0.044 C 
HETATM   11  C11 UNL     1       3.853  61.910  49.336  1.00  0.00     0.038 C 
HETATM   12  C12 UNL     1       5.203  61.524  49.842  1.00  0.00     0.215 C 
HETATM   13  N1  UNL     1       4.935  60.519  50.824  1.00  0.00    -0.057 N 
ATOM     14  H11 UNL     1       5.761  60.043  51.187  1.00  0.00     0.278 HD
ATOM     15  H12 UNL     1       4.621  60.874  51.727  1.00  0.00     0.278 HD
HETATM   16  C13 UNL     1       6.166  61.094  48.783  1.00  0.00     0.149 C 
HETATM   17  C14 UNL     1       5.543  60.374  47.634  1.00  0.00     0.036 C 
HETATM   18  C15 UNL     1       4.980  59.050  47.909  1.00  0.00     0.040 C 
HETATM   19  C16 UNL     1       4.742  58.681  49.322  1.00  0.00     0.196 C 
HETATM   20  O2  UNL     1       4.151  57.392  49.326  1.00  0.00    -0.230 OA
HETATM   21  O3  UNL     1       4.395  56.798  50.475  1.00  0.00    -0.200 OA
HETATM   22  O4  UNL     1       3.229  56.534  52.447  1.00  0.00    -0.348 OA
ENDROOT
BRANCH  16  23
HETATM   23  O1  UNL     1       7.230  60.409  49.351  1.00  0.00    -0.393 OA
ATOM     24  H1  UNL     1       8.042  60.878  49.196  1.00  0.00     0.210 HD
ENDBRANCH  16  23
TORSDOF 1
ENDMDL
MODEL 5
REMARK VINA RESULT: -6.189546602      2.376      3.662
REMARK  1 active torsions:
REMARK  status: ('A' for Active; 'I' for Inactive)
REMARK    1  A    between atoms: C13_16  and  O1_17 
ROOT
HETATM    1  C1  UNL     1       5.728  55.573  48.946  1.00  0.00     0.040 C 
HETATM    2  C2  UNL     1       4.758  56.733  49.002  1.00  0.00     0.121 C 
HETATM    3  C3  UNL     1       5.326  57.948  48.267  1.00  0.00     0.032 C 
HETATM    4  C4  UNL     1       4.844  59.165  49.043  1.00  0.00     0.008 C 
HETATM    5  C5  UNL     1       3.383  58.869  49.398  1.00  0.00     0.071 C 
HETATM    6  C6  UNL     1       3.405  57.826  50.461  1.00  0.00     0.197 C 
HETATM    7  C7  UNL     1       2.183  56.933  50.457  1.00  0.00     0.074 C 
HETATM    8  C8  UNL     1       2.300  56.054  51.686  1.00  0.00     0.047 C 
HETATM    9  C9  UNL     1       1.517  56.595  52.858  1.00  0.00     0.155 C 
HETATM   10  C10 UNL     1       0.085  56.168  52.714  1.00  0.00     0.044 C 
HETATM   11  C11 UNL     1      -0.276  55.500  54.024  1.00  0.00     0.038 C 
HETATM   12  C12 UNL     1       0.867  55.878  54.906  1.00  0.00     0.215 C 
HETATM   13  N1  UNL     1       2.003  55.856  54.037  1.00  0.00    -0.057 N 
ATOM     14  H11 UNL     1       2.863  56.220  54.446  1.00  0.00     0.278 HD
ATOM     15  H12 UNL     1       2.372  54.927  53.837  1.00  0.00     0.278 HD
HETATM   16  C13 UNL     1       0.689  57.170  55.637  1.00  0.00     0.149 C 
HETATM   17  C14 UNL     1      -0.076  58.207  54.886  1.00  0.00     0.036 C 
HETATM   18  C15 UNL     1       0.563  58.766  53.692  1.00  0.00     0.040 C 
HETATM   19  C16 UNL     1       1.716  58.036  53.120  1.00  0.00     0.196 C 
HETATM   20  O2  UNL     1       2.120  58.736  51.956  1.00  0.00    -0.230 OA
HETATM   21  O3  UNL     1       3.390  58.487  51.710  1.00  0.00    -0.200 OA
HETATM   22  O4  UNL     1       4.522  57.023  50.333  1.00  0.00    -0.348 OA
ENDROOT
BRANCH  16  23
HETATM   23  O1  UNL     1       1.910  57.623  56.115  1.00  0.00    -0.393 OA
ATOM     24  H1  UNL     1       2.479  57.856  55.392  1.00  0.00     0.210 HD
ENDBRANCH  16  23
TORSDOF 1
ENDMDL
