MODEL 1
REMARK VINA RESULT: -8.410248182      0.000      0.000
REMARK  3 active torsions:
REMARK  status: ('A' for Active; 'I' for Inactive)
REMARK    1  A    between atoms: C2_2  and  C4_4 
REMARK    2  A    between atoms: C10_12  and  O2_13 
REMARK    3  A    between atoms: C16_20  and  O3_21 
ROOT
HETATM    1  C4  UNL     1       5.392  56.566  49.623  1.00  0.00     0.162 C 
HETATM    2  O1  UNL     1       5.537  57.903  49.192  1.00  0.00    -0.340 OA
HETATM    3  C5  UNL     1       4.790  58.938  49.725  1.00  0.00     0.081 A 
HETATM    4  C6  UNL     1       5.209  60.227  49.468  1.00  0.00     0.060 A 
HETATM    5  C7  UNL     1       4.502  61.303  49.974  1.00  0.00     0.050 A 
HETATM    6  C8  UNL     1       4.917  62.666  49.721  1.00  0.00     0.099 C 
HETATM    7  N1  UNL     1       5.253  63.762  49.538  1.00  0.00    -0.191 NA
HETATM    8  C9  UNL     1       3.394  61.048  50.724  1.00  0.00     0.059 A 
HETATM    9  C10 UNL     1       2.987  59.743  50.973  1.00  0.00     0.076 A 
HETATM   10  C11 UNL     1       3.675  58.655  50.479  1.00  0.00     0.017 A 
HETATM   11  C12 UNL     1       3.248  57.256  50.739  1.00  0.00    -0.005 C 
HETATM   12  C13 UNL     1       1.751  57.213  50.393  1.00  0.00     0.021 C 
HETATM   13  C14 UNL     1       3.349  57.005  52.210  1.00  0.00     0.017 C 
HETATM   14  C15 UNL     1       3.411  55.555  52.598  1.00  0.00     0.033 C 
HETATM   15  C16 UNL     1       4.339  54.743  51.734  1.00  0.00     0.118 C 
HETATM   16  C17 UNL     1       3.812  54.857  50.345  1.00  0.00     0.040 C 
HETATM   17  C18 UNL     1       3.927  56.269  49.873  1.00  0.00     0.035 C 
ENDROOT
BRANCH   9  18
HETATM   18  O2  UNL     1       1.864  59.565  51.734  1.00  0.00    -0.360 OA
ATOM     19  H2  UNL     1       1.552  58.677  51.855  1.00  0.00     0.217 HD
ENDBRANCH   9  18
BRANCH   1  20
HETATM   20  C2  UNL     1       5.853  55.706  48.482  1.00  0.00    -0.064 C 
HETATM   21  C1  UNL     1       5.647  56.136  47.247  1.00  0.00     0.016 C 
HETATM   22  C3  UNL     1       6.525  54.404  48.696  1.00  0.00     0.045 C 
ENDBRANCH   1  20
BRANCH  15  23
HETATM   23  O3  UNL     1       4.303  53.432  52.223  1.00  0.00    -0.396 OA
ATOM     24  H3  UNL     1       5.083  52.996  51.900  1.00  0.00     0.210 HD
ENDBRANCH  15  23
TORSDOF 3
ENDMDL
MODEL 2
REMARK VINA RESULT: -6.968848237      1.756      4.004
REMARK  3 active torsions:
REMARK  status: ('A' for Active; 'I' for Inactive)
REMARK    1  A    between atoms: C2_2  and  C4_4 
REMARK    2  A    between atoms: C10_12  and  O2_13 
REMARK    3  A    between atoms: C16_20  and  O3_21 
ROOT
HETATM    1  C4  UNL     1       2.188  57.641  52.606  1.00  0.00     0.162 C 
HETATM    2  O1  UNL     1       2.811  58.856  52.247  1.00  0.00    -0.340 OA
HETATM    3  C5  UNL     1       3.571  58.989  51.099  1.00  0.00     0.081 A 
HETATM    4  C6  UNL     1       3.877  60.267  50.680  1.00  0.00     0.060 A 
HETATM    5  C7  UNL     1       4.635  60.463  49.539  1.00  0.00     0.050 A 
HETATM    6  C8  UNL     1       4.972  61.791  49.074  1.00  0.00     0.099 C 
HETATM    7  N1  UNL     1       5.232  62.853  48.684  1.00  0.00    -0.191 NA
HETATM    8  C9  UNL     1       5.060  59.365  48.855  1.00  0.00     0.059 A 
HETATM    9  C10 UNL     1       4.742  58.085  49.292  1.00  0.00     0.076 A 
HETATM   10  C11 UNL     1       3.989  57.865  50.426  1.00  0.00     0.017 A 
HETATM   11  C12 UNL     1       3.643  56.501  50.903  1.00  0.00    -0.005 C 
HETATM   12  C13 UNL     1       4.969  55.722  50.915  1.00  0.00     0.021 C 
HETATM   13  C14 UNL     1       2.782  55.851  49.867  1.00  0.00     0.017 C 
HETATM   14  C15 UNL     1       1.970  54.689  50.362  1.00  0.00     0.033 C 
HETATM   15  C16 UNL     1       1.310  54.943  51.692  1.00  0.00     0.118 C 
HETATM   16  C17 UNL     1       2.415  55.215  52.653  1.00  0.00     0.040 C 
HETATM   17  C18 UNL     1       3.110  56.483  52.281  1.00  0.00     0.035 C 
ENDROOT
BRANCH   9  18
HETATM   18  O2  UNL     1       5.205  57.030  48.553  1.00  0.00    -0.360 OA
ATOM     19  H2  UNL     1       5.850  56.462  48.956  1.00  0.00     0.217 HD
ENDBRANCH   9  18
BRANCH   1  20
HETATM   20  C2  UNL     1       2.006  57.688  54.096  1.00  0.00    -0.064 C 
HETATM   21  C1  UNL     1       0.775  57.747  54.578  1.00  0.00     0.016 C 
HETATM   22  C3  UNL     1       3.154  57.670  55.031  1.00  0.00     0.045 C 
ENDBRANCH   1  20
BRANCH  15  23
HETATM   23  O3  UNL     1       0.584  53.788  52.010  1.00  0.00    -0.396 OA
ATOM     24  H3  UNL     1      -0.176  54.070  52.505  1.00  0.00     0.210 HD
ENDBRANCH  15  23
TORSDOF 3
ENDMDL
MODEL 3
REMARK VINA RESULT: -6.809384806      2.775      5.559
REMARK  3 active torsions:
REMARK  status: ('A' for Active; 'I' for Inactive)
REMARK    1  A    between atoms: C2_2  and  C4_4 
REMARK    2  A    between atoms: C10_12  and  O2_13 
REMARK    3  A    between atoms: C16_20  and  O3_21 
ROOT
HETATM    1  C4  UNL     1       4.441  58.732  48.744  1.00  0.00     0.162 C 
HETATM    2  O1  UNL     1       5.257  58.272  47.687  1.00  0.00    -0.340 OA
HETATM    3  C5  UNL     1       5.533  56.931  47.491  1.00  0.00     0.081 A 
HETATM    4  C6  UNL     1       6.074  56.561  46.278  1.00  0.00     0.060 A 
HETATM    5  C7  UNL     1       6.372  55.233  46.025  1.00  0.00     0.050 A 
HETATM    6  C8  UNL     1       6.939  54.813  44.762  1.00  0.00     0.099 C 
HETATM    7  N1  UNL     1       7.378  54.466  43.744  1.00  0.00    -0.191 NA
HETATM    8  C9  UNL     1       6.116  54.320  47.002  1.00  0.00     0.059 A 
HETATM    9  C10 UNL     1       5.571  54.712  48.219  1.00  0.00     0.076 A 
HETATM   10  C11 UNL     1       5.267  56.029  48.494  1.00  0.00     0.017 A 
HETATM   11  C12 UNL     1       4.684  56.459  49.791  1.00  0.00    -0.005 C 
HETATM   12  C13 UNL     1       5.573  55.821  50.872  1.00  0.00     0.021 C 
HETATM   13  C14 UNL     1       3.335  55.827  49.928  1.00  0.00     0.017 C 
HETATM   14  C15 UNL     1       2.424  56.494  50.918  1.00  0.00     0.033 C 
HETATM   15  C16 UNL     1       2.432  57.997  50.821  1.00  0.00     0.118 C 
HETATM   16  C17 UNL     1       3.837  58.418  51.085  1.00  0.00     0.040 C 
HETATM   17  C18 UNL     1       4.728  57.923  49.994  1.00  0.00     0.035 C 
ENDROOT
BRANCH   9  18
HETATM   18  O2  UNL     1       5.342  53.739  49.153  1.00  0.00    -0.360 OA
ATOM     19  H2  UNL     1       4.456  53.406  49.232  1.00  0.00     0.217 HD
ENDBRANCH   9  18
BRANCH   1  20
HETATM   20  C2  UNL     1       4.853  60.151  49.005  1.00  0.00    -0.064 C 
HETATM   21  C1  UNL     1       6.135  60.408  49.208  1.00  0.00     0.016 C 
HETATM   22  C3  UNL     1       3.873  61.262  49.039  1.00  0.00     0.045 C 
ENDBRANCH   1  20
BRANCH  15  23
HETATM   23  O3  UNL     1       1.533  58.469  51.785  1.00  0.00    -0.396 OA
ATOM     24  H3  UNL     1       0.971  57.739  52.017  1.00  0.00     0.210 HD
ENDBRANCH  15  23
TORSDOF 3
ENDMDL
MODEL 4
REMARK VINA RESULT: -6.499683386      3.205      5.755
REMARK  3 active torsions:
REMARK  status: ('A' for Active; 'I' for Inactive)
REMARK    1  A    between atoms: C2_2  and  C4_4 
REMARK    2  A    between atoms: C10_12  and  O2_13 
REMARK    3  A    between atoms: C16_20  and  O3_21 
ROOT
HETATM    1  C4  UNL     1       6.110  53.986  46.997  1.00  0.00     0.162 C 
HETATM    2  O1  UNL     1       5.996  54.959  48.015  1.00  0.00    -0.340 OA
HETATM    3  C5  UNL     1       5.703  56.284  47.746  1.00  0.00     0.081 A 
HETATM    4  C6  UNL     1       5.315  57.080  48.803  1.00  0.00     0.060 A 
HETATM    5  C7  UNL     1       5.010  58.413  48.596  1.00  0.00     0.050 A 
HETATM    6  C8  UNL     1       4.600  59.274  49.684  1.00  0.00     0.099 C 
HETATM    7  N1  UNL     1       4.253  59.966  50.549  1.00  0.00    -0.191 NA
HETATM    8  C9  UNL     1       5.105  58.904  47.329  1.00  0.00     0.059 A 
HETATM    9  C10 UNL     1       5.498  58.087  46.275  1.00  0.00     0.076 A 
HETATM   10  C11 UNL     1       5.807  56.756  46.459  1.00  0.00     0.017 A 
HETATM   11  C12 UNL     1       6.228  55.873  45.340  1.00  0.00    -0.005 C 
HETATM   12  C13 UNL     1       7.341  56.641  44.607  1.00  0.00     0.021 C 
HETATM   13  C14 UNL     1       5.088  55.764  44.379  1.00  0.00     0.017 C 
HETATM   14  C15 UNL     1       5.151  54.579  43.457  1.00  0.00     0.033 C 
HETATM   15  C16 UNL     1       5.542  53.301  44.152  1.00  0.00     0.118 C 
HETATM   16  C17 UNL     1       6.892  53.546  44.731  1.00  0.00     0.040 C 
HETATM   17  C18 UNL     1       6.807  54.591  45.795  1.00  0.00     0.035 C 
ENDROOT
BRANCH   9  18
HETATM   18  O2  UNL     1       5.571  58.650  45.031  1.00  0.00    -0.360 OA
ATOM     19  H2  UNL     1       5.681  58.066  44.290  1.00  0.00     0.217 HD
ENDBRANCH   9  18
BRANCH   1  20
HETATM   20  C2  UNL     1       6.990  52.903  47.550  1.00  0.00    -0.064 C 
HETATM   21  C1  UNL     1       8.188  53.235  48.004  1.00  0.00     0.016 C 
HETATM   22  C3  UNL     1       6.559  51.487  47.600  1.00  0.00     0.045 C 
ENDBRANCH   1  20
BRANCH  15  23
HETATM   23  O3  UNL     1       5.542  52.296  43.178  1.00  0.00    -0.396 OA
ATOM     24  H3  UNL     1       5.008  51.586  43.515  1.00  0.00     0.210 HD
ENDBRANCH  15  23
TORSDOF 3
ENDMDL
MODEL 5
REMARK VINA RESULT: -6.349772969      2.478      4.425
REMARK  3 active torsions:
REMARK  status: ('A' for Active; 'I' for Inactive)
REMARK    1  A    between atoms: C2_2  and  C4_4 
REMARK    2  A    between atoms: C10_12  and  O2_13 
REMARK    3  A    between atoms: C16_20  and  O3_21 
ROOT
HETATM    1  C4  UNL     1       6.731  55.535  46.652  1.00  0.00     0.162 C 
HETATM    2  O1  UNL     1       5.915  56.632  47.004  1.00  0.00    -0.340 OA
HETATM    3  C5  UNL     1       5.355  56.767  48.261  1.00  0.00     0.081 A 
HETATM    4  C6  UNL     1       4.838  58.000  48.601  1.00  0.00     0.060 A 
HETATM    5  C7  UNL     1       4.264  58.196  49.845  1.00  0.00     0.050 A 
HETATM    6  C8  UNL     1       3.713  59.477  50.231  1.00  0.00     0.099 C 
HETATM    7  N1  UNL     1       3.285  60.507  50.554  1.00  0.00    -0.191 NA
HETATM    8  C9  UNL     1       4.229  57.143  50.709  1.00  0.00     0.059 A 
HETATM    9  C10 UNL     1       4.755  55.908  50.349  1.00  0.00     0.076 A 
HETATM   10  C11 UNL     1       5.331  55.690  49.115  1.00  0.00     0.017 A 
HETATM   11  C12 UNL     1       5.897  54.374  48.720  1.00  0.00    -0.005 C 
HETATM   12  C13 UNL     1       4.806  53.342  49.052  1.00  0.00     0.021 C 
HETATM   13  C14 UNL     1       7.050  54.073  49.623  1.00  0.00     0.017 C 
HETATM   14  C15 UNL     1       8.012  53.046  49.096  1.00  0.00     0.033 C 
HETATM   15  C16 UNL     1       8.355  53.238  47.642  1.00  0.00     0.118 C 
HETATM   16  C17 UNL     1       7.068  53.133  46.899  1.00  0.00     0.040 C 
HETATM   17  C18 UNL     1       6.173  54.269  47.272  1.00  0.00     0.035 C 
ENDROOT
BRANCH   9  18
HETATM   18  O2  UNL     1       4.684  54.898  51.268  1.00  0.00    -0.360 OA
ATOM     19  H2  UNL     1       5.487  54.436  51.477  1.00  0.00     0.217 HD
ENDBRANCH   9  18
BRANCH   1  20
HETATM   20  C2  UNL     1       6.638  55.404  45.160  1.00  0.00    -0.064 C 
HETATM   21  C1  UNL     1       7.743  55.538  44.445  1.00  0.00     0.016 C 
HETATM   22  C3  UNL     1       5.355  55.131  44.472  1.00  0.00     0.045 C 
ENDBRANCH   1  20
BRANCH  15  23
HETATM   23  O3  UNL     1       9.262  52.227  47.304  1.00  0.00    -0.396 OA
ATOM     24  H3  UNL     1      10.099  52.650  47.147  1.00  0.00     0.210 HD
ENDBRANCH  15  23
TORSDOF 3
ENDMDL
