MODEL 1
REMARK VINA RESULT: -7.321201927      0.000      0.000
REMARK  4 active torsions:
REMARK  status: ('A' for Active; 'I' for Inactive)
REMARK    1  A    between atoms: C2_2  and  C3_3 
REMARK    2  A    between atoms: C3_3  and  O1_4 
REMARK    3  A    between atoms: C8_10  and  C9_11 
REMARK    4  A    between atoms: C16_20  and  O4_22 
ROOT
HETATM    1  C1  UNL     1       7.199  54.573  43.596  1.00  0.00     0.021 C 
HETATM    2  C2  UNL     1       7.113  55.532  44.802  1.00  0.00     0.014 C 
HETATM    3  C4  UNL     1       7.244  54.693  46.023  1.00  0.00     0.042 C 
HETATM    4  C5  UNL     1       6.593  55.289  47.213  1.00  0.00    -0.020 C 
HETATM    5  C6  UNL     1       5.710  56.249  47.186  1.00  0.00    -0.047 C 
HETATM    6  C7  UNL     1       5.060  56.844  48.410  1.00  0.00     0.072 C 
HETATM    7  C8  UNL     1       5.136  58.364  48.209  1.00  0.00     0.168 C 
HETATM    8  O2  UNL     1       4.895  58.748  46.917  1.00  0.00    -0.234 OA
HETATM    9  O3  UNL     1       5.653  58.201  46.007  1.00  0.00    -0.228 OA
HETATM   10  C15 UNL     1       5.278  56.831  45.905  1.00  0.00     0.224 C 
HETATM   11  C16 UNL     1       5.805  56.228  44.666  1.00  0.00     0.096 C 
HETATM   12  C17 UNL     1       4.725  55.283  44.110  1.00  0.00     0.050 C 
ENDROOT
BRANCH   7  13
HETATM   13  C9  UNL     1       4.063  59.043  49.068  1.00  0.00     0.018 C 
HETATM   14  C10 UNL     1       3.752  60.367  48.403  1.00  0.00     0.007 C 
HETATM   15  C11 UNL     1       4.733  61.381  48.994  1.00  0.00     0.000 C 
HETATM   16  C12 UNL     1       4.249  61.688  50.394  1.00  0.00     0.000 C 
HETATM   17  C13 UNL     1       3.756  60.430  51.041  1.00  0.00     0.000 C 
HETATM   18  C14 UNL     1       4.494  59.203  50.488  1.00  0.00     0.007 C 
ENDBRANCH   7  13
BRANCH  11  19
HETATM   19  O4  UNL     1       5.877  57.265  43.713  1.00  0.00    -0.386 OA
ATOM     20  H4  UNL     1       5.854  56.921  42.828  1.00  0.00     0.210 HD
ENDBRANCH  11  19
BRANCH   2  21
HETATM   21  C3  UNL     1       8.262  56.494  44.614  1.00  0.00     0.176 C 
BRANCH  21  22
HETATM   22  O1  UNL     1       9.421  55.929  44.152  1.00  0.00    -0.400 OA
ATOM     23  H1  UNL     1       9.844  56.400  43.444  1.00  0.00     0.209 HD
ENDBRANCH  21  22
ENDBRANCH   2  21
TORSDOF 4
ENDMDL
MODEL 2
REMARK VINA RESULT: -6.964506282      4.737      6.179
REMARK  4 active torsions:
REMARK  status: ('A' for Active; 'I' for Inactive)
REMARK    1  A    between atoms: C2_2  and  C3_3 
REMARK    2  A    between atoms: C3_3  and  O1_4 
REMARK    3  A    between atoms: C8_10  and  C9_11 
REMARK    4  A    between atoms: C16_20  and  O4_22 
ROOT
HETATM    1  C1  UNL     1       2.335  53.903  52.699  1.00  0.00     0.021 C 
HETATM    2  C2  UNL     1       3.085  55.236  52.497  1.00  0.00     0.014 C 
HETATM    3  C4  UNL     1       2.444  56.226  53.403  1.00  0.00     0.042 C 
HETATM    4  C5  UNL     1       2.582  57.624  52.932  1.00  0.00    -0.020 C 
HETATM    5  C6  UNL     1       2.906  57.980  51.719  1.00  0.00    -0.047 C 
HETATM    6  C7  UNL     1       3.043  59.410  51.259  1.00  0.00     0.072 C 
HETATM    7  C8  UNL     1       4.361  59.456  50.473  1.00  0.00     0.168 C 
HETATM    8  O2  UNL     1       4.560  58.349  49.692  1.00  0.00    -0.234 OA
HETATM    9  O3  UNL     1       4.520  57.200  50.308  1.00  0.00    -0.228 OA
HETATM   10  C15 UNL     1       3.168  56.964  50.687  1.00  0.00     0.224 C 
HETATM   11  C16 UNL     1       2.958  55.550  51.048  1.00  0.00     0.096 C 
HETATM   12  C17 UNL     1       1.581  55.129  50.505  1.00  0.00     0.050 C 
ENDROOT
BRANCH   7  13
HETATM   13  C9  UNL     1       4.341  60.658  49.520  1.00  0.00     0.018 C 
HETATM   14  C10 UNL     1       5.473  60.447  48.537  1.00  0.00     0.007 C 
HETATM   15  C11 UNL     1       6.709  61.089  49.169  1.00  0.00     0.000 C 
HETATM   16  C12 UNL     1       6.539  62.586  49.033  1.00  0.00     0.000 C 
HETATM   17  C13 UNL     1       5.109  62.952  49.283  1.00  0.00     0.000 C 
HETATM   18  C14 UNL     1       4.448  61.957  50.247  1.00  0.00     0.007 C 
ENDBRANCH   7  13
BRANCH  11  19
HETATM   19  O4  UNL     1       3.873  54.799  50.282  1.00  0.00    -0.386 OA
ATOM     20  H4  UNL     1       4.769  55.043  50.480  1.00  0.00     0.210 HD
ENDBRANCH  11  19
BRANCH   2  21
HETATM   21  C3  UNL     1       4.518  54.933  52.863  1.00  0.00     0.176 C 
BRANCH  21  22
HETATM   22  O1  UNL     1       4.917  53.645  52.627  1.00  0.00    -0.400 OA
ATOM     23  H1  UNL     1       5.230  53.475  51.747  1.00  0.00     0.209 HD
ENDBRANCH  21  22
ENDBRANCH   2  21
TORSDOF 4
ENDMDL
MODEL 3
REMARK VINA RESULT: -6.610392108      1.855      2.884
REMARK  4 active torsions:
REMARK  status: ('A' for Active; 'I' for Inactive)
REMARK    1  A    between atoms: C2_2  and  C3_3 
REMARK    2  A    between atoms: C3_3  and  O1_4 
REMARK    3  A    between atoms: C8_10  and  C9_11 
REMARK    4  A    between atoms: C16_20  and  O4_22 
ROOT
HETATM    1  C1  UNL     1       6.572  54.139  42.641  1.00  0.00     0.021 C 
HETATM    2  C2  UNL     1       5.814  54.867  43.771  1.00  0.00     0.014 C 
HETATM    3  C4  UNL     1       5.269  56.118  43.181  1.00  0.00     0.042 C 
HETATM    4  C5  UNL     1       5.068  57.195  44.178  1.00  0.00    -0.020 C 
HETATM    5  C6  UNL     1       5.602  57.226  45.368  1.00  0.00    -0.047 C 
HETATM    6  C7  UNL     1       5.384  58.332  46.372  1.00  0.00     0.072 C 
HETATM    7  C8  UNL     1       5.085  57.620  47.698  1.00  0.00     0.168 C 
HETATM    8  O2  UNL     1       5.859  56.508  47.898  1.00  0.00    -0.234 OA
HETATM    9  O3  UNL     1       5.816  55.604  46.958  1.00  0.00    -0.228 OA
HETATM   10  C15 UNL     1       6.485  56.138  45.820  1.00  0.00     0.224 C 
HETATM   11  C16 UNL     1       6.814  55.076  44.852  1.00  0.00     0.096 C 
HETATM   12  C17 UNL     1       8.205  55.387  44.272  1.00  0.00     0.050 C 
ENDROOT
BRANCH   7  13
HETATM   13  C9  UNL     1       5.386  58.571  48.863  1.00  0.00     0.018 C 
HETATM   14  C10 UNL     1       4.661  58.016  50.070  1.00  0.00     0.007 C 
HETATM   15  C11 UNL     1       3.263  58.636  50.049  1.00  0.00     0.000 C 
HETATM   16  C12 UNL     1       3.419  60.074  50.494  1.00  0.00     0.000 C 
HETATM   17  C13 UNL     1       4.667  60.649  49.899  1.00  0.00     0.000 C 
HETATM   18  C14 UNL     1       4.997  59.979  48.558  1.00  0.00     0.007 C 
ENDBRANCH   7  13
BRANCH  11  19
HETATM   19  O4  UNL     1       7.010  53.897  45.600  1.00  0.00    -0.386 OA
ATOM     20  H4  UNL     1       6.556  53.939  46.434  1.00  0.00     0.210 HD
ENDBRANCH  11  19
BRANCH   2  21
HETATM   21  C3  UNL     1       4.741  53.896  44.204  1.00  0.00     0.176 C 
BRANCH  21  22
HETATM   22  O1  UNL     1       5.024  52.577  43.969  1.00  0.00    -0.400 OA
ATOM     23  H1  UNL     1       5.512  52.141  44.658  1.00  0.00     0.209 HD
ENDBRANCH  21  22
ENDBRANCH   2  21
TORSDOF 4
ENDMDL
MODEL 4
REMARK VINA RESULT: -6.550307452      4.799      6.887
REMARK  4 active torsions:
REMARK  status: ('A' for Active; 'I' for Inactive)
REMARK    1  A    between atoms: C2_2  and  C3_3 
REMARK    2  A    between atoms: C3_3  and  O1_4 
REMARK    3  A    between atoms: C8_10  and  C9_11 
REMARK    4  A    between atoms: C16_20  and  O4_22 
ROOT
HETATM    1  C1  UNL     1       1.103  53.811  53.743  1.00  0.00     0.021 C 
HETATM    2  C2  UNL     1       2.077  54.749  52.999  1.00  0.00     0.014 C 
HETATM    3  C4  UNL     1       2.710  55.611  54.032  1.00  0.00     0.042 C 
HETATM    4  C5  UNL     1       3.165  56.918  53.503  1.00  0.00    -0.020 C 
HETATM    5  C6  UNL     1       2.782  57.446  52.373  1.00  0.00    -0.047 C 
HETATM    6  C7  UNL     1       3.259  58.779  51.850  1.00  0.00     0.072 C 
HETATM    7  C8  UNL     1       3.613  58.531  50.378  1.00  0.00     0.168 C 
HETATM    8  O2  UNL     1       2.727  57.701  49.744  1.00  0.00    -0.234 OA
HETATM    9  O3  UNL     1       2.541  56.534  50.296  1.00  0.00    -0.228 OA
HETATM   10  C15 UNL     1       1.822  56.744  51.507  1.00  0.00     0.224 C 
HETATM   11  C16 UNL     1       1.245  55.482  52.006  1.00  0.00     0.096 C 
HETATM   12  C17 UNL     1      -0.151  55.797  52.572  1.00  0.00     0.050 C 
ENDROOT
BRANCH   7  13
HETATM   13  C9  UNL     1       3.578  59.862  49.617  1.00  0.00     0.018 C 
HETATM   14  C10 UNL     1       4.695  59.804  48.596  1.00  0.00     0.007 C 
HETATM   15  C11 UNL     1       5.941  60.347  49.298  1.00  0.00     0.000 C 
HETATM   16  C12 UNL     1       5.768  61.847  49.391  1.00  0.00     0.000 C 
HETATM   17  C13 UNL     1       4.342  62.167  49.715  1.00  0.00     0.000 C 
HETATM   18  C14 UNL     1       3.696  61.037  50.529  1.00  0.00     0.007 C 
ENDBRANCH   7  13
BRANCH  11  19
HETATM   19  O4  UNL     1       0.983  54.683  50.873  1.00  0.00    -0.386 OA
ATOM     20  H4  UNL     1       0.524  55.177  50.204  1.00  0.00     0.210 HD
ENDBRANCH  11  19
BRANCH   2  21
HETATM   21  C3  UNL     1       3.054  53.825  52.312  1.00  0.00     0.176 C 
BRANCH  21  22
HETATM   22  O1  UNL     1       4.281  53.730  52.913  1.00  0.00    -0.400 OA
ATOM     23  H1  UNL     1       4.381  52.998  53.511  1.00  0.00     0.209 HD
ENDBRANCH  21  22
ENDBRANCH   2  21
TORSDOF 4
ENDMDL
MODEL 5
REMARK VINA RESULT: -6.516104273      5.069      7.185
REMARK  4 active torsions:
REMARK  status: ('A' for Active; 'I' for Inactive)
REMARK    1  A    between atoms: C2_2  and  C3_3 
REMARK    2  A    between atoms: C3_3  and  O1_4 
REMARK    3  A    between atoms: C8_10  and  C9_11 
REMARK    4  A    between atoms: C16_20  and  O4_22 
ROOT
HETATM    1  C1  UNL     1       1.894  54.528  53.681  1.00  0.00     0.021 C 
HETATM    2  C2  UNL     1       1.751  55.874  52.941  1.00  0.00     0.014 C 
HETATM    3  C4  UNL     1       1.109  55.574  51.633  1.00  0.00     0.042 C 
HETATM    4  C5  UNL     1       1.439  56.563  50.580  1.00  0.00    -0.020 C 
HETATM    5  C6  UNL     1       2.429  57.411  50.630  1.00  0.00    -0.047 C 
HETATM    6  C7  UNL     1       2.748  58.412  49.547  1.00  0.00     0.072 C 
HETATM    7  C8  UNL     1       2.986  59.738  50.281  1.00  0.00     0.168 C 
HETATM    8  O2  UNL     1       3.680  59.588  51.452  1.00  0.00    -0.234 OA
HETATM    9  O3  UNL     1       3.169  58.756  52.317  1.00  0.00    -0.228 OA
HETATM   10  C15 UNL     1       3.330  57.442  51.793  1.00  0.00     0.224 C 
HETATM   11  C16 UNL     1       3.129  56.425  52.842  1.00  0.00     0.096 C 
HETATM   12  C17 UNL     1       4.161  55.307  52.613  1.00  0.00     0.050 C 
ENDROOT
BRANCH   7  13
HETATM   13  C9  UNL     1       3.830  60.664  49.396  1.00  0.00     0.018 C 
HETATM   14  C10 UNL     1       4.721  59.768  48.562  1.00  0.00     0.007 C 
HETATM   15  C11 UNL     1       5.993  59.550  49.383  1.00  0.00     0.000 C 
HETATM   16  C12 UNL     1       6.788  60.834  49.300  1.00  0.00     0.000 C 
HETATM   17  C13 UNL     1       5.857  62.005  49.377  1.00  0.00     0.000 C 
HETATM   18  C14 UNL     1       4.604  61.659  50.194  1.00  0.00     0.007 C 
ENDBRANCH   7  13
BRANCH  11  19
HETATM   19  O4  UNL     1       3.530  57.017  54.058  1.00  0.00    -0.386 OA
ATOM     20  H4  UNL     1       2.778  57.270  54.581  1.00  0.00     0.210 HD
ENDBRANCH  11  19
BRANCH   2  21
HETATM   21  C3  UNL     1       0.890  56.723  53.846  1.00  0.00     0.176 C 
BRANCH  21  22
HETATM   22  O1  UNL     1       0.845  58.053  53.523  1.00  0.00    -0.400 OA
ATOM     23  H1  UNL     1       0.193  58.288  52.874  1.00  0.00     0.209 HD
ENDBRANCH  21  22
ENDBRANCH   2  21
TORSDOF 4
ENDMDL
