MODEL 1
REMARK VINA RESULT: -5.938797401      0.000      0.000
REMARK  7 active torsions:
REMARK  status: ('A' for Active; 'I' for Inactive)
REMARK    1  A    between atoms: C2_2  and  N1_5 
REMARK    2  A    between atoms: C5_7  and  N2_8 
REMARK    3  A    between atoms: C5_7  and  O3_21 
REMARK       I    between atoms: N2_8  and  C6_10 
REMARK       I    between atoms: C6_10  and  N3_12 
REMARK    4  A    between atoms: N3_12  and  N4_13 
REMARK    5  A    between atoms: N3_12  and  C7_17 
REMARK    6  A    between atoms: N4_13  and  O2_15 
REMARK    7  A    between atoms: O3_21  and  C11_22 
ROOT
HETATM    1  N2  UNL     1       5.793  57.766  48.061  1.00  0.00    -0.273 N 
ATOM      2  H2  UNL     1       6.708  58.136  47.803  1.00  0.00     0.174 HD
HETATM    3  C6  UNL     1       4.900  58.608  48.768  1.00  0.00     0.346 C 
HETATM    4  O1  UNL     1       3.778  58.136  49.075  1.00  0.00    -0.245 OA
HETATM    5  N3  UNL     1       5.248  59.941  49.120  1.00  0.00    -0.214 N 
ENDROOT
BRANCH   1   6
HETATM    6  C5  UNL     1       5.475  56.432  47.695  1.00  0.00     0.224 C 
HETATM    7  N1  UNL     1       5.584  55.910  46.572  1.00  0.00    -0.348 N 
ATOM      8  H1  UNL     1       5.291  54.933  46.561  1.00  0.00     0.163 HD
BRANCH   7   9
HETATM    9  C2  UNL     1       6.019  56.362  45.314  1.00  0.00     0.022 C 
HETATM   10  C1  UNL     1       5.567  57.792  45.013  1.00  0.00     0.037 C 
HETATM   11  C3  UNL     1       5.293  55.501  44.266  1.00  0.00     0.037 C 
HETATM   12  C4  UNL     1       7.470  56.265  45.031  1.00  0.00     0.037 C 
ENDBRANCH   7   9
BRANCH   6  13
HETATM   13  O3  UNL     1       4.984  55.590  48.690  1.00  0.00    -0.312 OA
BRANCH  13  14
HETATM   14  C11 UNL     1       5.812  54.669  49.351  1.00  0.00     0.060 C 
HETATM   15  C12 UNL     1       7.017  54.263  48.526  1.00  0.00     0.046 C 
HETATM   16  C13 UNL     1       6.190  55.063  50.745  1.00  0.00     0.046 C 
HETATM   17  C14 UNL     1       4.984  53.395  49.493  1.00  0.00     0.046 C 
ENDBRANCH  13  14
ENDBRANCH   6  13
ENDBRANCH   1   6
BRANCH   5  18
HETATM   18  N4  UNL     1       6.523  60.383  48.733  1.00  0.00    -0.203 N 
ATOM     19  H4  UNL     1       7.297  60.289  49.391  1.00  0.00     0.216 HD
BRANCH  18  20
HETATM   20  O2  UNL     1       6.746  60.890  47.609  1.00  0.00    -0.274 OA
ATOM     21  H2  UNL     1       6.573  61.805  47.420  1.00  0.00     0.246 HD
ENDBRANCH  18  20
ENDBRANCH   5  18
BRANCH   5  22
HETATM   22  C7  UNL     1       4.401  60.836  49.826  1.00  0.00     0.049 C 
HETATM   23  C8  UNL     1       5.183  62.066  50.223  1.00  0.00     0.040 C 
HETATM   24  C9  UNL     1       3.238  61.327  48.967  1.00  0.00     0.040 C 
HETATM   25  C10 UNL     1       3.808  60.257  51.085  1.00  0.00     0.040 C 
ENDBRANCH   5  22
TORSDOF 7
ENDMDL
MODEL 2
REMARK VINA RESULT: -5.704956556      1.777      5.444
REMARK  7 active torsions:
REMARK  status: ('A' for Active; 'I' for Inactive)
REMARK    1  A    between atoms: C2_2  and  N1_5 
REMARK    2  A    between atoms: C5_7  and  N2_8 
REMARK    3  A    between atoms: C5_7  and  O3_21 
REMARK       I    between atoms: N2_8  and  C6_10 
REMARK       I    between atoms: C6_10  and  N3_12 
REMARK    4  A    between atoms: N3_12  and  N4_13 
REMARK    5  A    between atoms: N3_12  and  C7_17 
REMARK    6  A    between atoms: N4_13  and  O2_15 
REMARK    7  A    between atoms: O3_21  and  C11_22 
ROOT
HETATM    1  N2  UNL     1       5.325  57.582  47.612  1.00  0.00    -0.273 N 
ATOM      2  H2  UNL     1       5.082  58.434  47.108  1.00  0.00     0.174 HD
HETATM    3  C6  UNL     1       5.804  56.474  46.871  1.00  0.00     0.346 C 
HETATM    4  O1  UNL     1       6.100  55.433  47.509  1.00  0.00    -0.245 OA
HETATM    5  N3  UNL     1       5.950  56.524  45.458  1.00  0.00    -0.214 N 
ENDROOT
BRANCH   1   6
HETATM    6  C5  UNL     1       5.168  57.562  49.023  1.00  0.00     0.224 C 
HETATM    7  N1  UNL     1       4.933  58.527  49.770  1.00  0.00    -0.348 N 
ATOM      8  H1  UNL     1       4.863  58.258  50.751  1.00  0.00     0.163 HD
BRANCH   7   9
HETATM    9  C2  UNL     1       4.741  59.905  49.569  1.00  0.00     0.022 C 
HETATM   10  C1  UNL     1       6.044  60.641  49.254  1.00  0.00     0.037 C 
HETATM   11  C3  UNL     1       4.290  60.484  50.921  1.00  0.00     0.037 C 
HETATM   12  C4  UNL     1       3.729  60.303  48.563  1.00  0.00     0.037 C 
ENDBRANCH   7   9
BRANCH   6  13
HETATM   13  O3  UNL     1       5.287  56.334  49.667  1.00  0.00    -0.312 OA
BRANCH  13  14
HETATM   14  C11 UNL     1       4.209  55.757  50.356  1.00  0.00     0.060 C 
HETATM   15  C12 UNL     1       4.442  55.675  51.852  1.00  0.00     0.046 C 
HETATM   16  C13 UNL     1       2.873  56.346  50.026  1.00  0.00     0.046 C 
HETATM   17  C14 UNL     1       4.146  54.305  49.888  1.00  0.00     0.046 C 
ENDBRANCH  13  14
ENDBRANCH   6  13
ENDBRANCH   1   6
BRANCH   5  18
HETATM   18  N4  UNL     1       5.596  57.730  44.830  1.00  0.00    -0.203 N 
ATOM     19  H4  UNL     1       4.869  57.716  44.114  1.00  0.00     0.216 HD
BRANCH  18  20
HETATM   20  O2  UNL     1       6.140  58.821  45.116  1.00  0.00    -0.274 OA
ATOM     21  H2  UNL     1       6.176  59.548  44.505  1.00  0.00     0.246 HD
ENDBRANCH  18  20
ENDBRANCH   5  18
BRANCH   5  22
HETATM   22  C7  UNL     1       6.424  55.452  44.656  1.00  0.00     0.049 C 
HETATM   23  C8  UNL     1       5.853  55.571  43.263  1.00  0.00     0.040 C 
HETATM   24  C9  UNL     1       7.942  55.476  44.501  1.00  0.00     0.040 C 
HETATM   25  C10 UNL     1       6.053  54.086  45.176  1.00  0.00     0.040 C 
ENDBRANCH   5  22
TORSDOF 7
ENDMDL
MODEL 3
REMARK VINA RESULT: -5.437159513      1.119      3.373
REMARK  7 active torsions:
REMARK  status: ('A' for Active; 'I' for Inactive)
REMARK    1  A    between atoms: C2_2  and  N1_5 
REMARK    2  A    between atoms: C5_7  and  N2_8 
REMARK    3  A    between atoms: C5_7  and  O3_21 
REMARK       I    between atoms: N2_8  and  C6_10 
REMARK       I    between atoms: C6_10  and  N3_12 
REMARK    4  A    between atoms: N3_12  and  N4_13 
REMARK    5  A    between atoms: N3_12  and  C7_17 
REMARK    6  A    between atoms: N4_13  and  O2_15 
REMARK    7  A    between atoms: O3_21  and  C11_22 
ROOT
HETATM    1  N2  UNL     1       5.823  57.765  48.321  1.00  0.00    -0.273 N 
ATOM      2  H2  UNL     1       6.811  58.007  48.401  1.00  0.00     0.174 HD
HETATM    3  C6  UNL     1       4.862  58.692  48.793  1.00  0.00     0.346 C 
HETATM    4  O1  UNL     1       3.651  58.378  48.686  1.00  0.00    -0.245 OA
HETATM    5  N3  UNL     1       5.240  59.936  49.369  1.00  0.00    -0.214 N 
ENDROOT
BRANCH   1   6
HETATM    6  C5  UNL     1       5.477  56.516  47.742  1.00  0.00     0.224 C 
HETATM    7  N1  UNL     1       5.109  55.486  48.333  1.00  0.00    -0.348 N 
ATOM      8  H1  UNL     1       4.916  54.714  47.695  1.00  0.00     0.163 HD
BRANCH   7   9
HETATM    9  C2  UNL     1       4.899  55.144  49.680  1.00  0.00     0.022 C 
HETATM   10  C1  UNL     1       6.131  55.399  50.551  1.00  0.00     0.037 C 
HETATM   11  C3  UNL     1       4.711  53.618  49.719  1.00  0.00     0.037 C 
HETATM   12  C4  UNL     1       3.724  55.747  50.350  1.00  0.00     0.037 C 
ENDBRANCH   7   9
BRANCH   6  13
HETATM   13  O3  UNL     1       5.549  56.406  46.356  1.00  0.00    -0.312 OA
BRANCH  13  14
HETATM   14  C11 UNL     1       6.519  55.609  45.730  1.00  0.00     0.060 C 
HETATM   15  C12 UNL     1       7.421  56.399  44.802  1.00  0.00     0.046 C 
HETATM   16  C13 UNL     1       7.298  54.732  46.661  1.00  0.00     0.046 C 
HETATM   17  C14 UNL     1       5.750  54.659  44.816  1.00  0.00     0.046 C 
ENDBRANCH  13  14
ENDBRANCH   6  13
ENDBRANCH   1   6
BRANCH   5  18
HETATM   18  N4  UNL     1       6.617  60.202  49.447  1.00  0.00    -0.203 N 
ATOM     19  H4  UNL     1       7.131  59.896  50.273  1.00  0.00     0.216 HD
BRANCH  18  20
HETATM   20  O2  UNL     1       7.237  60.803  48.539  1.00  0.00    -0.274 OA
ATOM     21  H2  UNL     1       6.837  61.020  47.706  1.00  0.00     0.246 HD
ENDBRANCH  18  20
ENDBRANCH   5  18
BRANCH   5  22
HETATM   22  C7  UNL     1       4.330  60.908  49.860  1.00  0.00     0.049 C 
HETATM   23  C8  UNL     1       3.342  61.271  48.777  1.00  0.00     0.040 C 
HETATM   24  C9  UNL     1       3.505  60.384  51.033  1.00  0.00     0.040 C 
HETATM   25  C10 UNL     1       4.984  62.188  50.316  1.00  0.00     0.040 C 
ENDBRANCH   5  22
TORSDOF 7
ENDMDL
MODEL 4
REMARK VINA RESULT: -5.403919322      2.456      5.809
REMARK  7 active torsions:
REMARK  status: ('A' for Active; 'I' for Inactive)
REMARK    1  A    between atoms: C2_2  and  N1_5 
REMARK    2  A    between atoms: C5_7  and  N2_8 
REMARK    3  A    between atoms: C5_7  and  O3_21 
REMARK       I    between atoms: N2_8  and  C6_10 
REMARK       I    between atoms: C6_10  and  N3_12 
REMARK    4  A    between atoms: N3_12  and  N4_13 
REMARK    5  A    between atoms: N3_12  and  C7_17 
REMARK    6  A    between atoms: N4_13  and  O2_15 
REMARK    7  A    between atoms: O3_21  and  C11_22 
ROOT
HETATM    1  N2  UNL     1       4.684  57.221  49.357  1.00  0.00    -0.273 N 
ATOM      2  H2  UNL     1       4.580  57.607  48.419  1.00  0.00     0.174 HD
HETATM    3  C6  UNL     1       5.358  55.984  49.506  1.00  0.00     0.346 C 
HETATM    4  O1  UNL     1       5.478  55.524  50.668  1.00  0.00    -0.245 OA
HETATM    5  N3  UNL     1       5.884  55.278  48.389  1.00  0.00    -0.214 N 
ENDROOT
BRANCH   1   6
HETATM    6  C5  UNL     1       4.148  57.948  50.451  1.00  0.00     0.224 C 
HETATM    7  N1  UNL     1       4.090  59.183  50.581  1.00  0.00    -0.348 N 
ATOM      8  H1  UNL     1       3.657  59.467  51.460  1.00  0.00     0.163 HD
BRANCH   7   9
HETATM    9  C2  UNL     1       4.486  60.277  49.792  1.00  0.00     0.022 C 
HETATM   10  C1  UNL     1       4.158  61.622  50.443  1.00  0.00     0.037 C 
HETATM   11  C3  UNL     1       3.613  60.240  48.526  1.00  0.00     0.037 C 
HETATM   12  C4  UNL     1       5.899  60.309  49.349  1.00  0.00     0.037 C 
ENDBRANCH   7   9
BRANCH   6  13
HETATM   13  O3  UNL     1       3.620  57.219  51.513  1.00  0.00    -0.312 OA
BRANCH  13  14
HETATM   14  C11 UNL     1       2.236  57.049  51.674  1.00  0.00     0.060 C 
HETATM   15  C12 UNL     1       1.600  58.152  52.497  1.00  0.00     0.046 C 
HETATM   16  C13 UNL     1       1.490  56.793  50.402  1.00  0.00     0.046 C 
HETATM   17  C14 UNL     1       2.068  55.785  52.513  1.00  0.00     0.046 C 
ENDBRANCH  13  14
ENDBRANCH   6  13
ENDBRANCH   1   6
BRANCH   5  18
HETATM   18  N4  UNL     1       5.704  55.869  47.127  1.00  0.00    -0.203 N 
ATOM     19  H4  UNL     1       5.307  55.307  46.374  1.00  0.00     0.216 HD
BRANCH  18  20
HETATM   20  O2  UNL     1       6.013  57.060  46.893  1.00  0.00    -0.274 OA
ATOM     21  H2  UNL     1       5.728  57.516  46.110  1.00  0.00     0.246 HD
ENDBRANCH  18  20
ENDBRANCH   5  18
BRANCH   5  22
HETATM   22  C7  UNL     1       6.568  54.037  48.468  1.00  0.00     0.049 C 
HETATM   23  C8  UNL     1       5.568  52.905  48.463  1.00  0.00     0.040 C 
HETATM   24  C9  UNL     1       7.482  53.805  47.267  1.00  0.00     0.040 C 
HETATM   25  C10 UNL     1       7.416  53.880  49.705  1.00  0.00     0.040 C 
ENDBRANCH   5  22
TORSDOF 7
ENDMDL
MODEL 5
REMARK VINA RESULT: -5.347652286      1.810      5.605
REMARK  7 active torsions:
REMARK  status: ('A' for Active; 'I' for Inactive)
REMARK    1  A    between atoms: C2_2  and  N1_5 
REMARK    2  A    between atoms: C5_7  and  N2_8 
REMARK    3  A    between atoms: C5_7  and  O3_21 
REMARK       I    between atoms: N2_8  and  C6_10 
REMARK       I    between atoms: C6_10  and  N3_12 
REMARK    4  A    between atoms: N3_12  and  N4_13 
REMARK    5  A    between atoms: N3_12  and  C7_17 
REMARK    6  A    between atoms: N4_13  and  O2_15 
REMARK    7  A    between atoms: O3_21  and  C11_22 
ROOT
HETATM    1  N2  UNL     1       5.130  58.415  48.074  1.00  0.00    -0.273 N 
ATOM      2  H2  UNL     1       4.957  59.130  47.368  1.00  0.00     0.174 HD
HETATM    3  C6  UNL     1       5.562  57.136  47.645  1.00  0.00     0.346 C 
HETATM    4  O1  UNL     1       5.772  56.268  48.528  1.00  0.00    -0.245 OA
HETATM    5  N3  UNL     1       5.755  56.833  46.269  1.00  0.00    -0.214 N 
ENDROOT
BRANCH   1   6
HETATM    6  C5  UNL     1       4.928  58.748  49.439  1.00  0.00     0.224 C 
HETATM    7  N1  UNL     1       4.983  59.876  49.956  1.00  0.00    -0.348 N 
ATOM      8  H1  UNL     1       4.799  59.859  50.959  1.00  0.00     0.163 HD
BRANCH   7   9
HETATM    9  C2  UNL     1       5.242  61.171  49.474  1.00  0.00     0.022 C 
HETATM   10  C1  UNL     1       6.669  61.329  48.946  1.00  0.00     0.037 C 
HETATM   11  C3  UNL     1       5.175  62.112  50.689  1.00  0.00     0.037 C 
HETATM   12  C4  UNL     1       4.309  61.706  48.455  1.00  0.00     0.037 C 
ENDBRANCH   7   9
BRANCH   6  13
HETATM   13  O3  UNL     1       4.632  57.710  50.318  1.00  0.00    -0.312 OA
BRANCH  13  14
HETATM   14  C11 UNL     1       3.339  57.526  50.832  1.00  0.00     0.060 C 
HETATM   15  C12 UNL     1       2.699  58.820  51.294  1.00  0.00     0.046 C 
HETATM   16  C13 UNL     1       2.428  56.730  49.949  1.00  0.00     0.046 C 
HETATM   17  C14 UNL     1       3.511  56.696  52.101  1.00  0.00     0.046 C 
ENDBRANCH  13  14
ENDBRANCH   6  13
ENDBRANCH   1   6
BRANCH   5  18
HETATM   18  N4  UNL     1       5.497  57.865  45.353  1.00  0.00    -0.203 N 
ATOM     19  H4  UNL     1       4.687  57.785  44.739  1.00  0.00     0.216 HD
BRANCH  18  20
HETATM   20  O2  UNL     1       6.225  58.881  45.263  1.00  0.00    -0.274 OA
ATOM     21  H2  UNL     1       6.186  59.472  44.520  1.00  0.00     0.246 HD
ENDBRANCH  18  20
ENDBRANCH   5  18
BRANCH   5  22
HETATM   22  C7  UNL     1       6.187  55.574  45.773  1.00  0.00     0.049 C 
HETATM   23  C8  UNL     1       5.373  55.204  44.556  1.00  0.00     0.040 C 
HETATM   24  C9  UNL     1       7.645  55.601  45.322  1.00  0.00     0.040 C 
HETATM   25  C10 UNL     1       6.051  54.444  46.762  1.00  0.00     0.040 C 
ENDBRANCH   5  22
TORSDOF 7
ENDMDL
