MODEL 1
REMARK VINA RESULT: -7.049364234      0.000      0.000
REMARK  6 active torsions:
REMARK  status: ('A' for Active; 'I' for Inactive)
REMARK    1  A    between atoms: N1_2  and  C2_3 
REMARK    2  A    between atoms: C2_3  and  C3_4 
REMARK    3  A    between atoms: C3_4  and  C4_5 
REMARK    4  A    between atoms: C4_5  and  C5_6 
REMARK    5  A    between atoms: C5_6  and  N2_7 
REMARK    6  A    between atoms: N2_7  and  C6_9 
ROOT
HETATM    1  C1  UNL     1     -16.934  21.296 -12.968  1.00  0.00     0.297 C 
HETATM    2  N1  UNL     1     -16.894  19.921 -13.420  1.00  0.00     0.010 N 
HETATM    3  C7  UNL     1     -17.104  19.926 -14.878  1.00  0.00     0.264 C 
HETATM    4  C8  UNL     1     -15.780  20.460 -15.366  1.00  0.00     0.089 C 
HETATM    5  C9  UNL     1     -14.811  19.973 -14.351  1.00  0.00     0.185 C 
HETATM    6  C10 UNL     1     -13.766  19.029 -14.920  1.00  0.00     0.292 C 
HETATM    7  N4  UNL     1     -12.812  19.008 -13.799  1.00  0.00    -0.050 N 
ATOM      8  H41 UNL     1     -11.840  18.879 -14.082  1.00  0.00     0.279 HD
ATOM      9  H42 UNL     1     -12.873  18.173 -13.217  1.00  0.00     0.279 HD
HETATM   10  C11 UNL     1     -13.060  20.254 -13.081  1.00  0.00     0.402 C 
HETATM   11  O1  UNL     1     -13.996  20.956 -13.802  1.00  0.00    -0.334 OA
HETATM   12  N5  UNL     1     -15.620  19.359 -13.350  1.00  0.00    -0.006 NA
ENDROOT
BRANCH   2  13
HETATM   13  C2  UNL     1     -17.806  19.079 -12.719  1.00  0.00     0.260 C 
BRANCH  13  14
HETATM   14  C3  UNL     1     -19.260  19.430 -12.967  1.00  0.00     0.031 C 
BRANCH  14  15
HETATM   15  C4  UNL     1     -19.997  19.520 -11.648  1.00  0.00     0.021 C 
BRANCH  15  16
HETATM   16  C5  UNL     1     -21.019  18.427 -11.487  1.00  0.00     0.121 C 
BRANCH  16  17
HETATM   17  N2  UNL     1     -20.349  17.193 -11.158  1.00  0.00    -0.369 N 
ATOM     18  H2  UNL     1     -20.532  16.366 -11.726  1.00  0.00     0.161 HD
BRANCH  17  19
HETATM   19  C6  UNL     1     -19.448  17.090 -10.077  1.00  0.00     0.180 C 
HETATM   20  N3  UNL     1     -18.170  16.504 -10.192  1.00  0.00    -0.070 NA
HETATM   21  S1  UNL     1     -19.885  17.675  -8.603  1.00  0.00    -0.044 SA
ENDBRANCH  17  19
ENDBRANCH  16  17
ENDBRANCH  15  16
ENDBRANCH  14  15
ENDBRANCH  13  14
ENDBRANCH   2  13
TORSDOF 6
ENDMDL
MODEL 2
REMARK VINA RESULT: -7.001554124      1.985      2.269
REMARK  6 active torsions:
REMARK  status: ('A' for Active; 'I' for Inactive)
REMARK    1  A    between atoms: N1_2  and  C2_3 
REMARK    2  A    between atoms: C2_3  and  C3_4 
REMARK    3  A    between atoms: C3_4  and  C4_5 
REMARK    4  A    between atoms: C4_5  and  C5_6 
REMARK    5  A    between atoms: C5_6  and  N2_7 
REMARK    6  A    between atoms: N2_7  and  C6_9 
ROOT
HETATM    1  C1  UNL     1     -16.868  21.314 -12.936  1.00  0.00     0.297 C 
HETATM    2  N1  UNL     1     -16.824  19.950 -13.418  1.00  0.00     0.010 N 
HETATM    3  C7  UNL     1     -16.878  19.997 -14.888  1.00  0.00     0.264 C 
HETATM    4  C8  UNL     1     -15.494  20.496 -15.221  1.00  0.00     0.089 C 
HETATM    5  C9  UNL     1     -14.654  19.952 -14.124  1.00  0.00     0.185 C 
HETATM    6  C10 UNL     1     -13.585  18.986 -14.606  1.00  0.00     0.292 C 
HETATM    7  N4  UNL     1     -12.755  18.906 -13.393  1.00  0.00    -0.050 N 
ATOM      8  H41 UNL     1     -11.764  18.750 -13.576  1.00  0.00     0.279 HD
ATOM      9  H42 UNL     1     -12.904  18.060 -12.843  1.00  0.00     0.279 HD
HETATM   10  C11 UNL     1     -13.038  20.142 -12.670  1.00  0.00     0.402 C 
HETATM   11  O1  UNL     1     -13.870  20.893 -13.466  1.00  0.00    -0.334 OA
HETATM   12  N5  UNL     1     -15.582  19.343 -13.230  1.00  0.00    -0.006 NA
ENDROOT
BRANCH   2  13
HETATM   13  C2  UNL     1     -17.830  19.123 -12.839  1.00  0.00     0.260 C 
BRANCH  13  14
HETATM   14  C3  UNL     1     -19.239  19.541 -13.212  1.00  0.00     0.031 C 
BRANCH  14  15
HETATM   15  C4  UNL     1     -20.200  19.142 -12.113  1.00  0.00     0.021 C 
BRANCH  15  16
HETATM   16  C5  UNL     1     -19.692  19.509 -10.745  1.00  0.00     0.121 C 
BRANCH  16  17
HETATM   17  N2  UNL     1     -19.984  20.898 -10.486  1.00  0.00    -0.369 N 
ATOM     18  H2  UNL     1     -19.799  21.584 -11.218  1.00  0.00     0.161 HD
BRANCH  17  19
HETATM   19  C6  UNL     1     -20.517  21.340  -9.257  1.00  0.00     0.180 C 
HETATM   20  N3  UNL     1     -20.272  22.624  -8.729  1.00  0.00    -0.070 NA
HETATM   21  S1  UNL     1     -21.473  20.328  -8.381  1.00  0.00    -0.044 SA
ENDBRANCH  17  19
ENDBRANCH  16  17
ENDBRANCH  15  16
ENDBRANCH  14  15
ENDBRANCH  13  14
ENDBRANCH   2  13
TORSDOF 6
ENDMDL
MODEL 3
REMARK VINA RESULT: -6.881996918      3.353      5.759
REMARK  6 active torsions:
REMARK  status: ('A' for Active; 'I' for Inactive)
REMARK    1  A    between atoms: N1_2  and  C2_3 
REMARK    2  A    between atoms: C2_3  and  C3_4 
REMARK    3  A    between atoms: C3_4  and  C4_5 
REMARK    4  A    between atoms: C4_5  and  C5_6 
REMARK    5  A    between atoms: C5_6  and  N2_7 
REMARK    6  A    between atoms: N2_7  and  C6_9 
ROOT
HETATM    1  C1  UNL     1     -15.008  18.753 -13.320  1.00  0.00     0.297 C 
HETATM    2  N1  UNL     1     -15.187  20.174 -13.530  1.00  0.00     0.010 N 
HETATM    3  C7  UNL     1     -15.420  20.384 -14.969  1.00  0.00     0.264 C 
HETATM    4  C8  UNL     1     -16.827  19.861 -15.121  1.00  0.00     0.089 C 
HETATM    5  C9  UNL     1     -17.452  20.153 -13.805  1.00  0.00     0.185 C 
HETATM    6  C10 UNL     1     -18.623  21.116 -13.895  1.00  0.00     0.292 C 
HETATM    7  N4  UNL     1     -19.201  20.932 -12.553  1.00  0.00    -0.050 N 
ATOM      8  H41 UNL     1     -20.213  21.053 -12.516  1.00  0.00     0.279 HD
ATOM      9  H42 UNL     1     -18.972  21.679 -11.897  1.00  0.00     0.279 HD
HETATM   10  C11 UNL     1     -18.745  19.611 -12.133  1.00  0.00     0.402 C 
HETATM   11  O1  UNL     1     -18.063  19.064 -13.193  1.00  0.00    -0.334 OA
HETATM   12  N5  UNL     1     -16.385  20.658 -13.006  1.00  0.00    -0.006 NA
ENDROOT
BRANCH   2  13
HETATM   13  C2  UNL     1     -14.111  20.952 -13.011  1.00  0.00     0.260 C 
BRANCH  13  14
HETATM   14  C3  UNL     1     -12.763  20.269 -13.129  1.00  0.00     0.031 C 
BRANCH  14  15
HETATM   15  C4  UNL     1     -12.029  20.352 -11.808  1.00  0.00     0.021 C 
BRANCH  15  16
HETATM   16  C5  UNL     1     -12.968  20.420 -10.633  1.00  0.00     0.121 C 
BRANCH  16  17
HETATM   17  N2  UNL     1     -12.240  20.118  -9.426  1.00  0.00    -0.369 N 
ATOM     18  H2  UNL     1     -11.730  20.868  -8.958  1.00  0.00     0.161 HD
BRANCH  17  19
HETATM   19  C6  UNL     1     -12.209  18.822  -8.868  1.00  0.00     0.180 C 
HETATM   20  N3  UNL     1     -13.361  18.157  -8.401  1.00  0.00    -0.070 NA
HETATM   21  S1  UNL     1     -10.773  18.030  -8.747  1.00  0.00    -0.044 SA
ENDBRANCH  17  19
ENDBRANCH  16  17
ENDBRANCH  15  16
ENDBRANCH  14  15
ENDBRANCH  13  14
ENDBRANCH   2  13
TORSDOF 6
ENDMDL
MODEL 4
REMARK VINA RESULT: -6.844299110      1.117      1.152
REMARK  6 active torsions:
REMARK  status: ('A' for Active; 'I' for Inactive)
REMARK    1  A    between atoms: N1_2  and  C2_3 
REMARK    2  A    between atoms: C2_3  and  C3_4 
REMARK    3  A    between atoms: C3_4  and  C4_5 
REMARK    4  A    between atoms: C4_5  and  C5_6 
REMARK    5  A    between atoms: C5_6  and  N2_7 
REMARK    6  A    between atoms: N2_7  and  C6_9 
ROOT
HETATM    1  C1  UNL     1     -16.944  21.358 -12.991  1.00  0.00     0.297 C 
HETATM    2  N1  UNL     1     -16.977  19.963 -13.376  1.00  0.00     0.010 N 
HETATM    3  C7  UNL     1     -17.166  19.909 -14.836  1.00  0.00     0.264 C 
HETATM    4  C8  UNL     1     -15.806  20.342 -15.327  1.00  0.00     0.089 C 
HETATM    5  C9  UNL     1     -14.882  19.850 -14.273  1.00  0.00     0.185 C 
HETATM    6  C10 UNL     1     -13.886  18.821 -14.779  1.00  0.00     0.292 C 
HETATM    7  N4  UNL     1     -12.950  18.800 -13.642  1.00  0.00    -0.050 N 
ATOM      8  H41 UNL     1     -11.984  18.601 -13.903  1.00  0.00     0.279 HD
ATOM      9  H42 UNL     1     -13.068  17.999 -13.022  1.00  0.00     0.279 HD
HETATM   10  C11 UNL     1     -13.135  20.091 -12.988  1.00  0.00     0.402 C 
HETATM   11  O1  UNL     1     -14.018  20.810 -13.758  1.00  0.00    -0.334 OA
HETATM   12  N5  UNL     1     -15.739  19.333 -13.258  1.00  0.00    -0.006 NA
ENDROOT
BRANCH   2  13
HETATM   13  C2  UNL     1     -17.946  19.209 -12.652  1.00  0.00     0.260 C 
BRANCH  13  14
HETATM   14  C3  UNL     1     -19.328  19.834 -12.668  1.00  0.00     0.031 C 
BRANCH  14  15
HETATM   15  C4  UNL     1     -19.783  20.108 -11.251  1.00  0.00     0.021 C 
BRANCH  15  16
HETATM   16  C5  UNL     1     -21.163  19.572 -10.978  1.00  0.00     0.121 C 
BRANCH  16  17
HETATM   17  N2  UNL     1     -21.058  18.372 -10.185  1.00  0.00    -0.369 N 
ATOM     18  H2  UNL     1     -21.314  18.410  -9.198  1.00  0.00     0.161 HD
BRANCH  17  19
HETATM   19  C6  UNL     1     -20.613  17.147 -10.726  1.00  0.00     0.180 C 
HETATM   20  N3  UNL     1     -21.300  16.464 -11.750  1.00  0.00    -0.070 NA
HETATM   21  S1  UNL     1     -19.231  16.465 -10.152  1.00  0.00    -0.044 SA
ENDBRANCH  17  19
ENDBRANCH  16  17
ENDBRANCH  15  16
ENDBRANCH  14  15
ENDBRANCH  13  14
ENDBRANCH   2  13
TORSDOF 6
ENDMDL
MODEL 5
REMARK VINA RESULT: -6.830456999      1.176      1.227
REMARK  6 active torsions:
REMARK  status: ('A' for Active; 'I' for Inactive)
REMARK    1  A    between atoms: N1_2  and  C2_3 
REMARK    2  A    between atoms: C2_3  and  C3_4 
REMARK    3  A    between atoms: C3_4  and  C4_5 
REMARK    4  A    between atoms: C4_5  and  C5_6 
REMARK    5  A    between atoms: C5_6  and  N2_7 
REMARK    6  A    between atoms: N2_7  and  C6_9 
ROOT
HETATM    1  C1  UNL     1     -17.143  21.256 -12.977  1.00  0.00     0.297 C 
HETATM    2  N1  UNL     1     -17.056  19.861 -13.352  1.00  0.00     0.010 N 
HETATM    3  C7  UNL     1     -17.259  19.779 -14.808  1.00  0.00     0.264 C 
HETATM    4  C8  UNL     1     -15.951  20.327 -15.322  1.00  0.00     0.089 C 
HETATM    5  C9  UNL     1     -14.972  19.929 -14.278  1.00  0.00     0.185 C 
HETATM    6  C10 UNL     1     -13.894  18.989 -14.791  1.00  0.00     0.292 C 
HETATM    7  N4  UNL     1     -12.945  19.061 -13.668  1.00  0.00    -0.050 N 
ATOM      8  H41 UNL     1     -11.969  18.947 -13.941  1.00  0.00     0.279 HD
ATOM      9  H42 UNL     1     -12.982  18.258 -13.041  1.00  0.00     0.279 HD
HETATM   10  C11 UNL     1     -13.236  20.336 -13.020  1.00  0.00     0.402 C 
HETATM   11  O1  UNL     1     -14.191  20.966 -13.782  1.00  0.00    -0.334 OA
HETATM   12  N5  UNL     1     -15.765  19.345 -13.248  1.00  0.00    -0.006 NA
ENDROOT
BRANCH   2  13
HETATM   13  C2  UNL     1     -17.944  19.029 -12.609  1.00  0.00     0.260 C 
BRANCH  13  14
HETATM   14  C3  UNL     1     -19.405  19.380 -12.809  1.00  0.00     0.031 C 
BRANCH  14  15
HETATM   15  C4  UNL     1     -20.241  18.731 -11.727  1.00  0.00     0.021 C 
BRANCH  15  16
HETATM   16  C5  UNL     1     -19.416  17.883 -10.795  1.00  0.00     0.121 C 
BRANCH  16  17
HETATM   17  N2  UNL     1     -20.221  17.501  -9.662  1.00  0.00    -0.369 N 
ATOM     18  H2  UNL     1     -20.821  16.679  -9.739  1.00  0.00     0.161 HD
BRANCH  17  19
HETATM   19  C6  UNL     1     -20.209  18.224  -8.450  1.00  0.00     0.180 C 
HETATM   20  N3  UNL     1     -19.065  18.341  -7.635  1.00  0.00    -0.070 NA
HETATM   21  S1  UNL     1     -21.582  18.975  -7.945  1.00  0.00    -0.044 SA
ENDBRANCH  17  19
ENDBRANCH  16  17
ENDBRANCH  15  16
ENDBRANCH  14  15
ENDBRANCH  13  14
ENDBRANCH   2  13
TORSDOF 6
ENDMDL
