MODEL 1
REMARK VINA RESULT: -8.708439469      0.000      0.000
REMARK  9 active torsions:
REMARK  status: ('A' for Active; 'I' for Inactive)
REMARK    1  A    between atoms: C3_5  and  O1_6 
REMARK    2  A    between atoms: O1_6  and  C4_7 
REMARK       I    between atoms: N2_10  and  C7_11 
REMARK    3  A    between atoms: C7_11  and  O3_13 
REMARK    4  A    between atoms: O3_13  and  C8_14 
REMARK    5  A    between atoms: C15_23  and  N3_24 
REMARK    6  A    between atoms: N3_24  and  C16_25 
REMARK    7  A    between atoms: C22_31  and  C23_32 
REMARK    8  A    between atoms: C23_32  and  O5_34 
REMARK    9  A    between atoms: N4_36  and  O6_37 
ROOT
HETATM    1  C1  UNL     1      16.871 -17.122  17.313  1.00  0.00     0.092 C 
HETATM    2  C2  UNL     1      16.201 -16.377  16.180  1.00  0.00     0.111 A 
HETATM    3  N1  UNL     1      16.734 -16.406  14.961  1.00  0.00    -0.322 N 
ATOM      4  H1  UNL     1      17.593 -16.931  14.794  1.00  0.00     0.169 HD
HETATM    5  C3  UNL     1      16.149 -15.751  13.956  1.00  0.00     0.189 A 
HETATM    6  C14 UNL     1      15.001 -15.050  14.182  1.00  0.00     0.227 A 
HETATM    7  F1  UNL     1      14.358 -14.365  13.208  1.00  0.00    -0.196 F 
HETATM    8  C15 UNL     1      14.404 -14.995  15.463  1.00  0.00     0.244 A 
HETATM    9  N4  UNL     1      15.075 -15.697  16.430  1.00  0.00    -0.181 N 
ENDROOT
BRANCH   5  10
HETATM   10  O1  UNL     1      16.680 -15.760  12.660  1.00  0.00    -0.328 OA
BRANCH  10  11
HETATM   11  C4  UNL     1      18.034 -16.046  12.374  1.00  0.00     0.133 C 
HETATM   12  C5  UNL     1      18.219 -16.616  11.001  1.00  0.00     0.052 C 
HETATM   13  C6  UNL     1      19.620 -16.710  10.538  1.00  0.00     0.130 C 
HETATM   14  N2  UNL     1      20.627 -16.097  11.327  1.00  0.00    -0.328 N 
HETATM   15  C7  UNL     1      21.973 -16.146  10.878  1.00  0.00     0.363 C 
HETATM   16  C12 UNL     1      20.353 -15.421  12.569  1.00  0.00     0.130 C 
HETATM   17  O2  UNL     1      22.898 -15.602  11.567  1.00  0.00    -0.238 OA
HETATM   18  C13 UNL     1      18.930 -14.865  12.533  1.00  0.00     0.052 C 
BRANCH  15  19
HETATM   19  O3  UNL     1      22.369 -16.765   9.703  1.00  0.00    -0.296 OA
BRANCH  19  20
HETATM   20  C8  UNL     1      23.290 -16.127   8.849  1.00  0.00     0.159 C 
HETATM   21  C9  UNL     1      22.877 -16.227   7.395  1.00  0.00     0.061 C 
HETATM   22  C10 UNL     1      24.183 -16.385   6.695  1.00  0.00     0.170 C 
HETATM   23  O4  UNL     1      25.182 -16.627   7.592  1.00  0.00    -0.389 OA
HETATM   24  C11 UNL     1      24.635 -16.770   8.850  1.00  0.00     0.200 C 
ENDBRANCH  19  20
ENDBRANCH  15  19
ENDBRANCH  10  11
ENDBRANCH   5  10
BRANCH   8  25
HETATM   25  N3  UNL     1      13.394 -14.400  15.712  1.00  0.00    -0.420 NA
BRANCH  25  26
HETATM   26  C16 UNL     1      12.233 -13.831  16.038  1.00  0.00     0.170 C 
HETATM   27  C17 UNL     1      12.193 -13.130  17.420  1.00  0.00     0.045 C 
HETATM   28  C18 UNL     1      10.820 -13.422  17.993  1.00  0.00    -0.005 C 
HETATM   29  C19 UNL     1      10.043 -13.613  16.708  1.00  0.00     0.013 C 
HETATM   30  C22 UNL     1      10.878 -14.814  18.537  1.00  0.00     0.018 C 
HETATM   31  C20 UNL     1      10.984 -14.692  16.130  1.00  0.00     0.022 C 
HETATM   32  C21 UNL     1      11.076 -15.624  17.288  1.00  0.00     0.015 C 
BRANCH  30  33
HETATM   33  C23 UNL     1       9.747 -15.189  19.404  1.00  0.00     0.118 C 
HETATM   34  C24 UNL     1       9.204 -14.050  20.236  1.00  0.00     0.040 C 
BRANCH  33  35
HETATM   35  O5  UNL     1       9.932 -16.256  20.253  1.00  0.00    -0.396 OA
ATOM     36  H5  UNL     1       9.296 -16.960  20.211  1.00  0.00     0.210 HD
ENDBRANCH  33  35
ENDBRANCH  30  33
ENDBRANCH  25  26
ENDBRANCH   8  25
BRANCH   9  37
HETATM   37  O6  UNL     1      14.527 -15.681  17.701  1.00  0.00    -0.279 OA
ATOM     38  H6  UNL     1      13.903 -16.346  17.968  1.00  0.00     0.245 HD
ENDBRANCH   9  37
TORSDOF 9
ENDMDL
MODEL 2
REMARK VINA RESULT: -8.595493425      1.421      1.960
REMARK  9 active torsions:
REMARK  status: ('A' for Active; 'I' for Inactive)
REMARK    1  A    between atoms: C3_5  and  O1_6 
REMARK    2  A    between atoms: O1_6  and  C4_7 
REMARK       I    between atoms: N2_10  and  C7_11 
REMARK    3  A    between atoms: C7_11  and  O3_13 
REMARK    4  A    between atoms: O3_13  and  C8_14 
REMARK    5  A    between atoms: C15_23  and  N3_24 
REMARK    6  A    between atoms: N3_24  and  C16_25 
REMARK    7  A    between atoms: C22_31  and  C23_32 
REMARK    8  A    between atoms: C23_32  and  O5_34 
REMARK    9  A    between atoms: N4_36  and  O6_37 
ROOT
HETATM    1  C1  UNL     1      17.826 -17.096  17.439  1.00  0.00     0.092 C 
HETATM    2  C2  UNL     1      16.886 -16.575  16.376  1.00  0.00     0.111 A 
HETATM    3  N1  UNL     1      17.306 -16.457  15.119  1.00  0.00    -0.322 N 
ATOM      4  H1  UNL     1      18.262 -16.719  14.876  1.00  0.00     0.169 HD
HETATM    5  C3  UNL     1      16.482 -15.998  14.175  1.00  0.00     0.189 A 
HETATM    6  C14 UNL     1      15.205 -15.649  14.503  1.00  0.00     0.227 A 
HETATM    7  F1  UNL     1      14.320 -15.176  13.595  1.00  0.00    -0.196 F 
HETATM    8  C15 UNL     1      14.721 -15.759  15.827  1.00  0.00     0.244 A 
HETATM    9  N4  UNL     1      15.637 -16.239  16.726  1.00  0.00    -0.181 N 
ENDROOT
BRANCH   5  10
HETATM   10  O1  UNL     1      16.889 -15.862  12.842  1.00  0.00    -0.328 OA
BRANCH  10  11
HETATM   11  C4  UNL     1      18.192 -16.167  12.390  1.00  0.00     0.133 C 
HETATM   12  C5  UNL     1      18.208 -16.628  10.964  1.00  0.00     0.052 C 
HETATM   13  C6  UNL     1      19.548 -16.729  10.346  1.00  0.00     0.130 C 
HETATM   14  N2  UNL     1      20.657 -16.215  11.067  1.00  0.00    -0.328 N 
HETATM   15  C7  UNL     1      21.945 -16.271  10.472  1.00  0.00     0.363 C 
HETATM   16  C12 UNL     1      20.543 -15.634  12.380  1.00  0.00     0.130 C 
HETATM   17  O2  UNL     1      22.959 -15.815  11.096  1.00  0.00    -0.238 OA
HETATM   18  C13 UNL     1      19.147 -15.032  12.541  1.00  0.00     0.052 C 
BRANCH  15  19
HETATM   19  O3  UNL     1      22.189 -16.804   9.216  1.00  0.00    -0.296 OA
BRANCH  19  20
HETATM   20  C8  UNL     1      22.910 -16.057   8.264  1.00  0.00     0.159 C 
HETATM   21  C9  UNL     1      22.247 -16.085   6.903  1.00  0.00     0.061 C 
HETATM   22  C10 UNL     1      23.410 -16.118   5.973  1.00  0.00     0.170 C 
HETATM   23  O4  UNL     1      24.565 -16.358   6.658  1.00  0.00    -0.389 OA
HETATM   24  C11 UNL     1      24.262 -16.617   7.979  1.00  0.00     0.200 C 
ENDBRANCH  19  20
ENDBRANCH  15  19
ENDBRANCH  10  11
ENDBRANCH   5  10
BRANCH   8  25
HETATM   25  N3  UNL     1      13.608 -15.472  16.164  1.00  0.00    -0.420 NA
BRANCH  25  26
HETATM   26  C16 UNL     1      12.341 -15.259  16.523  1.00  0.00     0.170 C 
HETATM   27  C17 UNL     1      11.472 -14.490  15.496  1.00  0.00     0.045 C 
HETATM   28  C18 UNL     1      10.583 -13.572  16.310  1.00  0.00    -0.005 C 
HETATM   29  C19 UNL     1      10.520 -14.358  17.603  1.00  0.00     0.013 C 
HETATM   30  C22 UNL     1      11.427 -12.398  16.693  1.00  0.00     0.018 C 
HETATM   31  C20 UNL     1      12.051 -14.459  17.782  1.00  0.00     0.022 C 
HETATM   32  C21 UNL     1      12.443 -13.034  17.598  1.00  0.00     0.015 C 
BRANCH  30  33
HETATM   33  C23 UNL     1      10.682 -11.246  17.232  1.00  0.00     0.118 C 
HETATM   34  C24 UNL     1      10.931  -9.952  16.492  1.00  0.00     0.040 C 
BRANCH  33  35
HETATM   35  O5  UNL     1      10.823 -10.978  18.574  1.00  0.00    -0.396 OA
ATOM     36  H5  UNL     1      11.607 -10.514  18.843  1.00  0.00     0.210 HD
ENDBRANCH  33  35
ENDBRANCH  30  33
ENDBRANCH  25  26
ENDBRANCH   8  25
BRANCH   9  37
HETATM   37  O6  UNL     1      15.211 -16.374  18.035  1.00  0.00    -0.279 OA
ATOM     38  H6  UNL     1      14.304 -16.580  18.230  1.00  0.00     0.245 HD
ENDBRANCH   9  37
TORSDOF 9
ENDMDL
MODEL 3
REMARK VINA RESULT: -8.561901853      1.657      2.219
REMARK  9 active torsions:
REMARK  status: ('A' for Active; 'I' for Inactive)
REMARK    1  A    between atoms: C3_5  and  O1_6 
REMARK    2  A    between atoms: O1_6  and  C4_7 
REMARK       I    between atoms: N2_10  and  C7_11 
REMARK    3  A    between atoms: C7_11  and  O3_13 
REMARK    4  A    between atoms: O3_13  and  C8_14 
REMARK    5  A    between atoms: C15_23  and  N3_24 
REMARK    6  A    between atoms: N3_24  and  C16_25 
REMARK    7  A    between atoms: C22_31  and  C23_32 
REMARK    8  A    between atoms: C23_32  and  O5_34 
REMARK    9  A    between atoms: N4_36  and  O6_37 
ROOT
HETATM    1  C1  UNL     1      17.948 -17.070  17.139  1.00  0.00     0.092 C 
HETATM    2  C2  UNL     1      16.838 -16.639  16.208  1.00  0.00     0.111 A 
HETATM    3  N1  UNL     1      17.052 -16.595  14.895  1.00  0.00    -0.322 N 
ATOM      4  H1  UNL     1      17.966 -16.852  14.521  1.00  0.00     0.169 HD
HETATM    5  C3  UNL     1      16.077 -16.215  14.067  1.00  0.00     0.189 A 
HETATM    6  C14 UNL     1      14.857 -15.872  14.571  1.00  0.00     0.227 A 
HETATM    7  F1  UNL     1      13.826 -15.478  13.786  1.00  0.00    -0.196 F 
HETATM    8  C15 UNL     1      14.589 -15.905  15.958  1.00  0.00     0.244 A 
HETATM    9  N4  UNL     1      15.649 -16.307  16.729  1.00  0.00    -0.181 N 
ENDROOT
BRANCH   5  10
HETATM   10  O1  UNL     1      16.266 -16.158  12.681  1.00  0.00    -0.328 OA
BRANCH  10  11
HETATM   11  C4  UNL     1      17.506 -15.856  12.075  1.00  0.00     0.133 C 
HETATM   12  C5  UNL     1      18.292 -17.087  11.739  1.00  0.00     0.052 C 
HETATM   13  C6  UNL     1      19.480 -16.866  10.886  1.00  0.00     0.130 C 
HETATM   14  N2  UNL     1      19.664 -15.580  10.316  1.00  0.00    -0.328 N 
HETATM   15  C7  UNL     1      20.780 -15.362   9.465  1.00  0.00     0.363 C 
HETATM   16  C12 UNL     1      18.771 -14.476  10.557  1.00  0.00     0.130 C 
HETATM   17  O2  UNL     1      20.968 -14.216   8.938  1.00  0.00    -0.238 OA
HETATM   18  C13 UNL     1      17.372 -15.019  10.848  1.00  0.00     0.052 C 
BRANCH  15  19
HETATM   19  O3  UNL     1      21.711 -16.339   9.154  1.00  0.00    -0.296 OA
BRANCH  19  20
HETATM   20  C8  UNL     1      23.061 -15.987   8.956  1.00  0.00     0.159 C 
HETATM   21  C9  UNL     1      23.593 -16.505   7.636  1.00  0.00     0.061 C 
HETATM   22  C10 UNL     1      24.997 -16.871   7.970  1.00  0.00     0.170 C 
HETATM   23  O4  UNL     1      25.190 -16.847   9.320  1.00  0.00    -0.389 OA
HETATM   24  C11 UNL     1      23.983 -16.611   9.946  1.00  0.00     0.200 C 
ENDBRANCH  19  20
ENDBRANCH  15  19
ENDBRANCH  10  11
ENDBRANCH   5  10
BRANCH   8  25
HETATM   25  N3  UNL     1      13.534 -15.620  16.450  1.00  0.00    -0.420 NA
BRANCH  25  26
HETATM   26  C16 UNL     1      12.317 -15.392  16.945  1.00  0.00     0.170 C 
HETATM   27  C17 UNL     1      11.280 -14.822  15.942  1.00  0.00     0.045 C 
HETATM   28  C18 UNL     1      10.461 -13.814  16.722  1.00  0.00    -0.005 C 
HETATM   29  C19 UNL     1      10.611 -14.386  18.116  1.00  0.00     0.013 C 
HETATM   30  C22 UNL     1      11.287 -12.569  16.799  1.00  0.00     0.018 C 
HETATM   31  C20 UNL     1      12.155 -14.411  18.094  1.00  0.00     0.022 C 
HETATM   32  C21 UNL     1      12.445 -13.022  17.641  1.00  0.00     0.015 C 
BRANCH  30  33
HETATM   33  C23 UNL     1      10.561 -11.369  17.254  1.00  0.00     0.118 C 
HETATM   34  C24 UNL     1      10.781 -10.152  16.386  1.00  0.00     0.040 C 
BRANCH  33  35
HETATM   35  O5  UNL     1      10.752 -10.976  18.558  1.00  0.00    -0.396 OA
ATOM     36  H5  UNL     1      10.791 -10.042  18.728  1.00  0.00     0.210 HD
ENDBRANCH  33  35
ENDBRANCH  30  33
ENDBRANCH  25  26
ENDBRANCH   8  25
BRANCH   9  37
HETATM   37  O6  UNL     1      15.437 -16.365  18.096  1.00  0.00    -0.279 OA
ATOM     38  H6  UNL     1      16.041 -16.833  18.660  1.00  0.00     0.245 HD
ENDBRANCH   9  37
TORSDOF 9
ENDMDL
MODEL 4
REMARK VINA RESULT: -8.477758891      1.649      1.987
REMARK  9 active torsions:
REMARK  status: ('A' for Active; 'I' for Inactive)
REMARK    1  A    between atoms: C3_5  and  O1_6 
REMARK    2  A    between atoms: O1_6  and  C4_7 
REMARK       I    between atoms: N2_10  and  C7_11 
REMARK    3  A    between atoms: C7_11  and  O3_13 
REMARK    4  A    between atoms: O3_13  and  C8_14 
REMARK    5  A    between atoms: C15_23  and  N3_24 
REMARK    6  A    between atoms: N3_24  and  C16_25 
REMARK    7  A    between atoms: C22_31  and  C23_32 
REMARK    8  A    between atoms: C23_32  and  O5_34 
REMARK    9  A    between atoms: N4_36  and  O6_37 
ROOT
HETATM    1  C1  UNL     1      17.885 -17.248  17.327  1.00  0.00     0.092 C 
HETATM    2  C2  UNL     1      16.860 -16.630  16.404  1.00  0.00     0.111 A 
HETATM    3  N1  UNL     1      17.046 -16.667  15.086  1.00  0.00    -0.322 N 
ATOM      4  H1  UNL     1      17.880 -17.113  14.703  1.00  0.00     0.169 HD
HETATM    5  C3  UNL     1      16.146 -16.123  14.265  1.00  0.00     0.189 A 
HETATM    6  C14 UNL     1      15.032 -15.528  14.780  1.00  0.00     0.227 A 
HETATM    7  F1  UNL     1      14.082 -14.958  14.003  1.00  0.00    -0.196 F 
HETATM    8  C15 UNL     1      14.798 -15.468  16.173  1.00  0.00     0.244 A 
HETATM    9  N4  UNL     1      15.775 -16.052  16.936  1.00  0.00    -0.181 N 
ENDROOT
BRANCH   5  10
HETATM   10  O1  UNL     1      16.308 -16.144  12.874  1.00  0.00    -0.328 OA
BRANCH  10  11
HETATM   11  C4  UNL     1      17.525 -15.838  12.226  1.00  0.00     0.133 C 
HETATM   12  C5  UNL     1      18.346 -17.061  11.945  1.00  0.00     0.052 C 
HETATM   13  C6  UNL     1      19.509 -16.852  11.057  1.00  0.00     0.130 C 
HETATM   14  N2  UNL     1      19.640 -15.596  10.410  1.00  0.00    -0.328 N 
HETATM   15  C7  UNL     1      20.731 -15.392   9.525  1.00  0.00     0.363 C 
HETATM   16  C12 UNL     1      18.715 -14.509  10.606  1.00  0.00     0.130 C 
HETATM   17  O2  UNL     1      20.872 -14.273   8.929  1.00  0.00    -0.238 OA
HETATM   18  C13 UNL     1      17.341 -15.078  10.957  1.00  0.00     0.052 C 
BRANCH  15  19
HETATM   19  O3  UNL     1      21.689 -16.355   9.251  1.00  0.00    -0.296 OA
BRANCH  19  20
HETATM   20  C8  UNL     1      23.015 -15.970   8.972  1.00  0.00     0.159 C 
HETATM   21  C9  UNL     1      23.478 -16.474   7.622  1.00  0.00     0.061 C 
HETATM   22  C10 UNL     1      24.909 -16.805   7.870  1.00  0.00     0.170 C 
HETATM   23  O4  UNL     1      25.183 -16.777   9.207  1.00  0.00    -0.389 OA
HETATM   24  C11 UNL     1      24.011 -16.571   9.904  1.00  0.00     0.200 C 
ENDBRANCH  19  20
ENDBRANCH  15  19
ENDBRANCH  10  11
ENDBRANCH   5  10
BRANCH   8  25
HETATM   25  N3  UNL     1      13.833 -14.964  16.674  1.00  0.00    -0.420 NA
BRANCH  25  26
HETATM   26  C16 UNL     1      12.808 -14.420  17.331  1.00  0.00     0.170 C 
HETATM   27  C17 UNL     1      11.874 -15.418  18.063  1.00  0.00     0.045 C 
HETATM   28  C18 UNL     1      10.469 -14.881  17.881  1.00  0.00    -0.005 C 
HETATM   29  C19 UNL     1      10.778 -13.408  17.718  1.00  0.00     0.013 C 
HETATM   30  C22 UNL     1      10.044 -15.270  16.501  1.00  0.00     0.018 C 
HETATM   31  C20 UNL     1      11.785 -13.601  16.562  1.00  0.00     0.022 C 
HETATM   32  C21 UNL     1      10.993 -14.473  15.652  1.00  0.00     0.015 C 
BRANCH  30  33
HETATM   33  C23 UNL     1       8.605 -15.109  16.225  1.00  0.00     0.118 C 
HETATM   34  C24 UNL     1       7.780 -16.340  16.522  1.00  0.00     0.040 C 
BRANCH  33  35
HETATM   35  O5  UNL     1       8.251 -14.678  14.968  1.00  0.00    -0.396 OA
ATOM     36  H5  UNL     1       8.165 -13.741  14.838  1.00  0.00     0.210 HD
ENDBRANCH  33  35
ENDBRANCH  30  33
ENDBRANCH  25  26
ENDBRANCH   8  25
BRANCH   9  37
HETATM   37  O6  UNL     1      15.589 -16.027  18.307  1.00  0.00    -0.279 OA
ATOM     38  H6  UNL     1      14.797 -15.660  18.682  1.00  0.00     0.245 HD
ENDBRANCH   9  37
TORSDOF 9
ENDMDL
MODEL 5
REMARK VINA RESULT: -8.404279558      2.963      4.099
REMARK  9 active torsions:
REMARK  status: ('A' for Active; 'I' for Inactive)
REMARK    1  A    between atoms: C3_5  and  O1_6 
REMARK    2  A    between atoms: O1_6  and  C4_7 
REMARK       I    between atoms: N2_10  and  C7_11 
REMARK    3  A    between atoms: C7_11  and  O3_13 
REMARK    4  A    between atoms: O3_13  and  C8_14 
REMARK    5  A    between atoms: C15_23  and  N3_24 
REMARK    6  A    between atoms: N3_24  and  C16_25 
REMARK    7  A    between atoms: C22_31  and  C23_32 
REMARK    8  A    between atoms: C23_32  and  O5_34 
REMARK    9  A    between atoms: N4_36  and  O6_37 
ROOT
HETATM    1  C1  UNL     1      15.384 -15.994  17.679  1.00  0.00     0.092 C 
HETATM    2  C2  UNL     1      15.399 -15.719  16.193  1.00  0.00     0.111 A 
HETATM    3  N1  UNL     1      16.097 -16.509  15.379  1.00  0.00    -0.322 N 
ATOM      4  H1  UNL     1      16.620 -17.298  15.761  1.00  0.00     0.169 HD
HETATM    5  C3  UNL     1      16.115 -16.273  14.066  1.00  0.00     0.189 A 
HETATM    6  C14 UNL     1      15.415 -15.218  13.558  1.00  0.00     0.227 A 
HETATM    7  F1  UNL     1      15.393 -14.924  12.237  1.00  0.00    -0.196 F 
HETATM    8  C15 UNL     1      14.663 -14.356  14.388  1.00  0.00     0.244 A 
HETATM    9  N4  UNL     1      14.703 -14.676  15.720  1.00  0.00    -0.181 N 
ENDROOT
BRANCH   5  10
HETATM   10  O1  UNL     1      16.837 -17.083  13.180  1.00  0.00    -0.328 OA
BRANCH  10  11
HETATM   11  C4  UNL     1      18.208 -16.897  12.894  1.00  0.00     0.133 C 
HETATM   12  C5  UNL     1      18.459 -16.655  11.436  1.00  0.00     0.052 C 
HETATM   13  C6  UNL     1      19.827 -16.210  11.095  1.00  0.00     0.130 C 
HETATM   14  N2  UNL     1      20.706 -15.875  12.158  1.00  0.00    -0.328 N 
HETATM   15  C7  UNL     1      22.011 -15.411  11.846  1.00  0.00     0.363 C 
HETATM   16  C12 UNL     1      20.339 -15.982  13.547  1.00  0.00     0.130 C 
HETATM   17  O2  UNL     1      22.820 -15.101  12.782  1.00  0.00    -0.238 OA
HETATM   18  C13 UNL     1      18.828 -15.794  13.681  1.00  0.00     0.052 C 
BRANCH  15  19
HETATM   19  O3  UNL     1      22.485 -15.264  10.553  1.00  0.00    -0.296 OA
BRANCH  19  20
HETATM   20  C8  UNL     1      23.112 -16.347   9.906  1.00  0.00     0.159 C 
HETATM   21  C9  UNL     1      24.609 -16.352  10.133  1.00  0.00     0.061 C 
HETATM   22  C10 UNL     1      25.136 -16.837   8.826  1.00  0.00     0.170 C 
HETATM   23  O4  UNL     1      24.148 -16.847   7.885  1.00  0.00    -0.389 OA
HETATM   24  C11 UNL     1      23.008 -16.285   8.421  1.00  0.00     0.200 C 
ENDBRANCH  19  20
ENDBRANCH  15  19
ENDBRANCH  10  11
ENDBRANCH   5  10
BRANCH   8  25
HETATM   25  N3  UNL     1      14.026 -13.422  13.991  1.00  0.00    -0.420 NA
BRANCH  25  26
HETATM   26  C16 UNL     1      13.300 -12.440  13.456  1.00  0.00     0.170 C 
HETATM   27  C17 UNL     1      14.087 -11.405  12.612  1.00  0.00     0.045 C 
HETATM   28  C18 UNL     1      13.462 -10.059  12.916  1.00  0.00    -0.005 C 
HETATM   29  C19 UNL     1      12.064 -10.506  13.290  1.00  0.00     0.013 C 
HETATM   30  C22 UNL     1      14.018  -9.624  14.235  1.00  0.00     0.018 C 
HETATM   31  C20 UNL     1      12.520 -11.510  14.371  1.00  0.00     0.022 C 
HETATM   32  C21 UNL     1      13.448 -10.657  15.164  1.00  0.00     0.015 C 
BRANCH  30  33
HETATM   33  C23 UNL     1      13.774  -8.211  14.576  1.00  0.00     0.118 C 
HETATM   34  C24 UNL     1      14.178  -7.237  13.494  1.00  0.00     0.040 C 
BRANCH  33  35
HETATM   35  O5  UNL     1      14.309  -7.748  15.756  1.00  0.00    -0.396 OA
ATOM     36  H5  UNL     1      15.216  -7.966  15.936  1.00  0.00     0.210 HD
ENDBRANCH  33  35
ENDBRANCH  30  33
ENDBRANCH  25  26
ENDBRANCH   8  25
BRANCH   9  37
HETATM   37  O6  UNL     1      13.976 -13.868  16.576  1.00  0.00    -0.279 OA
ATOM     38  H6  UNL     1      13.318 -13.273  16.237  1.00  0.00     0.245 HD
ENDBRANCH   9  37
TORSDOF 9
ENDMDL
