MODEL 1
REMARK VINA RESULT: -8.520305664      0.000      0.000
REMARK  12 active torsions:
REMARK  status: ('A' for Active; 'I' for Inactive)
REMARK    1  A    between atoms: C3_3  and  O1_4 
REMARK    2  A    between atoms: O1_4  and  C4_5 
REMARK    3  A    between atoms: C6_7  and  N1_8 
REMARK    4  A    between atoms: C12_17  and  C13_18 
REMARK    5  A    between atoms: C13_18  and  O2_19 
REMARK    6  A    between atoms: O2_19  and  C14_20 
REMARK    7  A    between atoms: C14_20  and  C15_22 
REMARK    8  A    between atoms: C15_22  and  N2_23 
REMARK    9  A    between atoms: C15_22  and  N3_32 
REMARK       I    between atoms: N2_23  and  C16_25 
REMARK   10  A    between atoms: C16_25  and  O5_27 
REMARK   11  A    between atoms: O5_27  and  C17_28 
REMARK       I    between atoms: N3_32  and  C21_34 
REMARK   12  A    between atoms: C21_34  and  C22_36 
ROOT
HETATM    1  C13 UNL     1       2.645  32.252 -16.729  1.00  0.00     0.194 C 
ENDROOT
BRANCH   1   2
HETATM    2  C12 UNL     1       1.483  32.267 -17.660  1.00  0.00     0.015 C 
HETATM    3  C2  UNL     1       0.900  33.631 -17.856  1.00  0.00    -0.041 C 
HETATM    4  C1  UNL     1       0.996  34.581 -16.947  1.00  0.00     0.018 C 
HETATM    5  C3  UNL     1       0.223  33.674 -19.182  1.00  0.00     0.116 C 
HETATM    6  C6  UNL     1      -1.280  33.537 -19.019  1.00  0.00     0.223 C 
HETATM    7  C10 UNL     1       0.656  32.337 -19.827  1.00  0.00     0.028 C 
HETATM    8  C7  UNL     1      -1.606  32.464 -17.985  1.00  0.00     0.041 C 
HETATM    9  C8  UNL     1      -0.756  31.262 -18.162  1.00  0.00    -0.003 C 
HETATM   10  C9  UNL     1      -0.315  31.237 -19.611  1.00  0.00     0.013 C 
HETATM   11  C25 UNL     1       0.437  31.294 -17.228  1.00  0.00    -0.030 C 
HETATM   12  C26 UNL     1       0.027  31.594 -15.810  1.00  0.00     0.016 C 
HETATM   13  C27 UNL     1       0.986  29.882 -17.221  1.00  0.00     0.016 C 
HETATM   14  C11 UNL     1       1.940  31.979 -19.101  1.00  0.00     0.025 C 
BRANCH   5  15
HETATM   15  O1  UNL     1       0.600  34.593 -20.056  1.00  0.00    -0.373 OA
BRANCH  15  16
HETATM   16  C4  UNL     1       0.665  34.523 -21.361  1.00  0.00     0.165 C 
HETATM   17  C5  UNL     1      -0.595  35.203 -21.939  1.00  0.00     0.033 C 
ENDBRANCH  15  16
ENDBRANCH   5  15
BRANCH   6  18
HETATM   18  N1  UNL     1      -1.946  34.719 -18.581  1.00  0.00    -0.072 N 
ATOM     19  H13 UNL     1      -1.817  35.470 -19.259  1.00  0.00     0.274 HD
ATOM     20  H12 UNL     1      -2.958  34.599 -18.641  1.00  0.00     0.274 HD
ATOM     21  H11 UNL     1      -1.684  35.038 -17.648  1.00  0.00     0.274 HD
ENDBRANCH   6  18
ENDBRANCH   1   2
BRANCH   1  22
HETATM   22  O2  UNL     1       3.660  33.190 -17.131  1.00  0.00    -0.317 OA
BRANCH  22  23
HETATM   23  C14 UNL     1       4.955  33.090 -16.654  1.00  0.00     0.301 C 
HETATM   24  O3  UNL     1       5.814  32.441 -17.271  1.00  0.00    -0.261 OA
BRANCH  23  25
HETATM   25  C15 UNL     1       5.259  33.807 -15.361  1.00  0.00     0.290 C 
BRANCH  25  26
HETATM   26  N2  UNL     1       6.067  32.989 -14.512  1.00  0.00    -0.307 N 
HETATM   27  C16 UNL     1       7.140  33.489 -13.734  1.00  0.00     0.363 C 
HETATM   28  O4  UNL     1       7.405  34.708 -13.782  1.00  0.00    -0.238 OA
ATOM     29  H2  UNL     1       5.860  31.991 -14.464  1.00  0.00     0.167 HD
BRANCH  27  30
HETATM   30  O5  UNL     1       7.896  32.654 -12.929  1.00  0.00    -0.294 OA
BRANCH  30  31
HETATM   31  C17 UNL     1       8.288  32.959 -11.616  1.00  0.00     0.061 C 
HETATM   32  C18 UNL     1       9.686  33.553 -11.697  1.00  0.00     0.046 C 
HETATM   33  C19 UNL     1       8.309  31.671 -10.806  1.00  0.00     0.046 C 
HETATM   34  C20 UNL     1       7.299  33.938 -11.038  1.00  0.00     0.046 C 
ENDBRANCH  30  31
ENDBRANCH  27  30
ENDBRANCH  25  26
BRANCH  25  35
HETATM   35  N3  UNL     1       4.016  34.076 -14.689  1.00  0.00    -0.331 N 
HETATM   36  C21 UNL     1       3.807  35.208 -13.877  1.00  0.00     0.223 C 
HETATM   37  O6  UNL     1       4.703  36.049 -13.708  1.00  0.00    -0.273 OA
ATOM     38  H3  UNL     1       3.248  33.415 -14.806  1.00  0.00     0.165 HD
BRANCH  36  39
HETATM   39  C22 UNL     1       2.505  35.406 -13.212  1.00  0.00     0.070 C 
HETATM   40  C23 UNL     1       1.550  34.250 -13.554  1.00  0.00     0.019 C 
HETATM   41  C24 UNL     1       2.600  35.505 -11.728  1.00  0.00     0.019 C 
ENDBRANCH  36  39
ENDBRANCH  25  35
ENDBRANCH  23  25
ENDBRANCH  22  23
ENDBRANCH   1  22
TORSDOF 12
ENDMDL
MODEL 2
REMARK VINA RESULT: -8.487906661      5.592     10.313
REMARK  12 active torsions:
REMARK  status: ('A' for Active; 'I' for Inactive)
REMARK    1  A    between atoms: C3_3  and  O1_4 
REMARK    2  A    between atoms: O1_4  and  C4_5 
REMARK    3  A    between atoms: C6_7  and  N1_8 
REMARK    4  A    between atoms: C12_17  and  C13_18 
REMARK    5  A    between atoms: C13_18  and  O2_19 
REMARK    6  A    between atoms: O2_19  and  C14_20 
REMARK    7  A    between atoms: C14_20  and  C15_22 
REMARK    8  A    between atoms: C15_22  and  N2_23 
REMARK    9  A    between atoms: C15_22  and  N3_32 
REMARK       I    between atoms: N2_23  and  C16_25 
REMARK   10  A    between atoms: C16_25  and  O5_27 
REMARK   11  A    between atoms: O5_27  and  C17_28 
REMARK       I    between atoms: N3_32  and  C21_34 
REMARK   12  A    between atoms: C21_34  and  C22_36 
ROOT
HETATM    1  C13 UNL     1       9.990  32.805 -16.573  1.00  0.00     0.194 C 
ENDROOT
BRANCH   1   2
HETATM    2  C12 UNL     1      11.436  32.690 -16.912  1.00  0.00     0.015 C 
HETATM    3  C2  UNL     1      12.120  34.015 -17.041  1.00  0.00    -0.041 C 
HETATM    4  C1  UNL     1      11.477  35.116 -17.375  1.00  0.00     0.018 C 
HETATM    5  C3  UNL     1      13.570  33.832 -16.756  1.00  0.00     0.116 C 
HETATM    6  C6  UNL     1      14.367  33.790 -18.047  1.00  0.00     0.223 C 
HETATM    7  C10 UNL     1      13.632  32.380 -16.228  1.00  0.00     0.028 C 
HETATM    8  C7  UNL     1      13.641  32.949 -19.092  1.00  0.00     0.041 C 
HETATM    9  C8  UNL     1      13.097  31.702 -18.503  1.00  0.00    -0.003 C 
HETATM   10  C9  UNL     1      13.936  31.382 -17.283  1.00  0.00     0.013 C 
HETATM   11  C25 UNL     1      11.636  31.862 -18.137  1.00  0.00    -0.030 C 
HETATM   12  C26 UNL     1      10.836  32.443 -19.273  1.00  0.00     0.016 C 
HETATM   13  C27 UNL     1      11.114  30.456 -17.926  1.00  0.00     0.016 C 
HETATM   14  C11 UNL     1      12.225  32.114 -15.723  1.00  0.00     0.025 C 
BRANCH   5  15
HETATM   15  O1  UNL     1      14.122  34.551 -15.792  1.00  0.00    -0.373 OA
BRANCH  15  16
HETATM   16  C4  UNL     1      15.327  34.481 -15.287  1.00  0.00     0.165 C 
HETATM   17  C5  UNL     1      15.771  35.910 -14.908  1.00  0.00     0.033 C 
ENDBRANCH  15  16
ENDBRANCH   5  15
BRANCH   6  18
HETATM   18  N1  UNL     1      14.592  35.061 -18.655  1.00  0.00    -0.072 N 
ATOM     19  H13 UNL     1      13.994  35.172 -19.474  1.00  0.00     0.274 HD
ATOM     20  H12 UNL     1      14.222  35.806 -18.063  1.00  0.00     0.274 HD
ATOM     21  H11 UNL     1      15.563  35.254 -18.898  1.00  0.00     0.274 HD
ENDBRANCH   6  18
ENDBRANCH   1   2
BRANCH   1  22
HETATM   22  O2  UNL     1       9.660  32.057 -15.389  1.00  0.00    -0.317 OA
BRANCH  22  23
HETATM   23  C14 UNL     1       8.591  32.420 -14.589  1.00  0.00     0.301 C 
HETATM   24  O3  UNL     1       7.430  32.397 -15.028  1.00  0.00    -0.261 OA
BRANCH  23  25
HETATM   25  C15 UNL     1       8.912  32.836 -13.174  1.00  0.00     0.290 C 
BRANCH  25  26
HETATM   26  N2  UNL     1       7.733  33.294 -12.508  1.00  0.00    -0.307 N 
HETATM   27  C16 UNL     1       7.239  34.618 -12.615  1.00  0.00     0.363 C 
HETATM   28  O4  UNL     1       7.855  35.439 -13.327  1.00  0.00    -0.238 OA
ATOM     29  H2  UNL     1       7.221  32.634 -11.923  1.00  0.00     0.167 HD
BRANCH  27  30
HETATM   30  O5  UNL     1       6.093  35.015 -11.946  1.00  0.00    -0.294 OA
BRANCH  30  31
HETATM   31  C17 UNL     1       4.903  35.410 -12.576  1.00  0.00     0.061 C 
HETATM   32  C18 UNL     1       3.760  35.013 -11.656  1.00  0.00     0.046 C 
HETATM   33  C19 UNL     1       4.792  34.674 -13.904  1.00  0.00     0.046 C 
HETATM   34  C20 UNL     1       4.951  36.901 -12.794  1.00  0.00     0.046 C 
ENDBRANCH  30  31
ENDBRANCH  27  30
ENDBRANCH  25  26
BRANCH  25  35
HETATM   35  N3  UNL     1       9.859  33.918 -13.224  1.00  0.00    -0.331 N 
HETATM   36  C21 UNL     1      10.928  34.049 -12.316  1.00  0.00     0.223 C 
HETATM   37  O6  UNL     1      11.111  33.214 -11.418  1.00  0.00    -0.273 OA
ATOM     38  H3  UNL     1       9.751  34.624 -13.952  1.00  0.00     0.165 HD
BRANCH  36  39
HETATM   39  C22 UNL     1      11.850  35.195 -12.428  1.00  0.00     0.070 C 
HETATM   40  C23 UNL     1      13.303  34.731 -12.226  1.00  0.00     0.019 C 
HETATM   41  C24 UNL     1      11.768  35.904 -13.736  1.00  0.00     0.019 C 
ENDBRANCH  36  39
ENDBRANCH  25  35
ENDBRANCH  23  25
ENDBRANCH  22  23
ENDBRANCH   1  22
TORSDOF 12
ENDMDL
MODEL 3
REMARK VINA RESULT: -8.081094908      6.002      9.475
REMARK  12 active torsions:
REMARK  status: ('A' for Active; 'I' for Inactive)
REMARK    1  A    between atoms: C3_3  and  O1_4 
REMARK    2  A    between atoms: O1_4  and  C4_5 
REMARK    3  A    between atoms: C6_7  and  N1_8 
REMARK    4  A    between atoms: C12_17  and  C13_18 
REMARK    5  A    between atoms: C13_18  and  O2_19 
REMARK    6  A    between atoms: O2_19  and  C14_20 
REMARK    7  A    between atoms: C14_20  and  C15_22 
REMARK    8  A    between atoms: C15_22  and  N2_23 
REMARK    9  A    between atoms: C15_22  and  N3_32 
REMARK       I    between atoms: N2_23  and  C16_25 
REMARK   10  A    between atoms: C16_25  and  O5_27 
REMARK   11  A    between atoms: O5_27  and  C17_28 
REMARK       I    between atoms: N3_32  and  C21_34 
REMARK   12  A    between atoms: C21_34  and  C22_36 
ROOT
HETATM    1  C13 UNL     1      10.993  32.543 -15.446  1.00  0.00     0.194 C 
ENDROOT
BRANCH   1   2
HETATM    2  C12 UNL     1      11.516  33.160 -16.697  1.00  0.00     0.015 C 
HETATM    3  C2  UNL     1      10.625  32.941 -17.880  1.00  0.00    -0.041 C 
HETATM    4  C1  UNL     1       9.811  31.908 -17.974  1.00  0.00     0.018 C 
HETATM    5  C3  UNL     1      10.855  34.040 -18.858  1.00  0.00     0.116 C 
HETATM    6  C6  UNL     1      11.743  33.567 -19.994  1.00  0.00     0.223 C 
HETATM    7  C10 UNL     1      11.749  35.020 -18.064  1.00  0.00     0.028 C 
HETATM    8  C7  UNL     1      12.891  32.720 -19.453  1.00  0.00     0.041 C 
HETATM    9  C8  UNL     1      13.484  33.323 -18.236  1.00  0.00    -0.003 C 
HETATM   10  C9  UNL     1      13.199  34.810 -18.290  1.00  0.00     0.013 C 
HETATM   11  C25 UNL     1      12.907  32.701 -16.981  1.00  0.00    -0.030 C 
HETATM   12  C26 UNL     1      12.938  31.196 -17.038  1.00  0.00     0.016 C 
HETATM   13  C27 UNL     1      13.844  33.102 -15.860  1.00  0.00     0.016 C 
HETATM   14  C11 UNL     1      11.448  34.695 -16.612  1.00  0.00     0.025 C 
BRANCH   5  15
HETATM   15  O1  UNL     1       9.823  34.776 -19.237  1.00  0.00    -0.373 OA
BRANCH  15  16
HETATM   16  C4  UNL     1       9.758  35.711 -20.150  1.00  0.00     0.165 C 
HETATM   17  C5  UNL     1       8.611  35.354 -21.119  1.00  0.00     0.033 C 
ENDBRANCH  15  16
ENDBRANCH   5  15
BRANCH   6  18
HETATM   18  N1  UNL     1      11.088  32.760 -20.972  1.00  0.00    -0.072 N 
ATOM     19  H13 UNL     1      10.519  32.047 -20.518  1.00  0.00     0.274 HD
ATOM     20  H12 UNL     1      10.358  33.297 -21.442  1.00  0.00     0.274 HD
ATOM     21  H11 UNL     1      11.709  32.332 -21.659  1.00  0.00     0.274 HD
ENDBRANCH   6  18
ENDBRANCH   1   2
BRANCH   1  22
HETATM   22  O2  UNL     1      10.011  33.381 -14.810  1.00  0.00    -0.317 OA
BRANCH  22  23
HETATM   23  C14 UNL     1       9.209  32.897 -13.792  1.00  0.00     0.301 C 
HETATM   24  O3  UNL     1       8.392  31.987 -14.002  1.00  0.00    -0.261 OA
BRANCH  23  25
HETATM   25  C15 UNL     1       9.384  33.527 -12.431  1.00  0.00     0.290 C 
BRANCH  25  26
HETATM   26  N2  UNL     1       8.195  34.218 -12.042  1.00  0.00    -0.307 N 
HETATM   27  C16 UNL     1       7.796  35.460 -12.596  1.00  0.00     0.363 C 
HETATM   28  O4  UNL     1       8.512  35.991 -13.470  1.00  0.00    -0.238 OA
ATOM     29  H2  UNL     1       7.602  33.795 -11.329  1.00  0.00     0.167 HD
BRANCH  27  30
HETATM   30  O5  UNL     1       6.636  36.092 -12.182  1.00  0.00    -0.294 OA
BRANCH  30  31
HETATM   31  C17 UNL     1       5.340  35.634 -12.464  1.00  0.00     0.061 C 
HETATM   32  C18 UNL     1       4.824  34.957 -11.204  1.00  0.00     0.046 C 
HETATM   33  C19 UNL     1       5.419  34.632 -13.607  1.00  0.00     0.046 C 
HETATM   34  C20 UNL     1       4.488  36.817 -12.849  1.00  0.00     0.046 C 
ENDBRANCH  30  31
ENDBRANCH  27  30
ENDBRANCH  25  26
BRANCH  25  35
HETATM   35  N3  UNL     1      10.461  34.477 -12.508  1.00  0.00    -0.331 N 
HETATM   36  C21 UNL     1      11.796  34.156 -12.194  1.00  0.00     0.223 C 
HETATM   37  O6  UNL     1      12.113  33.011 -11.838  1.00  0.00    -0.273 OA
ATOM     38  H3  UNL     1      10.248  35.430 -12.804  1.00  0.00     0.165 HD
BRANCH  36  39
HETATM   39  C22 UNL     1      12.843  35.192 -12.287  1.00  0.00     0.070 C 
HETATM   40  C23 UNL     1      14.220  34.590 -11.962  1.00  0.00     0.019 C 
HETATM   41  C24 UNL     1      12.925  35.840 -13.627  1.00  0.00     0.019 C 
ENDBRANCH  36  39
ENDBRANCH  25  35
ENDBRANCH  23  25
ENDBRANCH  22  23
ENDBRANCH   1  22
TORSDOF 12
ENDMDL
MODEL 4
REMARK VINA RESULT: -8.015855824      1.832      2.580
REMARK  12 active torsions:
REMARK  status: ('A' for Active; 'I' for Inactive)
REMARK    1  A    between atoms: C3_3  and  O1_4 
REMARK    2  A    between atoms: O1_4  and  C4_5 
REMARK    3  A    between atoms: C6_7  and  N1_8 
REMARK    4  A    between atoms: C12_17  and  C13_18 
REMARK    5  A    between atoms: C13_18  and  O2_19 
REMARK    6  A    between atoms: O2_19  and  C14_20 
REMARK    7  A    between atoms: C14_20  and  C15_22 
REMARK    8  A    between atoms: C15_22  and  N2_23 
REMARK    9  A    between atoms: C15_22  and  N3_32 
REMARK       I    between atoms: N2_23  and  C16_25 
REMARK   10  A    between atoms: C16_25  and  O5_27 
REMARK   11  A    between atoms: O5_27  and  C17_28 
REMARK       I    between atoms: N3_32  and  C21_34 
REMARK   12  A    between atoms: C21_34  and  C22_36 
ROOT
HETATM    1  C13 UNL     1       3.687  31.748 -16.121  1.00  0.00     0.194 C 
ENDROOT
BRANCH   1   2
HETATM    2  C12 UNL     1       2.812  31.836 -17.323  1.00  0.00     0.015 C 
HETATM    3  C2  UNL     1       1.356  31.693 -17.006  1.00  0.00    -0.041 C 
HETATM    4  C1  UNL     1       0.921  31.031 -15.953  1.00  0.00     0.018 C 
HETATM    5  C3  UNL     1       0.569  32.385 -18.064  1.00  0.00     0.116 C 
HETATM    6  C6  UNL     1       0.002  31.380 -19.051  1.00  0.00     0.223 C 
HETATM    7  C10 UNL     1       1.660  33.128 -18.869  1.00  0.00     0.028 C 
HETATM    8  C7  UNL     1       1.046  30.321 -19.389  1.00  0.00     0.041 C 
HETATM    9  C8  UNL     1       2.381  30.927 -19.616  1.00  0.00    -0.003 C 
HETATM   10  C9  UNL     1       2.152  32.363 -20.041  1.00  0.00     0.013 C 
HETATM   11  C25 UNL     1       3.233  30.855 -18.366  1.00  0.00    -0.030 C 
HETATM   12  C26 UNL     1       3.243  29.469 -17.776  1.00  0.00     0.016 C 
HETATM   13  C27 UNL     1       4.650  31.131 -18.823  1.00  0.00     0.016 C 
HETATM   14  C11 UNL     1       2.809  33.268 -17.885  1.00  0.00     0.025 C 
BRANCH   5  15
HETATM   15  O1  UNL     1      -0.274  33.339 -17.705  1.00  0.00    -0.373 OA
BRANCH  15  16
HETATM   16  C4  UNL     1      -0.777  34.316 -18.414  1.00  0.00     0.165 C 
HETATM   17  C5  UNL     1      -2.310  34.140 -18.453  1.00  0.00     0.033 C 
ENDBRANCH  15  16
ENDBRANCH   5  15
BRANCH   6  18
HETATM   18  N1  UNL     1      -1.144  30.667 -18.589  1.00  0.00    -0.072 N 
ATOM     19  H13 UNL     1      -1.931  30.815 -19.221  1.00  0.00     0.274 HD
ATOM     20  H12 UNL     1      -1.007  29.663 -18.708  1.00  0.00     0.274 HD
ATOM     21  H11 UNL     1      -1.419  30.874 -17.629  1.00  0.00     0.274 HD
ENDBRANCH   6  18
ENDBRANCH   1   2
BRANCH   1  22
HETATM   22  O2  UNL     1       4.170  33.043 -15.719  1.00  0.00    -0.317 OA
BRANCH  22  23
HETATM   23  C14 UNL     1       5.503  33.243 -15.407  1.00  0.00     0.301 C 
HETATM   24  O3  UNL     1       6.397  32.614 -15.995  1.00  0.00    -0.261 OA
BRANCH  23  25
HETATM   25  C15 UNL     1       5.804  34.256 -14.329  1.00  0.00     0.290 C 
BRANCH  25  26
HETATM   26  N2  UNL     1       6.922  33.836 -13.545  1.00  0.00    -0.307 N 
HETATM   27  C16 UNL     1       7.900  34.727 -13.037  1.00  0.00     0.363 C 
HETATM   28  O4  UNL     1       7.791  35.947 -13.280  1.00  0.00    -0.238 OA
ATOM     29  H2  UNL     1       7.022  32.842 -13.340  1.00  0.00     0.167 HD
BRANCH  27  30
HETATM   30  O5  UNL     1       8.968  34.270 -12.284  1.00  0.00    -0.294 OA
BRANCH  30  31
HETATM   31  C17 UNL     1      10.303  34.271 -12.719  1.00  0.00     0.061 C 
HETATM   32  C18 UNL     1      10.368  33.391 -13.957  1.00  0.00     0.046 C 
HETATM   33  C19 UNL     1      11.172  33.691 -11.612  1.00  0.00     0.046 C 
HETATM   34  C20 UNL     1      10.704  35.692 -13.023  1.00  0.00     0.046 C 
ENDBRANCH  30  31
ENDBRANCH  27  30
ENDBRANCH  25  26
BRANCH  25  35
HETATM   35  N3  UNL     1       4.654  34.356 -13.470  1.00  0.00    -0.331 N 
HETATM   36  C21 UNL     1       4.189  35.578 -12.945  1.00  0.00     0.223 C 
HETATM   37  O6  UNL     1       4.755  36.648 -13.214  1.00  0.00    -0.273 OA
ATOM     38  H3  UNL     1       4.152  33.502 -13.229  1.00  0.00     0.165 HD
BRANCH  36  39
HETATM   39  C22 UNL     1       3.008  35.596 -12.061  1.00  0.00     0.070 C 
HETATM   40  C23 UNL     1       1.849  34.814 -12.703  1.00  0.00     0.019 C 
HETATM   41  C24 UNL     1       3.264  35.019 -10.710  1.00  0.00     0.019 C 
ENDBRANCH  36  39
ENDBRANCH  25  35
ENDBRANCH  23  25
ENDBRANCH  22  23
ENDBRANCH   1  22
TORSDOF 12
ENDMDL
MODEL 5
REMARK VINA RESULT: -7.947802426      2.112      3.449
REMARK  12 active torsions:
REMARK  status: ('A' for Active; 'I' for Inactive)
REMARK    1  A    between atoms: C3_3  and  O1_4 
REMARK    2  A    between atoms: O1_4  and  C4_5 
REMARK    3  A    between atoms: C6_7  and  N1_8 
REMARK    4  A    between atoms: C12_17  and  C13_18 
REMARK    5  A    between atoms: C13_18  and  O2_19 
REMARK    6  A    between atoms: O2_19  and  C14_20 
REMARK    7  A    between atoms: C14_20  and  C15_22 
REMARK    8  A    between atoms: C15_22  and  N2_23 
REMARK    9  A    between atoms: C15_22  and  N3_32 
REMARK       I    between atoms: N2_23  and  C16_25 
REMARK   10  A    between atoms: C16_25  and  O5_27 
REMARK   11  A    between atoms: O5_27  and  C17_28 
REMARK       I    between atoms: N3_32  and  C21_34 
REMARK   12  A    between atoms: C21_34  and  C22_36 
ROOT
HETATM    1  C13 UNL     1       3.884  33.820 -16.463  1.00  0.00     0.194 C 
ENDROOT
BRANCH   1   2
HETATM    2  C12 UNL     1       2.549  33.189 -16.663  1.00  0.00     0.015 C 
HETATM    3  C2  UNL     1       2.441  32.432 -17.950  1.00  0.00    -0.041 C 
HETATM    4  C1  UNL     1       3.169  32.724 -19.009  1.00  0.00     0.018 C 
HETATM    5  C3  UNL     1       1.401  31.377 -17.795  1.00  0.00     0.116 C 
HETATM    6  C6  UNL     1       0.101  31.808 -18.450  1.00  0.00     0.223 C 
HETATM    7  C10 UNL     1       1.094  31.423 -16.280  1.00  0.00     0.028 C 
HETATM    8  C7  UNL     1      -0.188  33.273 -18.140  1.00  0.00     0.041 C 
HETATM    9  C8  UNL     1       0.078  33.591 -16.717  1.00  0.00    -0.003 C 
HETATM   10  C9  UNL     1      -0.054  32.298 -15.939  1.00  0.00     0.013 C 
HETATM   11  C25 UNL     1       1.456  34.197 -16.541  1.00  0.00    -0.030 C 
HETATM   12  C26 UNL     1       1.698  35.323 -17.512  1.00  0.00     0.016 C 
HETATM   13  C27 UNL     1       1.452  34.820 -15.160  1.00  0.00     0.016 C 
HETATM   14  C11 UNL     1       2.345  32.031 -15.671  1.00  0.00     0.025 C 
BRANCH   5  15
HETATM   15  O1  UNL     1       1.739  30.118 -18.019  1.00  0.00    -0.373 OA
BRANCH  15  16
HETATM   16  C4  UNL     1       2.721  29.416 -17.513  1.00  0.00     0.165 C 
HETATM   17  C5  UNL     1       3.818  29.282 -18.590  1.00  0.00     0.033 C 
ENDBRANCH  15  16
ENDBRANCH   5  15
BRANCH   6  18
HETATM   18  N1  UNL     1       0.080  31.696 -19.872  1.00  0.00    -0.072 N 
ATOM     19  H13 UNL     1       0.891  32.165 -20.275  1.00  0.00     0.274 HD
ATOM     20  H12 UNL     1       0.273  30.735 -20.154  1.00  0.00     0.274 HD
ATOM     21  H11 UNL     1      -0.776  32.028 -20.314  1.00  0.00     0.274 HD
ENDBRANCH   6  18
ENDBRANCH   1   2
BRANCH   1  22
HETATM   22  O2  UNL     1       4.389  33.585 -15.136  1.00  0.00    -0.317 OA
BRANCH  22  23
HETATM   23  C14 UNL     1       5.749  33.531 -14.888  1.00  0.00     0.301 C 
HETATM   24  O3  UNL     1       6.486  32.774 -15.537  1.00  0.00    -0.261 OA
BRANCH  23  25
HETATM   25  C15 UNL     1       6.277  34.435 -13.799  1.00  0.00     0.290 C 
BRANCH  25  26
HETATM   26  N2  UNL     1       7.525  33.946 -13.304  1.00  0.00    -0.307 N 
HETATM   27  C16 UNL     1       8.441  34.741 -12.573  1.00  0.00     0.363 C 
HETATM   28  O4  UNL     1       8.157  35.935 -12.340  1.00  0.00    -0.238 OA
ATOM     29  H2  UNL     1       7.769  32.973 -13.487  1.00  0.00     0.167 HD
BRANCH  27  30
HETATM   30  O5  UNL     1       9.641  34.221 -12.117  1.00  0.00    -0.294 OA
BRANCH  30  31
HETATM   31  C17 UNL     1      10.872  34.370 -12.775  1.00  0.00     0.061 C 
HETATM   32  C18 UNL     1      11.951  33.907 -11.810  1.00  0.00     0.046 C 
HETATM   33  C19 UNL     1      11.064  35.842 -13.114  1.00  0.00     0.046 C 
HETATM   34  C20 UNL     1      10.847  33.532 -14.028  1.00  0.00     0.046 C 
ENDBRANCH  30  31
ENDBRANCH  27  30
ENDBRANCH  25  26
BRANCH  25  35
HETATM   35  N3  UNL     1       5.327  34.444 -12.718  1.00  0.00    -0.331 N 
HETATM   36  C21 UNL     1       4.692  35.614 -12.261  1.00  0.00     0.223 C 
HETATM   37  O6  UNL     1       4.919  36.714 -12.786  1.00  0.00    -0.273 OA
ATOM     38  H3  UNL     1       5.104  33.559 -12.261  1.00  0.00     0.165 HD
BRANCH  36  39
HETATM   39  C22 UNL     1       3.737  35.541 -11.138  1.00  0.00     0.070 C 
HETATM   40  C23 UNL     1       2.372  35.032 -11.630  1.00  0.00     0.019 C 
HETATM   41  C24 UNL     1       4.189  34.656 -10.026  1.00  0.00     0.019 C 
ENDBRANCH  36  39
ENDBRANCH  25  35
ENDBRANCH  23  25
ENDBRANCH  22  23
ENDBRANCH   1  22
TORSDOF 12
ENDMDL
