MODEL 1
REMARK VINA RESULT: -9.716705163      0.000      0.000
REMARK  9 active torsions:
REMARK  status: ('A' for Active; 'I' for Inactive)
REMARK    1  A    between atoms: C1_2  and  O2_3 
REMARK    2  A    between atoms: O2_3  and  C2_4 
REMARK    3  A    between atoms: C5_7  and  C6_8 
REMARK    4  A    between atoms: C6_8  and  O4_10 
REMARK    5  A    between atoms: O4_10  and  C7_11 
REMARK    6  A    between atoms: C10_14  and  N1_15 
REMARK       I    between atoms: N1_15  and  C11_17 
REMARK    7  A    between atoms: C11_17  and  C12_19 
REMARK       I    between atoms: C12_19  and  N2_21 
REMARK    8  A    between atoms: N2_21  and  C13_23 
REMARK    9  A    between atoms: C18_29  and  C19_30 
ROOT
HETATM    1  C7  UNL     1      14.450  35.326 -13.788  1.00  0.00     0.079 A 
HETATM    2  C8  UNL     1      13.518  35.644 -14.750  1.00  0.00     0.039 A 
HETATM    3  C9  UNL     1      12.177  35.394 -14.612  1.00  0.00     0.032 A 
HETATM    4  C10 UNL     1      11.672  34.784 -13.450  1.00  0.00     0.035 A 
HETATM    5  C20 UNL     1      12.596  34.466 -12.491  1.00  0.00     0.032 A 
HETATM    6  C21 UNL     1      13.962  34.733 -12.655  1.00  0.00     0.039 A 
ENDROOT
BRANCH   4   7
HETATM    7  N1  UNL     1      10.285  34.568 -13.358  1.00  0.00    -0.319 N 
HETATM    8  C11 UNL     1       9.335  35.516 -13.004  1.00  0.00     0.314 C 
HETATM    9  O5  UNL     1       9.576  36.715 -12.708  1.00  0.00    -0.262 OA
ATOM     10  H1  UNL     1       9.946  33.630 -13.570  1.00  0.00     0.169 HD
BRANCH   8  11
HETATM   11  C12 UNL     1       7.903  35.081 -12.971  1.00  0.00     0.314 C 
HETATM   12  O6  UNL     1       7.638  34.062 -13.598  1.00  0.00    -0.262 OA
HETATM   13  N2  UNL     1       6.961  35.829 -12.252  1.00  0.00    -0.318 N 
ATOM     14  H2  UNL     1       7.338  36.650 -11.780  1.00  0.00     0.169 HD
BRANCH  13  15
HETATM   15  C13 UNL     1       5.593  35.631 -12.078  1.00  0.00     0.052 A 
HETATM   16  C14 UNL     1       4.695  36.162 -12.972  1.00  0.00     0.034 A 
HETATM   17  C15 UNL     1       3.312  36.026 -12.809  1.00  0.00     0.044 A 
HETATM   18  C16 UNL     1       2.800  35.350 -11.737  1.00  0.00     0.117 A 
HETATM   19  F1  UNL     1       1.466  35.202 -11.551  1.00  0.00    -0.206 F 
HETATM   20  C17 UNL     1       3.695  34.821 -10.848  1.00  0.00     0.063 A 
HETATM   21  C18 UNL     1       5.089  34.941 -10.987  1.00  0.00     0.070 A 
BRANCH  21  22
HETATM   22  C19 UNL     1       5.893  34.291  -9.977  1.00  0.00     0.211 C 
HETATM   23  O7  UNL     1       6.809  33.484 -10.133  1.00  0.00    -0.644 OA
HETATM   24  O8  UNL     1       5.635  34.586  -8.617  1.00  0.00    -0.644 OA
ENDBRANCH  21  22
ENDBRANCH  13  15
ENDBRANCH   8  11
ENDBRANCH   4   7
BRANCH   1  25
HETATM   25  O4  UNL     1      15.786  35.610 -14.001  1.00  0.00    -0.275 OA
BRANCH  25  26
HETATM   26  C6  UNL     1      16.712  34.658 -14.478  1.00  0.00     0.299 C 
HETATM   27  O3  UNL     1      17.427  34.212 -13.566  1.00  0.00    -0.259 OA
BRANCH  26  28
HETATM   28  C5  UNL     1      16.729  34.322 -15.892  1.00  0.00     0.051 A 
HETATM   29  C4  UNL     1      15.998  33.195 -16.297  1.00  0.00     0.021 A 
HETATM   30  C3  UNL     1      15.936  32.763 -17.592  1.00  0.00     0.039 A 
HETATM   31  C2  UNL     1      16.615  33.457 -18.539  1.00  0.00     0.089 A 
HETATM   32  C27 UNL     1      17.341  34.568 -18.178  1.00  0.00     0.009 A 
HETATM   33  C22 UNL     1      17.403  35.009 -16.847  1.00  0.00    -0.007 A 
HETATM   34  C26 UNL     1      18.019  35.260 -19.151  1.00  0.00     0.015 A 
HETATM   35  C23 UNL     1      18.128  36.118 -16.508  1.00  0.00     0.013 A 
HETATM   36  C24 UNL     1      18.807  36.801 -17.518  1.00  0.00     0.001 A 
HETATM   37  C25 UNL     1      18.753  36.377 -18.820  1.00  0.00     0.001 A 
BRANCH  31  38
HETATM   38  O2  UNL     1      16.545  33.009 -19.858  1.00  0.00    -0.285 OA
BRANCH  38  39
HETATM   39  C1  UNL     1      16.732  31.670 -20.131  1.00  0.00     0.403 C 
HETATM   40  O1  UNL     1      17.851  31.247 -20.518  1.00  0.00    -0.276 OA
ENDBRANCH  38  39
ENDBRANCH  31  38
ENDBRANCH  26  28
ENDBRANCH  25  26
ENDBRANCH   1  25
TORSDOF 9
ENDMDL
MODEL 2
REMARK VINA RESULT: -9.681042665      1.204      2.160
REMARK  9 active torsions:
REMARK  status: ('A' for Active; 'I' for Inactive)
REMARK    1  A    between atoms: C1_2  and  O2_3 
REMARK    2  A    between atoms: O2_3  and  C2_4 
REMARK    3  A    between atoms: C5_7  and  C6_8 
REMARK    4  A    between atoms: C6_8  and  O4_10 
REMARK    5  A    between atoms: O4_10  and  C7_11 
REMARK    6  A    between atoms: C10_14  and  N1_15 
REMARK       I    between atoms: N1_15  and  C11_17 
REMARK    7  A    between atoms: C11_17  and  C12_19 
REMARK       I    between atoms: C12_19  and  N2_21 
REMARK    8  A    between atoms: N2_21  and  C13_23 
REMARK    9  A    between atoms: C18_29  and  C19_30 
ROOT
HETATM    1  C7  UNL     1      14.436  35.428 -13.886  1.00  0.00     0.079 A 
HETATM    2  C8  UNL     1      13.490  35.758 -14.829  1.00  0.00     0.039 A 
HETATM    3  C9  UNL     1      12.152  35.496 -14.679  1.00  0.00     0.032 A 
HETATM    4  C10 UNL     1      11.667  34.860 -13.523  1.00  0.00     0.035 A 
HETATM    5  C20 UNL     1      12.605  34.531 -12.582  1.00  0.00     0.032 A 
HETATM    6  C21 UNL     1      13.966  34.810 -12.758  1.00  0.00     0.039 A 
ENDROOT
BRANCH   4   7
HETATM    7  N1  UNL     1      10.282  34.633 -13.417  1.00  0.00    -0.319 N 
HETATM    8  C11 UNL     1       9.335  35.556 -12.999  1.00  0.00     0.314 C 
HETATM    9  O5  UNL     1       9.576  36.740 -12.646  1.00  0.00    -0.262 OA
ATOM     10  H1  UNL     1       9.944  33.705 -13.671  1.00  0.00     0.169 HD
BRANCH   8  11
HETATM   11  C12 UNL     1       7.905  35.113 -12.962  1.00  0.00     0.314 C 
HETATM   12  O6  UNL     1       7.648  34.085 -13.578  1.00  0.00    -0.262 OA
HETATM   13  N2  UNL     1       6.957  35.864 -12.255  1.00  0.00    -0.318 N 
ATOM     14  H2  UNL     1       7.329  36.694 -11.792  1.00  0.00     0.169 HD
BRANCH  13  15
HETATM   15  C13 UNL     1       5.591  35.661 -12.081  1.00  0.00     0.052 A 
HETATM   16  C14 UNL     1       4.690  36.195 -12.970  1.00  0.00     0.034 A 
HETATM   17  C15 UNL     1       3.307  36.053 -12.806  1.00  0.00     0.044 A 
HETATM   18  C16 UNL     1       2.798  35.366 -11.739  1.00  0.00     0.117 A 
HETATM   19  F1  UNL     1       1.466  35.212 -11.552  1.00  0.00    -0.206 F 
HETATM   20  C17 UNL     1       3.697  34.834 -10.855  1.00  0.00     0.063 A 
HETATM   21  C18 UNL     1       5.090  34.960 -10.995  1.00  0.00     0.070 A 
BRANCH  21  22
HETATM   22  C19 UNL     1       5.898  34.305  -9.990  1.00  0.00     0.211 C 
HETATM   23  O7  UNL     1       6.810  33.496 -10.154  1.00  0.00    -0.644 OA
HETATM   24  O8  UNL     1       5.647  34.598  -8.629  1.00  0.00    -0.644 OA
ENDBRANCH  21  22
ENDBRANCH  13  15
ENDBRANCH   8  11
ENDBRANCH   4   7
BRANCH   1  25
HETATM   25  O4  UNL     1      15.767  35.726 -14.110  1.00  0.00    -0.275 OA
BRANCH  25  26
HETATM   26  C6  UNL     1      16.780  34.744 -14.167  1.00  0.00     0.299 C 
HETATM   27  O3  UNL     1      17.033  34.276 -13.045  1.00  0.00    -0.259 OA
BRANCH  26  28
HETATM   28  C5  UNL     1      17.378  34.406 -15.448  1.00  0.00     0.051 A 
HETATM   29  C4  UNL     1      18.676  34.878 -15.698  1.00  0.00     0.021 A 
HETATM   30  C3  UNL     1      19.351  34.641 -16.863  1.00  0.00     0.039 A 
HETATM   31  C2  UNL     1      18.739  33.914 -17.830  1.00  0.00     0.089 A 
HETATM   32  C27 UNL     1      17.466  33.434 -17.618  1.00  0.00     0.009 A 
HETATM   33  C22 UNL     1      16.776  33.679 -16.421  1.00  0.00    -0.007 A 
HETATM   34  C26 UNL     1      16.864  32.697 -18.606  1.00  0.00     0.015 A 
HETATM   35  C23 UNL     1      15.513  33.193 -16.227  1.00  0.00     0.013 A 
HETATM   36  C24 UNL     1      14.926  32.446 -17.250  1.00  0.00     0.001 A 
HETATM   37  C25 UNL     1      15.592  32.203 -18.422  1.00  0.00     0.001 A 
BRANCH  31  38
HETATM   38  O2  UNL     1      19.436  33.678 -19.014  1.00  0.00    -0.285 OA
BRANCH  38  39
HETATM   39  C1  UNL     1      20.530  34.458 -19.326  1.00  0.00     0.403 C 
HETATM   40  O1  UNL     1      21.671  33.942 -19.442  1.00  0.00    -0.276 OA
ENDBRANCH  38  39
ENDBRANCH  31  38
ENDBRANCH  26  28
ENDBRANCH  25  26
ENDBRANCH   1  25
TORSDOF 9
ENDMDL
MODEL 3
REMARK VINA RESULT: -9.496709008      4.773      7.595
REMARK  9 active torsions:
REMARK  status: ('A' for Active; 'I' for Inactive)
REMARK    1  A    between atoms: C1_2  and  O2_3 
REMARK    2  A    between atoms: O2_3  and  C2_4 
REMARK    3  A    between atoms: C5_7  and  C6_8 
REMARK    4  A    between atoms: C6_8  and  O4_10 
REMARK    5  A    between atoms: O4_10  and  C7_11 
REMARK    6  A    between atoms: C10_14  and  N1_15 
REMARK       I    between atoms: N1_15  and  C11_17 
REMARK    7  A    between atoms: C11_17  and  C12_19 
REMARK       I    between atoms: C12_19  and  N2_21 
REMARK    8  A    between atoms: N2_21  and  C13_23 
REMARK    9  A    between atoms: C18_29  and  C19_30 
ROOT
HETATM    1  C7  UNL     1       7.557  34.797 -12.544  1.00  0.00     0.079 A 
HETATM    2  C8  UNL     1       7.216  33.874 -13.505  1.00  0.00     0.039 A 
HETATM    3  C9  UNL     1       5.999  33.857 -14.137  1.00  0.00     0.032 A 
HETATM    4  C10 UNL     1       5.012  34.809 -13.827  1.00  0.00     0.035 A 
HETATM    5  C20 UNL     1       5.348  35.730 -12.871  1.00  0.00     0.032 A 
HETATM    6  C21 UNL     1       6.598  35.725 -12.239  1.00  0.00     0.039 A 
ENDROOT
BRANCH   4   7
HETATM    7  N1  UNL     1       3.790  34.754 -14.521  1.00  0.00    -0.319 N 
HETATM    8  C11 UNL     1       3.628  34.847 -15.896  1.00  0.00     0.314 C 
HETATM    9  O5  UNL     1       4.558  35.000 -16.731  1.00  0.00    -0.262 OA
ATOM     10  H1  UNL     1       2.945  34.634 -13.963  1.00  0.00     0.169 HD
BRANCH   8  11
HETATM   11  C12 UNL     1       2.235  34.759 -16.437  1.00  0.00     0.314 C 
HETATM   12  O6  UNL     1       1.456  35.623 -16.051  1.00  0.00    -0.262 OA
HETATM   13  N2  UNL     1       1.893  33.732 -17.327  1.00  0.00    -0.318 N 
ATOM     14  H2  UNL     1       2.654  33.092 -17.553  1.00  0.00     0.169 HD
BRANCH  13  15
HETATM   15  C13 UNL     1       0.682  33.444 -17.951  1.00  0.00     0.052 A 
HETATM   16  C14 UNL     1       0.351  34.049 -19.139  1.00  0.00     0.034 A 
HETATM   17  C15 UNL     1      -0.875  33.823 -19.775  1.00  0.00     0.044 A 
HETATM   18  C16 UNL     1      -1.799  32.978 -19.226  1.00  0.00     0.117 A 
HETATM   19  F1  UNL     1      -2.994  32.738 -19.816  1.00  0.00    -0.206 F 
HETATM   20  C17 UNL     1      -1.468  32.375 -18.044  1.00  0.00     0.063 A 
HETATM   21  C18 UNL     1      -0.244  32.583 -17.383  1.00  0.00     0.070 A 
BRANCH  21  22
HETATM   22  C19 UNL     1      -0.040  31.838 -16.160  1.00  0.00     0.211 C 
HETATM   23  O7  UNL     1       0.053  30.620 -16.016  1.00  0.00    -0.644 OA
HETATM   24  O8  UNL     1       0.076  32.556 -14.947  1.00  0.00    -0.644 OA
ENDBRANCH  21  22
ENDBRANCH  13  15
ENDBRANCH   8  11
ENDBRANCH   4   7
BRANCH   1  25
HETATM   25  O4  UNL     1       8.805  34.747 -11.951  1.00  0.00    -0.275 OA
BRANCH  25  26
HETATM   26  C6  UNL     1       9.694  33.662 -12.109  1.00  0.00     0.299 C 
HETATM   27  O3  UNL     1       9.208  32.602 -11.681  1.00  0.00    -0.259 OA
BRANCH  26  28
HETATM   28  C5  UNL     1      10.995  33.885 -12.715  1.00  0.00     0.051 A 
HETATM   29  C4  UNL     1      11.967  34.533 -11.937  1.00  0.00     0.021 A 
HETATM   30  C3  UNL     1      13.227  34.813 -12.387  1.00  0.00     0.039 A 
HETATM   31  C2  UNL     1      13.560  34.447 -13.649  1.00  0.00     0.089 A 
HETATM   32  C27 UNL     1      12.632  33.810 -14.440  1.00  0.00     0.009 A 
HETATM   33  C22 UNL     1      11.339  33.524 -13.975  1.00  0.00    -0.007 A 
HETATM   34  C26 UNL     1      12.988  33.445 -15.714  1.00  0.00     0.015 A 
HETATM   35  C23 UNL     1      10.431  32.887 -14.775  1.00  0.00     0.013 A 
HETATM   36  C24 UNL     1      10.822  32.527 -16.066  1.00  0.00     0.001 A 
HETATM   37  C25 UNL     1      12.082  32.803 -16.528  1.00  0.00     0.001 A 
BRANCH  31  38
HETATM   38  O2  UNL     1      14.848  34.738 -14.098  1.00  0.00    -0.285 OA
BRANCH  38  39
HETATM   39  C1  UNL     1      15.766  35.281 -13.225  1.00  0.00     0.403 C 
HETATM   40  O1  UNL     1      16.759  34.611 -12.841  1.00  0.00    -0.276 OA
ENDBRANCH  38  39
ENDBRANCH  31  38
ENDBRANCH  26  28
ENDBRANCH  25  26
ENDBRANCH   1  25
TORSDOF 9
ENDMDL
MODEL 4
REMARK VINA RESULT: -9.437779699      1.895      2.731
REMARK  9 active torsions:
REMARK  status: ('A' for Active; 'I' for Inactive)
REMARK    1  A    between atoms: C1_2  and  O2_3 
REMARK    2  A    between atoms: O2_3  and  C2_4 
REMARK    3  A    between atoms: C5_7  and  C6_8 
REMARK    4  A    between atoms: C6_8  and  O4_10 
REMARK    5  A    between atoms: O4_10  and  C7_11 
REMARK    6  A    between atoms: C10_14  and  N1_15 
REMARK       I    between atoms: N1_15  and  C11_17 
REMARK    7  A    between atoms: C11_17  and  C12_19 
REMARK       I    between atoms: C12_19  and  N2_21 
REMARK    8  A    between atoms: N2_21  and  C13_23 
REMARK    9  A    between atoms: C18_29  and  C19_30 
ROOT
HETATM    1  C7  UNL     1      14.448  35.017 -14.288  1.00  0.00     0.079 A 
HETATM    2  C8  UNL     1      13.875  34.696 -13.079  1.00  0.00     0.039 A 
HETATM    3  C9  UNL     1      12.586  35.025 -12.746  1.00  0.00     0.032 A 
HETATM    4  C10 UNL     1      11.763  35.724 -13.646  1.00  0.00     0.035 A 
HETATM    5  C20 UNL     1      12.330  36.044 -14.850  1.00  0.00     0.032 A 
HETATM    6  C21 UNL     1      13.650  35.697 -15.168  1.00  0.00     0.039 A 
ENDROOT
BRANCH   4   7
HETATM    7  N1  UNL     1      10.444  36.017 -13.255  1.00  0.00    -0.319 N 
HETATM    8  C11 UNL     1       9.440  35.091 -13.015  1.00  0.00     0.314 C 
HETATM    9  O5  UNL     1       9.560  33.842 -13.116  1.00  0.00    -0.262 OA
ATOM     10  H1  UNL     1      10.203  37.001 -13.138  1.00  0.00     0.169 HD
BRANCH   8  11
HETATM   11  C12 UNL     1       8.099  35.614 -12.601  1.00  0.00     0.314 C 
HETATM   12  O6  UNL     1       8.079  36.768 -12.190  1.00  0.00    -0.262 OA
HETATM   13  N2  UNL     1       6.968  34.793 -12.697  1.00  0.00    -0.318 N 
ATOM     14  H2  UNL     1       7.148  33.858 -13.062  1.00  0.00     0.169 HD
BRANCH  13  15
HETATM   15  C13 UNL     1       5.637  35.048 -12.375  1.00  0.00     0.052 A 
HETATM   16  C14 UNL     1       4.786  35.586 -13.309  1.00  0.00     0.034 A 
HETATM   17  C15 UNL     1       3.455  35.901 -13.013  1.00  0.00     0.044 A 
HETATM   18  C16 UNL     1       2.949  35.680 -11.762  1.00  0.00     0.117 A 
HETATM   19  F1  UNL     1       1.666  35.974 -11.444  1.00  0.00    -0.206 F 
HETATM   20  C17 UNL     1       3.797  35.144 -10.833  1.00  0.00     0.063 A 
HETATM   21  C18 UNL     1       5.138  34.817 -11.103  1.00  0.00     0.070 A 
BRANCH  21  22
HETATM   22  C19 UNL     1       5.885  34.224 -10.016  1.00  0.00     0.211 C 
HETATM   23  O7  UNL     1       6.807  33.412 -10.079  1.00  0.00    -0.644 OA
HETATM   24  O8  UNL     1       5.553  34.591  -8.691  1.00  0.00    -0.644 OA
ENDBRANCH  21  22
ENDBRANCH  13  15
ENDBRANCH   8  11
ENDBRANCH   4   7
BRANCH   1  25
HETATM   25  O4  UNL     1      15.755  34.651 -14.551  1.00  0.00    -0.275 OA
BRANCH  25  26
HETATM   26  C6  UNL     1      16.164  34.063 -15.768  1.00  0.00     0.299 C 
HETATM   27  O3  UNL     1      15.480  33.067 -16.052  1.00  0.00    -0.259 OA
BRANCH  26  28
HETATM   28  C5  UNL     1      17.269  34.647 -16.509  1.00  0.00     0.051 A 
HETATM   29  C4  UNL     1      18.535  34.627 -15.903  1.00  0.00     0.021 A 
HETATM   30  C3  UNL     1      19.656  35.149 -16.485  1.00  0.00     0.039 A 
HETATM   31  C2  UNL     1      19.544  35.717 -17.711  1.00  0.00     0.089 A 
HETATM   32  C27 UNL     1      18.318  35.754 -18.335  1.00  0.00     0.009 A 
HETATM   33  C22 UNL     1      17.169  35.216 -17.735  1.00  0.00    -0.007 A 
HETATM   34  C26 UNL     1      18.225  36.329 -19.577  1.00  0.00     0.015 A 
HETATM   35  C23 UNL     1      15.959  35.260 -18.372  1.00  0.00     0.013 A 
HETATM   36  C24 UNL     1      15.895  35.851 -19.634  1.00  0.00     0.001 A 
HETATM   37  C25 UNL     1      17.012  36.379 -20.227  1.00  0.00     0.001 A 
BRANCH  31  38
HETATM   38  O2  UNL     1      20.694  36.247 -18.297  1.00  0.00    -0.285 OA
BRANCH  38  39
HETATM   39  C1  UNL     1      21.933  35.854 -17.837  1.00  0.00     0.403 C 
HETATM   40  O1  UNL     1      22.687  36.672 -17.252  1.00  0.00    -0.276 OA
ENDBRANCH  38  39
ENDBRANCH  31  38
ENDBRANCH  26  28
ENDBRANCH  25  26
ENDBRANCH   1  25
TORSDOF 9
ENDMDL
MODEL 5
REMARK VINA RESULT: -9.418912339      4.310      6.598
REMARK  9 active torsions:
REMARK  status: ('A' for Active; 'I' for Inactive)
REMARK    1  A    between atoms: C1_2  and  O2_3 
REMARK    2  A    between atoms: O2_3  and  C2_4 
REMARK    3  A    between atoms: C5_7  and  C6_8 
REMARK    4  A    between atoms: C6_8  and  O4_10 
REMARK    5  A    between atoms: O4_10  and  C7_11 
REMARK    6  A    between atoms: C10_14  and  N1_15 
REMARK       I    between atoms: N1_15  and  C11_17 
REMARK    7  A    between atoms: C11_17  and  C12_19 
REMARK       I    between atoms: C12_19  and  N2_21 
REMARK    8  A    between atoms: N2_21  and  C13_23 
REMARK    9  A    between atoms: C18_29  and  C19_30 
ROOT
HETATM    1  C7  UNL     1       8.535  35.113 -12.496  1.00  0.00     0.079 A 
HETATM    2  C8  UNL     1       8.095  33.989 -13.154  1.00  0.00     0.039 A 
HETATM    3  C9  UNL     1       6.800  33.819 -13.574  1.00  0.00     0.032 A 
HETATM    4  C10 UNL     1       5.832  34.812 -13.346  1.00  0.00     0.035 A 
HETATM    5  C20 UNL     1       6.266  35.933 -12.691  1.00  0.00     0.032 A 
HETATM    6  C21 UNL     1       7.595  36.083 -12.273  1.00  0.00     0.039 A 
ENDROOT
BRANCH   4   7
HETATM    7  N1  UNL     1       4.524  34.589 -13.815  1.00  0.00    -0.319 N 
HETATM    8  C11 UNL     1       4.130  34.555 -15.145  1.00  0.00     0.314 C 
HETATM    9  O5  UNL     1       4.889  34.721 -16.135  1.00  0.00    -0.262 OA
ATOM     10  H1  UNL     1       3.799  34.440 -13.113  1.00  0.00     0.169 HD
BRANCH   8  11
HETATM   11  C12 UNL     1       2.684  34.297 -15.432  1.00  0.00     0.314 C 
HETATM   12  O6  UNL     1       1.905  34.544 -14.518  1.00  0.00    -0.262 OA
HETATM   13  N2  UNL     1       2.296  33.801 -16.684  1.00  0.00    -0.318 N 
ATOM     14  H2  UNL     1       3.062  33.649 -17.339  1.00  0.00     0.169 HD
BRANCH  13  15
HETATM   15  C13 UNL     1       1.033  33.483 -17.178  1.00  0.00     0.052 A 
HETATM   16  C14 UNL     1       0.128  34.476 -17.464  1.00  0.00     0.034 A 
HETATM   17  C15 UNL     1      -1.166  34.198 -17.917  1.00  0.00     0.044 A 
HETATM   18  C16 UNL     1      -1.580  32.907 -18.094  1.00  0.00     0.117 A 
HETATM   19  F1  UNL     1      -2.826  32.605 -18.530  1.00  0.00    -0.206 F 
HETATM   20  C17 UNL     1      -0.678  31.919 -17.809  1.00  0.00     0.063 A 
HETATM   21  C18 UNL     1       0.628  32.170 -17.353  1.00  0.00     0.070 A 
BRANCH  21  22
HETATM   22  C19 UNL     1       1.466  31.010 -17.135  1.00  0.00     0.211 C 
HETATM   23  O7  UNL     1       2.675  30.974 -16.914  1.00  0.00    -0.644 OA
HETATM   24  O8  UNL     1       0.865  29.730 -17.172  1.00  0.00    -0.644 OA
ENDBRANCH  21  22
ENDBRANCH  13  15
ENDBRANCH   8  11
ENDBRANCH   4   7
BRANCH   1  25
HETATM   25  O4  UNL     1       9.857  35.210 -12.104  1.00  0.00    -0.275 OA
BRANCH  25  26
HETATM   26  C6  UNL     1      10.849  34.283 -12.490  1.00  0.00     0.299 C 
HETATM   27  O3  UNL     1      10.762  33.221 -11.852  1.00  0.00    -0.259 OA
BRANCH  26  28
HETATM   28  C5  UNL     1      11.802  34.644 -13.527  1.00  0.00     0.051 A 
HETATM   29  C4  UNL     1      11.304  34.823 -14.826  1.00  0.00     0.021 A 
HETATM   30  C3  UNL     1      12.091  35.155 -15.894  1.00  0.00     0.039 A 
HETATM   31  C2  UNL     1      13.421  35.320 -15.691  1.00  0.00     0.089 A 
HETATM   32  C27 UNL     1      13.943  35.153 -14.429  1.00  0.00     0.009 A 
HETATM   33  C22 UNL     1      13.133  34.813 -13.335  1.00  0.00    -0.007 A 
HETATM   34  C26 UNL     1      15.291  35.328 -14.243  1.00  0.00     0.015 A 
HETATM   35  C23 UNL     1      13.669  34.653 -12.087  1.00  0.00     0.013 A 
HETATM   36  C24 UNL     1      15.043  34.838 -11.928  1.00  0.00     0.001 A 
HETATM   37  C25 UNL     1      15.842  35.169 -12.991  1.00  0.00     0.001 A 
BRANCH  31  38
HETATM   38  O2  UNL     1      14.215  35.658 -16.787  1.00  0.00    -0.285 OA
BRANCH  38  39
HETATM   39  C1  UNL     1      14.357  34.763 -17.826  1.00  0.00     0.403 C 
HETATM   40  O1  UNL     1      14.901  33.645 -17.637  1.00  0.00    -0.276 OA
ENDBRANCH  38  39
ENDBRANCH  31  38
ENDBRANCH  26  28
ENDBRANCH  25  26
ENDBRANCH   1  25
TORSDOF 9
ENDMDL
