MODEL 1
REMARK VINA RESULT: -8.262311014      0.000      0.000
REMARK  9 active torsions:
REMARK  status: ('A' for Active; 'I' for Inactive)
REMARK    1  A    between atoms: C2_4  and  C3_5 
REMARK    2  A    between atoms: C2_4  and  C4_8 
REMARK    3  A    between atoms: C4_8  and  C5_9 
REMARK    4  A    between atoms: C4_8  and  C21_33 
REMARK    5  A    between atoms: C5_9  and  C14_26 
REMARK    6  A    between atoms: N2_10  and  N3_12 
REMARK       I    between atoms: N3_12  and  C6_14 
REMARK    7  A    between atoms: C6_14  and  C7_16 
REMARK       I    between atoms: C7_16  and  N4_18 
REMARK    8  A    between atoms: N4_18  and  C8_20 
REMARK    9  A    between atoms: C26_38  and  N5_39 
ROOT
HETATM    1  C5  UNL     1      12.836  35.108 -15.750  1.00  0.00     0.050 C 
HETATM    2  N2  UNL     1      12.252  35.193 -14.672  1.00  0.00    -0.300 N 
ATOM      3  H2  UNL     1      12.901  35.027 -13.904  1.00  0.00     0.186 HD
ENDROOT
BRANCH   1   4
HETATM    4  C4  UNL     1      14.432  34.765 -15.666  1.00  0.00     0.128 C 
BRANCH   4   5
HETATM    5  C2  UNL     1      14.706  35.178 -14.327  1.00  0.00     0.082 C 
HETATM    6  N1  UNL     1      15.227  36.380 -14.165  1.00  0.00    -0.393 N 
HETATM    7  C1  UNL     1      15.568  37.329 -15.137  1.00  0.00     0.146 C 
ATOM      8  H1  UNL     1      15.404  36.656 -13.199  1.00  0.00     0.159 HD
BRANCH   5   9
HETATM    9  C3  UNL     1      14.502  34.491 -13.074  1.00  0.00     0.265 C 
HETATM   10  O1  UNL     1      13.447  34.013 -12.614  1.00  0.00    -0.273 OA
HETATM   11 CL1  UNL     1      15.890  34.256 -11.991  1.00  0.00    -0.037 Cl
ENDBRANCH   5   9
ENDBRANCH   4   5
BRANCH   4  12
HETATM   12  C21 UNL     1      14.512  33.467 -16.260  1.00  0.00    -0.009 A 
HETATM   13  C22 UNL     1      13.432  32.613 -15.890  1.00  0.00     0.011 A 
HETATM   14  C23 UNL     1      13.208  31.398 -16.461  1.00  0.00     0.001 A 
HETATM   15  C24 UNL     1      14.040  30.941 -17.446  1.00  0.00     0.002 A 
HETATM   16  C25 UNL     1      15.074  31.719 -17.825  1.00  0.00     0.037 A 
HETATM   17  C26 UNL     1      15.303  32.990 -17.220  1.00  0.00     0.110 A 
BRANCH  17  18
HETATM   18  N5  UNL     1      16.391  33.630 -17.783  1.00  0.00    -0.115 N 
HETATM   19  O4  UNL     1      16.424  34.523 -18.567  1.00  0.00    -0.532 OA
HETATM   20  O5  UNL     1      17.672  33.299 -17.292  1.00  0.00    -0.532 OA
ENDBRANCH  17  18
ENDBRANCH   4  12
ENDBRANCH   1   4
BRANCH   1  21
HETATM   21  C14 UNL     1      12.333  35.415 -17.060  1.00  0.00    -0.011 A 
HETATM   22  C15 UNL     1      11.152  34.902 -17.540  1.00  0.00     0.014 A 
HETATM   23  C16 UNL     1      10.772  35.200 -18.852  1.00  0.00     0.007 A 
HETATM   24  C17 UNL     1      11.514  35.977 -19.690  1.00  0.00    -0.062 A 
HETATM   25  C18 UNL     1      11.054  36.260 -21.093  1.00  0.00     0.048 C 
HETATM   26  C19 UNL     1      12.704  36.505 -19.231  1.00  0.00     0.007 A 
HETATM   27  C20 UNL     1      13.086  36.216 -17.940  1.00  0.00     0.014 A 
ENDBRANCH   1  21
BRANCH   2  28
HETATM   28  N3  UNL     1      11.034  35.435 -14.201  1.00  0.00    -0.262 N 
HETATM   29  C6  UNL     1      10.133  34.622 -13.484  1.00  0.00     0.328 C 
HETATM   30  O2  UNL     1      10.419  33.444 -13.183  1.00  0.00    -0.261 OA
ATOM     31  H3  UNL     1      10.690  36.376 -14.392  1.00  0.00     0.190 HD
BRANCH  29  32
HETATM   32  C7  UNL     1       8.813  35.107 -13.046  1.00  0.00     0.315 C 
HETATM   33  O3  UNL     1       8.584  36.308 -13.303  1.00  0.00    -0.262 OA
HETATM   34  N4  UNL     1       7.896  34.288 -12.397  1.00  0.00    -0.319 N 
ATOM     35  H4  UNL     1       8.185  33.323 -12.233  1.00  0.00     0.169 HD
BRANCH  34  36
HETATM   36  C8  UNL     1       6.617  34.646 -11.944  1.00  0.00     0.035 A 
HETATM   37  C9  UNL     1       6.249  34.351 -10.623  1.00  0.00     0.029 A 
HETATM   38  C10 UNL     1       5.038  34.635 -10.072  1.00  0.00     0.002 A 
HETATM   39  C11 UNL     1       4.082  35.254 -10.833  1.00  0.00     0.000 A 
HETATM   40  C12 UNL     1       4.390  35.564 -12.131  1.00  0.00     0.002 A 
HETATM   41  C13 UNL     1       5.641  35.266 -12.686  1.00  0.00     0.029 A 
ENDBRANCH  34  36
ENDBRANCH  29  32
ENDBRANCH   2  28
TORSDOF 9
ENDMDL
MODEL 2
REMARK VINA RESULT: -7.905076219      2.730      5.074
REMARK  9 active torsions:
REMARK  status: ('A' for Active; 'I' for Inactive)
REMARK    1  A    between atoms: C2_4  and  C3_5 
REMARK    2  A    between atoms: C2_4  and  C4_8 
REMARK    3  A    between atoms: C4_8  and  C5_9 
REMARK    4  A    between atoms: C4_8  and  C21_33 
REMARK    5  A    between atoms: C5_9  and  C14_26 
REMARK    6  A    between atoms: N2_10  and  N3_12 
REMARK       I    between atoms: N3_12  and  C6_14 
REMARK    7  A    between atoms: C6_14  and  C7_16 
REMARK       I    between atoms: C7_16  and  N4_18 
REMARK    8  A    between atoms: N4_18  and  C8_20 
REMARK    9  A    between atoms: C26_38  and  N5_39 
ROOT
HETATM    1  C5  UNL     1      12.336  33.987 -16.463  1.00  0.00     0.050 C 
HETATM    2  N2  UNL     1      11.157  33.686 -16.293  1.00  0.00    -0.300 N 
ATOM      3  H2  UNL     1      10.752  33.337 -17.161  1.00  0.00     0.186 HD
ENDROOT
BRANCH   1   4
HETATM    4  C4  UNL     1      12.915  33.758 -17.975  1.00  0.00     0.128 C 
BRANCH   4   5
HETATM    5  C2  UNL     1      12.975  32.331 -18.005  1.00  0.00     0.082 C 
HETATM    6  N1  UNL     1      13.561  31.778 -19.051  1.00  0.00    -0.393 N 
HETATM    7  C1  UNL     1      14.136  32.398 -20.167  1.00  0.00     0.146 C 
ATOM      8  H1  UNL     1      13.600  30.759 -19.044  1.00  0.00     0.159 HD
BRANCH   5   9
HETATM    9  C3  UNL     1      12.496  31.354 -17.058  1.00  0.00     0.265 C 
HETATM   10  O1  UNL     1      12.974  31.050 -15.948  1.00  0.00    -0.273 OA
HETATM   11 CL1  UNL     1      11.039  30.418 -17.456  1.00  0.00    -0.037 Cl
ENDBRANCH   5   9
ENDBRANCH   4   5
BRANCH   4  12
HETATM   12  C21 UNL     1      12.130  34.660 -18.758  1.00  0.00    -0.009 A 
HETATM   13  C22 UNL     1      12.783  35.903 -19.004  1.00  0.00     0.011 A 
HETATM   14  C23 UNL     1      12.302  36.845 -19.862  1.00  0.00     0.001 A 
HETATM   15  C24 UNL     1      11.136  36.619 -20.542  1.00  0.00     0.002 A 
HETATM   16  C25 UNL     1      10.488  35.455 -20.337  1.00  0.00     0.037 A 
HETATM   17  C26 UNL     1      10.997  34.475 -19.435  1.00  0.00     0.110 A 
BRANCH  17  18
HETATM   18  N5  UNL     1      10.196  33.349 -19.404  1.00  0.00    -0.115 N 
HETATM   19  O4  UNL     1      10.216  32.384 -20.098  1.00  0.00    -0.532 OA
HETATM   20  O5  UNL     1       9.288  33.220 -18.332  1.00  0.00    -0.532 OA
ENDBRANCH  17  18
ENDBRANCH   4  12
ENDBRANCH   1   4
BRANCH   1  21
HETATM   21  C14 UNL     1      13.306  34.375 -15.477  1.00  0.00    -0.011 A 
HETATM   22  C15 UNL     1      14.609  34.673 -15.796  1.00  0.00     0.014 A 
HETATM   23  C16 UNL     1      15.503  34.976 -14.764  1.00  0.00     0.007 A 
HETATM   24  C17 UNL     1      15.151  34.992 -13.448  1.00  0.00    -0.062 A 
HETATM   25  C18 UNL     1      16.158  35.323 -12.382  1.00  0.00     0.048 C 
HETATM   26  C19 UNL     1      13.847  34.696 -13.102  1.00  0.00     0.007 A 
HETATM   27  C20 UNL     1      12.961  34.397 -14.112  1.00  0.00     0.014 A 
ENDBRANCH   1  21
BRANCH   2  28
HETATM   28  N3  UNL     1      10.249  33.675 -15.325  1.00  0.00    -0.262 N 
HETATM   29  C6  UNL     1       9.715  32.618 -14.558  1.00  0.00     0.328 C 
HETATM   30  O2  UNL     1      10.084  31.438 -14.734  1.00  0.00    -0.261 OA
ATOM     31  H3  UNL     1       9.870  34.593 -15.095  1.00  0.00     0.190 HD
BRANCH  29  32
HETATM   32  C7  UNL     1       8.703  32.839 -13.512  1.00  0.00     0.315 C 
HETATM   33  O3  UNL     1       8.601  31.915 -12.677  1.00  0.00    -0.262 OA
HETATM   34  N4  UNL     1       7.923  33.989 -13.461  1.00  0.00    -0.319 N 
ATOM     35  H4  UNL     1       8.084  34.681 -14.193  1.00  0.00     0.169 HD
BRANCH  34  36
HETATM   36  C8  UNL     1       6.938  34.300 -12.510  1.00  0.00     0.035 A 
HETATM   37  C9  UNL     1       5.731  34.873 -12.935  1.00  0.00     0.029 A 
HETATM   38  C10 UNL     1       4.708  35.230 -12.111  1.00  0.00     0.002 A 
HETATM   39  C11 UNL     1       4.830  35.029 -10.762  1.00  0.00     0.000 A 
HETATM   40  C12 UNL     1       5.990  34.472 -10.294  1.00  0.00     0.002 A 
HETATM   41  C13 UNL     1       7.035  34.109 -11.153  1.00  0.00     0.029 A 
ENDBRANCH  34  36
ENDBRANCH  29  32
ENDBRANCH   2  28
TORSDOF 9
ENDMDL
MODEL 3
REMARK VINA RESULT: -7.811952686      5.253      8.053
REMARK  9 active torsions:
REMARK  status: ('A' for Active; 'I' for Inactive)
REMARK    1  A    between atoms: C2_4  and  C3_5 
REMARK    2  A    between atoms: C2_4  and  C4_8 
REMARK    3  A    between atoms: C4_8  and  C5_9 
REMARK    4  A    between atoms: C4_8  and  C21_33 
REMARK    5  A    between atoms: C5_9  and  C14_26 
REMARK    6  A    between atoms: N2_10  and  N3_12 
REMARK       I    between atoms: N3_12  and  C6_14 
REMARK    7  A    between atoms: C6_14  and  C7_16 
REMARK       I    between atoms: C7_16  and  N4_18 
REMARK    8  A    between atoms: N4_18  and  C8_20 
REMARK    9  A    between atoms: C26_38  and  N5_39 
ROOT
HETATM    1  C5  UNL     1      18.891  35.278 -19.556  1.00  0.00     0.050 C 
HETATM    2  N2  UNL     1      18.354  35.731 -18.548  1.00  0.00    -0.300 N 
ATOM      3  H2  UNL     1      18.791  36.612 -18.279  1.00  0.00     0.186 HD
ENDROOT
BRANCH   1   4
HETATM    4  C4  UNL     1      20.113  36.174 -20.171  1.00  0.00     0.128 C 
BRANCH   4   5
HETATM    5  C2  UNL     1      19.712  37.474 -19.736  1.00  0.00     0.082 C 
HETATM    6  N1  UNL     1      19.012  38.202 -20.587  1.00  0.00    -0.393 N 
HETATM    7  C1  UNL     1      18.604  37.883 -21.888  1.00  0.00     0.146 C 
ATOM      8  H1  UNL     1      18.729  39.121 -20.250  1.00  0.00     0.159 HD
BRANCH   5   9
HETATM    9  C3  UNL     1      19.941  38.155 -18.484  1.00  0.00     0.265 C 
HETATM   10  O1  UNL     1      19.237  38.148 -17.457  1.00  0.00    -0.273 OA
HETATM   11 CL1  UNL     1      21.399  39.157 -18.309  1.00  0.00    -0.037 Cl
ENDBRANCH   5   9
ENDBRANCH   4   5
BRANCH   4  12
HETATM   12  C21 UNL     1      21.273  35.410 -19.831  1.00  0.00    -0.009 A 
HETATM   13  C22 UNL     1      21.582  35.450 -18.441  1.00  0.00     0.011 A 
HETATM   14  C23 UNL     1      22.536  34.668 -17.862  1.00  0.00     0.001 A 
HETATM   15  C24 UNL     1      23.251  33.785 -18.625  1.00  0.00     0.002 A 
HETATM   16  C25 UNL     1      22.987  33.717 -19.945  1.00  0.00     0.037 A 
HETATM   17  C26 UNL     1      21.989  34.542 -20.544  1.00  0.00     0.110 A 
BRANCH  17  18
HETATM   18  N5  UNL     1      21.862  34.284 -21.895  1.00  0.00    -0.115 N 
HETATM   19  O4  UNL     1      21.371  33.353 -22.447  1.00  0.00    -0.532 OA
HETATM   20  O5  UNL     1      22.241  35.304 -22.795  1.00  0.00    -0.532 OA
ENDBRANCH  17  18
ENDBRANCH   4  12
ENDBRANCH   1   4
BRANCH   1  21
HETATM   21  C14 UNL     1      18.492  34.146 -20.344  1.00  0.00    -0.011 A 
HETATM   22  C15 UNL     1      18.094  34.258 -21.655  1.00  0.00     0.014 A 
HETATM   23  C16 UNL     1      17.657  33.112 -22.327  1.00  0.00     0.007 A 
HETATM   24  C17 UNL     1      17.604  31.879 -21.749  1.00  0.00    -0.062 A 
HETATM   25  C18 UNL     1      17.123  30.684 -22.524  1.00  0.00     0.048 C 
HETATM   26  C19 UNL     1      17.999  31.740 -20.434  1.00  0.00     0.007 A 
HETATM   27  C20 UNL     1      18.431  32.864 -19.765  1.00  0.00     0.014 A 
ENDBRANCH   1  21
BRANCH   2  28
HETATM   28  N3  UNL     1      17.379  35.424 -17.701  1.00  0.00    -0.262 N 
HETATM   29  C6  UNL     1      17.348  34.556 -16.590  1.00  0.00     0.328 C 
HETATM   30  O2  UNL     1      18.355  33.903 -16.247  1.00  0.00    -0.261 OA
ATOM     31  H3  UNL     1      16.496  35.900 -17.886  1.00  0.00     0.190 HD
BRANCH  29  32
HETATM   32  C7  UNL     1      16.137  34.370 -15.771  1.00  0.00     0.315 C 
HETATM   33  O3  UNL     1      15.489  33.333 -16.021  1.00  0.00    -0.262 OA
HETATM   34  N4  UNL     1      15.750  35.283 -14.797  1.00  0.00    -0.319 N 
ATOM     35  H4  UNL     1      16.349  36.100 -14.674  1.00  0.00     0.169 HD
BRANCH  34  36
HETATM   36  C8  UNL     1      14.624  35.201 -13.963  1.00  0.00     0.035 A 
HETATM   37  C9  UNL     1      13.364  35.543 -14.475  1.00  0.00     0.029 A 
HETATM   38  C10 UNL     1      12.203  35.517 -13.766  1.00  0.00     0.002 A 
HETATM   39  C11 UNL     1      12.228  35.133 -12.451  1.00  0.00     0.000 A 
HETATM   40  C12 UNL     1      13.433  34.789 -11.901  1.00  0.00     0.002 A 
HETATM   41  C13 UNL     1      14.621  34.820 -12.643  1.00  0.00     0.029 A 
ENDBRANCH  34  36
ENDBRANCH  29  32
ENDBRANCH   2  28
TORSDOF 9
ENDMDL
MODEL 4
REMARK VINA RESULT: -7.797219028      6.723     10.417
REMARK  9 active torsions:
REMARK  status: ('A' for Active; 'I' for Inactive)
REMARK    1  A    between atoms: C2_4  and  C3_5 
REMARK    2  A    between atoms: C2_4  and  C4_8 
REMARK    3  A    between atoms: C4_8  and  C5_9 
REMARK    4  A    between atoms: C4_8  and  C21_33 
REMARK    5  A    between atoms: C5_9  and  C14_26 
REMARK    6  A    between atoms: N2_10  and  N3_12 
REMARK       I    between atoms: N3_12  and  C6_14 
REMARK    7  A    between atoms: C6_14  and  C7_16 
REMARK       I    between atoms: C7_16  and  N4_18 
REMARK    8  A    between atoms: N4_18  and  C8_20 
REMARK    9  A    between atoms: C26_38  and  N5_39 
ROOT
HETATM    1  C5  UNL     1      21.259  37.325 -18.756  1.00  0.00     0.050 C 
HETATM    2  N2  UNL     1      20.183  37.548 -18.203  1.00  0.00    -0.300 N 
ATOM      3  H2  UNL     1      19.893  38.511 -18.369  1.00  0.00     0.186 HD
ENDROOT
BRANCH   1   4
HETATM    4  C4  UNL     1      21.909  38.583 -19.574  1.00  0.00     0.128 C 
BRANCH   4   5
HETATM    5  C2  UNL     1      21.111  38.548 -20.759  1.00  0.00     0.082 C 
HETATM    6  N1  UNL     1      21.739  38.324 -21.898  1.00  0.00    -0.393 N 
HETATM    7  C1  UNL     1      23.106  38.120 -22.123  1.00  0.00     0.146 C 
ATOM      8  H1  UNL     1      21.147  38.294 -22.727  1.00  0.00     0.159 HD
BRANCH   5   9
HETATM    9  C3  UNL     1      19.689  38.717 -20.935  1.00  0.00     0.265 C 
HETATM   10  O1  UNL     1      18.767  37.956 -20.582  1.00  0.00    -0.273 OA
HETATM   11 CL1  UNL     1      19.095  40.177 -21.755  1.00  0.00    -0.037 Cl
ENDBRANCH   5   9
ENDBRANCH   4   5
BRANCH   4  12
HETATM   12  C21 UNL     1      22.018  39.595 -18.571  1.00  0.00    -0.009 A 
HETATM   13  C22 UNL     1      20.997  40.585 -18.659  1.00  0.00     0.011 A 
HETATM   14  C23 UNL     1      20.801  41.546 -17.715  1.00  0.00     0.001 A 
HETATM   15  C24 UNL     1      21.606  41.592 -16.609  1.00  0.00     0.002 A 
HETATM   16  C25 UNL     1      22.584  40.672 -16.488  1.00  0.00     0.037 A 
HETATM   17  C26 UNL     1      22.784  39.671 -17.483  1.00  0.00     0.110 A 
BRANCH  17  18
HETATM   18  N5  UNL     1      23.815  38.816 -17.141  1.00  0.00    -0.115 N 
HETATM   19  O4  UNL     1      24.776  38.499 -17.764  1.00  0.00    -0.532 OA
HETATM   20  O5  UNL     1      23.842  38.317 -15.821  1.00  0.00    -0.532 OA
ENDBRANCH  17  18
ENDBRANCH   4  12
ENDBRANCH   1   4
BRANCH   1  21
HETATM   21  C14 UNL     1      21.942  36.070 -18.898  1.00  0.00    -0.011 A 
HETATM   22  C15 UNL     1      21.940  35.353 -20.070  1.00  0.00     0.014 A 
HETATM   23  C16 UNL     1      22.576  34.108 -20.099  1.00  0.00     0.007 A 
HETATM   24  C17 UNL     1      23.203  33.561 -19.020  1.00  0.00    -0.062 A 
HETATM   25  C18 UNL     1      23.868  32.216 -19.112  1.00  0.00     0.048 C 
HETATM   26  C19 UNL     1      23.220  34.263 -17.831  1.00  0.00     0.007 A 
HETATM   27  C20 UNL     1      22.596  35.489 -17.793  1.00  0.00     0.014 A 
ENDBRANCH   1  21
BRANCH   2  28
HETATM   28  N3  UNL     1      19.284  36.919 -17.457  1.00  0.00    -0.262 N 
HETATM   29  C6  UNL     1      18.486  35.785 -17.716  1.00  0.00     0.328 C 
HETATM   30  O2  UNL     1      18.547  35.184 -18.808  1.00  0.00    -0.261 OA
ATOM     31  H3  UNL     1      19.146  37.327 -16.533  1.00  0.00     0.190 HD
BRANCH  29  32
HETATM   32  C7  UNL     1      17.543  35.244 -16.722  1.00  0.00     0.315 C 
HETATM   33  O3  UNL     1      17.340  34.015 -16.807  1.00  0.00    -0.262 OA
HETATM   34  N4  UNL     1      16.929  36.044 -15.765  1.00  0.00    -0.319 N 
ATOM     35  H4  UNL     1      17.162  37.038 -15.785  1.00  0.00     0.169 HD
BRANCH  34  36
HETATM   36  C8  UNL     1      16.023  35.632 -14.776  1.00  0.00     0.035 A 
HETATM   37  C9  UNL     1      16.505  35.290 -13.504  1.00  0.00     0.029 A 
HETATM   38  C10 UNL     1      15.731  34.864 -12.468  1.00  0.00     0.002 A 
HETATM   39  C11 UNL     1      14.377  34.752 -12.643  1.00  0.00     0.000 A 
HETATM   40  C12 UNL     1      13.855  35.074 -13.867  1.00  0.00     0.002 A 
HETATM   41  C13 UNL     1      14.662  35.510 -14.924  1.00  0.00     0.029 A 
ENDBRANCH  34  36
ENDBRANCH  29  32
ENDBRANCH   2  28
TORSDOF 9
ENDMDL
MODEL 5
REMARK VINA RESULT: -7.724195527      7.053     10.757
REMARK  9 active torsions:
REMARK  status: ('A' for Active; 'I' for Inactive)
REMARK    1  A    between atoms: C2_4  and  C3_5 
REMARK    2  A    between atoms: C2_4  and  C4_8 
REMARK    3  A    between atoms: C4_8  and  C5_9 
REMARK    4  A    between atoms: C4_8  and  C21_33 
REMARK    5  A    between atoms: C5_9  and  C14_26 
REMARK    6  A    between atoms: N2_10  and  N3_12 
REMARK       I    between atoms: N3_12  and  C6_14 
REMARK    7  A    between atoms: C6_14  and  C7_16 
REMARK       I    between atoms: C7_16  and  N4_18 
REMARK    8  A    between atoms: N4_18  and  C8_20 
REMARK    9  A    between atoms: C26_38  and  N5_39 
ROOT
HETATM    1  C5  UNL     1      21.883  36.887 -18.732  1.00  0.00     0.050 C 
HETATM    2  N2  UNL     1      20.847  37.160 -18.129  1.00  0.00    -0.300 N 
ATOM      3  H2  UNL     1      20.595  38.136 -18.284  1.00  0.00     0.186 HD
ENDROOT
BRANCH   1   4
HETATM    4  C4  UNL     1      22.551  38.111 -19.585  1.00  0.00     0.128 C 
BRANCH   4   5
HETATM    5  C2  UNL     1      21.489  38.387 -20.500  1.00  0.00     0.082 C 
HETATM    6  N1  UNL     1      21.701  39.330 -21.398  1.00  0.00    -0.393 N 
HETATM    7  C1  UNL     1      22.837  40.128 -21.584  1.00  0.00     0.146 C 
ATOM      8  H1  UNL     1      20.932  39.501 -22.046  1.00  0.00     0.159 HD
BRANCH   5   9
HETATM    9  C3  UNL     1      20.181  37.790 -20.623  1.00  0.00     0.265 C 
HETATM   10  O1  UNL     1      19.113  38.144 -20.087  1.00  0.00    -0.273 OA
HETATM   11 CL1  UNL     1      19.987  36.357 -21.655  1.00  0.00    -0.037 Cl
ENDBRANCH   5   9
ENDBRANCH   4   5
BRANCH   4  12
HETATM   12  C21 UNL     1      23.122  38.937 -18.567  1.00  0.00    -0.009 A 
HETATM   13  C22 UNL     1      24.507  38.682 -18.350  1.00  0.00     0.011 A 
HETATM   14  C23 UNL     1      25.296  39.456 -17.554  1.00  0.00     0.001 A 
HETATM   15  C24 UNL     1      24.765  40.544 -16.916  1.00  0.00     0.002 A 
HETATM   16  C25 UNL     1      23.458  40.819 -17.096  1.00  0.00     0.037 A 
HETATM   17  C26 UNL     1      22.638  40.002 -17.929  1.00  0.00     0.110 A 
BRANCH  17  18
HETATM   18  N5  UNL     1      21.345  40.484 -17.999  1.00  0.00    -0.115 N 
HETATM   19  O4  UNL     1      20.877  41.300 -18.725  1.00  0.00    -0.532 OA
HETATM   20  O5  UNL     1      20.368  39.858 -17.195  1.00  0.00    -0.532 OA
ENDBRANCH  17  18
ENDBRANCH   4  12
ENDBRANCH   1   4
BRANCH   1  21
HETATM   21  C14 UNL     1      22.499  35.601 -18.903  1.00  0.00    -0.011 A 
HETATM   22  C15 UNL     1      22.735  35.050 -20.139  1.00  0.00     0.014 A 
HETATM   23  C16 UNL     1      23.278  33.763 -20.211  1.00  0.00     0.007 A 
HETATM   24  C17 UNL     1      23.590  33.019 -19.113  1.00  0.00    -0.062 A 
HETATM   25  C18 UNL     1      24.170  31.639 -19.254  1.00  0.00     0.048 C 
HETATM   26  C19 UNL     1      23.363  33.551 -17.860  1.00  0.00     0.007 A 
HETATM   27  C20 UNL     1      22.828  34.817 -17.780  1.00  0.00     0.014 A 
ENDBRANCH   1  21
BRANCH   2  28
HETATM   28  N3  UNL     1      19.957  36.575 -17.338  1.00  0.00    -0.262 N 
HETATM   29  C6  UNL     1      19.060  35.511 -17.570  1.00  0.00     0.328 C 
HETATM   30  O2  UNL     1      19.001  34.942 -18.679  1.00  0.00    -0.261 OA
ATOM     31  H3  UNL     1      19.912  36.963 -16.396  1.00  0.00     0.190 HD
BRANCH  29  32
HETATM   32  C7  UNL     1      18.150  35.009 -16.527  1.00  0.00     0.315 C 
HETATM   33  O3  UNL     1      18.239  33.784 -16.297  1.00  0.00    -0.262 OA
HETATM   34  N4  UNL     1      17.260  35.838 -15.853  1.00  0.00    -0.319 N 
ATOM     35  H4  UNL     1      17.265  36.823 -16.119  1.00  0.00     0.169 HD
BRANCH  34  36
HETATM   36  C8  UNL     1      16.357  35.465 -14.845  1.00  0.00     0.035 A 
HETATM   37  C9  UNL     1      14.984  35.432 -15.131  1.00  0.00     0.029 A 
HETATM   38  C10 UNL     1      14.012  35.101 -14.239  1.00  0.00     0.002 A 
HETATM   39  C11 UNL     1      14.362  34.768 -12.957  1.00  0.00     0.000 A 
HETATM   40  C12 UNL     1      15.689  34.784 -12.625  1.00  0.00     0.002 A 
HETATM   41  C13 UNL     1      16.680  35.127 -13.553  1.00  0.00     0.029 A 
ENDBRANCH  34  36
ENDBRANCH  29  32
ENDBRANCH   2  28
TORSDOF 9
ENDMDL
