MODEL 1
REMARK VINA RESULT: -8.612115548      0.000      0.000
REMARK  21 active torsions:
REMARK  status: ('A' for Active; 'I' for Inactive)
REMARK    1  A    between atoms: C2_2  and  C4_4 
REMARK    2  A    between atoms: C4_4  and  C5_5 
REMARK    3  A    between atoms: C7_7  and  C8_8 
REMARK    4  A    between atoms: C11_11  and  O1_12 
REMARK    5  A    between atoms: O1_12  and  C12_13 
REMARK    6  A    between atoms: C14_16  and  C15_17 
REMARK    7  A    between atoms: C15_17  and  O3_18 
REMARK    8  A    between atoms: C15_17  and  N1_20 
REMARK    9  A    between atoms: N2_23  and  C18_24 
REMARK   10  A    between atoms: C18_24  and  O4_25 
REMARK   11  A    between atoms: C18_24  and  C19_27 
REMARK   12  A    between atoms: C19_27  and  C20_28 
REMARK   13  A    between atoms: C20_28  and  C21_29 
REMARK   14  A    between atoms: C21_29  and  C22_30 
REMARK   15  A    between atoms: C22_30  and  C23_31 
REMARK   16  A    between atoms: C23_31  and  C24_32 
REMARK   17  A    between atoms: C24_32  and  C25_33 
REMARK   18  A    between atoms: C25_33  and  C26_34 
REMARK   19  A    between atoms: C31_39  and  O5_40 
REMARK   20  A    between atoms: C31_39  and  C32_42 
REMARK   21  A    between atoms: C32_42  and  O6_43 
ROOT
HETATM    1  C8  UNL     1      19.486  25.017  15.611  1.00  0.00     0.065 C 
HETATM    2  C9  UNL     1      18.183  25.696  15.879  1.00  0.00     0.040 C 
HETATM    3  C10 UNL     1      17.725  25.260  17.255  1.00  0.00     0.113 C 
HETATM    4  C11 UNL     1      16.631  24.196  17.150  1.00  0.00     0.166 C 
HETATM    5  C14 UNL     1      16.270  23.865  18.608  1.00  0.00     0.096 C 
HETATM    6  C30 UNL     1      17.479  23.168  19.164  1.00  0.00     0.078 C 
HETATM    7  C31 UNL     1      18.731  24.006  19.040  1.00  0.00     0.152 C 
HETATM    8  N3  UNL     1      18.897  24.729  17.852  1.00  0.00    -0.373 N 
HETATM    9  C33 UNL     1      19.800  24.246  16.878  1.00  0.00     0.132 C 
ENDROOT
BRANCH   5  10
HETATM   10  C15 UNL     1      15.019  23.133  18.689  1.00  0.00     0.120 C 
BRANCH  10  11
HETATM   11  O3  UNL     1      13.958  23.890  18.583  1.00  0.00    -0.349 OA
ATOM     12  H3  UNL     1      13.963  24.450  17.815  1.00  0.00     0.219 HD
ENDBRANCH  10  11
BRANCH  10  13
HETATM   13  N1  UNL     1      14.769  21.768  18.862  1.00  0.00    -0.362 N 
HETATM   14  C16 UNL     1      15.451  21.032  19.934  1.00  0.00     0.144 C 
HETATM   15  C17 UNL     1      14.398  20.221  20.702  1.00  0.00     0.145 C 
HETATM   16  N2  UNL     1      13.634  19.368  19.837  1.00  0.00    -0.359 N 
HETATM   17  C28 UNL     1      14.001  19.509  18.391  1.00  0.00     0.145 C 
HETATM   18  C29 UNL     1      13.878  20.997  18.058  1.00  0.00     0.144 C 
BRANCH  16  19
HETATM   19  C18 UNL     1      12.628  18.472  20.192  1.00  0.00     0.137 C 
BRANCH  19  20
HETATM   20  O4  UNL     1      11.774  18.897  21.104  1.00  0.00    -0.346 OA
ATOM     21  H4  UNL     1      11.331  19.715  20.907  1.00  0.00     0.219 HD
ENDBRANCH  19  20
BRANCH  19  22
HETATM   22  C19 UNL     1      12.358  17.157  19.734  1.00  0.00     0.052 C 
BRANCH  22  23
HETATM   23  C20 UNL     1      11.743  16.763  18.645  1.00  0.00    -0.022 C 
BRANCH  23  24
HETATM   24  C21 UNL     1      10.547  17.546  18.157  1.00  0.00     0.027 C 
BRANCH  24  25
HETATM   25  C22 UNL     1      10.958  18.216  16.865  1.00  0.00     0.004 C 
BRANCH  25  26
HETATM   26  C23 UNL     1      10.645  19.672  16.846  1.00  0.00     0.000 C 
BRANCH  26  27
HETATM   27  C24 UNL     1       9.832  20.023  15.627  1.00  0.00     0.000 C 
BRANCH  27  28
HETATM   28  C25 UNL     1      10.367  21.243  14.945  1.00  0.00    -0.000 C 
BRANCH  28  29
HETATM   29  C26 UNL     1      11.826  21.033  14.538  1.00  0.00    -0.005 C 
HETATM   30  C27 UNL     1      12.627  22.294  14.733  1.00  0.00     0.005 C 
ENDBRANCH  28  29
ENDBRANCH  27  28
ENDBRANCH  26  27
ENDBRANCH  25  26
ENDBRANCH  24  25
ENDBRANCH  23  24
ENDBRANCH  22  23
ENDBRANCH  19  22
ENDBRANCH  16  19
ENDBRANCH  10  13
ENDBRANCH   5  10
BRANCH   4  31
HETATM   31  O1  UNL     1      17.258  23.062  16.619  1.00  0.00    -0.313 OA
BRANCH  31  32
HETATM   32  C12 UNL     1      16.731  22.160  15.739  1.00  0.00     0.255 C 
HETATM   33  C13 UNL     1      16.303  22.683  14.405  1.00  0.00     0.126 C 
HETATM   34  O2  UNL     1      16.625  20.967  16.065  1.00  0.00    -0.266 OA
ENDBRANCH  31  32
ENDBRANCH   4  31
BRANCH   7  35
HETATM   35  O5  UNL     1      18.692  24.944  20.104  1.00  0.00    -0.369 OA
ATOM     36  H5  UNL     1      18.063  25.610  19.851  1.00  0.00     0.212 HD
ENDBRANCH   7  35
BRANCH   7  37
HETATM   37  C32 UNL     1      19.901  23.108  19.365  1.00  0.00     0.224 C 
BRANCH  37  38
HETATM   38  O6  UNL     1      19.471  21.796  19.408  1.00  0.00    -0.396 OA
ATOM     39  H6  UNL     1      18.905  21.627  18.663  1.00  0.00     0.209 HD
ENDBRANCH  37  38
ENDBRANCH   7  37
BRANCH   1  40
HETATM   40  C7  UNL     1      20.574  26.005  15.302  1.00  0.00     0.084 A 
HETATM   41  C6  UNL     1      21.279  26.718  16.248  1.00  0.00     0.062 A 
HETATM   42  C5  UNL     1      22.185  27.514  15.561  1.00  0.00     0.039 A 
HETATM   43  N4  UNL     1      21.976  27.237  14.263  1.00  0.00    -0.265 N 
HETATM   44  O7  UNL     1      21.034  26.357  14.132  1.00  0.00    -0.242 OA
ATOM     45  H4  UNL     1      22.487  27.661  13.489  1.00  0.00     0.194 HD
BRANCH  42  46
HETATM   46  C4  UNL     1      23.148  28.452  16.199  1.00  0.00     0.092 C 
BRANCH  46  47
HETATM   47  C2  UNL     1      24.514  28.076  15.731  1.00  0.00    -0.087 C 
HETATM   48  C1  UNL     1      25.239  28.960  15.083  1.00  0.00     0.014 C 
HETATM   49  C3  UNL     1      25.082  26.716  15.990  1.00  0.00     0.043 C 
ENDBRANCH  46  47
ENDBRANCH  42  46
ENDBRANCH   1  40
TORSDOF 21
ENDMDL
MODEL 2
REMARK VINA RESULT: -8.537599472      1.134      1.317
REMARK  21 active torsions:
REMARK  status: ('A' for Active; 'I' for Inactive)
REMARK    1  A    between atoms: C2_2  and  C4_4 
REMARK    2  A    between atoms: C4_4  and  C5_5 
REMARK    3  A    between atoms: C7_7  and  C8_8 
REMARK    4  A    between atoms: C11_11  and  O1_12 
REMARK    5  A    between atoms: O1_12  and  C12_13 
REMARK    6  A    between atoms: C14_16  and  C15_17 
REMARK    7  A    between atoms: C15_17  and  O3_18 
REMARK    8  A    between atoms: C15_17  and  N1_20 
REMARK    9  A    between atoms: N2_23  and  C18_24 
REMARK   10  A    between atoms: C18_24  and  O4_25 
REMARK   11  A    between atoms: C18_24  and  C19_27 
REMARK   12  A    between atoms: C19_27  and  C20_28 
REMARK   13  A    between atoms: C20_28  and  C21_29 
REMARK   14  A    between atoms: C21_29  and  C22_30 
REMARK   15  A    between atoms: C22_30  and  C23_31 
REMARK   16  A    between atoms: C23_31  and  C24_32 
REMARK   17  A    between atoms: C24_32  and  C25_33 
REMARK   18  A    between atoms: C25_33  and  C26_34 
REMARK   19  A    between atoms: C31_39  and  O5_40 
REMARK   20  A    between atoms: C31_39  and  C32_42 
REMARK   21  A    between atoms: C32_42  and  O6_43 
ROOT
HETATM    1  C8  UNL     1      19.278  25.112  16.599  1.00  0.00     0.065 C 
HETATM    2  C9  UNL     1      17.928  25.612  16.996  1.00  0.00     0.040 C 
HETATM    3  C10 UNL     1      17.495  24.818  18.211  1.00  0.00     0.113 C 
HETATM    4  C11 UNL     1      16.483  23.740  17.822  1.00  0.00     0.166 C 
HETATM    5  C14 UNL     1      16.140  23.035  19.145  1.00  0.00     0.096 C 
HETATM    6  C30 UNL     1      17.393  22.307  19.539  1.00  0.00     0.078 C 
HETATM    7  C31 UNL     1      18.581  23.234  19.654  1.00  0.00     0.152 C 
HETATM    8  N3  UNL     1      18.701  24.239  18.685  1.00  0.00    -0.373 N 
HETATM    9  C33 UNL     1      19.641  24.075  17.643  1.00  0.00     0.132 C 
ENDROOT
BRANCH   5  10
HETATM   10  C15 UNL     1      14.945  22.220  19.014  1.00  0.00     0.120 C 
BRANCH  10  11
HETATM   11  O3  UNL     1      13.873  22.903  18.703  1.00  0.00    -0.349 OA
ATOM     12  H3  UNL     1      13.375  23.196  19.458  1.00  0.00     0.219 HD
ENDBRANCH  10  11
BRANCH  10  13
HETATM   13  N1  UNL     1      14.757  20.843  19.167  1.00  0.00    -0.362 N 
HETATM   14  C16 UNL     1      14.781  20.248  20.510  1.00  0.00     0.144 C 
HETATM   15  C17 UNL     1      13.551  19.341  20.652  1.00  0.00     0.145 C 
HETATM   16  N2  UNL     1      13.477  18.360  19.608  1.00  0.00    -0.359 N 
HETATM   17  C28 UNL     1      14.577  18.485  18.598  1.00  0.00     0.145 C 
HETATM   18  C29 UNL     1      14.537  19.929  18.094  1.00  0.00     0.144 C 
BRANCH  16  19
HETATM   19  C18 UNL     1      12.524  17.356  19.444  1.00  0.00     0.137 C 
BRANCH  19  20
HETATM   20  O4  UNL     1      12.045  16.830  20.556  1.00  0.00    -0.346 OA
ATOM     21  H4  UNL     1      12.326  15.943  20.748  1.00  0.00     0.219 HD
ENDBRANCH  19  20
BRANCH  19  22
HETATM   22  C19 UNL     1      11.970  16.791  18.266  1.00  0.00     0.052 C 
BRANCH  22  23
HETATM   23  C20 UNL     1      11.043  17.267  17.470  1.00  0.00    -0.022 C 
BRANCH  23  24
HETATM   24  C21 UNL     1      10.856  18.762  17.377  1.00  0.00     0.027 C 
BRANCH  24  25
HETATM   25  C22 UNL     1      10.537  19.077  15.933  1.00  0.00     0.004 C 
BRANCH  25  26
HETATM   26  C23 UNL     1       9.960  20.439  15.752  1.00  0.00     0.000 C 
BRANCH  26  27
HETATM   27  C24 UNL     1      10.792  21.242  14.787  1.00  0.00     0.000 C 
BRANCH  27  28
HETATM   28  C25 UNL     1      11.859  20.405  14.156  1.00  0.00    -0.000 C 
BRANCH  28  29
HETATM   29  C26 UNL     1      13.216  21.105  14.252  1.00  0.00    -0.005 C 
HETATM   30  C27 UNL     1      13.092  22.427  14.962  1.00  0.00     0.005 C 
ENDBRANCH  28  29
ENDBRANCH  27  28
ENDBRANCH  26  27
ENDBRANCH  25  26
ENDBRANCH  24  25
ENDBRANCH  23  24
ENDBRANCH  22  23
ENDBRANCH  19  22
ENDBRANCH  16  19
ENDBRANCH  10  13
ENDBRANCH   5  10
BRANCH   4  31
HETATM   31  O1  UNL     1      17.193  22.820  17.042  1.00  0.00    -0.313 OA
BRANCH  31  32
HETATM   32  C12 UNL     1      16.801  22.260  15.859  1.00  0.00     0.255 C 
HETATM   33  C13 UNL     1      16.753  23.160  14.666  1.00  0.00     0.126 C 
HETATM   34  O2  UNL     1      16.506  21.056  15.812  1.00  0.00    -0.266 OA
ENDBRANCH  31  32
ENDBRANCH   4  31
BRANCH   7  35
HETATM   35  O5  UNL     1      18.469  23.875  20.915  1.00  0.00    -0.369 OA
ATOM     36  H5  UNL     1      19.211  24.464  20.984  1.00  0.00     0.212 HD
ENDBRANCH   7  35
BRANCH   7  37
HETATM   37  C32 UNL     1      19.813  22.367  19.775  1.00  0.00     0.224 C 
BRANCH  37  38
HETATM   38  O6  UNL     1      19.434  21.038  19.792  1.00  0.00    -0.396 OA
ATOM     39  H6  UNL     1      19.871  20.579  19.084  1.00  0.00     0.209 HD
ENDBRANCH  37  38
ENDBRANCH   7  37
BRANCH   1  40
HETATM   40  C7  UNL     1      20.293  26.219  16.568  1.00  0.00     0.084 A 
HETATM   41  C6  UNL     1      20.963  26.638  15.438  1.00  0.00     0.062 A 
HETATM   42  C5  UNL     1      21.803  27.671  15.827  1.00  0.00     0.039 A 
HETATM   43  N4  UNL     1      21.593  27.812  17.146  1.00  0.00    -0.265 N 
HETATM   44  O7  UNL     1      20.711  26.957  17.559  1.00  0.00    -0.242 OA
ATOM     45  H4  UNL     1      22.063  28.496  17.740  1.00  0.00     0.194 HD
BRANCH  42  46
HETATM   46  C4  UNL     1      22.718  28.413  14.916  1.00  0.00     0.092 C 
BRANCH  46  47
HETATM   47  C2  UNL     1      24.088  28.337  15.502  1.00  0.00    -0.087 C 
HETATM   48  C1  UNL     1      24.682  29.441  15.896  1.00  0.00     0.014 C 
HETATM   49  C3  UNL     1      24.800  27.030  15.660  1.00  0.00     0.043 C 
ENDBRANCH  46  47
ENDBRANCH  42  46
ENDBRANCH   1  40
TORSDOF 21
ENDMDL
MODEL 3
REMARK VINA RESULT: -8.527561479      1.957     10.877
REMARK  21 active torsions:
REMARK  status: ('A' for Active; 'I' for Inactive)
REMARK    1  A    between atoms: C2_2  and  C4_4 
REMARK    2  A    between atoms: C4_4  and  C5_5 
REMARK    3  A    between atoms: C7_7  and  C8_8 
REMARK    4  A    between atoms: C11_11  and  O1_12 
REMARK    5  A    between atoms: O1_12  and  C12_13 
REMARK    6  A    between atoms: C14_16  and  C15_17 
REMARK    7  A    between atoms: C15_17  and  O3_18 
REMARK    8  A    between atoms: C15_17  and  N1_20 
REMARK    9  A    between atoms: N2_23  and  C18_24 
REMARK   10  A    between atoms: C18_24  and  O4_25 
REMARK   11  A    between atoms: C18_24  and  C19_27 
REMARK   12  A    between atoms: C19_27  and  C20_28 
REMARK   13  A    between atoms: C20_28  and  C21_29 
REMARK   14  A    between atoms: C21_29  and  C22_30 
REMARK   15  A    between atoms: C22_30  and  C23_31 
REMARK   16  A    between atoms: C23_31  and  C24_32 
REMARK   17  A    between atoms: C24_32  and  C25_33 
REMARK   18  A    between atoms: C25_33  and  C26_34 
REMARK   19  A    between atoms: C31_39  and  O5_40 
REMARK   20  A    between atoms: C31_39  and  C32_42 
REMARK   21  A    between atoms: C32_42  and  O6_43 
ROOT
HETATM    1  C8  UNL     1      14.697  19.639  18.701  1.00  0.00     0.065 C 
HETATM    2  C9  UNL     1      14.454  20.912  19.443  1.00  0.00     0.040 C 
HETATM    3  C10 UNL     1      14.386  22.024  18.416  1.00  0.00     0.113 C 
HETATM    4  C11 UNL     1      15.692  22.818  18.390  1.00  0.00     0.166 C 
HETATM    5  C14 UNL     1      15.468  23.899  17.319  1.00  0.00     0.096 C 
HETATM    6  C30 UNL     1      15.407  23.155  16.016  1.00  0.00     0.078 C 
HETATM    7  C31 UNL     1      14.334  22.089  16.015  1.00  0.00     0.152 C 
HETATM    8  N3  UNL     1      14.179  21.341  17.189  1.00  0.00    -0.373 N 
HETATM    9  C33 UNL     1      14.696  20.027  17.236  1.00  0.00     0.132 C 
ENDROOT
BRANCH   5  10
HETATM   10  C15 UNL     1      16.471  24.946  17.407  1.00  0.00     0.120 C 
BRANCH  10  11
HETATM   11  O3  UNL     1      16.232  25.825  18.346  1.00  0.00    -0.349 OA
ATOM     12  H3  UNL     1      16.297  26.726  18.051  1.00  0.00     0.219 HD
ENDBRANCH  10  11
BRANCH  10  13
HETATM   13  N1  UNL     1      17.631  25.164  16.660  1.00  0.00    -0.362 N 
HETATM   14  C16 UNL     1      17.562  25.180  15.192  1.00  0.00     0.144 C 
HETATM   15  C17 UNL     1      18.298  26.430  14.693  1.00  0.00     0.145 C 
HETATM   16  N2  UNL     1      19.643  26.502  15.189  1.00  0.00    -0.359 N 
HETATM   17  C28 UNL     1      19.993  25.379  16.118  1.00  0.00     0.145 C 
HETATM   18  C29 UNL     1      18.928  25.381  17.215  1.00  0.00     0.144 C 
BRANCH  16  19
HETATM   19  C18 UNL     1      20.605  27.471  14.912  1.00  0.00     0.137 C 
BRANCH  19  20
HETATM   20  O4  UNL     1      20.195  28.724  14.974  1.00  0.00    -0.346 OA
ATOM     21  H4  UNL     1      20.850  29.384  14.778  1.00  0.00     0.219 HD
ENDBRANCH  19  20
BRANCH  19  22
HETATM   22  C19 UNL     1      21.976  27.341  14.569  1.00  0.00     0.052 C 
BRANCH  22  23
HETATM   23  C20 UNL     1      23.005  27.068  15.335  1.00  0.00    -0.022 C 
BRANCH  23  24
HETATM   24  C21 UNL     1      23.190  27.847  16.614  1.00  0.00     0.027 C 
BRANCH  24  25
HETATM   25  C22 UNL     1      22.916  26.892  17.754  1.00  0.00     0.004 C 
BRANCH  25  26
HETATM   26  C23 UNL     1      21.791  27.338  18.623  1.00  0.00     0.000 C 
BRANCH  26  27
HETATM   27  C24 UNL     1      21.594  26.380  19.768  1.00  0.00     0.000 C 
BRANCH  27  28
HETATM   28  C25 UNL     1      21.956  24.982  19.380  1.00  0.00    -0.000 C 
BRANCH  28  29
HETATM   29  C26 UNL     1      21.112  23.973  20.161  1.00  0.00    -0.005 C 
HETATM   30  C27 UNL     1      19.874  24.624  20.719  1.00  0.00     0.005 C 
ENDBRANCH  28  29
ENDBRANCH  27  28
ENDBRANCH  26  27
ENDBRANCH  25  26
ENDBRANCH  24  25
ENDBRANCH  23  24
ENDBRANCH  22  23
ENDBRANCH  19  22
ENDBRANCH  16  19
ENDBRANCH  10  13
ENDBRANCH   5  10
BRANCH   4  31
HETATM   31  O1  UNL     1      16.658  21.940  17.885  1.00  0.00    -0.313 OA
BRANCH  31  32
HETATM   32  C12 UNL     1      17.953  21.806  18.298  1.00  0.00     0.255 C 
HETATM   33  C13 UNL     1      18.175  21.467  19.738  1.00  0.00     0.126 C 
HETATM   34  O2  UNL     1      18.880  21.965  17.489  1.00  0.00    -0.266 OA
ENDBRANCH  31  32
ENDBRANCH   4  31
BRANCH   7  35
HETATM   35  O5  UNL     1      13.106  22.758  15.776  1.00  0.00    -0.369 OA
ATOM     36  H5  UNL     1      13.038  23.440  16.434  1.00  0.00     0.212 HD
ENDBRANCH   7  35
BRANCH   7  37
HETATM   37  C32 UNL     1      14.552  21.239  14.786  1.00  0.00     0.224 C 
BRANCH  37  38
HETATM   38  O6  UNL     1      15.800  21.511  14.259  1.00  0.00    -0.396 OA
ATOM     39  H6  UNL     1      16.233  20.693  14.043  1.00  0.00     0.209 HD
ENDBRANCH  37  38
ENDBRANCH   7  37
BRANCH   1  40
HETATM   40  C7  UNL     1      13.634  18.618  18.986  1.00  0.00     0.084 A 
HETATM   41  C6  UNL     1      12.412  18.558  18.351  1.00  0.00     0.062 A 
HETATM   42  C5  UNL     1      11.726  17.483  18.896  1.00  0.00     0.039 A 
HETATM   43  N4  UNL     1      12.561  16.967  19.812  1.00  0.00    -0.265 N 
HETATM   44  O7  UNL     1      13.667  17.641  19.851  1.00  0.00    -0.242 OA
ATOM     45  H4  UNL     1      12.354  16.156  20.396  1.00  0.00     0.194 HD
BRANCH  42  46
HETATM   46  C4  UNL     1      10.355  17.058  18.499  1.00  0.00     0.092 C 
BRANCH  46  47
HETATM   47  C2  UNL     1      10.475  16.315  17.210  1.00  0.00    -0.087 C 
HETATM   48  C1  UNL     1      10.768  15.034  17.231  1.00  0.00     0.014 C 
HETATM   49  C3  UNL     1      10.260  16.993  15.894  1.00  0.00     0.043 C 
ENDBRANCH  46  47
ENDBRANCH  42  46
ENDBRANCH   1  40
TORSDOF 21
ENDMDL
MODEL 4
REMARK VINA RESULT: -8.331845240      1.966     10.816
REMARK  21 active torsions:
REMARK  status: ('A' for Active; 'I' for Inactive)
REMARK    1  A    between atoms: C2_2  and  C4_4 
REMARK    2  A    between atoms: C4_4  and  C5_5 
REMARK    3  A    between atoms: C7_7  and  C8_8 
REMARK    4  A    between atoms: C11_11  and  O1_12 
REMARK    5  A    between atoms: O1_12  and  C12_13 
REMARK    6  A    between atoms: C14_16  and  C15_17 
REMARK    7  A    between atoms: C15_17  and  O3_18 
REMARK    8  A    between atoms: C15_17  and  N1_20 
REMARK    9  A    between atoms: N2_23  and  C18_24 
REMARK   10  A    between atoms: C18_24  and  O4_25 
REMARK   11  A    between atoms: C18_24  and  C19_27 
REMARK   12  A    between atoms: C19_27  and  C20_28 
REMARK   13  A    between atoms: C20_28  and  C21_29 
REMARK   14  A    between atoms: C21_29  and  C22_30 
REMARK   15  A    between atoms: C22_30  and  C23_31 
REMARK   16  A    between atoms: C23_31  and  C24_32 
REMARK   17  A    between atoms: C24_32  and  C25_33 
REMARK   18  A    between atoms: C25_33  and  C26_34 
REMARK   19  A    between atoms: C31_39  and  O5_40 
REMARK   20  A    between atoms: C31_39  and  C32_42 
REMARK   21  A    between atoms: C32_42  and  O6_43 
ROOT
HETATM    1  C8  UNL     1      14.072  19.694  18.156  1.00  0.00     0.065 C 
HETATM    2  C9  UNL     1      14.164  20.895  19.039  1.00  0.00     0.040 C 
HETATM    3  C10 UNL     1      14.232  22.110  18.137  1.00  0.00     0.113 C 
HETATM    4  C11 UNL     1      15.666  22.633  18.039  1.00  0.00     0.166 C 
HETATM    5  C14 UNL     1      15.571  23.854  17.108  1.00  0.00     0.096 C 
HETATM    6  C30 UNL     1      15.239  23.291  15.755  1.00  0.00     0.078 C 
HETATM    7  C31 UNL     1      13.975  22.462  15.774  1.00  0.00     0.152 C 
HETATM    8  N3  UNL     1      13.778  21.627  16.882  1.00  0.00    -0.373 N 
HETATM    9  C33 UNL     1      14.017  20.241  16.745  1.00  0.00     0.132 C 
ENDROOT
BRANCH   5  10
HETATM   10  C15 UNL     1      16.771  24.668  17.181  1.00  0.00     0.120 C 
BRANCH  10  11
HETATM   11  O3  UNL     1      16.781  25.501  18.190  1.00  0.00    -0.349 OA
ATOM     12  H3  UNL     1      17.516  25.378  18.779  1.00  0.00     0.219 HD
ENDBRANCH  10  11
BRANCH  10  13
HETATM   13  N1  UNL     1      17.900  24.708  16.358  1.00  0.00    -0.362 N 
HETATM   14  C16 UNL     1      17.811  25.322  15.027  1.00  0.00     0.144 C 
HETATM   15  C17 UNL     1      18.991  26.290  14.868  1.00  0.00     0.145 C 
HETATM   16  N2  UNL     1      20.253  25.650  15.104  1.00  0.00    -0.359 N 
HETATM   17  C28 UNL     1      20.123  24.212  15.504  1.00  0.00     0.145 C 
HETATM   18  C29 UNL     1      19.180  24.184  16.708  1.00  0.00     0.144 C 
BRANCH  16  19
HETATM   19  C18 UNL     1      21.526  26.210  15.011  1.00  0.00     0.137 C 
BRANCH  19  20
HETATM   20  O4  UNL     1      22.491  25.387  14.645  1.00  0.00    -0.346 OA
ATOM     21  H4  UNL     1      22.212  24.530  14.346  1.00  0.00     0.219 HD
ENDBRANCH  19  20
BRANCH  19  22
HETATM   22  C19 UNL     1      21.972  27.536  15.245  1.00  0.00     0.052 C 
BRANCH  22  23
HETATM   23  C20 UNL     1      22.382  28.094  16.359  1.00  0.00    -0.022 C 
BRANCH  23  24
HETATM   24  C21 UNL     1      22.605  27.224  17.573  1.00  0.00     0.027 C 
BRANCH  24  25
HETATM   25  C22 UNL     1      21.368  27.344  18.433  1.00  0.00     0.004 C 
BRANCH  25  26
HETATM   26  C23 UNL     1      21.440  26.513  19.668  1.00  0.00     0.000 C 
BRANCH  26  27
HETATM   27  C24 UNL     1      21.748  25.079  19.324  1.00  0.00     0.000 C 
BRANCH  27  28
HETATM   28  C25 UNL     1      20.852  24.135  20.062  1.00  0.00    -0.000 C 
BRANCH  28  29
HETATM   29  C26 UNL     1      19.844  24.907  20.912  1.00  0.00    -0.005 C 
HETATM   30  C27 UNL     1      18.512  24.205  20.941  1.00  0.00     0.005 C 
ENDBRANCH  28  29
ENDBRANCH  27  28
ENDBRANCH  26  27
ENDBRANCH  25  26
ENDBRANCH  24  25
ENDBRANCH  23  24
ENDBRANCH  22  23
ENDBRANCH  19  22
ENDBRANCH  16  19
ENDBRANCH  10  13
ENDBRANCH   5  10
BRANCH   4  31
HETATM   31  O1  UNL     1      16.380  21.648  17.347  1.00  0.00    -0.313 OA
BRANCH  31  32
HETATM   32  C12 UNL     1      17.634  21.184  17.627  1.00  0.00     0.255 C 
HETATM   33  C13 UNL     1      18.111  21.324  19.037  1.00  0.00     0.126 C 
HETATM   34  O2  UNL     1      18.320  20.674  16.727  1.00  0.00    -0.266 OA
ENDBRANCH  31  32
ENDBRANCH   4  31
BRANCH   7  35
HETATM   35  O5  UNL     1      12.894  23.380  15.740  1.00  0.00    -0.369 OA
ATOM     36  H5  UNL     1      13.024  23.977  16.468  1.00  0.00     0.212 HD
ENDBRANCH   7  35
BRANCH   7  37
HETATM   37  C32 UNL     1      13.900  21.734  14.453  1.00  0.00     0.224 C 
BRANCH  37  38
HETATM   38  O6  UNL     1      15.175  21.586  13.941  1.00  0.00    -0.396 OA
ATOM     39  H6  UNL     1      15.458  22.410  13.562  1.00  0.00     0.209 HD
ENDBRANCH  37  38
ENDBRANCH   7  37
BRANCH   1  40
HETATM   40  C7  UNL     1      12.852  18.873  18.462  1.00  0.00     0.084 A 
HETATM   41  C6  UNL     1      12.644  17.583  18.022  1.00  0.00     0.062 A 
HETATM   42  C5  UNL     1      11.410  17.183  18.515  1.00  0.00     0.039 A 
HETATM   43  N4  UNL     1      10.956  18.238  19.211  1.00  0.00    -0.265 N 
HETATM   44  O7  UNL     1      11.809  19.213  19.168  1.00  0.00    -0.242 OA
ATOM     45  H4  UNL     1      10.063  18.268  19.704  1.00  0.00     0.194 HD
BRANCH  42  46
HETATM   46  C4  UNL     1      10.789  15.852  18.275  1.00  0.00     0.092 C 
BRANCH  46  47
HETATM   47  C2  UNL     1      10.552  15.729  16.806  1.00  0.00    -0.087 C 
HETATM   48  C1  UNL     1      10.790  14.582  16.210  1.00  0.00     0.014 C 
HETATM   49  C3  UNL     1      10.043  16.880  15.997  1.00  0.00     0.043 C 
ENDBRANCH  46  47
ENDBRANCH  42  46
ENDBRANCH   1  40
TORSDOF 21
ENDMDL
MODEL 5
REMARK VINA RESULT: -8.241636717      1.974     11.333
REMARK  21 active torsions:
REMARK  status: ('A' for Active; 'I' for Inactive)
REMARK    1  A    between atoms: C2_2  and  C4_4 
REMARK    2  A    between atoms: C4_4  and  C5_5 
REMARK    3  A    between atoms: C7_7  and  C8_8 
REMARK    4  A    between atoms: C11_11  and  O1_12 
REMARK    5  A    between atoms: O1_12  and  C12_13 
REMARK    6  A    between atoms: C14_16  and  C15_17 
REMARK    7  A    between atoms: C15_17  and  O3_18 
REMARK    8  A    between atoms: C15_17  and  N1_20 
REMARK    9  A    between atoms: N2_23  and  C18_24 
REMARK   10  A    between atoms: C18_24  and  O4_25 
REMARK   11  A    between atoms: C18_24  and  C19_27 
REMARK   12  A    between atoms: C19_27  and  C20_28 
REMARK   13  A    between atoms: C20_28  and  C21_29 
REMARK   14  A    between atoms: C21_29  and  C22_30 
REMARK   15  A    between atoms: C22_30  and  C23_31 
REMARK   16  A    between atoms: C23_31  and  C24_32 
REMARK   17  A    between atoms: C24_32  and  C25_33 
REMARK   18  A    between atoms: C25_33  and  C26_34 
REMARK   19  A    between atoms: C31_39  and  O5_40 
REMARK   20  A    between atoms: C31_39  and  C32_42 
REMARK   21  A    between atoms: C32_42  and  O6_43 
ROOT
HETATM    1  C8  UNL     1      14.582  19.571  18.763  1.00  0.00     0.065 C 
HETATM    2  C9  UNL     1      14.289  20.857  19.463  1.00  0.00     0.040 C 
HETATM    3  C10 UNL     1      14.280  21.948  18.413  1.00  0.00     0.113 C 
HETATM    4  C11 UNL     1      15.583  22.748  18.452  1.00  0.00     0.166 C 
HETATM    5  C14 UNL     1      15.421  23.807  17.348  1.00  0.00     0.096 C 
HETATM    6  C30 UNL     1      15.443  23.037  16.058  1.00  0.00     0.078 C 
HETATM    7  C31 UNL     1      14.377  21.966  16.012  1.00  0.00     0.152 C 
HETATM    8  N3  UNL     1      14.153  21.240  17.189  1.00  0.00    -0.373 N 
HETATM    9  C33 UNL     1      14.671  19.930  17.294  1.00  0.00     0.132 C 
ENDROOT
BRANCH   5  10
HETATM   10  C15 UNL     1      16.412  24.860  17.477  1.00  0.00     0.120 C 
BRANCH  10  11
HETATM   11  O3  UNL     1      16.153  25.712  18.435  1.00  0.00    -0.349 OA
ATOM     12  H3  UNL     1      15.464  26.330  18.220  1.00  0.00     0.219 HD
ENDBRANCH  10  11
BRANCH  10  13
HETATM   13  N1  UNL     1      17.581  25.108  16.752  1.00  0.00    -0.362 N 
HETATM   14  C16 UNL     1      17.571  24.985  15.288  1.00  0.00     0.144 C 
HETATM   15  C17 UNL     1      18.223  26.244  14.699  1.00  0.00     0.145 C 
HETATM   16  N2  UNL     1      19.535  26.475  15.230  1.00  0.00    -0.359 N 
HETATM   17  C28 UNL     1      19.937  25.475  16.272  1.00  0.00     0.145 C 
HETATM   18  C29 UNL     1      18.831  25.484  17.328  1.00  0.00     0.144 C 
BRANCH  16  19
HETATM   19  C18 UNL     1      20.425  27.494  14.896  1.00  0.00     0.137 C 
BRANCH  19  20
HETATM   20  O4  UNL     1      19.940  28.720  14.946  1.00  0.00    -0.346 OA
ATOM     21  H4  UNL     1      19.964  29.141  15.798  1.00  0.00     0.219 HD
ENDBRANCH  19  20
BRANCH  19  22
HETATM   22  C19 UNL     1      21.788  27.439  14.505  1.00  0.00     0.052 C 
BRANCH  22  23
HETATM   23  C20 UNL     1      22.642  28.417  14.319  1.00  0.00    -0.022 C 
BRANCH  23  24
HETATM   24  C21 UNL     1      23.653  28.720  15.398  1.00  0.00     0.027 C 
BRANCH  24  25
HETATM   25  C22 UNL     1      24.541  27.502  15.522  1.00  0.00     0.004 C 
BRANCH  25  26
HETATM   26  C23 UNL     1      24.864  27.165  16.937  1.00  0.00     0.000 C 
BRANCH  26  27
HETATM   27  C24 UNL     1      23.613  26.806  17.695  1.00  0.00     0.000 C 
BRANCH  27  28
HETATM   28  C25 UNL     1      23.854  26.792  19.171  1.00  0.00    -0.000 C 
BRANCH  28  29
HETATM   29  C26 UNL     1      22.539  26.977  19.930  1.00  0.00    -0.005 C 
HETATM   30  C27 UNL     1      21.449  27.460  19.011  1.00  0.00     0.005 C 
ENDBRANCH  28  29
ENDBRANCH  27  28
ENDBRANCH  26  27
ENDBRANCH  25  26
ENDBRANCH  24  25
ENDBRANCH  23  24
ENDBRANCH  22  23
ENDBRANCH  19  22
ENDBRANCH  16  19
ENDBRANCH  10  13
ENDBRANCH   5  10
BRANCH   4  31
HETATM   31  O1  UNL     1      16.581  21.864  18.025  1.00  0.00    -0.313 OA
BRANCH  31  32
HETATM   32  C12 UNL     1      17.915  21.917  18.317  1.00  0.00     0.255 C 
HETATM   33  C13 UNL     1      18.290  22.031  19.760  1.00  0.00     0.126 C 
HETATM   34  O2  UNL     1      18.750  21.871  17.401  1.00  0.00    -0.266 OA
ENDBRANCH  31  32
ENDBRANCH   4  31
BRANCH   7  35
HETATM   35  O5  UNL     1      13.163  22.624  15.684  1.00  0.00    -0.369 OA
ATOM     36  H5  UNL     1      12.688  22.733  16.500  1.00  0.00     0.212 HD
ENDBRANCH   7  35
BRANCH   7  37
HETATM   37  C32 UNL     1      14.673  21.093  14.816  1.00  0.00     0.224 C 
BRANCH  37  38
HETATM   38  O6  UNL     1      15.734  21.630  14.112  1.00  0.00    -0.396 OA
ATOM     39  H6  UNL     1      16.451  21.804  14.710  1.00  0.00     0.209 HD
ENDBRANCH  37  38
ENDBRANCH   7  37
BRANCH   1  40
HETATM   40  C7  UNL     1      13.507  18.550  19.002  1.00  0.00     0.084 A 
HETATM   41  C6  UNL     1      12.323  18.478  18.300  1.00  0.00     0.062 A 
HETATM   42  C5  UNL     1      11.609  17.408  18.820  1.00  0.00     0.039 A 
HETATM   43  N4  UNL     1      12.393  16.906  19.789  1.00  0.00    -0.265 N 
HETATM   44  O7  UNL     1      13.493  17.585  19.881  1.00  0.00    -0.242 OA
ATOM     45  H4  UNL     1      12.156  16.103  20.372  1.00  0.00     0.194 HD
BRANCH  42  46
HETATM   46  C4  UNL     1      10.264  16.974  18.353  1.00  0.00     0.092 C 
BRANCH  46  47
HETATM   47  C2  UNL     1      10.451  15.726  17.556  1.00  0.00    -0.087 C 
HETATM   48  C1  UNL     1      11.101  15.782  16.415  1.00  0.00     0.014 C 
HETATM   49  C3  UNL     1       9.921  14.409  18.030  1.00  0.00     0.043 C 
ENDBRANCH  46  47
ENDBRANCH  42  46
ENDBRANCH   1  40
TORSDOF 21
ENDMDL
