MODEL 1
REMARK VINA RESULT: -9.254602494      0.000      0.000
REMARK  14 active torsions:
REMARK  status: ('A' for Active; 'I' for Inactive)
REMARK    1  A    between atoms: C2_2  and  C3_3 
REMARK    2  A    between atoms: C3_3  and  C4_4 
REMARK    3  A    between atoms: C4_4  and  N1_5 
REMARK    4  A    between atoms: N1_5  and  C5_7 
REMARK    5  A    between atoms: C6_10  and  N3_11 
REMARK    6  A    between atoms: C12_18  and  O1_19 
REMARK    7  A    between atoms: O1_19  and  C13_20 
REMARK    8  A    between atoms: C16_23  and  C17_24 
REMARK    9  A    between atoms: C17_24  and  O2_25 
REMARK   10  A    between atoms: C17_24  and  C23_31 
REMARK   11  A    between atoms: O2_25  and  C18_26 
REMARK       I    between atoms: C23_31  and  N5_33 
REMARK   12  A    between atoms: N5_33  and  C24_35 
REMARK   13  A    between atoms: C24_35  and  C25_36 
REMARK   14  A    between atoms: C25_36  and  N6_37 
ROOT
HETATM    1  C13 UNL     1      14.111  19.883  18.814  1.00  0.00     0.129 C 
HETATM    2  C14 UNL     1      14.637  20.616  20.025  1.00  0.00     0.033 C 
HETATM    3  C15 UNL     1      15.558  21.763  19.541  1.00  0.00     0.010 C 
HETATM    4  C16 UNL     1      16.743  21.054  18.934  1.00  0.00     0.024 C 
HETATM    5  C30 UNL     1      16.337  20.324  17.705  1.00  0.00     0.010 C 
HETATM    6  C31 UNL     1      14.841  20.288  17.561  1.00  0.00     0.033 C 
ENDROOT
BRANCH   1   7
HETATM    7  O1  UNL     1      12.722  19.933  18.777  1.00  0.00    -0.340 OA
BRANCH   7   8
HETATM    8  C12 UNL     1      11.866  18.859  18.605  1.00  0.00     0.136 A 
HETATM    9  C6  UNL     1      11.062  18.785  17.482  1.00  0.00     0.154 A 
HETATM   10  N2  UNL     1      10.246  17.727  17.371  1.00  0.00    -0.174 N 
HETATM   11  C5  UNL     1      10.148  16.729  18.262  1.00  0.00     0.683 A 
ATOM     12  H2  UNL     1       9.652  17.677  16.542  1.00  0.00     0.186 HD
HETATM   13  N7  UNL     1      10.964  16.827  19.368  1.00  0.00    -0.193 N 
HETATM   14  C32 UNL     1      11.798  17.850  19.546  1.00  0.00     0.060 A 
ATOM     15  H7  UNL     1      10.929  16.092  20.074  1.00  0.00     0.184 HD
HETATM   16  C33 UNL     1      12.692  17.825  20.767  1.00  0.00     0.072 C 
BRANCH   9  17
HETATM   17  N3  UNL     1      11.121  19.753  16.423  1.00  0.00    -0.361 N 
HETATM   18  C7  UNL     1      12.143  19.634  15.424  1.00  0.00     0.154 C 
HETATM   19  C8  UNL     1      11.872  20.664  14.348  1.00  0.00     0.291 C 
HETATM   20  N4  UNL     1      10.489  20.637  13.926  1.00  0.00     0.087 N 
HETATM   21  C9  UNL     1      10.107  19.396  13.315  1.00  0.00     0.310 C 
HETATM   22  C10 UNL     1       9.590  21.033  14.987  1.00  0.00     0.291 C 
HETATM   23  C11 UNL     1      10.173  20.816  16.368  1.00  0.00     0.154 C 
ENDBRANCH   9  17
BRANCH  11  24
HETATM   24  N1  UNL     1       9.378  15.779  18.123  1.00  0.00    -0.205 N 
ATOM     25  H1  UNL     1       8.537  16.010  18.651  1.00  0.00     0.183 HD
BRANCH  24  26
HETATM   26  C4  UNL     1       9.162  14.547  17.567  1.00  0.00     0.079 C 
BRANCH  26  27
HETATM   27  C3  UNL     1      10.361  13.813  17.037  1.00  0.00     0.045 C 
BRANCH  27  28
HETATM   28  C2  UNL     1      10.397  13.590  15.567  1.00  0.00     0.001 C 
HETATM   29  C1  UNL     1      10.835  14.887  14.884  1.00  0.00     0.005 C 
ENDBRANCH  27  28
ENDBRANCH  26  27
ENDBRANCH  24  26
ENDBRANCH  11  24
ENDBRANCH   7   8
ENDBRANCH   1   7
BRANCH   4  30
HETATM   30  C17 UNL     1      17.927  21.973  18.765  1.00  0.00     0.217 C 
BRANCH  30  31
HETATM   31  O2  UNL     1      17.968  22.925  19.698  1.00  0.00    -0.371 OA
BRANCH  31  32
HETATM   32  C18 UNL     1      19.013  23.145  20.515  1.00  0.00     0.122 C 
HETATM   33  C19 UNL     1      19.657  24.463  20.210  1.00  0.00     0.032 C 
HETATM   34  C20 UNL     1      21.050  24.148  19.696  1.00  0.00     0.002 C 
HETATM   35  C21 UNL     1      21.380  22.918  20.530  1.00  0.00     0.002 C 
HETATM   36  C22 UNL     1      20.117  22.135  20.407  1.00  0.00     0.032 C 
ENDBRANCH  31  32
ENDBRANCH  30  31
BRANCH  30  37
HETATM   37  C23 UNL     1      17.890  22.632  17.429  1.00  0.00     0.247 C 
HETATM   38  O3  UNL     1      18.563  22.055  16.502  1.00  0.00    -0.271 OA
HETATM   39  N5  UNL     1      17.211  23.800  17.085  1.00  0.00    -0.357 N 
ATOM     40  H5  UNL     1      16.685  24.287  17.811  1.00  0.00     0.162 HD
BRANCH  39  41
HETATM   41  C24 UNL     1      17.216  24.360  15.737  1.00  0.00     0.152 C 
BRANCH  41  42
HETATM   42  C25 UNL     1      18.017  25.597  15.736  1.00  0.00     0.292 C 
BRANCH  42  43
HETATM   43  N6  UNL     1      19.382  25.442  15.311  1.00  0.00     0.094 N 
HETATM   44  C26 UNL     1      20.229  25.596  16.480  1.00  0.00     0.298 C 
HETATM   45  C27 UNL     1      20.319  26.978  17.021  1.00  0.00     0.198 C 
HETATM   46  O4  UNL     1      20.852  27.800  16.016  1.00  0.00    -0.388 OA
HETATM   47  C28 UNL     1      19.867  27.855  15.036  1.00  0.00     0.198 C 
HETATM   48  C29 UNL     1      19.805  26.475  14.385  1.00  0.00     0.298 C 
ENDBRANCH  42  43
ENDBRANCH  41  42
ENDBRANCH  39  41
ENDBRANCH  30  37
ENDBRANCH   4  30
TORSDOF 14
ENDMDL
MODEL 2
REMARK VINA RESULT: -9.199693532      0.880      1.226
REMARK  14 active torsions:
REMARK  status: ('A' for Active; 'I' for Inactive)
REMARK    1  A    between atoms: C2_2  and  C3_3 
REMARK    2  A    between atoms: C3_3  and  C4_4 
REMARK    3  A    between atoms: C4_4  and  N1_5 
REMARK    4  A    between atoms: N1_5  and  C5_7 
REMARK    5  A    between atoms: C6_10  and  N3_11 
REMARK    6  A    between atoms: C12_18  and  O1_19 
REMARK    7  A    between atoms: O1_19  and  C13_20 
REMARK    8  A    between atoms: C16_23  and  C17_24 
REMARK    9  A    between atoms: C17_24  and  O2_25 
REMARK   10  A    between atoms: C17_24  and  C23_31 
REMARK   11  A    between atoms: O2_25  and  C18_26 
REMARK       I    between atoms: C23_31  and  N5_33 
REMARK   12  A    between atoms: N5_33  and  C24_35 
REMARK   13  A    between atoms: C24_35  and  C25_36 
REMARK   14  A    between atoms: C25_36  and  N6_37 
ROOT
HETATM    1  C13 UNL     1      13.719  20.657  18.060  1.00  0.00     0.129 C 
HETATM    2  C14 UNL     1      14.818  19.685  18.421  1.00  0.00     0.033 C 
HETATM    3  C15 UNL     1      15.986  20.481  19.053  1.00  0.00     0.010 C 
HETATM    4  C16 UNL     1      16.523  21.315  17.917  1.00  0.00     0.024 C 
HETATM    5  C30 UNL     1      15.524  22.335  17.506  1.00  0.00     0.010 C 
HETATM    6  C31 UNL     1      14.190  22.084  18.153  1.00  0.00     0.033 C 
ENDROOT
BRANCH   1   7
HETATM    7  O1  UNL     1      12.544  20.336  18.730  1.00  0.00    -0.340 OA
BRANCH   7   8
HETATM    8  C12 UNL     1      11.827  19.158  18.613  1.00  0.00     0.136 A 
HETATM    9  C6  UNL     1      11.092  18.903  17.470  1.00  0.00     0.154 A 
HETATM   10  N2  UNL     1      10.410  17.749  17.414  1.00  0.00    -0.174 N 
HETATM   11  C5  UNL     1      10.386  16.818  18.379  1.00  0.00     0.683 A 
ATOM     12  H2  UNL     1       9.867  17.566  16.570  1.00  0.00     0.186 HD
HETATM   13  N7  UNL     1      11.131  17.098  19.505  1.00  0.00    -0.193 N 
HETATM   14  C32 UNL     1      11.831  18.223  19.630  1.00  0.00     0.060 A 
ATOM     15  H7  UNL     1      11.147  16.420  20.267  1.00  0.00     0.184 HD
HETATM   16  C33 UNL     1      12.662  18.399  20.884  1.00  0.00     0.072 C 
BRANCH   9  17
HETATM   17  N3  UNL     1      11.090  19.787  16.338  1.00  0.00    -0.361 N 
HETATM   18  C7  UNL     1      12.114  19.650  15.342  1.00  0.00     0.154 C 
HETATM   19  C8  UNL     1      11.778  20.574  14.192  1.00  0.00     0.291 C 
HETATM   20  N4  UNL     1      10.398  20.434  13.784  1.00  0.00     0.087 N 
HETATM   21  C9  UNL     1      10.087  19.128  13.275  1.00  0.00     0.310 C 
HETATM   22  C10 UNL     1       9.480  20.858  14.819  1.00  0.00     0.291 C 
HETATM   23  C11 UNL     1      10.081  20.784  16.208  1.00  0.00     0.154 C 
ENDBRANCH   9  17
BRANCH  11  24
HETATM   24  N1  UNL     1       9.739  15.776  18.289  1.00  0.00    -0.205 N 
ATOM     25  H1  UNL     1       9.317  15.618  19.204  1.00  0.00     0.183 HD
BRANCH  24  26
HETATM   26  C4  UNL     1       9.339  14.736  17.493  1.00  0.00     0.079 C 
BRANCH  26  27
HETATM   27  C3  UNL     1      10.407  13.805  16.993  1.00  0.00     0.045 C 
BRANCH  27  28
HETATM   28  C2  UNL     1      10.368  13.479  15.543  1.00  0.00     0.001 C 
HETATM   29  C1  UNL     1      10.848  14.697  14.751  1.00  0.00     0.005 C 
ENDBRANCH  27  28
ENDBRANCH  26  27
ENDBRANCH  24  26
ENDBRANCH  11  24
ENDBRANCH   7   8
ENDBRANCH   1   7
BRANCH   4  30
HETATM   30  C17 UNL     1      17.899  21.857  18.214  1.00  0.00     0.217 C 
BRANCH  30  31
HETATM   31  O2  UNL     1      17.866  22.892  19.055  1.00  0.00    -0.371 OA
BRANCH  31  32
HETATM   32  C18 UNL     1      18.653  23.018  20.137  1.00  0.00     0.122 C 
HETATM   33  C19 UNL     1      19.416  24.307  20.091  1.00  0.00     0.032 C 
HETATM   34  C20 UNL     1      20.881  23.930  19.963  1.00  0.00     0.002 C 
HETATM   35  C21 UNL     1      20.911  22.651  20.788  1.00  0.00     0.002 C 
HETATM   36  C22 UNL     1      19.696  21.950  20.282  1.00  0.00     0.032 C 
ENDBRANCH  31  32
ENDBRANCH  30  31
BRANCH  30  37
HETATM   37  C23 UNL     1      18.568  22.299  16.958  1.00  0.00     0.247 C 
HETATM   38  O3  UNL     1      18.692  21.405  16.046  1.00  0.00    -0.271 OA
HETATM   39  N5  UNL     1      19.073  23.567  16.674  1.00  0.00    -0.357 N 
ATOM     40  H5  UNL     1      19.004  24.289  17.392  1.00  0.00     0.162 HD
BRANCH  39  41
HETATM   41  C24 UNL     1      19.695  23.912  15.400  1.00  0.00     0.152 C 
BRANCH  41  42
HETATM   42  C25 UNL     1      20.428  25.182  15.554  1.00  0.00     0.292 C 
BRANCH  42  43
HETATM   43  N6  UNL     1      19.651  26.280  16.063  1.00  0.00     0.094 N 
HETATM   44  C26 UNL     1      19.458  27.226  14.980  1.00  0.00     0.298 C 
HETATM   45  C27 UNL     1      20.674  27.982  14.574  1.00  0.00     0.198 C 
HETATM   46  O4  UNL     1      21.116  28.715  15.686  1.00  0.00    -0.388 OA
HETATM   47  C28 UNL     1      21.565  27.759  16.590  1.00  0.00     0.198 C 
HETATM   48  C29 UNL     1      20.335  27.018  17.107  1.00  0.00     0.298 C 
ENDBRANCH  42  43
ENDBRANCH  41  42
ENDBRANCH  39  41
ENDBRANCH  30  37
ENDBRANCH   4  30
TORSDOF 14
ENDMDL
MODEL 3
REMARK VINA RESULT: -9.163204991      1.803      3.233
REMARK  14 active torsions:
REMARK  status: ('A' for Active; 'I' for Inactive)
REMARK    1  A    between atoms: C2_2  and  C3_3 
REMARK    2  A    between atoms: C3_3  and  C4_4 
REMARK    3  A    between atoms: C4_4  and  N1_5 
REMARK    4  A    between atoms: N1_5  and  C5_7 
REMARK    5  A    between atoms: C6_10  and  N3_11 
REMARK    6  A    between atoms: C12_18  and  O1_19 
REMARK    7  A    between atoms: O1_19  and  C13_20 
REMARK    8  A    between atoms: C16_23  and  C17_24 
REMARK    9  A    between atoms: C17_24  and  O2_25 
REMARK   10  A    between atoms: C17_24  and  C23_31 
REMARK   11  A    between atoms: O2_25  and  C18_26 
REMARK       I    between atoms: C23_31  and  N5_33 
REMARK   12  A    between atoms: N5_33  and  C24_35 
REMARK   13  A    between atoms: C24_35  and  C25_36 
REMARK   14  A    between atoms: C25_36  and  N6_37 
ROOT
HETATM    1  C13 UNL     1      14.111  20.427  18.572  1.00  0.00     0.129 C 
HETATM    2  C14 UNL     1      14.569  21.541  19.484  1.00  0.00     0.033 C 
HETATM    3  C15 UNL     1      15.454  22.512  18.664  1.00  0.00     0.010 C 
HETATM    4  C16 UNL     1      16.685  21.704  18.340  1.00  0.00     0.024 C 
HETATM    5  C30 UNL     1      16.348  20.594  17.411  1.00  0.00     0.010 C 
HETATM    6  C31 UNL     1      14.860  20.438  17.266  1.00  0.00     0.033 C 
ENDROOT
BRANCH   1   7
HETATM    7  O1  UNL     1      12.722  20.393  18.501  1.00  0.00    -0.340 OA
BRANCH   7   8
HETATM    8  C12 UNL     1      11.931  19.259  18.447  1.00  0.00     0.136 A 
HETATM    9  C6  UNL     1      11.139  19.016  17.340  1.00  0.00     0.154 A 
HETATM   10  N2  UNL     1      10.386  17.907  17.344  1.00  0.00    -0.174 N 
HETATM   11  C5  UNL     1      10.341  17.007  18.338  1.00  0.00     0.683 A 
ATOM     12  H2  UNL     1       9.801  17.733  16.526  1.00  0.00     0.186 HD
HETATM   13  N7  UNL     1      11.145  17.273  19.427  1.00  0.00    -0.193 N 
HETATM   14  C32 UNL     1      11.917  18.355  19.492  1.00  0.00     0.060 A 
ATOM     15  H7  UNL     1      11.148  16.617  20.209  1.00  0.00     0.184 HD
HETATM   16  C33 UNL     1      12.804  18.515  20.709  1.00  0.00     0.072 C 
BRANCH   9  17
HETATM   17  N3  UNL     1      11.149  19.866  16.181  1.00  0.00    -0.361 N 
HETATM   18  C7  UNL     1      12.132  19.645  15.161  1.00  0.00     0.154 C 
HETATM   19  C8  UNL     1      11.810  20.552  13.993  1.00  0.00     0.291 C 
HETATM   20  N4  UNL     1      10.412  20.474  13.631  1.00  0.00     0.087 N 
HETATM   21  C9  UNL     1      10.017  19.172  13.172  1.00  0.00     0.310 C 
HETATM   22  C10 UNL     1       9.551  20.977  14.678  1.00  0.00     0.291 C 
HETATM   23  C11 UNL     1      10.189  20.911  16.051  1.00  0.00     0.154 C 
ENDBRANCH   9  17
BRANCH  11  24
HETATM   24  N1  UNL     1       9.629  16.005  18.304  1.00  0.00    -0.205 N 
ATOM     25  H1  UNL     1       8.724  16.281  18.686  1.00  0.00     0.183 HD
BRANCH  24  26
HETATM   26  C4  UNL     1       9.524  14.680  17.975  1.00  0.00     0.079 C 
BRANCH  26  27
HETATM   27  C3  UNL     1      10.431  14.167  16.893  1.00  0.00     0.045 C 
BRANCH  27  28
HETATM   28  C2  UNL     1      10.001  14.431  15.495  1.00  0.00     0.001 C 
HETATM   29  C1  UNL     1      11.005  15.385  14.844  1.00  0.00     0.005 C 
ENDBRANCH  27  28
ENDBRANCH  26  27
ENDBRANCH  24  26
ENDBRANCH  11  24
ENDBRANCH   7   8
ENDBRANCH   1   7
BRANCH   4  30
HETATM   30  C17 UNL     1      17.834  22.576  17.896  1.00  0.00     0.217 C 
BRANCH  30  31
HETATM   31  O2  UNL     1      18.260  22.269  16.670  1.00  0.00    -0.371 OA
BRANCH  31  32
HETATM   32  C18 UNL     1      18.291  23.128  15.637  1.00  0.00     0.122 C 
HETATM   33  C19 UNL     1      19.595  23.865  15.598  1.00  0.00     0.032 C 
HETATM   34  C20 UNL     1      19.269  25.323  15.866  1.00  0.00     0.002 C 
HETATM   35  C21 UNL     1      17.912  25.432  15.186  1.00  0.00     0.002 C 
HETATM   36  C22 UNL     1      17.238  24.197  15.679  1.00  0.00     0.032 C 
ENDBRANCH  31  32
ENDBRANCH  30  31
BRANCH  30  37
HETATM   37  C23 UNL     1      18.982  22.445  18.835  1.00  0.00     0.247 C 
HETATM   38  O3  UNL     1      19.063  21.332  19.468  1.00  0.00    -0.271 OA
HETATM   39  N5  UNL     1      19.967  23.396  19.099  1.00  0.00    -0.357 N 
ATOM     40  H5  UNL     1      19.913  24.296  18.622  1.00  0.00     0.162 HD
BRANCH  39  41
HETATM   41  C24 UNL     1      21.072  23.167  20.024  1.00  0.00     0.152 C 
BRANCH  41  42
HETATM   42  C25 UNL     1      21.209  24.340  20.907  1.00  0.00     0.292 C 
BRANCH  42  43
HETATM   43  N6  UNL     1      22.503  24.969  20.893  1.00  0.00     0.094 N 
HETATM   44  C26 UNL     1      22.599  25.809  22.073  1.00  0.00     0.298 C 
HETATM   45  C27 UNL     1      21.754  27.033  22.050  1.00  0.00     0.198 C 
HETATM   46  O4  UNL     1      22.158  27.813  20.955  1.00  0.00    -0.388 OA
HETATM   47  C28 UNL     1      21.776  27.086  19.835  1.00  0.00     0.198 C 
HETATM   48  C29 UNL     1      22.684  25.860  19.764  1.00  0.00     0.298 C 
ENDBRANCH  42  43
ENDBRANCH  41  42
ENDBRANCH  39  41
ENDBRANCH  30  37
ENDBRANCH   4  30
TORSDOF 14
ENDMDL
MODEL 4
REMARK VINA RESULT: -9.150858649      3.075     12.113
REMARK  14 active torsions:
REMARK  status: ('A' for Active; 'I' for Inactive)
REMARK    1  A    between atoms: C2_2  and  C3_3 
REMARK    2  A    between atoms: C3_3  and  C4_4 
REMARK    3  A    between atoms: C4_4  and  N1_5 
REMARK    4  A    between atoms: N1_5  and  C5_7 
REMARK    5  A    between atoms: C6_10  and  N3_11 
REMARK    6  A    between atoms: C12_18  and  O1_19 
REMARK    7  A    between atoms: O1_19  and  C13_20 
REMARK    8  A    between atoms: C16_23  and  C17_24 
REMARK    9  A    between atoms: C17_24  and  O2_25 
REMARK   10  A    between atoms: C17_24  and  C23_31 
REMARK   11  A    between atoms: O2_25  and  C18_26 
REMARK       I    between atoms: C23_31  and  N5_33 
REMARK   12  A    between atoms: N5_33  and  C24_35 
REMARK   13  A    between atoms: C24_35  and  C25_36 
REMARK   14  A    between atoms: C25_36  and  N6_37 
ROOT
HETATM    1  C13 UNL     1      19.056  25.381  16.532  1.00  0.00     0.129 C 
HETATM    2  C14 UNL     1      17.564  25.596  16.443  1.00  0.00     0.033 C 
HETATM    3  C15 UNL     1      16.855  24.410  17.142  1.00  0.00     0.010 C 
HETATM    4  C16 UNL     1      17.159  23.227  16.258  1.00  0.00     0.024 C 
HETATM    5  C30 UNL     1      18.609  22.905  16.302  1.00  0.00     0.010 C 
HETATM    6  C31 UNL     1      19.387  23.987  16.998  1.00  0.00     0.033 C 
ENDROOT
BRANCH   1   7
HETATM    7  O1  UNL     1      19.663  26.432  17.210  1.00  0.00    -0.340 OA
BRANCH   7   8
HETATM    8  C12 UNL     1      20.765  27.155  16.787  1.00  0.00     0.136 A 
HETATM    9  C6  UNL     1      21.872  27.278  17.606  1.00  0.00     0.154 A 
HETATM   10  N2  UNL     1      22.907  27.997  17.149  1.00  0.00    -0.174 N 
HETATM   11  C5  UNL     1      22.958  28.606  15.954  1.00  0.00     0.683 A 
ATOM     12  H2  UNL     1      23.721  28.088  17.757  1.00  0.00     0.186 HD
HETATM   13  N7  UNL     1      21.842  28.461  15.157  1.00  0.00    -0.193 N 
HETATM   14  C32 UNL     1      20.778  27.764  15.547  1.00  0.00     0.060 A 
ATOM     15  H7  UNL     1      21.832  28.903  14.238  1.00  0.00     0.184 HD
HETATM   16  C33 UNL     1      19.633  27.621  14.566  1.00  0.00     0.072 C 
BRANCH   9  17
HETATM   17  N3  UNL     1      21.969  26.618  18.878  1.00  0.00    -0.361 N 
HETATM   18  C7  UNL     1      21.402  27.246  20.036  1.00  0.00     0.154 C 
HETATM   19  C8  UNL     1      21.490  26.271  21.190  1.00  0.00     0.291 C 
HETATM   20  N4  UNL     1      21.012  24.959  20.815  1.00  0.00     0.087 N 
HETATM   21  C9  UNL     1      19.621  24.943  20.459  1.00  0.00     0.310 C 
HETATM   22  C10 UNL     1      21.849  24.345  19.807  1.00  0.00     0.291 C 
HETATM   23  C11 UNL     1      22.621  25.355  18.983  1.00  0.00     0.154 C 
ENDBRANCH   9  17
BRANCH  11  24
HETATM   24  N1  UNL     1      23.927  29.263  15.577  1.00  0.00    -0.205 N 
ATOM     25  H1  UNL     1      23.558  30.010  14.989  1.00  0.00     0.183 HD
BRANCH  24  26
HETATM   26  C4  UNL     1      25.286  29.426  15.605  1.00  0.00     0.079 C 
BRANCH  26  27
HETATM   27  C3  UNL     1      26.119  28.364  14.945  1.00  0.00     0.045 C 
BRANCH  27  28
HETATM   28  C2  UNL     1      26.143  27.037  15.614  1.00  0.00     0.001 C 
HETATM   29  C1  UNL     1      27.556  26.458  15.507  1.00  0.00     0.005 C 
ENDBRANCH  27  28
ENDBRANCH  26  27
ENDBRANCH  24  26
ENDBRANCH  11  24
ENDBRANCH   7   8
ENDBRANCH   1   7
BRANCH   4  30
HETATM   30  C17 UNL     1      16.242  22.062  16.536  1.00  0.00     0.217 C 
BRANCH  30  31
HETATM   31  O2  UNL     1      16.887  21.025  17.073  1.00  0.00    -0.371 OA
BRANCH  31  32
HETATM   32  C18 UNL     1      16.614  20.503  18.281  1.00  0.00     0.122 C 
HETATM   33  C19 UNL     1      15.506  19.499  18.187  1.00  0.00     0.032 C 
HETATM   34  C20 UNL     1      14.342  20.074  18.974  1.00  0.00     0.002 C 
HETATM   35  C21 UNL     1      15.091  20.801  20.082  1.00  0.00     0.002 C 
HETATM   36  C22 UNL     1      16.156  21.498  19.306  1.00  0.00     0.032 C 
ENDBRANCH  31  32
ENDBRANCH  30  31
BRANCH  30  37
HETATM   37  C23 UNL     1      15.586  21.602  15.280  1.00  0.00     0.247 C 
HETATM   38  O3  UNL     1      16.171  21.936  14.188  1.00  0.00    -0.271 OA
HETATM   39  N5  UNL     1      14.412  20.858  15.166  1.00  0.00    -0.357 N 
ATOM     40  H5  UNL     1      13.918  20.597  16.020  1.00  0.00     0.162 HD
BRANCH  39  41
HETATM   41  C24 UNL     1      13.856  20.433  13.886  1.00  0.00     0.152 C 
BRANCH  41  42
HETATM   42  C25 UNL     1      12.440  20.837  13.822  1.00  0.00     0.292 C 
BRANCH  42  43
HETATM   43  N6  UNL     1      11.500  19.757  13.683  1.00  0.00     0.094 N 
HETATM   44  C26 UNL     1      10.229  20.326  13.271  1.00  0.00     0.298 C 
HETATM   45  C27 UNL     1       9.517  21.109  14.316  1.00  0.00     0.198 C 
HETATM   46  O4  UNL     1       9.253  20.250  15.393  1.00  0.00    -0.388 OA
HETATM   47  C28 UNL     1      10.499  19.963  15.939  1.00  0.00     0.198 C 
HETATM   48  C29 UNL     1      11.234  19.077  14.936  1.00  0.00     0.298 C 
ENDBRANCH  42  43
ENDBRANCH  41  42
ENDBRANCH  39  41
ENDBRANCH  30  37
ENDBRANCH   4  30
TORSDOF 14
ENDMDL
MODEL 5
REMARK VINA RESULT: -9.105719135      1.714      3.310
REMARK  14 active torsions:
REMARK  status: ('A' for Active; 'I' for Inactive)
REMARK    1  A    between atoms: C2_2  and  C3_3 
REMARK    2  A    between atoms: C3_3  and  C4_4 
REMARK    3  A    between atoms: C4_4  and  N1_5 
REMARK    4  A    between atoms: N1_5  and  C5_7 
REMARK    5  A    between atoms: C6_10  and  N3_11 
REMARK    6  A    between atoms: C12_18  and  O1_19 
REMARK    7  A    between atoms: O1_19  and  C13_20 
REMARK    8  A    between atoms: C16_23  and  C17_24 
REMARK    9  A    between atoms: C17_24  and  O2_25 
REMARK   10  A    between atoms: C17_24  and  C23_31 
REMARK   11  A    between atoms: O2_25  and  C18_26 
REMARK       I    between atoms: C23_31  and  N5_33 
REMARK   12  A    between atoms: N5_33  and  C24_35 
REMARK   13  A    between atoms: C24_35  and  C25_36 
REMARK   14  A    between atoms: C25_36  and  N6_37 
ROOT
HETATM    1  C13 UNL     1      13.910  20.331  18.358  1.00  0.00     0.129 C 
HETATM    2  C14 UNL     1      14.263  21.516  19.225  1.00  0.00     0.033 C 
HETATM    3  C15 UNL     1      15.240  22.424  18.439  1.00  0.00     0.010 C 
HETATM    4  C16 UNL     1      16.498  21.601  18.325  1.00  0.00     0.024 C 
HETATM    5  C30 UNL     1      16.267  20.419  17.455  1.00  0.00     0.010 C 
HETATM    6  C31 UNL     1      14.805  20.243  17.151  1.00  0.00     0.033 C 
ENDROOT
BRANCH   1   7
HETATM    7  O1  UNL     1      12.539  20.283  18.130  1.00  0.00    -0.340 OA
BRANCH   7   8
HETATM    8  C12 UNL     1      11.736  19.157  18.188  1.00  0.00     0.136 A 
HETATM    9  C6  UNL     1      10.983  18.784  17.090  1.00  0.00     0.154 A 
HETATM   10  N2  UNL     1      10.216  17.690  17.204  1.00  0.00    -0.174 N 
HETATM   11  C5  UNL     1      10.124  16.922  18.300  1.00  0.00     0.683 A 
ATOM     12  H2  UNL     1       9.659  17.419  16.393  1.00  0.00     0.186 HD
HETATM   13  N7  UNL     1      10.890  17.314  19.377  1.00  0.00    -0.193 N 
HETATM   14  C32 UNL     1      11.673  18.391  19.336  1.00  0.00     0.060 A 
ATOM     15  H7  UNL     1      10.857  16.762  20.234  1.00  0.00     0.184 HD
HETATM   16  C33 UNL     1      12.517  18.694  20.556  1.00  0.00     0.072 C 
BRANCH   9  17
HETATM   17  N3  UNL     1      11.045  19.483  15.837  1.00  0.00    -0.361 N 
HETATM   18  C7  UNL     1      10.266  20.674  15.661  1.00  0.00     0.154 C 
HETATM   19  C8  UNL     1      10.647  21.294  14.334  1.00  0.00     0.291 C 
HETATM   20  N4  UNL     1      12.083  21.381  14.182  1.00  0.00     0.087 N 
HETATM   21  C9  UNL     1      12.704  22.239  15.151  1.00  0.00     0.310 C 
HETATM   22  C10 UNL     1      12.702  20.076  14.119  1.00  0.00     0.291 C 
HETATM   23  C11 UNL     1      11.874  18.995  14.784  1.00  0.00     0.154 C 
ENDBRANCH   9  17
BRANCH  11  24
HETATM   24  N1  UNL     1       9.401  15.928  18.364  1.00  0.00    -0.205 N 
ATOM     25  H1  UNL     1       8.710  16.120  19.089  1.00  0.00     0.183 HD
BRANCH  24  26
HETATM   26  C4  UNL     1       9.122  14.677  17.884  1.00  0.00     0.079 C 
BRANCH  26  27
HETATM   27  C3  UNL     1      10.271  13.882  17.331  1.00  0.00     0.045 C 
BRANCH  27  28
HETATM   28  C2  UNL     1      10.214  13.568  15.879  1.00  0.00     0.001 C 
HETATM   29  C1  UNL     1      10.730  14.776  15.094  1.00  0.00     0.005 C 
ENDBRANCH  27  28
ENDBRANCH  26  27
ENDBRANCH  24  26
ENDBRANCH  11  24
ENDBRANCH   7   8
ENDBRANCH   1   7
BRANCH   4  30
HETATM   30  C17 UNL     1      17.693  22.442  17.948  1.00  0.00     0.217 C 
BRANCH  30  31
HETATM   31  O2  UNL     1      18.146  22.161  16.726  1.00  0.00    -0.371 OA
BRANCH  31  32
HETATM   32  C18 UNL     1      18.178  23.036  15.706  1.00  0.00     0.122 C 
HETATM   33  C19 UNL     1      19.500  23.739  15.652  1.00  0.00     0.032 C 
HETATM   34  C20 UNL     1      19.218  25.201  15.949  1.00  0.00     0.002 C 
HETATM   35  C21 UNL     1      17.851  25.356  15.300  1.00  0.00     0.002 C 
HETATM   36  C22 UNL     1      17.155  24.131  15.787  1.00  0.00     0.032 C 
ENDBRANCH  31  32
ENDBRANCH  30  31
BRANCH  30  37
HETATM   37  C23 UNL     1      18.805  22.232  18.917  1.00  0.00     0.247 C 
HETATM   38  O3  UNL     1      18.772  21.133  19.577  1.00  0.00    -0.271 OA
HETATM   39  N5  UNL     1      19.865  23.098  19.182  1.00  0.00    -0.357 N 
ATOM     40  H5  UNL     1      19.902  23.987  18.684  1.00  0.00     0.162 HD
BRANCH  39  41
HETATM   41  C24 UNL     1      20.925  22.794  20.138  1.00  0.00     0.152 C 
BRANCH  41  42
HETATM   42  C25 UNL     1      21.799  23.973  20.276  1.00  0.00     0.292 C 
BRANCH  42  43
HETATM   43  N6  UNL     1      21.199  25.226  19.902  1.00  0.00     0.094 N 
HETATM   44  C26 UNL     1      22.117  25.905  19.004  1.00  0.00     0.298 C 
HETATM   45  C27 UNL     1      23.354  26.430  19.641  1.00  0.00     0.198 C 
HETATM   46  O4  UNL     1      22.973  27.360  20.621  1.00  0.00    -0.388 OA
HETATM   47  C28 UNL     1      22.347  26.607  21.607  1.00  0.00     0.198 C 
HETATM   48  C29 UNL     1      21.020  26.123  21.027  1.00  0.00     0.298 C 
ENDBRANCH  42  43
ENDBRANCH  41  42
ENDBRANCH  39  41
ENDBRANCH  30  37
ENDBRANCH   4  30
TORSDOF 14
ENDMDL
