MODEL 1
REMARK VINA RESULT: -8.939737967      0.000      0.000
REMARK  17 active torsions:
REMARK  status: ('A' for Active; 'I' for Inactive)
REMARK    1  A    between atoms: C2_2  and  C4_4 
REMARK    2  A    between atoms: C4_4  and  C26_38 
REMARK       I    between atoms: N1_5  and  C5_7 
REMARK    3  A    between atoms: C5_7  and  C6_9 
REMARK    4  A    between atoms: C6_9  and  N2_10 
REMARK    5  A    between atoms: C8_13  and  C9_14 
REMARK    6  A    between atoms: C9_14  and  C10_15 
REMARK    7  A    between atoms: C10_15  and  C11_16 
REMARK    8  A    between atoms: C13_20  and  C14_21 
REMARK    9  A    between atoms: C14_21  and  N4_22 
REMARK       I    between atoms: N5_25  and  C17_26 
REMARK   10  A    between atoms: C17_26  and  O4_28 
REMARK   11  A    between atoms: O4_28  and  C18_29 
REMARK   12  A    between atoms: C18_29  and  C19_30 
REMARK   13  A    between atoms: C19_30  and  C20_31 
REMARK   14  A    between atoms: C20_31  and  C21_32 
REMARK   15  A    between atoms: C26_38  and  C27_40 
REMARK   16  A    between atoms: C27_40  and  O7_41 
REMARK   17  A    between atoms: C27_40  and  N6_43 
ROOT
HETATM    1  N2  UNL     1      17.820  25.311  15.944  1.00  0.00    -0.276 N 
HETATM    2  C7  UNL     1      19.067  25.912  15.562  1.00  0.00     0.249 C 
HETATM    3  O2  UNL     1      19.177  26.299  14.370  1.00  0.00    -0.271 OA
HETATM    4  C8  UNL     1      20.165  26.069  16.527  1.00  0.00     0.170 C 
HETATM    5  N3  UNL     1      19.685  26.200  17.837  1.00  0.00    -0.396 N 
ATOM      6  H3  UNL     1      19.971  26.972  18.439  1.00  0.00     0.155 HD
HETATM    7  C13 UNL     1      18.783  25.206  18.281  1.00  0.00     0.199 C 
HETATM    8  C25 UNL     1      17.564  25.178  17.332  1.00  0.00     0.251 C 
HETATM    9  O5  UNL     1      16.410  25.045  17.775  1.00  0.00    -0.271 OA
ENDROOT
BRANCH   1  10
HETATM   10  C6  UNL     1      16.879  24.930  14.926  1.00  0.00     0.238 C 
BRANCH  10  11
HETATM   11  C5  UNL     1      16.369  23.596  15.100  1.00  0.00     0.240 C 
HETATM   12  N1  UNL     1      14.967  23.282  15.188  1.00  0.00    -0.322 N 
HETATM   13  C4  UNL     1      14.448  22.033  15.322  1.00  0.00     0.095 C 
ATOM     14  H1  UNL     1      14.310  24.061  15.145  1.00  0.00     0.169 HD
HETATM   15  O1  UNL     1      17.210  22.637  15.178  1.00  0.00    -0.271 OA
BRANCH  13  16
HETATM   16  C2  UNL     1      13.603  22.292  13.809  1.00  0.00    -0.040 C 
HETATM   17  C1  UNL     1      12.505  22.873  13.974  1.00  0.00     0.021 C 
HETATM   18  C3  UNL     1      14.291  21.754  12.670  1.00  0.00     0.050 C 
ENDBRANCH  13  16
BRANCH  13  19
HETATM   19  C26 UNL     1      13.923  20.727  15.468  1.00  0.00     0.249 C 
HETATM   20  O6  UNL     1      14.340  19.725  14.879  1.00  0.00    -0.281 OA
BRANCH  19  21
HETATM   21  C27 UNL     1      12.791  20.470  16.381  1.00  0.00     0.192 C 
BRANCH  21  22
HETATM   22  O7  UNL     1      12.950  20.979  17.583  1.00  0.00    -0.343 OA
ATOM     23  H7  UNL     1      12.416  20.565  18.251  1.00  0.00     0.219 HD
ENDBRANCH  21  22
BRANCH  21  24
HETATM   24  N6  UNL     1      11.599  19.811  16.196  1.00  0.00    -0.359 N 
HETATM   25  C28 UNL     1      11.201  19.471  14.837  1.00  0.00     0.125 C 
HETATM   26  C29 UNL     1      10.592  18.149  14.661  1.00  0.00     0.020 C 
HETATM   27  C30 UNL     1       9.990  17.506  15.901  1.00  0.00     0.003 C 
HETATM   28  C31 UNL     1      10.615  17.908  17.172  1.00  0.00     0.020 C 
HETATM   29  C32 UNL     1      10.665  19.449  17.227  1.00  0.00     0.125 C 
ENDBRANCH  21  24
ENDBRANCH  19  21
ENDBRANCH  13  19
ENDBRANCH  10  11
ENDBRANCH   1  10
BRANCH   4  30
HETATM   30  C9  UNL     1      21.046  27.250  16.145  1.00  0.00     0.034 C 
BRANCH  30  31
HETATM   31  C10 UNL     1      22.430  26.851  15.762  1.00  0.00     0.002 C 
BRANCH  31  32
HETATM   32  C11 UNL     1      22.993  27.975  14.885  1.00  0.00    -0.004 C 
HETATM   33  C12 UNL     1      21.944  28.273  13.835  1.00  0.00     0.005 C 
ENDBRANCH  31  32
ENDBRANCH  30  31
ENDBRANCH   4  30
BRANCH   7  34
HETATM   34  C14 UNL     1      19.369  23.798  18.227  1.00  0.00     0.306 C 
BRANCH  34  35
HETATM   35  N4  UNL     1      19.175  23.165  19.537  1.00  0.00     0.094 N 
HETATM   36  C15 UNL     1      17.959  23.566  20.175  1.00  0.00     0.292 C 
HETATM   37  C16 UNL     1      16.809  22.629  20.170  1.00  0.00     0.158 C 
HETATM   38  N5  UNL     1      16.872  21.528  19.268  1.00  0.00    -0.325 N 
HETATM   39  C17 UNL     1      15.812  20.602  19.213  1.00  0.00     0.362 C 
HETATM   40  C23 UNL     1      18.059  21.277  18.453  1.00  0.00     0.158 C 
HETATM   41  O3  UNL     1      15.760  19.713  18.331  1.00  0.00    -0.238 OA
HETATM   42  C24 UNL     1      19.217  21.715  19.355  1.00  0.00     0.292 C 
BRANCH  39  43
HETATM   43  O4  UNL     1      14.803  20.654  20.126  1.00  0.00    -0.304 OA
BRANCH  43  44
HETATM   44  C18 UNL     1      14.749  19.881  21.308  1.00  0.00     0.180 C 
BRANCH  44  45
HETATM   45  C19 UNL     1      14.051  18.575  20.923  1.00  0.00     0.027 C 
BRANCH  45  46
HETATM   46  C20 UNL     1      12.685  18.993  20.338  1.00  0.00     0.002 C 
BRANCH  46  47
HETATM   47  C21 UNL     1      11.665  17.939  20.582  1.00  0.00    -0.004 C 
HETATM   48  C22 UNL     1      12.218  16.573  20.886  1.00  0.00     0.005 C 
ENDBRANCH  46  47
ENDBRANCH  45  46
ENDBRANCH  44  45
ENDBRANCH  43  44
ENDBRANCH  39  43
ENDBRANCH  34  35
ENDBRANCH   7  34
TORSDOF 17
ENDMDL
MODEL 2
REMARK VINA RESULT: -8.884827281      2.680      9.401
REMARK  17 active torsions:
REMARK  status: ('A' for Active; 'I' for Inactive)
REMARK    1  A    between atoms: C2_2  and  C4_4 
REMARK    2  A    between atoms: C4_4  and  C26_38 
REMARK       I    between atoms: N1_5  and  C5_7 
REMARK    3  A    between atoms: C5_7  and  C6_9 
REMARK    4  A    between atoms: C6_9  and  N2_10 
REMARK    5  A    between atoms: C8_13  and  C9_14 
REMARK    6  A    between atoms: C9_14  and  C10_15 
REMARK    7  A    between atoms: C10_15  and  C11_16 
REMARK    8  A    between atoms: C13_20  and  C14_21 
REMARK    9  A    between atoms: C14_21  and  N4_22 
REMARK       I    between atoms: N5_25  and  C17_26 
REMARK   10  A    between atoms: C17_26  and  O4_28 
REMARK   11  A    between atoms: O4_28  and  C18_29 
REMARK   12  A    between atoms: C18_29  and  C19_30 
REMARK   13  A    between atoms: C19_30  and  C20_31 
REMARK   14  A    between atoms: C20_31  and  C21_32 
REMARK   15  A    between atoms: C26_38  and  C27_40 
REMARK   16  A    between atoms: C27_40  and  O7_41 
REMARK   17  A    between atoms: C27_40  and  N6_43 
ROOT
HETATM    1  N2  UNL     1      16.945  22.167  17.244  1.00  0.00    -0.276 N 
HETATM    2  C7  UNL     1      16.832  21.512  18.517  1.00  0.00     0.249 C 
HETATM    3  O2  UNL     1      17.898  21.114  19.056  1.00  0.00    -0.271 OA
HETATM    4  C8  UNL     1      15.525  21.320  19.162  1.00  0.00     0.170 C 
HETATM    5  N3  UNL     1      14.617  22.323  18.795  1.00  0.00    -0.396 N 
ATOM      6  H3  UNL     1      14.103  22.863  19.491  1.00  0.00     0.155 HD
HETATM    7  C13 UNL     1      14.450  22.547  17.409  1.00  0.00     0.199 C 
HETATM    8  C25 UNL     1      15.821  22.901  16.792  1.00  0.00     0.251 C 
HETATM    9  O5  UNL     1      15.925  23.797  15.935  1.00  0.00    -0.271 OA
ENDROOT
BRANCH   1  10
HETATM   10  C6  UNL     1      18.187  22.099  16.524  1.00  0.00     0.238 C 
BRANCH  10  11
HETATM   11  C5  UNL     1      19.071  23.197  16.816  1.00  0.00     0.240 C 
HETATM   12  N1  UNL     1      19.067  23.915  18.063  1.00  0.00    -0.322 N 
HETATM   13  C4  UNL     1      19.904  24.936  18.385  1.00  0.00     0.095 C 
ATOM     14  H1  UNL     1      18.380  23.634  18.763  1.00  0.00     0.169 HD
HETATM   15  O1  UNL     1      19.906  23.551  15.916  1.00  0.00    -0.271 OA
BRANCH  13  16
HETATM   16  C2  UNL     1      20.473  23.960  19.725  1.00  0.00    -0.040 C 
HETATM   17  C1  UNL     1      21.586  23.435  19.489  1.00  0.00     0.021 C 
HETATM   18  C3  UNL     1      19.548  23.900  20.821  1.00  0.00     0.050 C 
ENDBRANCH  13  16
BRANCH  13  19
HETATM   19  C26 UNL     1      20.780  26.002  18.703  1.00  0.00     0.249 C 
HETATM   20  O6  UNL     1      20.834  26.573  19.795  1.00  0.00    -0.281 OA
BRANCH  19  21
HETATM   21  C27 UNL     1      21.731  26.516  17.698  1.00  0.00     0.192 C 
BRANCH  21  22
HETATM   22  O7  UNL     1      22.966  26.098  17.870  1.00  0.00    -0.343 OA
ATOM     23  H7  UNL     1      23.624  26.679  17.506  1.00  0.00     0.219 HD
ENDBRANCH  21  22
BRANCH  21  24
HETATM   24  N6  UNL     1      21.556  27.339  16.610  1.00  0.00    -0.359 N 
HETATM   25  C28 UNL     1      22.627  28.265  16.266  1.00  0.00     0.125 C 
HETATM   26  C29 UNL     1      22.908  28.414  14.835  1.00  0.00     0.020 C 
HETATM   27  C30 UNL     1      21.794  28.021  13.878  1.00  0.00     0.003 C 
HETATM   28  C31 UNL     1      20.880  26.984  14.384  1.00  0.00     0.020 C 
HETATM   29  C32 UNL     1      20.384  27.407  15.782  1.00  0.00     0.125 C 
ENDBRANCH  21  24
ENDBRANCH  19  21
ENDBRANCH  13  19
ENDBRANCH  10  11
ENDBRANCH   1  10
BRANCH   4  30
HETATM   30  C9  UNL     1      15.681  21.249  20.674  1.00  0.00     0.034 C 
BRANCH  30  31
HETATM   31  C10 UNL     1      15.044  20.042  21.274  1.00  0.00     0.002 C 
BRANCH  31  32
HETATM   32  C11 UNL     1      14.268  19.342  20.152  1.00  0.00    -0.004 C 
HETATM   33  C12 UNL     1      13.083  18.661  20.804  1.00  0.00     0.005 C 
ENDBRANCH  31  32
ENDBRANCH  30  31
ENDBRANCH   4  30
BRANCH   7  34
HETATM   34  C14 UNL     1      13.977  21.307  16.656  1.00  0.00     0.306 C 
BRANCH  34  35
HETATM   35  N4  UNL     1      13.799  21.664  15.243  1.00  0.00     0.094 N 
HETATM   36  C15 UNL     1      14.297  20.665  14.348  1.00  0.00     0.292 C 
HETATM   37  C16 UNL     1      13.329  19.769  13.670  1.00  0.00     0.158 C 
HETATM   38  N5  UNL     1      12.000  19.741  14.183  1.00  0.00    -0.325 N 
HETATM   39  C17 UNL     1      11.033  18.910  13.585  1.00  0.00     0.362 C 
HETATM   40  C23 UNL     1      11.582  20.628  15.267  1.00  0.00     0.158 C 
HETATM   41  O3  UNL     1       9.901  18.743  14.098  1.00  0.00    -0.238 OA
HETATM   42  C24 UNL     1      12.377  21.913  15.009  1.00  0.00     0.292 C 
BRANCH  39  43
HETATM   43  O4  UNL     1      11.308  18.256  12.423  1.00  0.00    -0.304 OA
BRANCH  43  44
HETATM   44  C18 UNL     1      11.054  16.885  12.194  1.00  0.00     0.180 C 
BRANCH  44  45
HETATM   45  C19 UNL     1      12.317  16.145  12.639  1.00  0.00     0.027 C 
BRANCH  45  46
HETATM   46  C20 UNL     1      13.037  15.734  11.336  1.00  0.00     0.002 C 
BRANCH  46  47
HETATM   47  C21 UNL     1      14.506  15.658  11.550  1.00  0.00    -0.004 C 
HETATM   48  C22 UNL     1      15.311  15.297  10.331  1.00  0.00     0.005 C 
ENDBRANCH  46  47
ENDBRANCH  45  46
ENDBRANCH  44  45
ENDBRANCH  43  44
ENDBRANCH  39  43
ENDBRANCH  34  35
ENDBRANCH   7  34
TORSDOF 17
ENDMDL
MODEL 3
REMARK VINA RESULT: -8.652725304      2.880      9.273
REMARK  17 active torsions:
REMARK  status: ('A' for Active; 'I' for Inactive)
REMARK    1  A    between atoms: C2_2  and  C4_4 
REMARK    2  A    between atoms: C4_4  and  C26_38 
REMARK       I    between atoms: N1_5  and  C5_7 
REMARK    3  A    between atoms: C5_7  and  C6_9 
REMARK    4  A    between atoms: C6_9  and  N2_10 
REMARK    5  A    between atoms: C8_13  and  C9_14 
REMARK    6  A    between atoms: C9_14  and  C10_15 
REMARK    7  A    between atoms: C10_15  and  C11_16 
REMARK    8  A    between atoms: C13_20  and  C14_21 
REMARK    9  A    between atoms: C14_21  and  N4_22 
REMARK       I    between atoms: N5_25  and  C17_26 
REMARK   10  A    between atoms: C17_26  and  O4_28 
REMARK   11  A    between atoms: O4_28  and  C18_29 
REMARK   12  A    between atoms: C18_29  and  C19_30 
REMARK   13  A    between atoms: C19_30  and  C20_31 
REMARK   14  A    between atoms: C20_31  and  C21_32 
REMARK   15  A    between atoms: C26_38  and  C27_40 
REMARK   16  A    between atoms: C27_40  and  O7_41 
REMARK   17  A    between atoms: C27_40  and  N6_43 
ROOT
HETATM    1  N2  UNL     1      16.525  21.457  17.193  1.00  0.00    -0.276 N 
HETATM    2  C7  UNL     1      16.179  20.904  18.473  1.00  0.00     0.249 C 
HETATM    3  O2  UNL     1      17.126  20.523  19.210  1.00  0.00    -0.271 OA
HETATM    4  C8  UNL     1      14.777  20.793  18.901  1.00  0.00     0.170 C 
HETATM    5  N3  UNL     1      13.980  21.786  18.316  1.00  0.00    -0.396 N 
ATOM      6  H3  UNL     1      13.378  22.390  18.876  1.00  0.00     0.155 HD
HETATM    7  C13 UNL     1      14.052  21.908  16.909  1.00  0.00     0.199 C 
HETATM    8  C25 UNL     1      15.519  22.181  16.508  1.00  0.00     0.251 C 
HETATM    9  O5  UNL     1      15.796  23.006  15.619  1.00  0.00    -0.271 OA
ENDROOT
BRANCH   1  10
HETATM   10  C6  UNL     1      17.866  21.305  16.699  1.00  0.00     0.238 C 
BRANCH  10  11
HETATM   11  C5  UNL     1      18.699  22.449  16.964  1.00  0.00     0.240 C 
HETATM   12  N1  UNL     1      18.940  23.498  16.009  1.00  0.00    -0.322 N 
HETATM   13  C4  UNL     1      19.696  24.606  16.234  1.00  0.00     0.095 C 
ATOM     14  H1  UNL     1      18.509  23.404  15.090  1.00  0.00     0.169 HD
HETATM   15  O1  UNL     1      19.252  22.535  18.112  1.00  0.00    -0.271 OA
BRANCH  13  16
HETATM   16  C2  UNL     1      18.266  25.566  15.913  1.00  0.00    -0.040 C 
HETATM   17  C1  UNL     1      17.520  25.655  16.917  1.00  0.00     0.021 C 
HETATM   18  C3  UNL     1      18.181  26.032  14.558  1.00  0.00     0.050 C 
ENDBRANCH  13  16
BRANCH  13  19
HETATM   19  C26 UNL     1      20.490  25.751  16.481  1.00  0.00     0.249 C 
HETATM   20  O6  UNL     1      21.038  26.435  15.613  1.00  0.00    -0.281 OA
BRANCH  19  21
HETATM   21  C27 UNL     1      20.719  26.222  17.862  1.00  0.00     0.192 C 
BRANCH  21  22
HETATM   22  O7  UNL     1      20.352  27.468  18.068  1.00  0.00    -0.343 OA
ATOM     23  H7  UNL     1      21.049  28.101  17.940  1.00  0.00     0.219 HD
ENDBRANCH  21  22
BRANCH  21  24
HETATM   24  N6  UNL     1      21.230  25.590  18.971  1.00  0.00    -0.359 N 
HETATM   25  C28 UNL     1      22.675  25.442  19.076  1.00  0.00     0.125 C 
HETATM   26  C29 UNL     1      23.245  25.663  20.409  1.00  0.00     0.020 C 
HETATM   27  C30 UNL     1      22.296  25.518  21.588  1.00  0.00     0.003 C 
HETATM   28  C31 UNL     1      20.886  25.821  21.288  1.00  0.00     0.020 C 
HETATM   29  C32 UNL     1      20.465  25.013  20.043  1.00  0.00     0.125 C 
ENDBRANCH  21  24
ENDBRANCH  19  21
ENDBRANCH  13  19
ENDBRANCH  10  11
ENDBRANCH   1  10
BRANCH   4  30
HETATM   30  C9  UNL     1      14.678  20.834  20.420  1.00  0.00     0.034 C 
BRANCH  30  31
HETATM   31  C10 UNL     1      14.388  19.503  21.024  1.00  0.00     0.002 C 
BRANCH  31  32
HETATM   32  C11 UNL     1      13.506  18.741  20.028  1.00  0.00    -0.004 C 
HETATM   33  C12 UNL     1      12.529  17.926  20.849  1.00  0.00     0.005 C 
ENDBRANCH  31  32
ENDBRANCH  30  31
ENDBRANCH   4  30
BRANCH   7  34
HETATM   34  C14 UNL     1      13.667  20.626  16.178  1.00  0.00     0.306 C 
BRANCH  34  35
HETATM   35  N4  UNL     1      13.276  20.976  14.806  1.00  0.00     0.094 N 
HETATM   36  C15 UNL     1      13.758  20.042  13.835  1.00  0.00     0.292 C 
HETATM   37  C16 UNL     1      12.809  19.057  13.262  1.00  0.00     0.158 C 
HETATM   38  N5  UNL     1      11.565  18.885  13.935  1.00  0.00    -0.325 N 
HETATM   39  C17 UNL     1      10.620  17.964  13.443  1.00  0.00     0.362 C 
HETATM   40  C23 UNL     1      11.198  19.714  15.082  1.00  0.00     0.158 C 
HETATM   41  O3  UNL     1       9.585  17.675  14.089  1.00  0.00    -0.238 OA
HETATM   42  C24 UNL     1      11.819  21.077  14.757  1.00  0.00     0.292 C 
BRANCH  39  43
HETATM   43  O4  UNL     1      10.813  17.353  12.242  1.00  0.00    -0.304 OA
BRANCH  43  44
HETATM   44  C18 UNL     1      10.751  15.956  12.032  1.00  0.00     0.180 C 
BRANCH  44  45
HETATM   45  C19 UNL     1      12.138  15.418  12.390  1.00  0.00     0.027 C 
BRANCH  45  46
HETATM   46  C20 UNL     1      13.049  15.801  11.204  1.00  0.00     0.002 C 
BRANCH  46  47
HETATM   47  C21 UNL     1      14.481  15.721  11.595  1.00  0.00    -0.004 C 
HETATM   48  C22 UNL     1      15.423  15.318  10.493  1.00  0.00     0.005 C 
ENDBRANCH  46  47
ENDBRANCH  45  46
ENDBRANCH  44  45
ENDBRANCH  43  44
ENDBRANCH  39  43
ENDBRANCH  34  35
ENDBRANCH   7  34
TORSDOF 17
ENDMDL
MODEL 4
REMARK VINA RESULT: -8.624256767      3.363      6.015
REMARK  17 active torsions:
REMARK  status: ('A' for Active; 'I' for Inactive)
REMARK    1  A    between atoms: C2_2  and  C4_4 
REMARK    2  A    between atoms: C4_4  and  C26_38 
REMARK       I    between atoms: N1_5  and  C5_7 
REMARK    3  A    between atoms: C5_7  and  C6_9 
REMARK    4  A    between atoms: C6_9  and  N2_10 
REMARK    5  A    between atoms: C8_13  and  C9_14 
REMARK    6  A    between atoms: C9_14  and  C10_15 
REMARK    7  A    between atoms: C10_15  and  C11_16 
REMARK    8  A    between atoms: C13_20  and  C14_21 
REMARK    9  A    between atoms: C14_21  and  N4_22 
REMARK       I    between atoms: N5_25  and  C17_26 
REMARK   10  A    between atoms: C17_26  and  O4_28 
REMARK   11  A    between atoms: O4_28  and  C18_29 
REMARK   12  A    between atoms: C18_29  and  C19_30 
REMARK   13  A    between atoms: C19_30  and  C20_31 
REMARK   14  A    between atoms: C20_31  and  C21_32 
REMARK   15  A    between atoms: C26_38  and  C27_40 
REMARK   16  A    between atoms: C27_40  and  O7_41 
REMARK   17  A    between atoms: C27_40  and  N6_43 
ROOT
HETATM    1  N2  UNL     1      16.998  22.560  17.116  1.00  0.00    -0.276 N 
HETATM    2  C7  UNL     1      17.092  23.451  15.993  1.00  0.00     0.249 C 
HETATM    3  O2  UNL     1      16.869  22.965  14.853  1.00  0.00    -0.271 OA
HETATM    4  C8  UNL     1      17.432  24.870  16.171  1.00  0.00     0.170 C 
HETATM    5  N3  UNL     1      17.017  25.345  17.423  1.00  0.00    -0.396 N 
ATOM      6  H3  UNL     1      16.448  26.186  17.515  1.00  0.00     0.155 HD
HETATM    7  C13 UNL     1      17.430  24.599  18.550  1.00  0.00     0.199 C 
HETATM    8  C25 UNL     1      16.919  23.148  18.402  1.00  0.00     0.251 C 
HETATM    9  O5  UNL     1      16.456  22.530  19.377  1.00  0.00    -0.271 OA
ENDROOT
BRANCH   1  10
HETATM   10  C6  UNL     1      16.933  21.143  16.888  1.00  0.00     0.238 C 
BRANCH  10  11
HETATM   11  C5  UNL     1      15.584  20.644  16.814  1.00  0.00     0.240 C 
HETATM   12  N1  UNL     1      14.521  21.319  16.117  1.00  0.00    -0.322 N 
HETATM   13  C4  UNL     1      13.246  20.865  16.001  1.00  0.00     0.095 C 
ATOM     14  H1  UNL     1      14.744  22.210  15.674  1.00  0.00     0.169 HD
HETATM   15  O1  UNL     1      15.320  19.539  17.398  1.00  0.00    -0.271 OA
BRANCH  13  16
HETATM   16  C2  UNL     1      13.473  20.866  14.263  1.00  0.00    -0.040 C 
HETATM   17  C1  UNL     1      13.816  19.740  13.830  1.00  0.00     0.021 C 
HETATM   18  C3  UNL     1      13.276  22.153  13.661  1.00  0.00     0.050 C 
ENDBRANCH  13  16
BRANCH  13  19
HETATM   19  C26 UNL     1      11.920  20.381  15.893  1.00  0.00     0.249 C 
HETATM   20  O6  UNL     1      10.980  20.994  15.380  1.00  0.00    -0.281 OA
BRANCH  19  21
HETATM   21  C27 UNL     1      11.564  19.044  16.411  1.00  0.00     0.192 C 
BRANCH  21  22
HETATM   22  O7  UNL     1      11.351  18.148  15.472  1.00  0.00    -0.343 OA
ATOM     23  H7  UNL     1      11.861  17.353  15.576  1.00  0.00     0.219 HD
ENDBRANCH  21  22
BRANCH  21  24
HETATM   24  N6  UNL     1      11.432  18.566  17.693  1.00  0.00    -0.359 N 
HETATM   25  C28 UNL     1      10.502  17.470  17.929  1.00  0.00     0.125 C 
HETATM   26  C29 UNL     1      10.958  16.433  18.860  1.00  0.00     0.020 C 
HETATM   27  C30 UNL     1      12.057  16.828  19.833  1.00  0.00     0.003 C 
HETATM   28  C31 UNL     1      12.959  17.887  19.351  1.00  0.00     0.020 C 
HETATM   29  C32 UNL     1      12.104  19.073  18.859  1.00  0.00     0.125 C 
ENDBRANCH  21  24
ENDBRANCH  19  21
ENDBRANCH  13  19
ENDBRANCH  10  11
ENDBRANCH   1  10
BRANCH   4  30
HETATM   30  C9  UNL     1      16.842  25.706  15.044  1.00  0.00     0.034 C 
BRANCH  30  31
HETATM   31  C10 UNL     1      17.871  26.230  14.102  1.00  0.00     0.002 C 
BRANCH  31  32
HETATM   32  C11 UNL     1      19.190  26.310  14.880  1.00  0.00    -0.004 C 
HETATM   33  C12 UNL     1      19.793  27.665  14.574  1.00  0.00     0.005 C 
ENDBRANCH  31  32
ENDBRANCH  30  31
ENDBRANCH   4  30
BRANCH   7  34
HETATM   34  C14 UNL     1      18.946  24.482  18.668  1.00  0.00     0.306 C 
BRANCH  34  35
HETATM   35  N4  UNL     1      19.262  23.829  19.944  1.00  0.00     0.094 N 
HETATM   36  C15 UNL     1      20.303  22.854  19.829  1.00  0.00     0.292 C 
HETATM   37  C16 UNL     1      21.663  23.204  20.307  1.00  0.00     0.158 C 
HETATM   38  N5  UNL     1      21.930  24.581  20.556  1.00  0.00    -0.325 N 
HETATM   39  C17 UNL     1      23.202  24.980  21.010  1.00  0.00     0.362 C 
HETATM   40  C23 UNL     1      20.882  25.594  20.441  1.00  0.00     0.158 C 
HETATM   41  O3  UNL     1      23.521  26.190  21.094  1.00  0.00    -0.238 OA
HETATM   42  C24 UNL     1      19.620  24.864  20.912  1.00  0.00     0.292 C 
BRANCH  39  43
HETATM   43  O4  UNL     1      24.130  24.051  21.370  1.00  0.00    -0.304 OA
BRANCH  43  44
HETATM   44  C18 UNL     1      25.402  23.912  20.769  1.00  0.00     0.180 C 
BRANCH  44  45
HETATM   45  C19 UNL     1      25.139  23.443  19.337  1.00  0.00     0.027 C 
BRANCH  45  46
HETATM   46  C20 UNL     1      26.287  22.465  19.005  1.00  0.00     0.002 C 
BRANCH  46  47
HETATM   47  C21 UNL     1      25.754  21.106  18.726  1.00  0.00    -0.004 C 
HETATM   48  C22 UNL     1      26.533  19.975  19.342  1.00  0.00     0.005 C 
ENDBRANCH  46  47
ENDBRANCH  45  46
ENDBRANCH  44  45
ENDBRANCH  43  44
ENDBRANCH  39  43
ENDBRANCH  34  35
ENDBRANCH   7  34
TORSDOF 17
ENDMDL
MODEL 5
REMARK VINA RESULT: -8.580368052      2.843      8.878
REMARK  17 active torsions:
REMARK  status: ('A' for Active; 'I' for Inactive)
REMARK    1  A    between atoms: C2_2  and  C4_4 
REMARK    2  A    between atoms: C4_4  and  C26_38 
REMARK       I    between atoms: N1_5  and  C5_7 
REMARK    3  A    between atoms: C5_7  and  C6_9 
REMARK    4  A    between atoms: C6_9  and  N2_10 
REMARK    5  A    between atoms: C8_13  and  C9_14 
REMARK    6  A    between atoms: C9_14  and  C10_15 
REMARK    7  A    between atoms: C10_15  and  C11_16 
REMARK    8  A    between atoms: C13_20  and  C14_21 
REMARK    9  A    between atoms: C14_21  and  N4_22 
REMARK       I    between atoms: N5_25  and  C17_26 
REMARK   10  A    between atoms: C17_26  and  O4_28 
REMARK   11  A    between atoms: O4_28  and  C18_29 
REMARK   12  A    between atoms: C18_29  and  C19_30 
REMARK   13  A    between atoms: C19_30  and  C20_31 
REMARK   14  A    between atoms: C20_31  and  C21_32 
REMARK   15  A    between atoms: C26_38  and  C27_40 
REMARK   16  A    between atoms: C27_40  and  O7_41 
REMARK   17  A    between atoms: C27_40  and  N6_43 
ROOT
HETATM    1  N2  UNL     1      16.137  22.592  15.987  1.00  0.00    -0.276 N 
HETATM    2  C7  UNL     1      16.776  21.790  16.992  1.00  0.00     0.249 C 
HETATM    3  O2  UNL     1      18.012  21.958  17.163  1.00  0.00    -0.271 OA
HETATM    4  C8  UNL     1      16.015  20.816  17.789  1.00  0.00     0.170 C 
HETATM    5  N3  UNL     1      14.676  21.203  17.933  1.00  0.00    -0.396 N 
ATOM      6  H3  UNL     1      14.229  21.257  18.849  1.00  0.00     0.155 HD
HETATM    7  C13 UNL     1      13.976  21.516  16.745  1.00  0.00     0.199 C 
HETATM    8  C25 UNL     1      14.721  22.654  16.012  1.00  0.00     0.251 C 
HETATM    9  O5  UNL     1      14.097  23.583  15.471  1.00  0.00    -0.271 OA
ENDROOT
BRANCH   1  10
HETATM   10  C6  UNL     1      16.944  23.328  15.053  1.00  0.00     0.238 C 
BRANCH  10  11
HETATM   11  C5  UNL     1      17.716  24.373  15.675  1.00  0.00     0.240 C 
HETATM   12  N1  UNL     1      19.154  24.419  15.660  1.00  0.00    -0.322 N 
HETATM   13  C4  UNL     1      19.914  25.403  16.210  1.00  0.00     0.095 C 
ATOM     14  H1  UNL     1      19.642  23.652  15.200  1.00  0.00     0.169 HD
HETATM   15  O1  UNL     1      17.085  25.311  16.270  1.00  0.00    -0.271 OA
BRANCH  13  16
HETATM   16  C2  UNL     1      20.562  25.706  14.610  1.00  0.00    -0.040 C 
HETATM   17  C1  UNL     1      21.517  24.943  14.334  1.00  0.00     0.021 C 
HETATM   18  C3  UNL     1      19.921  26.796  13.930  1.00  0.00     0.050 C 
ENDBRANCH  13  16
BRANCH  13  19
HETATM   19  C26 UNL     1      20.691  26.433  16.792  1.00  0.00     0.249 C 
HETATM   20  O6  UNL     1      20.478  27.642  16.663  1.00  0.00    -0.281 OA
BRANCH  19  21
HETATM   21  C27 UNL     1      21.860  26.107  17.632  1.00  0.00     0.192 C 
BRANCH  21  22
HETATM   22  O7  UNL     1      23.017  26.349  17.054  1.00  0.00    -0.343 OA
ATOM     23  H7  UNL     1      23.754  25.920  17.473  1.00  0.00     0.219 HD
ENDBRANCH  21  22
BRANCH  21  24
HETATM   24  N6  UNL     1      21.958  25.611  18.911  1.00  0.00    -0.359 N 
HETATM   25  C28 UNL     1      20.837  25.815  19.818  1.00  0.00     0.125 C 
HETATM   26  C29 UNL     1      20.494  24.678  20.678  1.00  0.00     0.020 C 
HETATM   27  C30 UNL     1      21.586  23.646  20.909  1.00  0.00     0.003 C 
HETATM   28  C31 UNL     1      22.562  23.522  19.813  1.00  0.00     0.020 C 
HETATM   29  C32 UNL     1      23.093  24.929  19.469  1.00  0.00     0.125 C 
ENDBRANCH  21  24
ENDBRANCH  19  21
ENDBRANCH  13  19
ENDBRANCH  10  11
ENDBRANCH   1  10
BRANCH   4  30
HETATM   30  C9  UNL     1      16.674  20.603  19.144  1.00  0.00     0.034 C 
BRANCH  30  31
HETATM   31  C10 UNL     1      16.238  21.592  20.170  1.00  0.00     0.002 C 
BRANCH  31  32
HETATM   32  C11 UNL     1      17.474  22.412  20.556  1.00  0.00    -0.004 C 
HETATM   33  C12 UNL     1      18.619  21.430  20.696  1.00  0.00     0.005 C 
ENDBRANCH  31  32
ENDBRANCH  30  31
ENDBRANCH   4  30
BRANCH   7  34
HETATM   34  C14 UNL     1      13.935  20.357  15.753  1.00  0.00     0.306 C 
BRANCH  34  35
HETATM   35  N4  UNL     1      13.119  20.763  14.602  1.00  0.00     0.094 N 
HETATM   36  C15 UNL     1      13.370  19.973  13.436  1.00  0.00     0.292 C 
HETATM   37  C16 UNL     1      12.388  18.927  13.059  1.00  0.00     0.158 C 
HETATM   38  N5  UNL     1      11.426  18.555  14.042  1.00  0.00    -0.325 N 
HETATM   39  C17 UNL     1      10.466  17.567  13.748  1.00  0.00     0.362 C 
HETATM   40  C23 UNL     1      11.346  19.241  15.330  1.00  0.00     0.158 C 
HETATM   41  O3  UNL     1       9.704  17.106  14.631  1.00  0.00    -0.238 OA
HETATM   42  C24 UNL     1      11.712  20.690  14.990  1.00  0.00     0.292 C 
BRANCH  39  43
HETATM   43  O4  UNL     1      10.343  17.079  12.483  1.00  0.00    -0.304 OA
BRANCH  43  44
HETATM   44  C18 UNL     1      10.455  15.714  12.134  1.00  0.00     0.180 C 
BRANCH  44  45
HETATM   45  C19 UNL     1      11.885  15.306  12.496  1.00  0.00     0.027 C 
BRANCH  45  46
HETATM   46  C20 UNL     1      12.743  15.675  11.267  1.00  0.00     0.002 C 
BRANCH  46  47
HETATM   47  C21 UNL     1      14.184  15.728  11.630  1.00  0.00    -0.004 C 
HETATM   48  C22 UNL     1      15.137  15.376  10.520  1.00  0.00     0.005 C 
ENDBRANCH  46  47
ENDBRANCH  45  46
ENDBRANCH  44  45
ENDBRANCH  43  44
ENDBRANCH  39  43
ENDBRANCH  34  35
ENDBRANCH   7  34
TORSDOF 17
ENDMDL
