MODEL 1
REMARK VINA RESULT: -8.600040947      0.000      0.000
REMARK  27 active torsions:
REMARK  status: ('A' for Active; 'I' for Inactive)
REMARK    1  A    between atoms: C2_2  and  C3_3 
REMARK    2  A    between atoms: C4_4  and  N1_5 
REMARK    3  A    between atoms: C4_4  and  C23_38 
REMARK    4  A    between atoms: N1_5  and  C5_6 
REMARK    5  A    between atoms: C5_6  and  O1_7 
REMARK    6  A    between atoms: C5_6  and  C6_9 
REMARK    7  A    between atoms: C6_9  and  C7_10 
REMARK    8  A    between atoms: C6_9  and  N2_15 
REMARK    9  A    between atoms: C7_10  and  C8_11 
REMARK   10  A    between atoms: C8_11  and  C9_12 
REMARK   11  A    between atoms: N2_15  and  C11_16 
REMARK   12  A    between atoms: C11_16  and  O3_17 
REMARK   13  A    between atoms: C11_16  and  C12_19 
REMARK   14  A    between atoms: C13_20  and  C14_21 
REMARK   15  A    between atoms: C14_21  and  C15_22 
REMARK   16  A    between atoms: C15_22  and  O4_23 
REMARK   17  A    between atoms: C15_22  and  N3_25 
REMARK   18  A    between atoms: N3_25  and  C16_27 
REMARK   19  A    between atoms: C16_27  and  O5_28 
REMARK   20  A    between atoms: C16_27  and  N4_30 
REMARK   21  A    between atoms: N4_30  and  C17_32 
REMARK   22  A    between atoms: C23_38  and  O6_39 
REMARK   23  A    between atoms: C23_38  and  N5_41 
REMARK   24  A    between atoms: N6_44  and  C26_45 
REMARK   25  A    between atoms: C26_45  and  O7_46 
REMARK   26  A    between atoms: C26_45  and  O8_48 
REMARK   27  A    between atoms: O8_48  and  C27_49 
ROOT
HETATM    1  C6  UNL     1      17.130  24.894  16.923  1.00  0.00     0.255 C 
ENDROOT
BRANCH   1   2
HETATM    2  C5  UNL     1      16.663  24.278  18.219  1.00  0.00     0.227 C 
BRANCH   2   3
HETATM    3  N1  UNL     1      17.027  23.326  18.916  1.00  0.00    -0.378 NA
BRANCH   3   4
HETATM    4  C4  UNL     1      17.399  22.337  19.595  1.00  0.00     0.156 C 
HETATM    5  C3  UNL     1      18.177  22.642  20.775  1.00  0.00     0.022 C 
BRANCH   5   6
HETATM    6  C2  UNL     1      19.456  22.005  21.114  1.00  0.00     0.026 C 
HETATM    7  C1  UNL     1      20.475  22.544  20.050  1.00  0.00     0.009 C 
ENDBRANCH   5   6
BRANCH   4   8
HETATM    8  C23 UNL     1      16.768  21.130  19.135  1.00  0.00     0.179 C 
BRANCH   8   9
HETATM    9  O6  UNL     1      17.569  20.597  18.117  1.00  0.00    -0.344 OA
ATOM     10  H6  UNL     1      17.990  19.819  18.463  1.00  0.00     0.219 HD
ENDBRANCH   8   9
BRANCH   8  11
HETATM   11  N5  UNL     1      15.693  20.273  19.292  1.00  0.00    -0.356 N 
HETATM   12  C24 UNL     1      15.226  20.247  20.713  1.00  0.00     0.145 C 
HETATM   13  C25 UNL     1      14.031  19.503  21.037  1.00  0.00     0.147 C 
HETATM   14  N6  UNL     1      13.430  18.817  19.907  1.00  0.00    -0.339 N 
HETATM   15  C29 UNL     1      14.309  18.316  18.863  1.00  0.00     0.147 C 
HETATM   16  C30 UNL     1      15.003  19.567  18.288  1.00  0.00     0.145 C 
BRANCH  14  17
HETATM   17  C26 UNL     1      12.027  18.659  19.870  1.00  0.00     0.260 C 
BRANCH  17  18
HETATM   18  O7  UNL     1      11.460  18.701  21.040  1.00  0.00    -0.327 OA
ATOM     19  H7  UNL     1      10.526  18.873  21.011  1.00  0.00     0.221 HD
ENDBRANCH  17  18
BRANCH  17  20
HETATM   20  O8  UNL     1      11.239  18.483  18.784  1.00  0.00    -0.317 OA
BRANCH  20  21
HETATM   21  C27 UNL     1      10.406  17.328  18.688  1.00  0.00     0.175 C 
HETATM   22  C28 UNL     1      11.311  16.217  18.151  1.00  0.00     0.034 C 
ENDBRANCH  20  21
ENDBRANCH  17  20
ENDBRANCH  14  17
ENDBRANCH   8  11
ENDBRANCH   4   8
ENDBRANCH   3   4
ENDBRANCH   2   3
BRANCH   2  23
HETATM   23  O1  UNL     1      15.589  24.965  18.642  1.00  0.00    -0.336 OA
ATOM     24  H1  UNL     1      15.199  25.574  18.026  1.00  0.00     0.220 HD
ENDBRANCH   2  23
ENDBRANCH   1   2
BRANCH   1  25
HETATM   25  C7  UNL     1      16.378  24.618  15.702  1.00  0.00     0.056 C 
BRANCH  25  26
HETATM   26  C8  UNL     1      16.825  23.614  14.735  1.00  0.00     0.081 C 
BRANCH  26  27
HETATM   27  C9  UNL     1      16.333  22.276  14.864  1.00  0.00     0.123 C 
HETATM   28  C10 UNL     1      15.393  21.815  13.744  1.00  0.00     0.091 C 
HETATM   29  O2  UNL     1      16.540  21.451  15.702  1.00  0.00    -0.298 OA
ENDBRANCH  26  27
ENDBRANCH  25  26
ENDBRANCH   1  25
BRANCH   1  30
HETATM   30  N2  UNL     1      18.531  24.787  16.650  1.00  0.00    -0.410 NA
BRANCH  30  31
HETATM   31  C11 UNL     1      19.794  24.692  16.403  1.00  0.00     0.209 C 
BRANCH  31  32
HETATM   32  O3  UNL     1      20.750  24.470  17.268  1.00  0.00    -0.336 OA
ATOM     33  H3  UNL     1      21.654  24.249  17.076  1.00  0.00     0.220 HD
ENDBRANCH  31  32
BRANCH  31  34
HETATM   34  C12 UNL     1      20.394  24.851  15.013  1.00  0.00     0.071 C 
HETATM   35  C13 UNL     1      20.437  26.117  14.338  1.00  0.00     0.010 C 
BRANCH  35  36
HETATM   36  C14 UNL     1      21.475  27.127  14.509  1.00  0.00     0.056 C 
BRANCH  36  37
HETATM   37  C15 UNL     1      21.899  27.790  15.720  1.00  0.00     0.142 C 
BRANCH  37  38
HETATM   38  O4  UNL     1      21.797  29.111  15.697  1.00  0.00    -0.346 OA
ATOM     39  H4  UNL     1      22.622  29.574  15.616  1.00  0.00     0.219 HD
ENDBRANCH  37  38
BRANCH  37  40
HETATM   40  N3  UNL     1      22.386  27.232  16.906  1.00  0.00    -0.303 N 
ATOM     41  H3  UNL     1      23.275  26.737  16.844  1.00  0.00     0.171 HD
BRANCH  40  42
HETATM   42  C16 UNL     1      21.793  27.280  18.148  1.00  0.00     0.219 C 
BRANCH  42  43
HETATM   43  O5  UNL     1      20.476  27.617  18.022  1.00  0.00    -0.332 OA
ATOM     44  H5  UNL     1      19.984  27.289  18.765  1.00  0.00     0.220 HD
ENDBRANCH  42  43
BRANCH  42  45
HETATM   45  N4  UNL     1      22.111  27.104  19.475  1.00  0.00    -0.352 N 
ATOM     46  H4  UNL     1      22.461  27.907  19.997  1.00  0.00     0.163 HD
BRANCH  45  47
HETATM   47  C17 UNL     1      21.976  25.829  20.178  1.00  0.00     0.085 C 
HETATM   48  C18 UNL     1      21.186  26.009  21.462  1.00  0.00     0.025 C 
HETATM   49  C19 UNL     1      21.964  26.590  22.604  1.00  0.00     0.002 C 
HETATM   50  C20 UNL     1      23.275  25.887  22.813  1.00  0.00     0.000 C 
HETATM   51  C21 UNL     1      23.437  24.715  21.856  1.00  0.00     0.002 C 
HETATM   52  C22 UNL     1      23.266  25.132  20.399  1.00  0.00     0.025 C 
ENDBRANCH  45  47
ENDBRANCH  42  45
ENDBRANCH  40  42
ENDBRANCH  37  40
ENDBRANCH  36  37
ENDBRANCH  35  36
ENDBRANCH  31  34
ENDBRANCH  30  31
ENDBRANCH   1  30
TORSDOF 27
ENDMDL
MODEL 2
REMARK VINA RESULT: -8.334701348      2.529      7.257
REMARK  27 active torsions:
REMARK  status: ('A' for Active; 'I' for Inactive)
REMARK    1  A    between atoms: C2_2  and  C3_3 
REMARK    2  A    between atoms: C4_4  and  N1_5 
REMARK    3  A    between atoms: C4_4  and  C23_38 
REMARK    4  A    between atoms: N1_5  and  C5_6 
REMARK    5  A    between atoms: C5_6  and  O1_7 
REMARK    6  A    between atoms: C5_6  and  C6_9 
REMARK    7  A    between atoms: C6_9  and  C7_10 
REMARK    8  A    between atoms: C6_9  and  N2_15 
REMARK    9  A    between atoms: C7_10  and  C8_11 
REMARK   10  A    between atoms: C8_11  and  C9_12 
REMARK   11  A    between atoms: N2_15  and  C11_16 
REMARK   12  A    between atoms: C11_16  and  O3_17 
REMARK   13  A    between atoms: C11_16  and  C12_19 
REMARK   14  A    between atoms: C13_20  and  C14_21 
REMARK   15  A    between atoms: C14_21  and  C15_22 
REMARK   16  A    between atoms: C15_22  and  O4_23 
REMARK   17  A    between atoms: C15_22  and  N3_25 
REMARK   18  A    between atoms: N3_25  and  C16_27 
REMARK   19  A    between atoms: C16_27  and  O5_28 
REMARK   20  A    between atoms: C16_27  and  N4_30 
REMARK   21  A    between atoms: N4_30  and  C17_32 
REMARK   22  A    between atoms: C23_38  and  O6_39 
REMARK   23  A    between atoms: C23_38  and  N5_41 
REMARK   24  A    between atoms: N6_44  and  C26_45 
REMARK   25  A    between atoms: C26_45  and  O7_46 
REMARK   26  A    between atoms: C26_45  and  O8_48 
REMARK   27  A    between atoms: O8_48  and  C27_49 
ROOT
HETATM    1  C6  UNL     1      11.021  20.207  15.474  1.00  0.00     0.255 C 
ENDROOT
BRANCH   1   2
HETATM    2  C5  UNL     1      11.191  20.091  16.970  1.00  0.00     0.227 C 
BRANCH   2   3
HETATM    3  N1  UNL     1      12.137  19.855  17.726  1.00  0.00    -0.378 NA
BRANCH   3   4
HETATM    4  C4  UNL     1      13.091  19.581  18.497  1.00  0.00     0.156 C 
HETATM    5  C3  UNL     1      13.114  18.230  19.012  1.00  0.00     0.022 C 
BRANCH   5   6
HETATM    6  C2  UNL     1      13.267  17.885  20.431  1.00  0.00     0.026 C 
HETATM    7  C1  UNL     1      12.147  16.824  20.717  1.00  0.00     0.009 C 
ENDBRANCH   5   6
BRANCH   4   8
HETATM    8  C23 UNL     1      14.060  20.642  18.513  1.00  0.00     0.179 C 
BRANCH   8   9
HETATM    9  O6  UNL     1      13.668  21.587  17.556  1.00  0.00    -0.344 OA
ATOM     10  H6  UNL     1      14.452  21.887  17.113  1.00  0.00     0.219 HD
ENDBRANCH   8   9
BRANCH   8  11
HETATM   11  N5  UNL     1      15.221  21.118  19.095  1.00  0.00    -0.356 N 
HETATM   12  C24 UNL     1      16.241  21.469  18.060  1.00  0.00     0.145 C 
HETATM   13  C25 UNL     1      17.469  22.102  18.480  1.00  0.00     0.147 C 
HETATM   14  N6  UNL     1      17.581  22.293  19.916  1.00  0.00    -0.339 N 
HETATM   15  C29 UNL     1      16.962  21.309  20.788  1.00  0.00     0.147 C 
HETATM   16  C30 UNL     1      15.456  21.372  20.461  1.00  0.00     0.145 C 
BRANCH  14  17
HETATM   17  C26 UNL     1      18.285  23.416  20.403  1.00  0.00     0.260 C 
BRANCH  17  18
HETATM   18  O7  UNL     1      17.616  24.530  20.338  1.00  0.00    -0.327 OA
ATOM     19  H7  UNL     1      16.916  24.598  20.976  1.00  0.00     0.221 HD
ENDBRANCH  17  18
BRANCH  17  20
HETATM   20  O8  UNL     1      19.538  23.452  20.917  1.00  0.00    -0.317 OA
BRANCH  20  21
HETATM   21  C27 UNL     1      20.432  24.498  20.542  1.00  0.00     0.175 C 
HETATM   22  C28 UNL     1      21.623  23.800  19.883  1.00  0.00     0.034 C 
ENDBRANCH  20  21
ENDBRANCH  17  20
ENDBRANCH  14  17
ENDBRANCH   8  11
ENDBRANCH   4   8
ENDBRANCH   3   4
ENDBRANCH   2   3
BRANCH   2  23
HETATM   23  O1  UNL     1       9.989  20.277  17.540  1.00  0.00    -0.336 OA
ATOM     24  H1  UNL     1       9.233  20.269  16.964  1.00  0.00     0.220 HD
ENDBRANCH   2  23
ENDBRANCH   1   2
BRANCH   1  25
HETATM   25  C7  UNL     1      10.658  19.015  14.713  1.00  0.00     0.056 C 
BRANCH  25  26
HETATM   26  C8  UNL     1      10.979  17.670  15.193  1.00  0.00     0.081 C 
BRANCH  26  27
HETATM   27  C9  UNL     1       9.948  16.908  15.829  1.00  0.00     0.123 C 
HETATM   28  C10 UNL     1      10.188  16.590  17.309  1.00  0.00     0.091 C 
HETATM   29  O2  UNL     1       8.920  16.482  15.396  1.00  0.00    -0.298 OA
ENDBRANCH  26  27
ENDBRANCH  25  26
ENDBRANCH   1  25
BRANCH   1  30
HETATM   30  N2  UNL     1      12.053  20.915  14.782  1.00  0.00    -0.410 NA
BRANCH  30  31
HETATM   31  C11 UNL     1      12.986  21.553  14.156  1.00  0.00     0.209 C 
BRANCH  31  32
HETATM   32  O3  UNL     1      12.887  22.720  13.575  1.00  0.00    -0.336 OA
ATOM     33  H3  UNL     1      13.427  23.053  12.868  1.00  0.00     0.220 HD
ENDBRANCH  31  32
BRANCH  31  34
HETATM   34  C12 UNL     1      14.397  21.012  13.974  1.00  0.00     0.071 C 
HETATM   35  C13 UNL     1      15.509  21.864  13.662  1.00  0.00     0.010 C 
BRANCH  35  36
HETATM   36  C14 UNL     1      16.303  22.601  14.639  1.00  0.00     0.056 C 
BRANCH  36  37
HETATM   37  C15 UNL     1      15.965  23.813  15.349  1.00  0.00     0.142 C 
BRANCH  37  38
HETATM   38  O4  UNL     1      14.708  23.884  15.762  1.00  0.00    -0.346 OA
ATOM     39  H4  UNL     1      14.428  23.164  16.313  1.00  0.00     0.219 HD
ENDBRANCH  37  38
BRANCH  37  40
HETATM   40  N3  UNL     1      16.780  24.903  15.667  1.00  0.00    -0.303 N 
ATOM     41  H3  UNL     1      17.078  25.491  14.889  1.00  0.00     0.171 HD
BRANCH  40  42
HETATM   42  C16 UNL     1      17.223  25.268  16.919  1.00  0.00     0.219 C 
BRANCH  42  43
HETATM   43  O5  UNL     1      16.182  25.257  17.802  1.00  0.00    -0.332 OA
ATOM     44  H5  UNL     1      16.267  25.981  18.412  1.00  0.00     0.220 HD
ENDBRANCH  42  43
BRANCH  42  45
HETATM   45  N4  UNL     1      18.381  25.648  17.558  1.00  0.00    -0.352 N 
ATOM     46  H4  UNL     1      18.302  26.134  18.451  1.00  0.00     0.163 HD
BRANCH  45  47
HETATM   47  C17 UNL     1      19.720  25.395  17.026  1.00  0.00     0.085 C 
HETATM   48  C18 UNL     1      20.395  26.697  16.637  1.00  0.00     0.025 C 
HETATM   49  C19 UNL     1      19.951  27.270  15.324  1.00  0.00     0.002 C 
HETATM   50  C20 UNL     1      19.968  26.246  14.225  1.00  0.00     0.000 C 
HETATM   51  C21 UNL     1      20.507  24.910  14.716  1.00  0.00     0.002 C 
HETATM   52  C22 UNL     1      19.746  24.393  15.933  1.00  0.00     0.025 C 
ENDBRANCH  45  47
ENDBRANCH  42  45
ENDBRANCH  40  42
ENDBRANCH  37  40
ENDBRANCH  36  37
ENDBRANCH  35  36
ENDBRANCH  31  34
ENDBRANCH  30  31
ENDBRANCH   1  30
TORSDOF 27
ENDMDL
MODEL 3
REMARK VINA RESULT: -8.185047174      1.391      1.822
REMARK  27 active torsions:
REMARK  status: ('A' for Active; 'I' for Inactive)
REMARK    1  A    between atoms: C2_2  and  C3_3 
REMARK    2  A    between atoms: C4_4  and  N1_5 
REMARK    3  A    between atoms: C4_4  and  C23_38 
REMARK    4  A    between atoms: N1_5  and  C5_6 
REMARK    5  A    between atoms: C5_6  and  O1_7 
REMARK    6  A    between atoms: C5_6  and  C6_9 
REMARK    7  A    between atoms: C6_9  and  C7_10 
REMARK    8  A    between atoms: C6_9  and  N2_15 
REMARK    9  A    between atoms: C7_10  and  C8_11 
REMARK   10  A    between atoms: C8_11  and  C9_12 
REMARK   11  A    between atoms: N2_15  and  C11_16 
REMARK   12  A    between atoms: C11_16  and  O3_17 
REMARK   13  A    between atoms: C11_16  and  C12_19 
REMARK   14  A    between atoms: C13_20  and  C14_21 
REMARK   15  A    between atoms: C14_21  and  C15_22 
REMARK   16  A    between atoms: C15_22  and  O4_23 
REMARK   17  A    between atoms: C15_22  and  N3_25 
REMARK   18  A    between atoms: N3_25  and  C16_27 
REMARK   19  A    between atoms: C16_27  and  O5_28 
REMARK   20  A    between atoms: C16_27  and  N4_30 
REMARK   21  A    between atoms: N4_30  and  C17_32 
REMARK   22  A    between atoms: C23_38  and  O6_39 
REMARK   23  A    between atoms: C23_38  and  N5_41 
REMARK   24  A    between atoms: N6_44  and  C26_45 
REMARK   25  A    between atoms: C26_45  and  O7_46 
REMARK   26  A    between atoms: C26_45  and  O8_48 
REMARK   27  A    between atoms: O8_48  and  C27_49 
ROOT
HETATM    1  C6  UNL     1      17.529  24.897  16.026  1.00  0.00     0.255 C 
ENDROOT
BRANCH   1   2
HETATM    2  C5  UNL     1      18.024  23.861  17.007  1.00  0.00     0.227 C 
BRANCH   2   3
HETATM    3  N1  UNL     1      17.545  23.291  17.991  1.00  0.00    -0.378 NA
BRANCH   3   4
HETATM    4  C4  UNL     1      17.089  22.694  18.998  1.00  0.00     0.156 C 
HETATM    5  C3  UNL     1      17.949  22.677  20.161  1.00  0.00     0.022 C 
BRANCH   5   6
HETATM    6  C2  UNL     1      18.288  21.471  20.926  1.00  0.00     0.026 C 
HETATM    7  C1  UNL     1      19.804  21.633  21.295  1.00  0.00     0.009 C 
ENDBRANCH   5   6
BRANCH   4   8
HETATM    8  C23 UNL     1      15.707  22.347  18.809  1.00  0.00     0.179 C 
BRANCH   8   9
HETATM    9  O6  UNL     1      15.014  23.527  18.506  1.00  0.00    -0.344 OA
ATOM     10  H6  UNL     1      14.088  23.354  18.630  1.00  0.00     0.219 HD
ENDBRANCH   8   9
BRANCH   8  11
HETATM   11  N5  UNL     1      14.780  21.321  18.795  1.00  0.00    -0.356 N 
HETATM   12  C24 UNL     1      15.030  20.351  19.905  1.00  0.00     0.145 C 
HETATM   13  C25 UNL     1      14.081  19.283  20.121  1.00  0.00     0.147 C 
HETATM   14  N6  UNL     1      12.980  19.262  19.174  1.00  0.00    -0.339 N 
HETATM   15  C29 UNL     1      13.236  19.712  17.816  1.00  0.00     0.147 C 
HETATM   16  C30 UNL     1      13.657  21.188  17.954  1.00  0.00     0.145 C 
BRANCH  14  17
HETATM   17  C26 UNL     1      11.716  18.804  19.606  1.00  0.00     0.260 C 
BRANCH  17  18
HETATM   18  O7  UNL     1      11.598  18.716  20.899  1.00  0.00    -0.327 OA
ATOM     19  H7  UNL     1      10.701  18.751  21.209  1.00  0.00     0.221 HD
ENDBRANCH  17  18
BRANCH  17  20
HETATM   20  O8  UNL     1      10.650  18.465  18.843  1.00  0.00    -0.317 OA
BRANCH  20  21
HETATM   21  C27 UNL     1      10.526  17.134  18.344  1.00  0.00     0.175 C 
HETATM   22  C28 UNL     1      10.390  17.279  16.827  1.00  0.00     0.034 C 
ENDBRANCH  20  21
ENDBRANCH  17  20
ENDBRANCH  14  17
ENDBRANCH   8  11
ENDBRANCH   4   8
ENDBRANCH   3   4
ENDBRANCH   2   3
BRANCH   2  23
HETATM   23  O1  UNL     1      19.291  23.554  16.682  1.00  0.00    -0.336 OA
ATOM     24  H1  UNL     1      19.671  24.019  15.947  1.00  0.00     0.220 HD
ENDBRANCH   2  23
ENDBRANCH   1   2
BRANCH   1  25
HETATM   25  C7  UNL     1      16.621  24.479  14.961  1.00  0.00     0.056 C 
BRANCH  25  26
HETATM   26  C8  UNL     1      15.574  23.483  15.192  1.00  0.00     0.081 C 
BRANCH  26  27
HETATM   27  C9  UNL     1      15.843  22.119  14.852  1.00  0.00     0.123 C 
HETATM   28  C10 UNL     1      15.461  21.714  13.423  1.00  0.00     0.091 C 
HETATM   29  O2  UNL     1      16.326  21.239  15.499  1.00  0.00    -0.298 OA
ENDBRANCH  26  27
ENDBRANCH  25  26
ENDBRANCH   1  25
BRANCH   1  30
HETATM   30  N2  UNL     1      18.526  25.769  15.484  1.00  0.00    -0.410 NA
BRANCH  30  31
HETATM   31  C11 UNL     1      19.423  26.557  14.994  1.00  0.00     0.209 C 
BRANCH  31  32
HETATM   32  O3  UNL     1      19.267  27.808  14.647  1.00  0.00    -0.336 OA
ATOM     33  H3  UNL     1      19.112  28.546  15.224  1.00  0.00     0.220 HD
ENDBRANCH  31  32
BRANCH  31  34
HETATM   34  C12 UNL     1      20.856  26.127  14.715  1.00  0.00     0.071 C 
HETATM   35  C13 UNL     1      21.922  27.075  14.551  1.00  0.00     0.010 C 
BRANCH  35  36
HETATM   36  C14 UNL     1      22.692  27.671  15.637  1.00  0.00     0.056 C 
BRANCH  36  37
HETATM   37  C15 UNL     1      23.039  27.100  16.917  1.00  0.00     0.142 C 
BRANCH  37  38
HETATM   38  O4  UNL     1      24.011  26.200  16.880  1.00  0.00    -0.346 OA
ATOM     39  H4  UNL     1      23.720  25.296  16.913  1.00  0.00     0.219 HD
ENDBRANCH  37  38
BRANCH  37  40
HETATM   40  N3  UNL     1      22.503  27.374  18.178  1.00  0.00    -0.303 N 
ATOM     41  H3  UNL     1      23.117  27.847  18.841  1.00  0.00     0.171 HD
BRANCH  40  42
HETATM   42  C16 UNL     1      21.234  27.075  18.621  1.00  0.00     0.219 C 
BRANCH  42  43
HETATM   43  O5  UNL     1      20.641  28.196  19.125  1.00  0.00    -0.332 OA
ATOM     44  H5  UNL     1      19.737  28.011  19.351  1.00  0.00     0.220 HD
ENDBRANCH  42  43
BRANCH  42  45
HETATM   45  N4  UNL     1      20.380  26.001  18.725  1.00  0.00    -0.352 N 
ATOM     46  H4  UNL     1      19.556  25.980  18.123  1.00  0.00     0.163 HD
BRANCH  45  47
HETATM   47  C17 UNL     1      20.587  24.887  19.649  1.00  0.00     0.085 C 
HETATM   48  C18 UNL     1      20.367  25.335  21.083  1.00  0.00     0.025 C 
HETATM   49  C19 UNL     1      21.511  26.090  21.690  1.00  0.00     0.002 C 
HETATM   50  C20 UNL     1      22.824  25.389  21.487  1.00  0.00     0.000 C 
HETATM   51  C21 UNL     1      22.639  24.052  20.784  1.00  0.00     0.002 C 
HETATM   52  C22 UNL     1      21.886  24.194  19.464  1.00  0.00     0.025 C 
ENDBRANCH  45  47
ENDBRANCH  42  45
ENDBRANCH  40  42
ENDBRANCH  37  40
ENDBRANCH  36  37
ENDBRANCH  35  36
ENDBRANCH  31  34
ENDBRANCH  30  31
ENDBRANCH   1  30
TORSDOF 27
ENDMDL
MODEL 4
REMARK VINA RESULT: -8.134084191      2.197      9.445
REMARK  27 active torsions:
REMARK  status: ('A' for Active; 'I' for Inactive)
REMARK    1  A    between atoms: C2_2  and  C3_3 
REMARK    2  A    between atoms: C4_4  and  N1_5 
REMARK    3  A    between atoms: C4_4  and  C23_38 
REMARK    4  A    between atoms: N1_5  and  C5_6 
REMARK    5  A    between atoms: C5_6  and  O1_7 
REMARK    6  A    between atoms: C5_6  and  C6_9 
REMARK    7  A    between atoms: C6_9  and  C7_10 
REMARK    8  A    between atoms: C6_9  and  N2_15 
REMARK    9  A    between atoms: C7_10  and  C8_11 
REMARK   10  A    between atoms: C8_11  and  C9_12 
REMARK   11  A    between atoms: N2_15  and  C11_16 
REMARK   12  A    between atoms: C11_16  and  O3_17 
REMARK   13  A    between atoms: C11_16  and  C12_19 
REMARK   14  A    between atoms: C13_20  and  C14_21 
REMARK   15  A    between atoms: C14_21  and  C15_22 
REMARK   16  A    between atoms: C15_22  and  O4_23 
REMARK   17  A    between atoms: C15_22  and  N3_25 
REMARK   18  A    between atoms: N3_25  and  C16_27 
REMARK   19  A    between atoms: C16_27  and  O5_28 
REMARK   20  A    between atoms: C16_27  and  N4_30 
REMARK   21  A    between atoms: N4_30  and  C17_32 
REMARK   22  A    between atoms: C23_38  and  O6_39 
REMARK   23  A    between atoms: C23_38  and  N5_41 
REMARK   24  A    between atoms: N6_44  and  C26_45 
REMARK   25  A    between atoms: C26_45  and  O7_46 
REMARK   26  A    between atoms: C26_45  and  O8_48 
REMARK   27  A    between atoms: O8_48  and  C27_49 
ROOT
HETATM    1  C6  UNL     1      16.426  23.200  15.412  1.00  0.00     0.255 C 
ENDROOT
BRANCH   1   2
HETATM    2  C5  UNL     1      16.907  22.293  16.519  1.00  0.00     0.227 C 
BRANCH   2   3
HETATM    3  N1  UNL     1      16.982  22.378  17.748  1.00  0.00    -0.378 NA
BRANCH   3   4
HETATM    4  C4  UNL     1      17.043  22.496  18.997  1.00  0.00     0.156 C 
HETATM    5  C3  UNL     1      16.582  21.356  19.759  1.00  0.00     0.022 C 
BRANCH   5   6
HETATM    6  C2  UNL     1      15.622  21.433  20.868  1.00  0.00     0.026 C 
HETATM    7  C1  UNL     1      15.736  20.051  21.602  1.00  0.00     0.009 C 
ENDBRANCH   5   6
BRANCH   4   8
HETATM    8  C23 UNL     1      17.766  23.682  19.367  1.00  0.00     0.179 C 
BRANCH   8   9
HETATM    9  O6  UNL     1      16.831  24.712  19.531  1.00  0.00    -0.344 OA
ATOM     10  H6  UNL     1      17.308  25.534  19.528  1.00  0.00     0.219 HD
ENDBRANCH   8   9
BRANCH   8  11
HETATM   11  N5  UNL     1      19.011  24.221  19.636  1.00  0.00    -0.356 N 
HETATM   12  C24 UNL     1      19.511  25.030  18.482  1.00  0.00     0.145 C 
HETATM   13  C25 UNL     1      20.740  25.774  18.635  1.00  0.00     0.147 C 
HETATM   14  N6  UNL     1      21.380  25.608  19.928  1.00  0.00    -0.339 N 
HETATM   15  C29 UNL     1      21.245  24.326  20.601  1.00  0.00     0.147 C 
HETATM   16  C30 UNL     1      19.732  24.159  20.845  1.00  0.00     0.145 C 
BRANCH  14  17
HETATM   17  C26 UNL     1      22.109  26.688  20.474  1.00  0.00     0.260 C 
BRANCH  17  18
HETATM   18  O7  UNL     1      23.069  27.119  19.709  1.00  0.00    -0.327 OA
ATOM     19  H7  UNL     1      23.183  28.062  19.726  1.00  0.00     0.221 HD
ENDBRANCH  17  18
BRANCH  17  20
HETATM   20  O8  UNL     1      21.914  27.304  21.664  1.00  0.00    -0.317 OA
BRANCH  20  21
HETATM   21  C27 UNL     1      21.881  26.537  22.866  1.00  0.00     0.175 C 
HETATM   22  C28 UNL     1      23.337  26.164  23.152  1.00  0.00     0.034 C 
ENDBRANCH  20  21
ENDBRANCH  17  20
ENDBRANCH  14  17
ENDBRANCH   8  11
ENDBRANCH   4   8
ENDBRANCH   3   4
ENDBRANCH   2   3
BRANCH   2  23
HETATM   23  O1  UNL     1      17.364  21.161  15.958  1.00  0.00    -0.336 OA
ATOM     24  H1  UNL     1      18.018  21.252  15.276  1.00  0.00     0.220 HD
ENDBRANCH   2  23
ENDBRANCH   1   2
BRANCH   1  25
HETATM   25  C7  UNL     1      17.012  24.532  15.290  1.00  0.00     0.056 C 
BRANCH  25  26
HETATM   26  C8  UNL     1      18.461  24.740  15.325  1.00  0.00     0.081 C 
BRANCH  26  27
HETATM   27  C9  UNL     1      18.980  26.003  14.896  1.00  0.00     0.123 C 
HETATM   28  C10 UNL     1      18.125  26.743  13.861  1.00  0.00     0.091 C 
HETATM   29  O2  UNL     1      19.973  26.583  15.218  1.00  0.00    -0.298 OA
ENDBRANCH  26  27
ENDBRANCH  25  26
ENDBRANCH   1  25
BRANCH   1  30
HETATM   30  N2  UNL     1      15.008  23.290  15.251  1.00  0.00    -0.410 NA
BRANCH  30  31
HETATM   31  C11 UNL     1      13.728  23.374  15.106  1.00  0.00     0.209 C 
BRANCH  31  32
HETATM   32  O3  UNL     1      12.882  23.969  15.906  1.00  0.00    -0.336 OA
ATOM     33  H3  UNL     1      12.388  23.572  16.613  1.00  0.00     0.220 HD
ENDBRANCH  31  32
BRANCH  31  34
HETATM   34  C12 UNL     1      12.972  22.749  13.942  1.00  0.00     0.071 C 
HETATM   35  C13 UNL     1      13.370  21.503  13.351  1.00  0.00     0.010 C 
BRANCH  35  36
HETATM   36  C14 UNL     1      12.993  20.181  13.838  1.00  0.00     0.056 C 
BRANCH  36  37
HETATM   37  C15 UNL     1      12.990  19.685  15.195  1.00  0.00     0.142 C 
BRANCH  37  38
HETATM   38  O4  UNL     1      12.114  18.721  15.434  1.00  0.00    -0.346 OA
ATOM     39  H4  UNL     1      12.492  17.904  15.736  1.00  0.00     0.219 HD
ENDBRANCH  37  38
BRANCH  37  40
HETATM   40  N3  UNL     1      13.788  20.073  16.275  1.00  0.00    -0.303 N 
ATOM     41  H3  UNL     1      14.797  20.072  16.120  1.00  0.00     0.171 HD
BRANCH  40  42
HETATM   42  C16 UNL     1      13.359  20.456  17.526  1.00  0.00     0.219 C 
BRANCH  42  43
HETATM   43  O5  UNL     1      13.748  21.741  17.778  1.00  0.00    -0.332 OA
ATOM     44  H5  UNL     1      12.988  22.279  17.964  1.00  0.00     0.220 HD
ENDBRANCH  42  43
BRANCH  42  45
HETATM   45  N4  UNL     1      12.670  19.950  18.605  1.00  0.00    -0.352 N 
ATOM     46  H4  UNL     1      11.716  20.276  18.764  1.00  0.00     0.163 HD
BRANCH  45  47
HETATM   47  C17 UNL     1      13.229  18.972  19.536  1.00  0.00     0.085 C 
HETATM   48  C18 UNL     1      13.656  17.716  18.798  1.00  0.00     0.025 C 
HETATM   49  C19 UNL     1      12.538  16.782  18.442  1.00  0.00     0.002 C 
HETATM   50  C20 UNL     1      11.641  16.500  19.614  1.00  0.00     0.000 C 
HETATM   51  C21 UNL     1      12.148  17.177  20.880  1.00  0.00     0.002 C 
HETATM   52  C22 UNL     1      12.346  18.678  20.691  1.00  0.00     0.025 C 
ENDBRANCH  45  47
ENDBRANCH  42  45
ENDBRANCH  40  42
ENDBRANCH  37  40
ENDBRANCH  36  37
ENDBRANCH  35  36
ENDBRANCH  31  34
ENDBRANCH  30  31
ENDBRANCH   1  30
TORSDOF 27
ENDMDL
MODEL 5
REMARK VINA RESULT: -8.060705915      1.193      1.725
REMARK  27 active torsions:
REMARK  status: ('A' for Active; 'I' for Inactive)
REMARK    1  A    between atoms: C2_2  and  C3_3 
REMARK    2  A    between atoms: C4_4  and  N1_5 
REMARK    3  A    between atoms: C4_4  and  C23_38 
REMARK    4  A    between atoms: N1_5  and  C5_6 
REMARK    5  A    between atoms: C5_6  and  O1_7 
REMARK    6  A    between atoms: C5_6  and  C6_9 
REMARK    7  A    between atoms: C6_9  and  C7_10 
REMARK    8  A    between atoms: C6_9  and  N2_15 
REMARK    9  A    between atoms: C7_10  and  C8_11 
REMARK   10  A    between atoms: C8_11  and  C9_12 
REMARK   11  A    between atoms: N2_15  and  C11_16 
REMARK   12  A    between atoms: C11_16  and  O3_17 
REMARK   13  A    between atoms: C11_16  and  C12_19 
REMARK   14  A    between atoms: C13_20  and  C14_21 
REMARK   15  A    between atoms: C14_21  and  C15_22 
REMARK   16  A    between atoms: C15_22  and  O4_23 
REMARK   17  A    between atoms: C15_22  and  N3_25 
REMARK   18  A    between atoms: N3_25  and  C16_27 
REMARK   19  A    between atoms: C16_27  and  O5_28 
REMARK   20  A    between atoms: C16_27  and  N4_30 
REMARK   21  A    between atoms: N4_30  and  C17_32 
REMARK   22  A    between atoms: C23_38  and  O6_39 
REMARK   23  A    between atoms: C23_38  and  N5_41 
REMARK   24  A    between atoms: N6_44  and  C26_45 
REMARK   25  A    between atoms: C26_45  and  O7_46 
REMARK   26  A    between atoms: C26_45  and  O8_48 
REMARK   27  A    between atoms: O8_48  and  C27_49 
ROOT
HETATM    1  C6  UNL     1      16.952  24.700  16.542  1.00  0.00     0.255 C 
ENDROOT
BRANCH   1   2
HETATM    2  C5  UNL     1      16.481  24.208  17.889  1.00  0.00     0.227 C 
BRANCH   2   3
HETATM    3  N1  UNL     1      16.643  23.177  18.549  1.00  0.00    -0.378 NA
BRANCH   3   4
HETATM    4  C4  UNL     1      16.837  22.122  19.202  1.00  0.00     0.156 C 
HETATM    5  C3  UNL     1      17.534  22.281  20.459  1.00  0.00     0.022 C 
BRANCH   5   6
HETATM    6  C2  UNL     1      18.697  21.484  20.870  1.00  0.00     0.026 C 
HETATM    7  C1  UNL     1      19.899  22.061  20.045  1.00  0.00     0.009 C 
ENDBRANCH   5   6
BRANCH   4   8
HETATM    8  C23 UNL     1      16.120  21.019  18.623  1.00  0.00     0.179 C 
BRANCH   8   9
HETATM    9  O6  UNL     1      16.957  20.424  17.671  1.00  0.00    -0.344 OA
ATOM     10  H6  UNL     1      16.781  19.491  17.679  1.00  0.00     0.219 HD
ENDBRANCH   8   9
BRANCH   8  11
HETATM   11  N5  UNL     1      14.939  20.298  18.628  1.00  0.00    -0.356 N 
HETATM   12  C24 UNL     1      15.120  18.970  19.290  1.00  0.00     0.145 C 
HETATM   13  C25 UNL     1      13.960  18.134  19.500  1.00  0.00     0.147 C 
HETATM   14  N6  UNL     1      12.721  18.694  18.989  1.00  0.00    -0.339 N 
HETATM   15  C29 UNL     1      12.784  19.524  17.797  1.00  0.00     0.147 C 
HETATM   16  C30 UNL     1      13.670  20.724  18.190  1.00  0.00     0.145 C 
BRANCH  14  17
HETATM   17  C26 UNL     1      11.513  18.407  19.662  1.00  0.00     0.260 C 
BRANCH  17  18
HETATM   18  O7  UNL     1      11.551  18.643  20.940  1.00  0.00    -0.327 OA
ATOM     19  H7  UNL     1      10.737  18.978  21.296  1.00  0.00     0.221 HD
ENDBRANCH  17  18
BRANCH  17  20
HETATM   20  O8  UNL     1      10.359  17.935  19.132  1.00  0.00    -0.317 OA
BRANCH  20  21
HETATM   21  C27 UNL     1      10.349  16.683  18.450  1.00  0.00     0.175 C 
HETATM   22  C28 UNL     1      10.113  17.023  16.977  1.00  0.00     0.034 C 
ENDBRANCH  20  21
ENDBRANCH  17  20
ENDBRANCH  14  17
ENDBRANCH   8  11
ENDBRANCH   4   8
ENDBRANCH   3   4
ENDBRANCH   2   3
BRANCH   2  23
HETATM   23  O1  UNL     1      15.691  25.154  18.423  1.00  0.00    -0.336 OA
ATOM     24  H1  UNL     1      15.818  26.044  18.117  1.00  0.00     0.220 HD
ENDBRANCH   2  23
ENDBRANCH   1   2
BRANCH   1  25
HETATM   25  C7  UNL     1      16.295  24.194  15.339  1.00  0.00     0.056 C 
BRANCH  25  26
HETATM   26  C8  UNL     1      16.746  22.970  14.675  1.00  0.00     0.081 C 
BRANCH  26  27
HETATM   27  C9  UNL     1      15.796  21.922  14.456  1.00  0.00     0.123 C 
HETATM   28  C10 UNL     1      15.403  21.692  12.992  1.00  0.00     0.091 C 
HETATM   29  O2  UNL     1      15.260  21.187  15.230  1.00  0.00    -0.298 OA
ENDBRANCH  26  27
ENDBRANCH  25  26
ENDBRANCH   1  25
BRANCH   1  30
HETATM   30  N2  UNL     1      18.368  24.705  16.340  1.00  0.00    -0.410 NA
BRANCH  30  31
HETATM   31  C11 UNL     1      19.646  24.710  16.157  1.00  0.00     0.209 C 
BRANCH  31  32
HETATM   32  O3  UNL     1      20.569  24.428  17.040  1.00  0.00    -0.336 OA
ATOM     33  H3  UNL     1      21.178  23.700  17.017  1.00  0.00     0.220 HD
ENDBRANCH  31  32
BRANCH  31  34
HETATM   34  C12 UNL     1      20.304  25.079  14.835  1.00  0.00     0.071 C 
HETATM   35  C13 UNL     1      19.936  26.254  14.098  1.00  0.00     0.010 C 
BRANCH  35  36
HETATM   36  C14 UNL     1      20.470  27.592  14.325  1.00  0.00     0.056 C 
BRANCH  36  37
HETATM   37  C15 UNL     1      21.692  27.975  14.993  1.00  0.00     0.142 C 
BRANCH  37  38
HETATM   38  O4  UNL     1      21.623  29.111  15.671  1.00  0.00    -0.346 OA
ATOM     39  H4  UNL     1      22.325  29.246  16.297  1.00  0.00     0.219 HD
ENDBRANCH  37  38
BRANCH  37  40
HETATM   40  N3  UNL     1      22.921  27.310  15.030  1.00  0.00    -0.303 N 
ATOM     41  H3  UNL     1      23.530  27.434  14.221  1.00  0.00     0.171 HD
BRANCH  40  42
HETATM   42  C16 UNL     1      23.397  26.507  16.042  1.00  0.00     0.219 C 
BRANCH  42  43
HETATM   43  O5  UNL     1      24.649  26.060  15.731  1.00  0.00    -0.332 OA
ATOM     44  H5  UNL     1      25.273  26.369  16.376  1.00  0.00     0.220 HD
ENDBRANCH  42  43
BRANCH  42  45
HETATM   45  N4  UNL     1      23.005  26.005  17.262  1.00  0.00    -0.352 N 
ATOM     46  H4  UNL     1      22.695  25.035  17.307  1.00  0.00     0.163 HD
BRANCH  45  47
HETATM   47  C17 UNL     1      23.010  26.787  18.498  1.00  0.00     0.085 C 
HETATM   48  C18 UNL     1      23.710  26.025  19.609  1.00  0.00     0.025 C 
HETATM   49  C19 UNL     1      22.886  24.952  20.255  1.00  0.00     0.002 C 
HETATM   50  C20 UNL     1      21.522  25.446  20.649  1.00  0.00     0.000 C 
HETATM   51  C21 UNL     1      21.362  26.931  20.358  1.00  0.00     0.002 C 
HETATM   52  C22 UNL     1      21.667  27.270  18.901  1.00  0.00     0.025 C 
ENDBRANCH  45  47
ENDBRANCH  42  45
ENDBRANCH  40  42
ENDBRANCH  37  40
ENDBRANCH  36  37
ENDBRANCH  35  36
ENDBRANCH  31  34
ENDBRANCH  30  31
ENDBRANCH   1  30
TORSDOF 27
ENDMDL
