MODEL 1
REMARK VINA RESULT: -9.476156531      0.000      0.000
REMARK  18 active torsions:
REMARK  status: ('A' for Active; 'I' for Inactive)
REMARK    1  A    between atoms: C2_2  and  C3_3 
REMARK    2  A    between atoms: C3_3  and  C4_4 
REMARK    3  A    between atoms: C4_4  and  N1_5 
REMARK    4  A    between atoms: C4_4  and  C19_28 
REMARK    5  A    between atoms: N1_5  and  C5_7 
REMARK    6  A    between atoms: C5_7  and  O1_8 
REMARK    7  A    between atoms: C5_7  and  C6_10 
REMARK    8  A    between atoms: N2_15  and  C11_16 
REMARK    9  A    between atoms: C11_16  and  O2_18 
REMARK   10  A    between atoms: C11_16  and  C13_20 
REMARK   11  A    between atoms: C13_20  and  C14_22 
REMARK   12  A    between atoms: C14_22  and  C15_24 
REMARK   13  A    between atoms: C19_28  and  C20_30 
REMARK       I    between atoms: C20_30  and  N3_32 
REMARK   14  A    between atoms: N3_32  and  C21_33 
REMARK   15  A    between atoms: C21_33  and  C22_34 
REMARK   16  A    between atoms: C22_34  and  N4_35 
REMARK   17  A    between atoms: N5_38  and  C25_39 
REMARK   18  A    between atoms: C25_39  and  C26_40 
ROOT
HETATM    1  C4  UNL     1      17.100  21.345  19.787  1.00  0.00     0.068 C 
ENDROOT
BRANCH   1   2
HETATM    2  C3  UNL     1      15.755  21.319  20.409  1.00  0.00     0.061 C 
BRANCH   2   3
HETATM    3  C2  UNL     1      15.364  20.211  21.313  1.00  0.00     0.002 C 
HETATM    4  C1  UNL     1      14.266  19.355  20.827  1.00  0.00     0.005 C 
ENDBRANCH   2   3
ENDBRANCH   1   2
BRANCH   1   5
HETATM    5  N1  UNL     1      17.352  20.755  18.521  1.00  0.00    -0.339 N 
ATOM      6  H1  UNL     1      17.370  19.739  18.442  1.00  0.00     0.167 HD
BRANCH   5   7
HETATM    7  C5  UNL     1      17.581  21.555  17.340  1.00  0.00     0.139 C 
BRANCH   7   8
HETATM    8  O1  UNL     1      18.381  20.948  16.480  1.00  0.00    -0.348 OA
ATOM      9  H1  UNL     1      18.316  21.322  15.609  1.00  0.00     0.219 HD
ENDBRANCH   7   8
BRANCH   7  10
HETATM   10  C6  UNL     1      17.137  22.822  16.916  1.00  0.00     0.161 C 
HETATM   11  C7  UNL     1      18.416  23.739  16.925  1.00  0.00     0.034 C 
HETATM   12  C8  UNL     1      17.987  25.171  17.038  1.00  0.00     0.007 C 
HETATM   13  C9  UNL     1      17.199  25.526  15.805  1.00  0.00     0.044 C 
HETATM   14  C10 UNL     1      16.826  24.301  15.007  1.00  0.00     0.062 C 
HETATM   15  N2  UNL     1      16.420  23.199  15.781  1.00  0.00    -0.344 N 
BRANCH  15  16
HETATM   16  C11 UNL     1      15.016  22.882  15.757  1.00  0.00     0.200 C 
HETATM   17  C12 UNL     1      14.423  22.707  17.109  1.00  0.00     0.080 C 
BRANCH  16  18
HETATM   18  O2  UNL     1      14.384  24.150  15.316  1.00  0.00    -0.364 OA
ATOM     19  H2  UNL     1      14.881  24.386  14.542  1.00  0.00     0.213 HD
ENDBRANCH  16  18
BRANCH  16  20
HETATM   20  C13 UNL     1      14.542  21.929  14.775  1.00  0.00     0.250 C 
HETATM   21  O3  UNL     1      15.310  21.085  14.211  1.00  0.00    -0.284 OA
BRANCH  20  22
HETATM   22  C14 UNL     1      13.144  21.866  14.354  1.00  0.00     0.207 C 
HETATM   23  O4  UNL     1      12.683  22.836  13.674  1.00  0.00    -0.288 OA
BRANCH  22  24
HETATM   24  C15 UNL     1      12.187  20.785  14.634  1.00  0.00     0.018 C 
HETATM   25  C16 UNL     1      12.445  20.089  15.935  1.00  0.00     0.023 C 
HETATM   26  C17 UNL     1      10.796  21.372  14.579  1.00  0.00     0.023 C 
HETATM   27  C18 UNL     1      12.329  19.677  13.569  1.00  0.00     0.023 C 
ENDBRANCH  22  24
ENDBRANCH  20  22
ENDBRANCH  16  20
ENDBRANCH  15  16
ENDBRANCH   7  10
ENDBRANCH   5   7
ENDBRANCH   1   5
BRANCH   1  28
HETATM   28  C19 UNL     1      18.025  22.304  20.382  1.00  0.00     0.276 C 
HETATM   29  O5  UNL     1      17.744  23.518  20.371  1.00  0.00    -0.279 OA
BRANCH  28  30
HETATM   30  C20 UNL     1      19.328  21.956  21.011  1.00  0.00     0.367 C 
HETATM   31  O6  UNL     1      19.233  20.964  21.786  1.00  0.00    -0.247 OA
HETATM   32  N3  UNL     1      20.526  22.613  20.779  1.00  0.00    -0.379 NA
BRANCH  32  33
HETATM   33  C21 UNL     1      21.695  23.251  20.554  1.00  0.00     0.189 C 
BRANCH  33  34
HETATM   34  C22 UNL     1      21.787  24.363  19.535  1.00  0.00     0.331 C 
BRANCH  34  35
HETATM   35  N4  UNL     1      22.682  25.427  19.880  1.00  0.00     0.097 N 
HETATM   36  C23 UNL     1      21.910  26.647  19.832  1.00  0.00     0.303 C 
HETATM   37  C24 UNL     1      21.486  27.098  18.461  1.00  0.00     0.302 C 
HETATM   38  N5  UNL     1      22.568  26.958  17.488  1.00  0.00     0.092 N 
HETATM   39  C32 UNL     1      23.784  26.887  18.292  1.00  0.00     0.302 C 
HETATM   40  C33 UNL     1      23.785  25.541  18.953  1.00  0.00     0.303 C 
BRANCH  38  41
HETATM   41  C25 UNL     1      22.558  28.118  16.620  1.00  0.00     0.277 C 
BRANCH  41  42
HETATM   42  C26 UNL     1      21.985  27.846  15.258  1.00  0.00     0.014 C 
HETATM   43  C27 UNL     1      20.481  28.073  15.245  1.00  0.00     0.006 C 
HETATM   44  C28 UNL     1      19.852  27.424  14.054  1.00  0.00     0.000 C 
HETATM   45  C29 UNL     1      20.084  25.936  13.998  1.00  0.00     0.000 C 
HETATM   46  C30 UNL     1      21.082  25.571  15.067  1.00  0.00     0.000 C 
HETATM   47  C31 UNL     1      22.308  26.429  14.825  1.00  0.00     0.006 C 
ENDBRANCH  41  42
ENDBRANCH  38  41
ENDBRANCH  34  35
ENDBRANCH  33  34
ENDBRANCH  32  33
ENDBRANCH  28  30
ENDBRANCH   1  28
TORSDOF 18
ENDMDL
MODEL 2
REMARK VINA RESULT: -9.360728820      2.155      9.599
REMARK  18 active torsions:
REMARK  status: ('A' for Active; 'I' for Inactive)
REMARK    1  A    between atoms: C2_2  and  C3_3 
REMARK    2  A    between atoms: C3_3  and  C4_4 
REMARK    3  A    between atoms: C4_4  and  N1_5 
REMARK    4  A    between atoms: C4_4  and  C19_28 
REMARK    5  A    between atoms: N1_5  and  C5_7 
REMARK    6  A    between atoms: C5_7  and  O1_8 
REMARK    7  A    between atoms: C5_7  and  C6_10 
REMARK    8  A    between atoms: N2_15  and  C11_16 
REMARK    9  A    between atoms: C11_16  and  O2_18 
REMARK   10  A    between atoms: C11_16  and  C13_20 
REMARK   11  A    between atoms: C13_20  and  C14_22 
REMARK   12  A    between atoms: C14_22  and  C15_24 
REMARK   13  A    between atoms: C19_28  and  C20_30 
REMARK       I    between atoms: C20_30  and  N3_32 
REMARK   14  A    between atoms: N3_32  and  C21_33 
REMARK   15  A    between atoms: C21_33  and  C22_34 
REMARK   16  A    between atoms: C22_34  and  N4_35 
REMARK   17  A    between atoms: N5_38  and  C25_39 
REMARK   18  A    between atoms: C25_39  and  C26_40 
ROOT
HETATM    1  C4  UNL     1      17.318  25.084  15.896  1.00  0.00     0.068 C 
ENDROOT
BRANCH   1   2
HETATM    2  C3  UNL     1      17.908  25.881  14.795  1.00  0.00     0.061 C 
BRANCH   2   3
HETATM    3  C2  UNL     1      19.364  26.164  14.766  1.00  0.00     0.002 C 
HETATM    4  C1  UNL     1      19.730  27.572  14.529  1.00  0.00     0.005 C 
ENDBRANCH   2   3
ENDBRANCH   1   2
BRANCH   1   5
HETATM    5  N1  UNL     1      17.418  25.490  17.252  1.00  0.00    -0.339 N 
ATOM      6  H1  UNL     1      17.943  26.335  17.479  1.00  0.00     0.167 HD
BRANCH   5   7
HETATM    7  C5  UNL     1      16.798  24.741  18.320  1.00  0.00     0.139 C 
BRANCH   7   8
HETATM    8  O1  UNL     1      15.546  25.117  18.524  1.00  0.00    -0.348 OA
ATOM      9  H1  UNL     1      15.205  24.782  19.345  1.00  0.00     0.219 HD
ENDBRANCH   7   8
BRANCH   7  10
HETATM   10  C6  UNL     1      17.235  23.709  19.172  1.00  0.00     0.161 C 
HETATM   11  C7  UNL     1      16.087  22.632  19.148  1.00  0.00     0.034 C 
HETATM   12  C8  UNL     1      16.175  21.800  20.392  1.00  0.00     0.007 C 
HETATM   13  C9  UNL     1      17.482  21.052  20.367  1.00  0.00     0.044 C 
HETATM   14  C10 UNL     1      18.409  21.580  19.300  1.00  0.00     0.062 C 
HETATM   15  N2  UNL     1      18.424  22.981  19.178  1.00  0.00    -0.344 N 
BRANCH  15  16
HETATM   16  C11 UNL     1      19.602  23.653  19.662  1.00  0.00     0.200 C 
HETATM   17  C12 UNL     1      19.361  24.470  20.880  1.00  0.00     0.080 C 
BRANCH  16  18
HETATM   18  O2  UNL     1      20.431  22.548  20.203  1.00  0.00    -0.364 OA
ATOM     19  H2  UNL     1      20.410  22.695  21.141  1.00  0.00     0.213 HD
ENDBRANCH  16  18
BRANCH  16  20
HETATM   20  C13 UNL     1      20.485  24.274  18.697  1.00  0.00     0.250 C 
HETATM   21  O3  UNL     1      20.302  24.183  17.441  1.00  0.00    -0.284 OA
BRANCH  20  22
HETATM   22  C14 UNL     1      21.657  25.052  19.093  1.00  0.00     0.207 C 
HETATM   23  O4  UNL     1      22.635  24.430  19.615  1.00  0.00    -0.288 OA
BRANCH  22  24
HETATM   24  C15 UNL     1      21.838  26.505  18.956  1.00  0.00     0.018 C 
HETATM   25  C16 UNL     1      20.760  27.162  18.152  1.00  0.00     0.023 C 
HETATM   26  C17 UNL     1      21.939  27.092  20.344  1.00  0.00     0.023 C 
HETATM   27  C18 UNL     1      23.136  26.794  18.171  1.00  0.00     0.023 C 
ENDBRANCH  22  24
ENDBRANCH  20  22
ENDBRANCH  16  20
ENDBRANCH  15  16
ENDBRANCH   7  10
ENDBRANCH   5   7
ENDBRANCH   1   5
BRANCH   1  28
HETATM   28  C19 UNL     1      16.347  24.084  15.466  1.00  0.00     0.276 C 
HETATM   29  O5  UNL     1      15.134  24.368  15.455  1.00  0.00    -0.279 OA
BRANCH  28  30
HETATM   30  C20 UNL     1      16.682  22.697  15.040  1.00  0.00     0.367 C 
HETATM   31  O6  UNL     1      17.698  22.247  15.638  1.00  0.00    -0.247 OA
HETATM   32  N3  UNL     1      15.970  21.956  14.111  1.00  0.00    -0.379 NA
BRANCH  32  33
HETATM   33  C21 UNL     1      15.278  21.230  13.206  1.00  0.00     0.189 C 
BRANCH  33  34
HETATM   34  C22 UNL     1      13.866  21.611  12.823  1.00  0.00     0.331 C 
BRANCH  34  35
HETATM   35  N4  UNL     1      12.851  20.718  13.296  1.00  0.00     0.097 N 
HETATM   36  C23 UNL     1      12.058  21.462  14.248  1.00  0.00     0.303 C 
HETATM   37  C24 UNL     1      12.740  21.794  15.547  1.00  0.00     0.302 C 
HETATM   38  N5  UNL     1      13.502  20.658  16.062  1.00  0.00     0.092 N 
HETATM   39  C32 UNL     1      12.938  19.495  15.385  1.00  0.00     0.302 C 
HETATM   40  C33 UNL     1      13.402  19.559  13.961  1.00  0.00     0.303 C 
BRANCH  38  41
HETATM   41  C25 UNL     1      13.316  20.593  17.498  1.00  0.00     0.277 C 
BRANCH  41  42
HETATM   42  C26 UNL     1      13.160  19.195  18.023  1.00  0.00     0.014 C 
HETATM   43  C27 UNL     1      11.852  19.043  18.785  1.00  0.00     0.006 C 
HETATM   44  C28 UNL     1      11.873  17.820  19.646  1.00  0.00     0.000 C 
HETATM   45  C29 UNL     1      12.987  17.829  20.660  1.00  0.00     0.000 C 
HETATM   46  C30 UNL     1      13.896  18.992  20.357  1.00  0.00     0.000 C 
HETATM   47  C31 UNL     1      14.333  18.834  18.914  1.00  0.00     0.006 C 
ENDBRANCH  41  42
ENDBRANCH  38  41
ENDBRANCH  34  35
ENDBRANCH  33  34
ENDBRANCH  32  33
ENDBRANCH  28  30
ENDBRANCH   1  28
TORSDOF 18
ENDMDL
MODEL 3
REMARK VINA RESULT: -9.249248930      1.618      4.005
REMARK  18 active torsions:
REMARK  status: ('A' for Active; 'I' for Inactive)
REMARK    1  A    between atoms: C2_2  and  C3_3 
REMARK    2  A    between atoms: C3_3  and  C4_4 
REMARK    3  A    between atoms: C4_4  and  N1_5 
REMARK    4  A    between atoms: C4_4  and  C19_28 
REMARK    5  A    between atoms: N1_5  and  C5_7 
REMARK    6  A    between atoms: C5_7  and  O1_8 
REMARK    7  A    between atoms: C5_7  and  C6_10 
REMARK    8  A    between atoms: N2_15  and  C11_16 
REMARK    9  A    between atoms: C11_16  and  O2_18 
REMARK   10  A    between atoms: C11_16  and  C13_20 
REMARK   11  A    between atoms: C13_20  and  C14_22 
REMARK   12  A    between atoms: C14_22  and  C15_24 
REMARK   13  A    between atoms: C19_28  and  C20_30 
REMARK       I    between atoms: C20_30  and  N3_32 
REMARK   14  A    between atoms: N3_32  and  C21_33 
REMARK   15  A    between atoms: C21_33  and  C22_34 
REMARK   16  A    between atoms: C22_34  and  N4_35 
REMARK   17  A    between atoms: N5_38  and  C25_39 
REMARK   18  A    between atoms: C25_39  and  C26_40 
ROOT
HETATM    1  C4  UNL     1      14.908  20.405  19.652  1.00  0.00     0.068 C 
ENDROOT
BRANCH   1   2
HETATM    2  C3  UNL     1      14.404  19.534  20.739  1.00  0.00     0.061 C 
BRANCH   2   3
HETATM    3  C2  UNL     1      13.634  18.306  20.426  1.00  0.00     0.002 C 
HETATM    4  C1  UNL     1      12.180  18.397  20.649  1.00  0.00     0.005 C 
ENDBRANCH   2   3
ENDBRANCH   1   2
BRANCH   1   5
HETATM    5  N1  UNL     1      14.070  20.844  18.594  1.00  0.00    -0.339 N 
ATOM      6  H1  UNL     1      13.494  21.674  18.730  1.00  0.00     0.167 HD
BRANCH   5   7
HETATM    7  C5  UNL     1      14.011  20.148  17.330  1.00  0.00     0.139 C 
BRANCH   7   8
HETATM    8  O1  UNL     1      14.770  19.065  17.326  1.00  0.00    -0.348 OA
ATOM      9  H1  UNL     1      14.467  18.417  17.952  1.00  0.00     0.219 HD
ENDBRANCH   7   8
BRANCH   7  10
HETATM   10  C6  UNL     1      13.323  20.372  16.121  1.00  0.00     0.161 C 
HETATM   11  C7  UNL     1      11.983  19.556  16.246  1.00  0.00     0.034 C 
HETATM   12  C8  UNL     1      11.460  19.269  14.870  1.00  0.00     0.007 C 
HETATM   13  C9  UNL     1      11.118  20.580  14.213  1.00  0.00     0.044 C 
HETATM   14  C10 UNL     1      11.674  21.754  14.982  1.00  0.00     0.062 C 
HETATM   15  N2  UNL     1      12.974  21.561  15.484  1.00  0.00    -0.344 N 
BRANCH  15  16
HETATM   16  C11 UNL     1      14.029  22.287  14.825  1.00  0.00     0.200 C 
HETATM   17  C12 UNL     1      13.993  22.172  13.344  1.00  0.00     0.080 C 
BRANCH  16  18
HETATM   18  O2  UNL     1      13.647  23.707  15.025  1.00  0.00    -0.364 OA
ATOM     19  H2  UNL     1      14.461  24.119  15.288  1.00  0.00     0.213 HD
ENDBRANCH  16  18
BRANCH  16  20
HETATM   20  C13 UNL     1      15.361  22.230  15.391  1.00  0.00     0.250 C 
HETATM   21  O3  UNL     1      16.196  21.318  15.092  1.00  0.00    -0.284 OA
BRANCH  20  22
HETATM   22  C14 UNL     1      15.847  23.217  16.353  1.00  0.00     0.207 C 
HETATM   23  O4  UNL     1      15.199  23.360  17.438  1.00  0.00    -0.288 OA
BRANCH  22  24
HETATM   24  C15 UNL     1      17.024  24.086  16.206  1.00  0.00     0.018 C 
HETATM   25  C16 UNL     1      18.312  23.326  16.116  1.00  0.00     0.023 C 
HETATM   26  C17 UNL     1      16.805  24.963  14.997  1.00  0.00     0.023 C 
HETATM   27  C18 UNL     1      17.182  24.962  17.467  1.00  0.00     0.023 C 
ENDBRANCH  22  24
ENDBRANCH  20  22
ENDBRANCH  16  20
ENDBRANCH  15  16
ENDBRANCH   7  10
ENDBRANCH   5   7
ENDBRANCH   1   5
BRANCH   1  28
HETATM   28  C19 UNL     1      16.184  21.053  19.937  1.00  0.00     0.276 C 
HETATM   29  O5  UNL     1      16.316  21.722  20.979  1.00  0.00    -0.279 OA
BRANCH  28  30
HETATM   30  C20 UNL     1      17.384  21.000  19.057  1.00  0.00     0.367 C 
HETATM   31  O6  UNL     1      17.221  20.222  18.076  1.00  0.00    -0.247 OA
HETATM   32  N3  UNL     1      18.550  21.722  19.254  1.00  0.00    -0.379 NA
BRANCH  32  33
HETATM   33  C21 UNL     1      19.688  22.424  19.444  1.00  0.00     0.189 C 
BRANCH  33  34
HETATM   34  C22 UNL     1      19.740  23.559  20.441  1.00  0.00     0.331 C 
BRANCH  34  35
HETATM   35  N4  UNL     1      21.059  23.966  20.824  1.00  0.00     0.097 N 
HETATM   36  C23 UNL     1      21.036  25.408  20.911  1.00  0.00     0.303 C 
HETATM   37  C24 UNL     1      20.908  26.139  19.603  1.00  0.00     0.302 C 
HETATM   38  N5  UNL     1      21.757  25.550  18.570  1.00  0.00     0.092 N 
HETATM   39  C32 UNL     1      22.759  24.783  19.304  1.00  0.00     0.302 C 
HETATM   40  C33 UNL     1      22.059  23.577  19.855  1.00  0.00     0.303 C 
BRANCH  38  41
HETATM   41  C25 UNL     1      22.353  26.622  17.797  1.00  0.00     0.277 C 
BRANCH  41  42
HETATM   42  C26 UNL     1      21.367  27.373  16.949  1.00  0.00     0.014 C 
HETATM   43  C27 UNL     1      20.533  26.417  16.108  1.00  0.00     0.006 C 
HETATM   44  C28 UNL     1      19.861  27.140  14.984  1.00  0.00     0.000 C 
HETATM   45  C29 UNL     1      20.831  27.826  14.058  1.00  0.00     0.000 C 
HETATM   46  C30 UNL     1      22.204  27.758  14.673  1.00  0.00     0.000 C 
HETATM   47  C31 UNL     1      22.089  28.364  16.058  1.00  0.00     0.006 C 
ENDBRANCH  41  42
ENDBRANCH  38  41
ENDBRANCH  34  35
ENDBRANCH  33  34
ENDBRANCH  32  33
ENDBRANCH  28  30
ENDBRANCH   1  28
TORSDOF 18
ENDMDL
MODEL 4
REMARK VINA RESULT: -9.237495187      2.403     10.243
REMARK  18 active torsions:
REMARK  status: ('A' for Active; 'I' for Inactive)
REMARK    1  A    between atoms: C2_2  and  C3_3 
REMARK    2  A    between atoms: C3_3  and  C4_4 
REMARK    3  A    between atoms: C4_4  and  N1_5 
REMARK    4  A    between atoms: C4_4  and  C19_28 
REMARK    5  A    between atoms: N1_5  and  C5_7 
REMARK    6  A    between atoms: C5_7  and  O1_8 
REMARK    7  A    between atoms: C5_7  and  C6_10 
REMARK    8  A    between atoms: N2_15  and  C11_16 
REMARK    9  A    between atoms: C11_16  and  O2_18 
REMARK   10  A    between atoms: C11_16  and  C13_20 
REMARK   11  A    between atoms: C13_20  and  C14_22 
REMARK   12  A    between atoms: C14_22  and  C15_24 
REMARK   13  A    between atoms: C19_28  and  C20_30 
REMARK       I    between atoms: C20_30  and  N3_32 
REMARK   14  A    between atoms: N3_32  and  C21_33 
REMARK   15  A    between atoms: C21_33  and  C22_34 
REMARK   16  A    between atoms: C22_34  and  N4_35 
REMARK   17  A    between atoms: N5_38  and  C25_39 
REMARK   18  A    between atoms: C25_39  and  C26_40 
ROOT
HETATM    1  C4  UNL     1      16.491  23.621  15.562  1.00  0.00     0.068 C 
ENDROOT
BRANCH   1   2
HETATM    2  C3  UNL     1      17.444  24.354  14.696  1.00  0.00     0.061 C 
BRANCH   2   3
HETATM    3  C2  UNL     1      17.429  25.835  14.644  1.00  0.00     0.002 C 
HETATM    4  C1  UNL     1      18.717  26.469  14.307  1.00  0.00     0.005 C 
ENDBRANCH   2   3
ENDBRANCH   1   2
BRANCH   1   5
HETATM    5  N1  UNL     1      15.690  24.288  16.526  1.00  0.00    -0.339 N 
ATOM      6  H1  UNL     1      15.136  25.094  16.238  1.00  0.00     0.167 HD
BRANCH   5   7
HETATM    7  C5  UNL     1      15.637  23.855  17.903  1.00  0.00     0.139 C 
BRANCH   7   8
HETATM    8  O1  UNL     1      14.448  24.070  18.443  1.00  0.00    -0.348 OA
ATOM      9  H1  UNL     1      13.951  23.265  18.537  1.00  0.00     0.219 HD
ENDBRANCH   7   8
BRANCH   7  10
HETATM   10  C6  UNL     1      16.566  23.259  18.777  1.00  0.00     0.161 C 
HETATM   11  C7  UNL     1      15.890  21.922  19.259  1.00  0.00     0.034 C 
HETATM   12  C8  UNL     1      16.505  21.509  20.562  1.00  0.00     0.007 C 
HETATM   13  C9  UNL     1      17.960  21.204  20.320  1.00  0.00     0.044 C 
HETATM   14  C10 UNL     1      18.416  21.687  18.965  1.00  0.00     0.062 C 
HETATM   15  N2  UNL     1      17.912  22.946  18.593  1.00  0.00    -0.344 N 
BRANCH  15  16
HETATM   16  C11 UNL     1      18.848  24.041  18.610  1.00  0.00     0.200 C 
HETATM   17  C12 UNL     1      19.748  24.071  17.428  1.00  0.00     0.080 C 
BRANCH  16  18
HETATM   18  O2  UNL     1      17.993  25.229  18.366  1.00  0.00    -0.364 OA
ATOM     19  H2  UNL     1      17.404  25.233  19.110  1.00  0.00     0.213 HD
ENDBRANCH  16  18
BRANCH  16  20
HETATM   20  C13 UNL     1      19.502  24.367  19.861  1.00  0.00     0.250 C 
HETATM   21  O3  UNL     1      18.856  24.680  20.911  1.00  0.00    -0.284 OA
BRANCH  20  22
HETATM   22  C14 UNL     1      20.955  24.366  20.010  1.00  0.00     0.207 C 
HETATM   23  O4  UNL     1      21.548  23.242  20.046  1.00  0.00    -0.288 OA
BRANCH  22  24
HETATM   24  C15 UNL     1      21.830  25.542  20.129  1.00  0.00     0.018 C 
HETATM   25  C16 UNL     1      21.279  26.760  19.456  1.00  0.00     0.023 C 
HETATM   26  C17 UNL     1      22.088  25.781  21.598  1.00  0.00     0.023 C 
HETATM   27  C18 UNL     1      23.165  25.270  19.402  1.00  0.00     0.023 C 
ENDBRANCH  22  24
ENDBRANCH  20  22
ENDBRANCH  16  20
ENDBRANCH  15  16
ENDBRANCH   7  10
ENDBRANCH   5   7
ENDBRANCH   1   5
BRANCH   1  28
HETATM   28  C19 UNL     1      16.181  22.267  15.115  1.00  0.00     0.276 C 
HETATM   29  O5  UNL     1      16.689  21.293  15.703  1.00  0.00    -0.279 OA
BRANCH  28  30
HETATM   30  C20 UNL     1      15.295  21.929  13.967  1.00  0.00     0.367 C 
HETATM   31  O6  UNL     1      15.936  21.429  13.001  1.00  0.00    -0.247 OA
HETATM   32  N3  UNL     1      13.922  22.113  13.940  1.00  0.00    -0.379 NA
BRANCH  32  33
HETATM   33  C21 UNL     1      12.583  22.290  13.911  1.00  0.00     0.189 C 
BRANCH  33  34
HETATM   34  C22 UNL     1      11.695  21.656  14.956  1.00  0.00     0.331 C 
BRANCH  34  35
HETATM   35  N4  UNL     1      10.889  20.570  14.486  1.00  0.00     0.097 N 
HETATM   36  C23 UNL     1       9.812  20.414  15.436  1.00  0.00     0.303 C 
HETATM   37  C24 UNL     1      10.205  19.882  16.787  1.00  0.00     0.302 C 
HETATM   38  N5  UNL     1      11.157  18.779  16.676  1.00  0.00     0.092 N 
HETATM   39  C32 UNL     1      11.007  18.294  15.308  1.00  0.00     0.302 C 
HETATM   40  C33 UNL     1      11.625  19.328  14.415  1.00  0.00     0.303 C 
BRANCH  38  41
HETATM   41  C25 UNL     1      10.804  17.767  17.652  1.00  0.00     0.277 C 
BRANCH  41  42
HETATM   42  C26 UNL     1      11.910  17.449  18.617  1.00  0.00     0.014 C 
HETATM   43  C27 UNL     1      11.430  17.573  20.056  1.00  0.00     0.006 C 
HETATM   44  C28 UNL     1      12.586  17.669  21.000  1.00  0.00     0.000 C 
HETATM   45  C29 UNL     1      13.483  18.847  20.719  1.00  0.00     0.000 C 
HETATM   46  C30 UNL     1      13.059  19.467  19.413  1.00  0.00     0.000 C 
HETATM   47  C31 UNL     1      13.096  18.362  18.377  1.00  0.00     0.006 C 
ENDBRANCH  41  42
ENDBRANCH  38  41
ENDBRANCH  34  35
ENDBRANCH  33  34
ENDBRANCH  32  33
ENDBRANCH  28  30
ENDBRANCH   1  28
TORSDOF 18
ENDMDL
MODEL 5
REMARK VINA RESULT: -9.223336543      1.937      4.196
REMARK  18 active torsions:
REMARK  status: ('A' for Active; 'I' for Inactive)
REMARK    1  A    between atoms: C2_2  and  C3_3 
REMARK    2  A    between atoms: C3_3  and  C4_4 
REMARK    3  A    between atoms: C4_4  and  N1_5 
REMARK    4  A    between atoms: C4_4  and  C19_28 
REMARK    5  A    between atoms: N1_5  and  C5_7 
REMARK    6  A    between atoms: C5_7  and  O1_8 
REMARK    7  A    between atoms: C5_7  and  C6_10 
REMARK    8  A    between atoms: N2_15  and  C11_16 
REMARK    9  A    between atoms: C11_16  and  O2_18 
REMARK   10  A    between atoms: C11_16  and  C13_20 
REMARK   11  A    between atoms: C13_20  and  C14_22 
REMARK   12  A    between atoms: C14_22  and  C15_24 
REMARK   13  A    between atoms: C19_28  and  C20_30 
REMARK       I    between atoms: C20_30  and  N3_32 
REMARK   14  A    between atoms: N3_32  and  C21_33 
REMARK   15  A    between atoms: C21_33  and  C22_34 
REMARK   16  A    between atoms: C22_34  and  N4_35 
REMARK   17  A    between atoms: N5_38  and  C25_39 
REMARK   18  A    between atoms: C25_39  and  C26_40 
ROOT
HETATM    1  C4  UNL     1      17.860  25.039  16.524  1.00  0.00     0.068 C 
ENDROOT
BRANCH   1   2
HETATM    2  C3  UNL     1      17.419  24.846  15.122  1.00  0.00     0.061 C 
BRANCH   2   3
HETATM    3  C2  UNL     1      17.429  25.980  14.167  1.00  0.00     0.002 C 
HETATM    4  C1  UNL     1      18.658  26.793  14.161  1.00  0.00     0.005 C 
ENDBRANCH   2   3
ENDBRANCH   1   2
BRANCH   1   5
HETATM    5  N1  UNL     1      16.947  25.375  17.557  1.00  0.00    -0.339 N 
ATOM      6  H1  UNL     1      16.821  26.356  17.807  1.00  0.00     0.167 HD
BRANCH   5   7
HETATM    7  C5  UNL     1      16.192  24.367  18.264  1.00  0.00     0.139 C 
BRANCH   7   8
HETATM    8  O1  UNL     1      14.945  24.749  18.485  1.00  0.00    -0.348 OA
ATOM      9  H1  UNL     1      14.318  24.088  18.216  1.00  0.00     0.219 HD
ENDBRANCH   7   8
BRANCH   7  10
HETATM   10  C6  UNL     1      16.496  23.083  18.755  1.00  0.00     0.161 C 
HETATM   11  C7  UNL     1      17.402  23.322  20.019  1.00  0.00     0.034 C 
HETATM   12  C8  UNL     1      18.214  22.088  20.275  1.00  0.00     0.007 C 
HETATM   13  C9  UNL     1      17.271  20.964  20.615  1.00  0.00     0.044 C 
HETATM   14  C10 UNL     1      15.838  21.323  20.303  1.00  0.00     0.062 C 
HETATM   15  N2  UNL     1      15.659  22.021  19.096  1.00  0.00    -0.344 N 
BRANCH  15  16
HETATM   16  C11 UNL     1      15.060  21.284  18.013  1.00  0.00     0.200 C 
HETATM   17  C12 UNL     1      14.851  19.845  18.318  1.00  0.00     0.080 C 
BRANCH  16  18
HETATM   18  O2  UNL     1      13.665  21.789  17.982  1.00  0.00    -0.364 OA
ATOM     19  H2  UNL     1      13.617  22.252  17.155  1.00  0.00     0.213 HD
ENDBRANCH  16  18
BRANCH  16  20
HETATM   20  C13 UNL     1      15.524  21.543  16.665  1.00  0.00     0.250 C 
HETATM   21  O3  UNL     1      16.700  21.250  16.276  1.00  0.00    -0.284 OA
BRANCH  20  22
HETATM   22  C14 UNL     1      14.677  22.163  15.650  1.00  0.00     0.207 C 
HETATM   23  O4  UNL     1      14.301  23.362  15.840  1.00  0.00    -0.288 OA
BRANCH  22  24
HETATM   24  C15 UNL     1      14.197  21.545  14.405  1.00  0.00     0.018 C 
HETATM   25  C16 UNL     1      15.234  21.504  13.326  1.00  0.00     0.023 C 
HETATM   26  C17 UNL     1      13.682  20.165  14.740  1.00  0.00     0.023 C 
HETATM   27  C18 UNL     1      13.056  22.398  13.809  1.00  0.00     0.023 C 
ENDBRANCH  22  24
ENDBRANCH  20  22
ENDBRANCH  16  20
ENDBRANCH  15  16
ENDBRANCH   7  10
ENDBRANCH   5   7
ENDBRANCH   1   5
BRANCH   1  28
HETATM   28  C19 UNL     1      19.191  24.517  16.819  1.00  0.00     0.276 C 
HETATM   29  O5  UNL     1      19.652  23.585  16.132  1.00  0.00    -0.279 OA
BRANCH  28  30
HETATM   30  C20 UNL     1      20.075  25.001  17.914  1.00  0.00     0.367 C 
HETATM   31  O6  UNL     1      20.082  26.261  17.998  1.00  0.00    -0.247 OA
HETATM   32  N3  UNL     1      20.802  24.190  18.769  1.00  0.00    -0.379 NA
BRANCH  32  33
HETATM   33  C21 UNL     1      21.512  23.401  19.605  1.00  0.00     0.189 C 
BRANCH  33  34
HETATM   34  C22 UNL     1      22.054  23.942  20.908  1.00  0.00     0.331 C 
BRANCH  34  35
HETATM   35  N4  UNL     1      23.476  24.103  20.950  1.00  0.00     0.097 N 
HETATM   36  C23 UNL     1      23.726  25.519  21.100  1.00  0.00     0.303 C 
HETATM   37  C24 UNL     1      23.402  26.369  19.902  1.00  0.00     0.302 C 
HETATM   38  N5  UNL     1      23.850  25.744  18.660  1.00  0.00     0.092 N 
HETATM   39  C32 UNL     1      24.855  24.771  19.074  1.00  0.00     0.302 C 
HETATM   40  C33 UNL     1      24.119  23.647  19.739  1.00  0.00     0.303 C 
BRANCH  38  41
HETATM   41  C25 UNL     1      24.408  26.771  17.803  1.00  0.00     0.277 C 
BRANCH  41  42
HETATM   42  C26 UNL     1      23.376  27.527  17.017  1.00  0.00     0.014 C 
HETATM   43  C27 UNL     1      22.775  26.653  15.926  1.00  0.00     0.006 C 
HETATM   44  C28 UNL     1      22.076  27.484  14.898  1.00  0.00     0.000 C 
HETATM   45  C29 UNL     1      22.983  28.482  14.227  1.00  0.00     0.000 C 
HETATM   46  C30 UNL     1      24.301  28.492  14.957  1.00  0.00     0.000 C 
HETATM   47  C31 UNL     1      23.987  28.776  16.413  1.00  0.00     0.006 C 
ENDBRANCH  41  42
ENDBRANCH  38  41
ENDBRANCH  34  35
ENDBRANCH  33  34
ENDBRANCH  32  33
ENDBRANCH  28  30
ENDBRANCH   1  28
TORSDOF 18
ENDMDL
