MODEL 1
REMARK VINA RESULT: -8.943438580      0.000      0.000
REMARK  16 active torsions:
REMARK  status: ('A' for Active; 'I' for Inactive)
REMARK    1  A    between atoms: O1_2  and  N1_3 
REMARK    2  A    between atoms: C2_5  and  C4_7 
REMARK       I    between atoms: C4_7  and  N2_9 
REMARK    3  A    between atoms: N2_9  and  C5_11 
REMARK    4  A    between atoms: C5_11  and  C6_12 
REMARK    5  A    between atoms: C5_11  and  C29_46 
REMARK    6  A    between atoms: C6_12  and  C7_14 
REMARK    7  A    between atoms: C7_14  and  C8_15 
REMARK       I    between atoms: C8_15  and  N3_17 
REMARK    8  A    between atoms: N3_17  and  C9_19 
REMARK    9  A    between atoms: C9_19  and  C10_20 
REMARK   10  A    between atoms: C9_19  and  C26_43 
REMARK   11  A    between atoms: C10_20  and  C11_22 
REMARK       I    between atoms: C11_22  and  N4_24 
REMARK   12  A    between atoms: C15_28  and  C16_29 
REMARK       I    between atoms: C16_29  and  N5_31 
REMARK   13  A    between atoms: N5_31  and  C17_33 
REMARK   14  A    between atoms: C17_33  and  C18_34 
REMARK   15  A    between atoms: C17_33  and  C23_40 
REMARK   16  A    between atoms: C18_34  and  C19_36 
ROOT
HETATM    1  C9  UNL     1      15.204  21.418  16.452  1.00  0.00     0.167 C 
ENDROOT
BRANCH   1   2
HETATM    2  N3  UNL     1      16.402  22.250  16.461  1.00  0.00    -0.348 N 
HETATM    3  C8  UNL     1      17.675  21.689  16.744  1.00  0.00     0.225 C 
HETATM    4  O4  UNL     1      17.711  20.455  16.982  1.00  0.00    -0.273 OA
ATOM      5  H3  UNL     1      16.324  23.247  16.262  1.00  0.00     0.163 HD
BRANCH   3   6
HETATM    6  C7  UNL     1      18.897  22.549  16.753  1.00  0.00     0.183 C 
BRANCH   6   7
HETATM    7  C6  UNL     1      18.847  23.587  17.797  1.00  0.00     0.158 C 
HETATM    8  O3  UNL     1      18.102  24.557  17.580  1.00  0.00    -0.295 OA
BRANCH   7   9
HETATM    9  C5  UNL     1      19.593  23.592  19.066  1.00  0.00     0.158 C 
BRANCH   9  10
HETATM   10  N2  UNL     1      19.796  24.990  19.495  1.00  0.00    -0.344 N 
HETATM   11  C4  UNL     1      20.994  25.379  20.095  1.00  0.00     0.266 C 
HETATM   12  O2  UNL     1      21.953  24.562  20.297  1.00  0.00    -0.266 OA
ATOM     13  H2  UNL     1      19.055  25.676  19.351  1.00  0.00     0.163 HD
BRANCH  11  14
HETATM   14  C2  UNL     1      21.227  26.743  20.531  1.00  0.00     0.095 C 
HETATM   15  N1  UNL     1      21.135  27.776  19.778  1.00  0.00    -0.266 N 
ATOM     16  H1  UNL     1      21.328  28.682  20.207  1.00  0.00     0.194 HD
HETATM   17  C3  UNL     1      21.608  26.982  21.951  1.00  0.00     0.076 C 
BRANCH  15  18
HETATM   18  O1  UNL     1      20.801  27.773  18.457  1.00  0.00    -0.285 OA
HETATM   19  C1  UNL     1      21.820  27.487  17.490  1.00  0.00     0.237 C 
ENDBRANCH  15  18
ENDBRANCH  11  14
ENDBRANCH   9  10
BRANCH   9  20
HETATM   20  C29 UNL     1      18.972  22.815  20.191  1.00  0.00     0.007 C 
HETATM   21  C30 UNL     1      17.466  22.777  20.126  1.00  0.00     0.012 C 
HETATM   22  C31 UNL     1      19.501  21.426  20.334  1.00  0.00     0.012 C 
ENDBRANCH   9  20
ENDBRANCH   7   9
ENDBRANCH   6   7
ENDBRANCH   3   6
ENDBRANCH   1   2
BRANCH   1  23
HETATM   23  C10 UNL     1      14.574  21.401  15.114  1.00  0.00     0.239 C 
HETATM   24  O5  UNL     1      15.288  21.023  14.151  1.00  0.00    -0.285 OA
BRANCH  23  25
HETATM   25  C11 UNL     1      13.207  21.790  14.854  1.00  0.00     0.292 C 
HETATM   26  O6  UNL     1      13.039  23.044  14.623  1.00  0.00    -0.264 OA
HETATM   27  N4  UNL     1      12.089  20.947  14.833  1.00  0.00    -0.332 N 
HETATM   28  C12 UNL     1      10.724  21.470  14.588  1.00  0.00     0.127 C 
HETATM   29  C15 UNL     1      11.979  19.536  14.997  1.00  0.00     0.179 C 
HETATM   30  C13 UNL     1       9.910  20.302  14.133  1.00  0.00     0.022 C 
HETATM   31  C14 UNL     1      10.879  19.169  14.030  1.00  0.00     0.037 C 
BRANCH  29  32
HETATM   32  C16 UNL     1      11.592  19.082  16.343  1.00  0.00     0.241 C 
HETATM   33  O7  UNL     1      11.215  19.908  17.226  1.00  0.00    -0.271 OA
HETATM   34  N5  UNL     1      11.649  17.703  16.639  1.00  0.00    -0.347 N 
ATOM     35  H5  UNL     1      11.951  17.070  15.899  1.00  0.00     0.163 HD
BRANCH  34  36
HETATM   36  C17 UNL     1      11.304  17.122  17.934  1.00  0.00     0.158 C 
BRANCH  36  37
HETATM   37  C18 UNL     1      12.541  17.087  18.752  1.00  0.00     0.157 C 
HETATM   38  O8  UNL     1      13.590  16.685  18.195  1.00  0.00    -0.295 OA
BRANCH  37  39
HETATM   39  C19 UNL     1      12.669  17.481  20.152  1.00  0.00     0.012 C 
HETATM   40  C20 UNL     1      14.104  17.984  20.398  1.00  0.00     0.022 C 
HETATM   41  C21 UNL     1      12.304  16.486  21.191  1.00  0.00     0.022 C 
HETATM   42  C22 UNL     1      11.801  18.724  20.372  1.00  0.00     0.022 C 
ENDBRANCH  37  39
ENDBRANCH  36  37
BRANCH  36  43
HETATM   43  C23 UNL     1      10.793  15.707  17.653  1.00  0.00     0.007 C 
HETATM   44  C24 UNL     1      10.929  15.336  16.200  1.00  0.00     0.012 C 
HETATM   45  C25 UNL     1       9.298  15.646  17.992  1.00  0.00     0.012 C 
ENDBRANCH  36  43
ENDBRANCH  34  36
ENDBRANCH  29  32
ENDBRANCH  23  25
ENDBRANCH   1  23
BRANCH   1  46
HETATM   46  C26 UNL     1      14.209  21.938  17.476  1.00  0.00     0.008 C 
HETATM   47  C27 UNL     1      14.129  20.960  18.658  1.00  0.00     0.012 C 
HETATM   48  C28 UNL     1      14.458  23.341  17.911  1.00  0.00     0.012 C 
ENDBRANCH   1  46
TORSDOF 16
ENDMDL
MODEL 2
REMARK VINA RESULT: -8.880779760      1.628      2.458
REMARK  16 active torsions:
REMARK  status: ('A' for Active; 'I' for Inactive)
REMARK    1  A    between atoms: O1_2  and  N1_3 
REMARK    2  A    between atoms: C2_5  and  C4_7 
REMARK       I    between atoms: C4_7  and  N2_9 
REMARK    3  A    between atoms: N2_9  and  C5_11 
REMARK    4  A    between atoms: C5_11  and  C6_12 
REMARK    5  A    between atoms: C5_11  and  C29_46 
REMARK    6  A    between atoms: C6_12  and  C7_14 
REMARK    7  A    between atoms: C7_14  and  C8_15 
REMARK       I    between atoms: C8_15  and  N3_17 
REMARK    8  A    between atoms: N3_17  and  C9_19 
REMARK    9  A    between atoms: C9_19  and  C10_20 
REMARK   10  A    between atoms: C9_19  and  C26_43 
REMARK   11  A    between atoms: C10_20  and  C11_22 
REMARK       I    between atoms: C11_22  and  N4_24 
REMARK   12  A    between atoms: C15_28  and  C16_29 
REMARK       I    between atoms: C16_29  and  N5_31 
REMARK   13  A    between atoms: N5_31  and  C17_33 
REMARK   14  A    between atoms: C17_33  and  C18_34 
REMARK   15  A    between atoms: C17_33  and  C23_40 
REMARK   16  A    between atoms: C18_34  and  C19_36 
ROOT
HETATM    1  C9  UNL     1      15.342  21.603  16.570  1.00  0.00     0.167 C 
ENDROOT
BRANCH   1   2
HETATM    2  N3  UNL     1      16.517  22.466  16.554  1.00  0.00    -0.348 N 
HETATM    3  C8  UNL     1      17.822  21.920  16.681  1.00  0.00     0.225 C 
HETATM    4  O4  UNL     1      17.904  20.672  16.807  1.00  0.00    -0.273 OA
ATOM      5  H3  UNL     1      16.401  23.474  16.449  1.00  0.00     0.163 HD
BRANCH   3   6
HETATM    6  C7  UNL     1      19.021  22.811  16.666  1.00  0.00     0.183 C 
BRANCH   6   7
HETATM    7  C6  UNL     1      18.712  24.179  17.115  1.00  0.00     0.158 C 
HETATM    8  O3  UNL     1      17.992  24.285  18.121  1.00  0.00    -0.295 OA
BRANCH   7   9
HETATM    9  C5  UNL     1      19.166  25.432  16.488  1.00  0.00     0.158 C 
BRANCH   9  10
HETATM   10  N2  UNL     1      20.637  25.509  16.586  1.00  0.00    -0.344 N 
HETATM   11  C4  UNL     1      21.242  26.486  17.377  1.00  0.00     0.266 C 
HETATM   12  O2  UNL     1      20.568  27.341  18.041  1.00  0.00    -0.266 OA
ATOM     13  H2  UNL     1      21.215  24.843  16.072  1.00  0.00     0.163 HD
BRANCH  11  14
HETATM   14  C2  UNL     1      22.684  26.593  17.495  1.00  0.00     0.095 C 
HETATM   15  N1  UNL     1      23.488  26.749  16.510  1.00  0.00    -0.266 N 
ATOM     16  H1  UNL     1      24.484  26.807  16.727  1.00  0.00     0.194 HD
HETATM   17  C3  UNL     1      23.297  26.512  18.851  1.00  0.00     0.076 C 
BRANCH  15  18
HETATM   18  O1  UNL     1      23.132  26.846  15.198  1.00  0.00    -0.285 OA
HETATM   19  C1  UNL     1      22.822  28.140  14.662  1.00  0.00     0.237 C 
ENDBRANCH  15  18
ENDBRANCH  11  14
ENDBRANCH   9  10
BRANCH   9  20
HETATM   20  C29 UNL     1      18.755  25.632  15.058  1.00  0.00     0.007 C 
HETATM   21  C30 UNL     1      17.263  25.551  14.852  1.00  0.00     0.012 C 
HETATM   22  C31 UNL     1      19.275  26.891  14.446  1.00  0.00     0.012 C 
ENDBRANCH   9  20
ENDBRANCH   7   9
ENDBRANCH   6   7
ENDBRANCH   3   6
ENDBRANCH   1   2
BRANCH   1  23
HETATM   23  C10 UNL     1      14.717  21.525  15.232  1.00  0.00     0.239 C 
HETATM   24  O5  UNL     1      15.436  21.113  14.288  1.00  0.00    -0.285 OA
BRANCH  23  25
HETATM   25  C11 UNL     1      13.347  21.891  14.951  1.00  0.00     0.292 C 
HETATM   26  O6  UNL     1      13.159  23.146  14.737  1.00  0.00    -0.264 OA
HETATM   27  N4  UNL     1      12.247  21.026  14.896  1.00  0.00    -0.332 N 
HETATM   28  C12 UNL     1      10.876  21.527  14.633  1.00  0.00     0.127 C 
HETATM   29  C15 UNL     1      12.162  19.612  15.036  1.00  0.00     0.179 C 
HETATM   30  C13 UNL     1      10.094  20.350  14.144  1.00  0.00     0.022 C 
HETATM   31  C14 UNL     1      11.088  19.238  14.043  1.00  0.00     0.037 C 
BRANCH  29  32
HETATM   32  C16 UNL     1      11.758  19.129  16.367  1.00  0.00     0.241 C 
HETATM   33  O7  UNL     1      11.513  19.941  17.308  1.00  0.00    -0.271 OA
HETATM   34  N5  UNL     1      11.649  17.738  16.583  1.00  0.00    -0.347 N 
ATOM     35  H5  UNL     1      11.848  17.118  15.797  1.00  0.00     0.163 HD
BRANCH  34  36
HETATM   36  C17 UNL     1      11.269  17.128  17.854  1.00  0.00     0.158 C 
BRANCH  36  37
HETATM   37  C18 UNL     1      12.485  17.071  18.703  1.00  0.00     0.157 C 
HETATM   38  O8  UNL     1      13.494  16.498  18.228  1.00  0.00    -0.295 OA
BRANCH  37  39
HETATM   39  C19 UNL     1      12.633  17.624  20.046  1.00  0.00     0.012 C 
HETATM   40  C20 UNL     1      12.346  16.514  21.076  1.00  0.00     0.022 C 
HETATM   41  C21 UNL     1      11.849  18.837  20.389  1.00  0.00     0.022 C 
HETATM   42  C22 UNL     1      14.114  17.950  20.261  1.00  0.00     0.022 C 
ENDBRANCH  37  39
ENDBRANCH  36  37
BRANCH  36  43
HETATM   43  C23 UNL     1      10.764  15.720  17.526  1.00  0.00     0.007 C 
HETATM   44  C24 UNL     1      10.782  15.444  16.046  1.00  0.00     0.012 C 
HETATM   45  C25 UNL     1       9.306  15.600  17.987  1.00  0.00     0.012 C 
ENDBRANCH  36  43
ENDBRANCH  34  36
ENDBRANCH  29  32
ENDBRANCH  23  25
ENDBRANCH   1  23
BRANCH   1  46
HETATM   46  C26 UNL     1      14.330  22.131  17.573  1.00  0.00     0.008 C 
HETATM   47  C27 UNL     1      14.292  21.207  18.801  1.00  0.00     0.012 C 
HETATM   48  C28 UNL     1      14.525  23.562  17.941  1.00  0.00     0.012 C 
ENDBRANCH   1  46
TORSDOF 16
ENDMDL
MODEL 3
REMARK VINA RESULT: -8.857372795      1.679      2.512
REMARK  16 active torsions:
REMARK  status: ('A' for Active; 'I' for Inactive)
REMARK    1  A    between atoms: O1_2  and  N1_3 
REMARK    2  A    between atoms: C2_5  and  C4_7 
REMARK       I    between atoms: C4_7  and  N2_9 
REMARK    3  A    between atoms: N2_9  and  C5_11 
REMARK    4  A    between atoms: C5_11  and  C6_12 
REMARK    5  A    between atoms: C5_11  and  C29_46 
REMARK    6  A    between atoms: C6_12  and  C7_14 
REMARK    7  A    between atoms: C7_14  and  C8_15 
REMARK       I    between atoms: C8_15  and  N3_17 
REMARK    8  A    between atoms: N3_17  and  C9_19 
REMARK    9  A    between atoms: C9_19  and  C10_20 
REMARK   10  A    between atoms: C9_19  and  C26_43 
REMARK   11  A    between atoms: C10_20  and  C11_22 
REMARK       I    between atoms: C11_22  and  N4_24 
REMARK   12  A    between atoms: C15_28  and  C16_29 
REMARK       I    between atoms: C16_29  and  N5_31 
REMARK   13  A    between atoms: N5_31  and  C17_33 
REMARK   14  A    between atoms: C17_33  and  C18_34 
REMARK   15  A    between atoms: C17_33  and  C23_40 
REMARK   16  A    between atoms: C18_34  and  C19_36 
ROOT
HETATM    1  C9  UNL     1      15.151  21.423  16.425  1.00  0.00     0.167 C 
ENDROOT
BRANCH   1   2
HETATM    2  N3  UNL     1      16.423  22.133  16.386  1.00  0.00    -0.348 N 
HETATM    3  C8  UNL     1      17.604  21.539  16.904  1.00  0.00     0.225 C 
HETATM    4  O4  UNL     1      17.492  20.386  17.390  1.00  0.00    -0.273 OA
ATOM      5  H3  UNL     1      16.466  23.069  15.981  1.00  0.00     0.163 HD
BRANCH   3   6
HETATM    6  C7  UNL     1      18.903  22.274  16.862  1.00  0.00     0.183 C 
BRANCH   6   7
HETATM    7  C6  UNL     1      18.886  23.497  17.684  1.00  0.00     0.158 C 
HETATM    8  O3  UNL     1      17.907  23.649  18.433  1.00  0.00    -0.295 OA
BRANCH   7   9
HETATM    9  C5  UNL     1      19.908  24.557  17.702  1.00  0.00     0.158 C 
BRANCH   9  10
HETATM   10  N2  UNL     1      19.419  25.704  16.912  1.00  0.00    -0.344 N 
HETATM   11  C4  UNL     1      19.671  25.778  15.542  1.00  0.00     0.266 C 
HETATM   12  O2  UNL     1      20.320  24.876  14.917  1.00  0.00    -0.266 OA
ATOM     13  H2  UNL     1      18.894  26.449  17.372  1.00  0.00     0.163 HD
BRANCH  11  14
HETATM   14  C2  UNL     1      19.208  26.892  14.735  1.00  0.00     0.095 C 
HETATM   15  N1  UNL     1      19.697  28.076  14.777  1.00  0.00    -0.266 N 
ATOM     16  H1  UNL     1      19.279  28.773  14.159  1.00  0.00     0.194 HD
HETATM   17  C3  UNL     1      18.081  26.668  13.788  1.00  0.00     0.076 C 
BRANCH  15  18
HETATM   18  O1  UNL     1      20.726  28.487  15.571  1.00  0.00    -0.285 OA
HETATM   19  C1  UNL     1      22.050  28.517  15.022  1.00  0.00     0.237 C 
ENDBRANCH  15  18
ENDBRANCH  11  14
ENDBRANCH   9  10
BRANCH   9  20
HETATM   20  C29 UNL     1      20.328  25.035  19.061  1.00  0.00     0.007 C 
HETATM   21  C30 UNL     1      21.071  23.989  19.855  1.00  0.00     0.012 C 
HETATM   22  C31 UNL     1      21.118  26.302  19.043  1.00  0.00     0.012 C 
ENDBRANCH   9  20
ENDBRANCH   7   9
ENDBRANCH   6   7
ENDBRANCH   3   6
ENDBRANCH   1   2
BRANCH   1  23
HETATM   23  C10 UNL     1      14.512  21.394  15.091  1.00  0.00     0.239 C 
HETATM   24  O5  UNL     1      15.223  21.020  14.125  1.00  0.00    -0.285 OA
BRANCH  23  25
HETATM   25  C11 UNL     1      13.139  21.767  14.838  1.00  0.00     0.292 C 
HETATM   26  O6  UNL     1      12.957  23.018  14.600  1.00  0.00    -0.264 OA
HETATM   27  N4  UNL     1      12.030  20.912  14.832  1.00  0.00    -0.332 N 
HETATM   28  C12 UNL     1      10.657  21.420  14.594  1.00  0.00     0.127 C 
HETATM   29  C15 UNL     1      11.936  19.502  15.007  1.00  0.00     0.179 C 
HETATM   30  C13 UNL     1       9.852  20.240  14.153  1.00  0.00     0.022 C 
HETATM   31  C14 UNL     1      10.832  19.116  14.051  1.00  0.00     0.037 C 
BRANCH  29  32
HETATM   32  C16 UNL     1      11.563  19.054  16.360  1.00  0.00     0.241 C 
HETATM   33  O7  UNL     1      11.220  19.886  17.251  1.00  0.00    -0.271 OA
HETATM   34  N5  UNL     1      11.595  17.674  16.652  1.00  0.00    -0.347 N 
ATOM     35  H5  UNL     1      11.870  17.035  15.905  1.00  0.00     0.163 HD
BRANCH  34  36
HETATM   36  C17 UNL     1      11.261  17.098  17.952  1.00  0.00     0.158 C 
BRANCH  36  37
HETATM   37  C18 UNL     1      12.510  17.042  18.751  1.00  0.00     0.157 C 
HETATM   38  O8  UNL     1      13.531  16.573  18.194  1.00  0.00    -0.295 OA
BRANCH  37  39
HETATM   39  C19 UNL     1      12.679  17.487  20.132  1.00  0.00     0.012 C 
HETATM   40  C20 UNL     1      14.119  18.005  20.314  1.00  0.00     0.022 C 
HETATM   41  C21 UNL     1      12.353  16.528  21.216  1.00  0.00     0.022 C 
HETATM   42  C22 UNL     1      11.812  18.733  20.334  1.00  0.00     0.022 C 
ENDBRANCH  37  39
ENDBRANCH  36  37
BRANCH  36  43
HETATM   43  C23 UNL     1      10.723  15.691  17.679  1.00  0.00     0.007 C 
HETATM   44  C24 UNL     1      10.897  15.290  16.238  1.00  0.00     0.012 C 
HETATM   45  C25 UNL     1       9.217  15.674  17.970  1.00  0.00     0.012 C 
ENDBRANCH  36  43
ENDBRANCH  34  36
ENDBRANCH  29  32
ENDBRANCH  23  25
ENDBRANCH   1  23
BRANCH   1  46
HETATM   46  C26 UNL     1      14.218  22.093  17.420  1.00  0.00     0.008 C 
HETATM   47  C27 UNL     1      14.105  21.226  18.684  1.00  0.00     0.012 C 
HETATM   48  C28 UNL     1      14.569  23.508  17.728  1.00  0.00     0.012 C 
ENDBRANCH   1  46
TORSDOF 16
ENDMDL
MODEL 4
REMARK VINA RESULT: -8.826970453      2.168      3.856
REMARK  16 active torsions:
REMARK  status: ('A' for Active; 'I' for Inactive)
REMARK    1  A    between atoms: O1_2  and  N1_3 
REMARK    2  A    between atoms: C2_5  and  C4_7 
REMARK       I    between atoms: C4_7  and  N2_9 
REMARK    3  A    between atoms: N2_9  and  C5_11 
REMARK    4  A    between atoms: C5_11  and  C6_12 
REMARK    5  A    between atoms: C5_11  and  C29_46 
REMARK    6  A    between atoms: C6_12  and  C7_14 
REMARK    7  A    between atoms: C7_14  and  C8_15 
REMARK       I    between atoms: C8_15  and  N3_17 
REMARK    8  A    between atoms: N3_17  and  C9_19 
REMARK    9  A    between atoms: C9_19  and  C10_20 
REMARK   10  A    between atoms: C9_19  and  C26_43 
REMARK   11  A    between atoms: C10_20  and  C11_22 
REMARK       I    between atoms: C11_22  and  N4_24 
REMARK   12  A    between atoms: C15_28  and  C16_29 
REMARK       I    between atoms: C16_29  and  N5_31 
REMARK   13  A    between atoms: N5_31  and  C17_33 
REMARK   14  A    between atoms: C17_33  and  C18_34 
REMARK   15  A    between atoms: C17_33  and  C23_40 
REMARK   16  A    between atoms: C18_34  and  C19_36 
ROOT
HETATM    1  C9  UNL     1      17.244  21.064  18.814  1.00  0.00     0.167 C 
ENDROOT
BRANCH   1   2
HETATM    2  N3  UNL     1      17.833  22.343  19.194  1.00  0.00    -0.348 N 
HETATM    3  C8  UNL     1      19.169  22.416  19.668  1.00  0.00     0.225 C 
HETATM    4  O4  UNL     1      19.804  21.334  19.741  1.00  0.00    -0.273 OA
ATOM      5  H3  UNL     1      17.278  23.195  19.117  1.00  0.00     0.163 HD
BRANCH   3   6
HETATM    6  C7  UNL     1      19.764  23.729  20.058  1.00  0.00     0.183 C 
BRANCH   6   7
HETATM    7  C6  UNL     1      19.644  24.739  18.993  1.00  0.00     0.158 C 
HETATM    8  O3  UNL     1      18.494  25.093  18.688  1.00  0.00    -0.295 OA
BRANCH   7   9
HETATM    9  C5  UNL     1      20.751  25.367  18.251  1.00  0.00     0.158 C 
BRANCH   9  10
HETATM   10  N2  UNL     1      20.192  26.347  17.299  1.00  0.00    -0.344 N 
HETATM   11  C4  UNL     1      20.003  26.003  15.960  1.00  0.00     0.266 C 
HETATM   12  O2  UNL     1      20.296  24.849  15.504  1.00  0.00    -0.266 OA
ATOM     13  H2  UNL     1      19.942  27.282  17.622  1.00  0.00     0.163 HD
BRANCH  11  14
HETATM   14  C2  UNL     1      19.458  26.941  14.996  1.00  0.00     0.095 C 
HETATM   15  N1  UNL     1      19.873  28.142  14.831  1.00  0.00    -0.266 N 
ATOM     16  H1  UNL     1      19.402  28.702  14.120  1.00  0.00     0.194 HD
HETATM   17  C3  UNL     1      18.330  26.498  14.129  1.00  0.00     0.076 C 
BRANCH  15  18
HETATM   18  O1  UNL     1      20.888  28.737  15.519  1.00  0.00    -0.285 OA
HETATM   19  C1  UNL     1      22.234  28.545  15.064  1.00  0.00     0.237 C 
ENDBRANCH  15  18
ENDBRANCH  11  14
ENDBRANCH   9  10
BRANCH   9  20
HETATM   20  C29 UNL     1      21.801  26.037  19.090  1.00  0.00     0.007 C 
HETATM   21  C30 UNL     1      22.959  26.565  18.280  1.00  0.00     0.012 C 
HETATM   22  C31 UNL     1      21.275  27.119  19.973  1.00  0.00     0.012 C 
ENDBRANCH   9  20
ENDBRANCH   7   9
ENDBRANCH   6   7
ENDBRANCH   3   6
ENDBRANCH   1   2
BRANCH   1  23
HETATM   23  C10 UNL     1      17.116  20.949  17.345  1.00  0.00     0.239 C 
HETATM   24  O5  UNL     1      17.661  19.957  16.800  1.00  0.00    -0.285 OA
BRANCH  23  25
HETATM   25  C11 UNL     1      16.413  21.898  16.513  1.00  0.00     0.292 C 
HETATM   26  O6  UNL     1      16.894  23.091  16.532  1.00  0.00    -0.264 OA
HETATM   27  N4  UNL     1      15.290  21.638  15.716  1.00  0.00    -0.332 N 
HETATM   28  C12 UNL     1      14.629  22.707  14.930  1.00  0.00     0.127 C 
HETATM   29  C15 UNL     1      14.585  20.427  15.462  1.00  0.00     0.179 C 
HETATM   30  C13 UNL     1      13.854  22.011  13.857  1.00  0.00     0.022 C 
HETATM   31  C14 UNL     1      14.194  20.563  14.009  1.00  0.00     0.037 C 
BRANCH  29  32
HETATM   32  C16 UNL     1      13.364  20.224  16.259  1.00  0.00     0.241 C 
HETATM   33  O7  UNL     1      13.159  20.887  17.319  1.00  0.00    -0.271 OA
HETATM   34  N5  UNL     1      12.418  19.270  15.825  1.00  0.00    -0.347 N 
ATOM     35  H5  UNL     1      12.617  18.762  14.963  1.00  0.00     0.163 HD
BRANCH  34  36
HETATM   36  C17 UNL     1      11.174  18.964  16.526  1.00  0.00     0.158 C 
BRANCH  36  37
HETATM   37  C18 UNL     1      11.172  17.509  16.817  1.00  0.00     0.157 C 
HETATM   38  O8  UNL     1      11.061  16.726  15.844  1.00  0.00    -0.295 OA
BRANCH  37  39
HETATM   39  C19 UNL     1      11.293  16.886  18.133  1.00  0.00     0.012 C 
HETATM   40  C20 UNL     1      12.783  16.841  18.525  1.00  0.00     0.022 C 
HETATM   41  C21 UNL     1      10.686  15.546  18.327  1.00  0.00     0.022 C 
HETATM   42  C22 UNL     1      10.670  17.834  19.162  1.00  0.00     0.022 C 
ENDBRANCH  37  39
ENDBRANCH  36  37
BRANCH  36  43
HETATM   43  C23 UNL     1      10.035  19.332  15.571  1.00  0.00     0.007 C 
HETATM   44  C24 UNL     1      10.489  19.364  14.136  1.00  0.00     0.012 C 
HETATM   45  C25 UNL     1       9.540  20.743  15.915  1.00  0.00     0.012 C 
ENDBRANCH  36  43
ENDBRANCH  34  36
ENDBRANCH  29  32
ENDBRANCH  23  25
ENDBRANCH   1  23
BRANCH   1  46
HETATM   46  C26 UNL     1      15.875  20.917  19.456  1.00  0.00     0.008 C 
HETATM   47  C27 UNL     1      15.352  19.489  19.233  1.00  0.00     0.012 C 
HETATM   48  C28 UNL     1      15.825  21.326  20.888  1.00  0.00     0.012 C 
ENDBRANCH   1  46
TORSDOF 16
ENDMDL
MODEL 5
REMARK VINA RESULT: -8.790460684      1.747      2.888
REMARK  16 active torsions:
REMARK  status: ('A' for Active; 'I' for Inactive)
REMARK    1  A    between atoms: O1_2  and  N1_3 
REMARK    2  A    between atoms: C2_5  and  C4_7 
REMARK       I    between atoms: C4_7  and  N2_9 
REMARK    3  A    between atoms: N2_9  and  C5_11 
REMARK    4  A    between atoms: C5_11  and  C6_12 
REMARK    5  A    between atoms: C5_11  and  C29_46 
REMARK    6  A    between atoms: C6_12  and  C7_14 
REMARK    7  A    between atoms: C7_14  and  C8_15 
REMARK       I    between atoms: C8_15  and  N3_17 
REMARK    8  A    between atoms: N3_17  and  C9_19 
REMARK    9  A    between atoms: C9_19  and  C10_20 
REMARK   10  A    between atoms: C9_19  and  C26_43 
REMARK   11  A    between atoms: C10_20  and  C11_22 
REMARK       I    between atoms: C11_22  and  N4_24 
REMARK   12  A    between atoms: C15_28  and  C16_29 
REMARK       I    between atoms: C16_29  and  N5_31 
REMARK   13  A    between atoms: N5_31  and  C17_33 
REMARK   14  A    between atoms: C17_33  and  C18_34 
REMARK   15  A    between atoms: C17_33  and  C23_40 
REMARK   16  A    between atoms: C18_34  and  C19_36 
ROOT
HETATM    1  C9  UNL     1      15.440  21.817  16.229  1.00  0.00     0.167 C 
ENDROOT
BRANCH   1   2
HETATM    2  N3  UNL     1      15.598  23.261  16.356  1.00  0.00    -0.348 N 
HETATM    3  C8  UNL     1      16.817  23.893  15.998  1.00  0.00     0.225 C 
HETATM    4  O4  UNL     1      17.737  23.151  15.571  1.00  0.00    -0.273 OA
ATOM      5  H3  UNL     1      14.823  23.823  16.707  1.00  0.00     0.163 HD
BRANCH   3   6
HETATM    6  C7  UNL     1      16.972  25.373  16.133  1.00  0.00     0.183 C 
BRANCH   6   7
HETATM    7  C6  UNL     1      17.957  25.925  15.188  1.00  0.00     0.158 C 
HETATM    8  O3  UNL     1      17.568  26.105  14.023  1.00  0.00    -0.295 OA
BRANCH   7   9
HETATM    9  C5  UNL     1      19.355  26.281  15.485  1.00  0.00     0.158 C 
BRANCH   9  10
HETATM   10  N2  UNL     1      19.838  25.433  16.593  1.00  0.00    -0.344 N 
HETATM   11  C4  UNL     1      20.413  26.010  17.725  1.00  0.00     0.266 C 
HETATM   12  O2  UNL     1      20.546  27.271  17.857  1.00  0.00    -0.266 OA
ATOM     13  H2  UNL     1      19.750  24.418  16.530  1.00  0.00     0.163 HD
BRANCH  11  14
HETATM   14  C2  UNL     1      20.901  25.208  18.832  1.00  0.00     0.095 C 
HETATM   15  N1  UNL     1      20.245  24.261  19.393  1.00  0.00    -0.266 N 
ATOM     16  H1  UNL     1      20.700  23.775  20.166  1.00  0.00     0.194 HD
HETATM   17  C3  UNL     1      22.260  25.492  19.374  1.00  0.00     0.076 C 
BRANCH  15  18
HETATM   18  O1  UNL     1      18.993  23.846  19.049  1.00  0.00    -0.285 OA
HETATM   19  C1  UNL     1      18.735  22.438  18.957  1.00  0.00     0.237 C 
ENDBRANCH  15  18
ENDBRANCH  11  14
ENDBRANCH   9  10
BRANCH   9  20
HETATM   20  C29 UNL     1      20.312  26.182  14.333  1.00  0.00     0.007 C 
HETATM   21  C30 UNL     1      21.197  27.395  14.191  1.00  0.00     0.012 C 
HETATM   22  C31 UNL     1      21.154  24.949  14.346  1.00  0.00     0.012 C 
ENDBRANCH   9  20
ENDBRANCH   7   9
ENDBRANCH   6   7
ENDBRANCH   3   6
ENDBRANCH   1   2
BRANCH   1  23
HETATM   23  C10 UNL     1      14.666  21.468  15.018  1.00  0.00     0.239 C 
HETATM   24  O5  UNL     1      15.259  20.804  14.131  1.00  0.00    -0.285 OA
BRANCH  23  25
HETATM   25  C11 UNL     1      13.288  21.843  14.798  1.00  0.00     0.292 C 
HETATM   26  O6  UNL     1      13.101  23.093  14.562  1.00  0.00    -0.264 OA
HETATM   27  N4  UNL     1      12.177  20.989  14.821  1.00  0.00    -0.332 N 
HETATM   28  C12 UNL     1      10.799  21.499  14.615  1.00  0.00     0.127 C 
HETATM   29  C15 UNL     1      12.085  19.579  15.001  1.00  0.00     0.179 C 
HETATM   30  C13 UNL     1       9.982  20.319  14.197  1.00  0.00     0.022 C 
HETATM   31  C14 UNL     1      10.958  19.193  14.073  1.00  0.00     0.037 C 
BRANCH  29  32
HETATM   32  C16 UNL     1      11.745  19.135  16.363  1.00  0.00     0.241 C 
HETATM   33  O7  UNL     1      11.572  19.972  17.298  1.00  0.00    -0.271 OA
HETATM   34  N5  UNL     1      11.616  17.752  16.614  1.00  0.00    -0.347 N 
ATOM     35  H5  UNL     1      11.756  17.111  15.833  1.00  0.00     0.163 HD
BRANCH  34  36
HETATM   36  C17 UNL     1      11.293  17.177  17.918  1.00  0.00     0.158 C 
BRANCH  36  37
HETATM   37  C18 UNL     1      12.547  17.140  18.712  1.00  0.00     0.157 C 
HETATM   38  O8  UNL     1      13.587  16.753  18.129  1.00  0.00    -0.295 OA
BRANCH  37  39
HETATM   39  C19 UNL     1      12.698  17.517  20.114  1.00  0.00     0.012 C 
HETATM   40  C20 UNL     1      14.139  18.013  20.343  1.00  0.00     0.022 C 
HETATM   41  C21 UNL     1      12.348  16.510  21.147  1.00  0.00     0.022 C 
HETATM   42  C22 UNL     1      11.838  18.759  20.363  1.00  0.00     0.022 C 
ENDBRANCH  37  39
ENDBRANCH  36  37
BRANCH  36  43
HETATM   43  C23 UNL     1      10.771  15.763  17.652  1.00  0.00     0.007 C 
HETATM   44  C24 UNL     1      10.841  15.400  16.193  1.00  0.00     0.012 C 
HETATM   45  C25 UNL     1       9.294  15.698  18.060  1.00  0.00     0.012 C 
ENDBRANCH  36  43
ENDBRANCH  34  36
ENDBRANCH  29  32
ENDBRANCH  23  25
ENDBRANCH   1  23
BRANCH   1  46
HETATM   46  C26 UNL     1      14.738  21.265  17.458  1.00  0.00     0.008 C 
HETATM   47  C27 UNL     1      15.539  20.082  18.021  1.00  0.00     0.012 C 
HETATM   48  C28 UNL     1      14.427  22.290  18.494  1.00  0.00     0.012 C 
ENDBRANCH   1  46
TORSDOF 16
ENDMDL
