MODEL 1
REMARK VINA RESULT: -6.584310926      0.000      0.000
REMARK  3 active torsions:
REMARK  status: ('A' for Active; 'I' for Inactive)
REMARK    1  A    between atoms: C5_8  and  S2_9 
REMARK    2  A    between atoms: C8_14  and  C9_15 
REMARK    3  A    between atoms: C9_15  and  C10_16 
ROOT
HETATM    1  S2  UNL     1      10.810   9.238  40.594  1.00  0.00    -0.005 SA
HETATM    2  C6  UNL     1      12.401   9.902  40.927  1.00  0.00     0.139 C 
HETATM    3  N2  UNL     1      13.462  10.334  41.149  1.00  0.00    -0.184 NA
ENDROOT
BRANCH   1   4
HETATM    4  C5  UNL     1      10.274   8.183  41.992  1.00  0.00     0.083 A 
HETATM    5  C4  UNL     1      10.934   7.009  42.220  1.00  0.00     0.110 A 
HETATM    6  S1  UNL     1      10.128   6.357  43.572  1.00  0.00    -0.046 SA
HETATM    7  N1  UNL     1      12.049   6.455  41.486  1.00  0.00    -0.093 NA
HETATM    8  C3  UNL     1       8.970   7.587  43.821  1.00  0.00     0.147 A 
HETATM    9  O1  UNL     1       7.922   7.800  44.750  1.00  0.00    -0.334 OA
HETATM   10  C7  UNL     1       9.248   8.483  42.831  1.00  0.00     0.130 A 
HETATM   11  C2  UNL     1       7.381   9.076  45.027  1.00  0.00     0.155 C 
HETATM   12  C1  UNL     1       7.605   9.365  46.485  1.00  0.00     0.042 C 
HETATM   13  C8  UNL     1       7.947  10.137  44.123  1.00  0.00     0.159 C 
HETATM   14  O2  UNL     1       8.369   9.610  42.872  1.00  0.00    -0.338 OA
BRANCH  13  15
HETATM   15  C9  UNL     1       6.945  11.217  43.779  1.00  0.00     0.050 C 
BRANCH  15  16
HETATM   16  C10 UNL     1       7.502  12.517  44.350  1.00  0.00     0.117 C 
HETATM   17 CL1  UNL     1       9.179  12.778  43.779  1.00  0.00    -0.130 Cl
ENDBRANCH  15  16
ENDBRANCH  13  15
ENDBRANCH   1   4
TORSDOF 3
ENDMDL
MODEL 2
REMARK VINA RESULT: -6.359754749      2.448      3.134
REMARK  3 active torsions:
REMARK  status: ('A' for Active; 'I' for Inactive)
REMARK    1  A    between atoms: C5_8  and  S2_9 
REMARK    2  A    between atoms: C8_14  and  C9_15 
REMARK    3  A    between atoms: C9_15  and  C10_16 
ROOT
HETATM    1  S2  UNL     1      10.002   7.655  42.296  1.00  0.00    -0.005 SA
HETATM    2  C6  UNL     1      10.913   6.525  43.283  1.00  0.00     0.139 C 
HETATM    3  N2  UNL     1      11.513   5.767  43.938  1.00  0.00    -0.184 NA
ENDROOT
BRANCH   1   4
HETATM    4  C5  UNL     1       8.316   7.856  42.982  1.00  0.00     0.083 A 
HETATM    5  C4  UNL     1       7.530   6.749  43.133  1.00  0.00     0.110 A 
HETATM    6  S1  UNL     1       6.082   7.373  43.777  1.00  0.00    -0.046 SA
HETATM    7  N1  UNL     1       7.855   5.375  42.819  1.00  0.00    -0.093 NA
HETATM    8  C3  UNL     1       6.501   9.027  43.842  1.00  0.00     0.147 A 
HETATM    9  O1  UNL     1       5.841  10.210  44.257  1.00  0.00    -0.334 OA
HETATM   10  C7  UNL     1       7.775   9.046  43.354  1.00  0.00     0.130 A 
HETATM   11  C2  UNL     1       6.527  11.391  44.620  1.00  0.00     0.155 C 
HETATM   12  C1  UNL     1       6.189  11.699  46.052  1.00  0.00     0.042 C 
HETATM   13  C8  UNL     1       8.007  11.283  44.374  1.00  0.00     0.159 C 
HETATM   14  O2  UNL     1       8.314  10.370  43.328  1.00  0.00    -0.338 OA
BRANCH  13  15
HETATM   15  C9  UNL     1       8.634  12.593  43.952  1.00  0.00     0.050 C 
BRANCH  15  16
HETATM   16  C10 UNL     1       9.947  12.238  43.261  1.00  0.00     0.117 C 
HETATM   17 CL1  UNL     1      11.110  13.592  43.405  1.00  0.00    -0.130 Cl
ENDBRANCH  15  16
ENDBRANCH  13  15
ENDBRANCH   1   4
TORSDOF 3
ENDMDL
MODEL 3
REMARK VINA RESULT: -6.201004185      3.398      4.245
REMARK  3 active torsions:
REMARK  status: ('A' for Active; 'I' for Inactive)
REMARK    1  A    between atoms: C5_8  and  S2_9 
REMARK    2  A    between atoms: C8_14  and  C9_15 
REMARK    3  A    between atoms: C9_15  and  C10_16 
ROOT
HETATM    1  S2  UNL     1       7.508   9.044  42.436  1.00  0.00    -0.005 SA
HETATM    2  C6  UNL     1       9.083   9.602  41.899  1.00  0.00     0.139 C 
HETATM    3  N2  UNL     1      10.135   9.968  41.548  1.00  0.00    -0.184 NA
ENDROOT
BRANCH   1   4
HETATM    4  C5  UNL     1       7.284   9.438  44.210  1.00  0.00     0.083 A 
HETATM    5  C4  UNL     1       7.973   8.711  45.139  1.00  0.00     0.110 A 
HETATM    6  S1  UNL     1       7.476   9.385  46.622  1.00  0.00    -0.046 SA
HETATM    7  N1  UNL     1       8.901   7.625  44.912  1.00  0.00    -0.093 NA
HETATM    8  C3  UNL     1       6.404  10.578  46.036  1.00  0.00     0.147 A 
HETATM    9  O1  UNL     1       5.582  11.565  46.634  1.00  0.00    -0.334 OA
HETATM   10  C7  UNL     1       6.464  10.415  44.682  1.00  0.00     0.130 A 
HETATM   11  C2  UNL     1       5.119  12.708  45.944  1.00  0.00     0.155 C 
HETATM   12  C1  UNL     1       5.653  13.922  46.651  1.00  0.00     0.042 C 
HETATM   13  C8  UNL     1       5.479  12.670  44.483  1.00  0.00     0.159 C 
HETATM   14  O2  UNL     1       5.618  11.342  43.997  1.00  0.00    -0.338 OA
BRANCH  13  15
HETATM   15  C9  UNL     1       4.430  13.307  43.598  1.00  0.00     0.050 C 
BRANCH  15  16
HETATM   16  C10 UNL     1       4.854  13.026  42.160  1.00  0.00     0.117 C 
HETATM   17 CL1  UNL     1       4.156  14.252  41.057  1.00  0.00    -0.130 Cl
ENDBRANCH  15  16
ENDBRANCH  13  15
ENDBRANCH   1   4
TORSDOF 3
ENDMDL
MODEL 4
REMARK VINA RESULT: -6.161400946      1.144      1.238
REMARK  3 active torsions:
REMARK  status: ('A' for Active; 'I' for Inactive)
REMARK    1  A    between atoms: C5_8  and  S2_9 
REMARK    2  A    between atoms: C8_14  and  C9_15 
REMARK    3  A    between atoms: C9_15  and  C10_16 
ROOT
HETATM    1  S2  UNL     1      10.788   9.571  40.618  1.00  0.00    -0.005 SA
HETATM    2  C6  UNL     1      12.469   9.929  40.977  1.00  0.00     0.139 C 
HETATM    3  N2  UNL     1      13.588  10.158  41.215  1.00  0.00    -0.184 NA
ENDROOT
BRANCH   1   4
HETATM    4  C5  UNL     1      10.105   8.455  41.899  1.00  0.00     0.083 A 
HETATM    5  C4  UNL     1      10.593   7.183  41.991  1.00  0.00     0.110 A 
HETATM    6  S1  UNL     1       9.700   6.505  43.273  1.00  0.00    -0.046 SA
HETATM    7  N1  UNL     1      11.623   6.562  41.188  1.00  0.00    -0.093 NA
HETATM    8  C3  UNL     1       8.724   7.850  43.668  1.00  0.00     0.147 A 
HETATM    9  O1  UNL     1       7.712   8.104  44.627  1.00  0.00    -0.334 OA
HETATM   10  C7  UNL     1       9.128   8.801  42.777  1.00  0.00     0.130 A 
HETATM   11  C2  UNL     1       7.353   9.405  45.046  1.00  0.00     0.155 C 
HETATM   12  C1  UNL     1       7.609   9.499  46.524  1.00  0.00     0.042 C 
HETATM   13  C8  UNL     1       8.065  10.469  44.256  1.00  0.00     0.159 C 
HETATM   14  O2  UNL     1       8.413  10.028  42.950  1.00  0.00    -0.338 OA
BRANCH  13  15
HETATM   15  C9  UNL     1       7.224  11.709  44.043  1.00  0.00     0.050 C 
BRANCH  15  16
HETATM   16  C10 UNL     1       5.900  11.233  43.452  1.00  0.00     0.117 C 
HETATM   17 CL1  UNL     1       4.962  12.627  42.831  1.00  0.00    -0.130 Cl
ENDBRANCH  15  16
ENDBRANCH  13  15
ENDBRANCH   1   4
TORSDOF 3
ENDMDL
MODEL 5
REMARK VINA RESULT: -6.067834799      1.726      1.863
REMARK  3 active torsions:
REMARK  status: ('A' for Active; 'I' for Inactive)
REMARK    1  A    between atoms: C5_8  and  S2_9 
REMARK    2  A    between atoms: C8_14  and  C9_15 
REMARK    3  A    between atoms: C9_15  and  C10_16 
ROOT
HETATM    1  S2  UNL     1      11.831   7.917  41.550  1.00  0.00    -0.005 SA
HETATM    2  C6  UNL     1      11.749   9.500  40.795  1.00  0.00     0.139 C 
HETATM    3  N2  UNL     1      11.688  10.555  40.300  1.00  0.00    -0.184 NA
ENDROOT
BRANCH   1   4
HETATM    4  C5  UNL     1      10.172   7.141  41.542  1.00  0.00     0.083 A 
HETATM    5  C4  UNL     1      10.011   5.941  40.910  1.00  0.00     0.110 A 
HETATM    6  S1  UNL     1       8.358   5.593  41.132  1.00  0.00    -0.046 SA
HETATM    7  N1  UNL     1      11.009   5.155  40.219  1.00  0.00    -0.093 NA
HETATM    8  C3  UNL     1       7.904   6.978  42.022  1.00  0.00     0.147 A 
HETATM    9  O1  UNL     1       6.694   7.449  42.590  1.00  0.00    -0.334 OA
HETATM   10  C7  UNL     1       9.069   7.681  42.123  1.00  0.00     0.130 A 
HETATM   11  C2  UNL     1       6.649   8.396  43.638  1.00  0.00     0.155 C 
HETATM   12  C1  UNL     1       5.973   7.751  44.814  1.00  0.00     0.042 C 
HETATM   13  C8  UNL     1       8.013   8.939  43.967  1.00  0.00     0.159 C 
HETATM   14  O2  UNL     1       8.893   8.899  42.851  1.00  0.00    -0.338 OA
BRANCH  13  15
HETATM   15  C9  UNL     1       7.985  10.390  44.396  1.00  0.00     0.050 C 
BRANCH  15  16
HETATM   16  C10 UNL     1       8.573  11.191  43.239  1.00  0.00     0.117 C 
HETATM   17 CL1  UNL     1       9.136  12.791  43.814  1.00  0.00    -0.130 Cl
ENDBRANCH  15  16
ENDBRANCH  13  15
ENDBRANCH   1   4
TORSDOF 3
ENDMDL
