MODEL 1
REMARK VINA RESULT: -6.977028506      0.000      0.000
REMARK  7 active torsions:
REMARK  status: ('A' for Active; 'I' for Inactive)
REMARK    1  A    between atoms: S1_2  and  C2_3 
REMARK       I    between atoms: N1_7  and  C6_8 
REMARK    2  A    between atoms: C6_8  and  C7_10 
REMARK    3  A    between atoms: C7_10  and  S2_12 
REMARK    4  A    between atoms: S2_12  and  C9_13 
REMARK    5  A    between atoms: C10_18  and  S3_19 
REMARK    6  A    between atoms: S3_19  and  C11_20 
REMARK    7  A    between atoms: C11_20  and  C12_21 
ROOT
HETATM    1  C9  UNL     1       6.940   9.796  47.124  1.00  0.00     0.130 A 
HETATM    2  N2  UNL     1       6.364  10.250  48.232  1.00  0.00    -0.287 N 
ATOM      3  H2  UNL     1       6.556   9.795  49.124  1.00  0.00     0.188 HD
HETATM    4  N3  UNL     1       5.583  11.237  48.189  1.00  0.00    -0.287 N 
ATOM      5  H3  UNL     1       5.145  11.579  49.044  1.00  0.00     0.188 HD
HETATM    6  C10 UNL     1       5.330  11.833  47.027  1.00  0.00     0.129 A 
HETATM    7  S4  UNL     1       6.281  10.902  45.964  1.00  0.00    -0.038 SA
ENDROOT
BRANCH   1   8
HETATM    8  S2  UNL     1       8.054   8.429  46.884  1.00  0.00    -0.089 SA
BRANCH   8   9
HETATM    9  C7  UNL     1       7.606   7.354  45.552  1.00  0.00     0.142 C 
HETATM   10  C8  UNL     1       6.161   7.232  45.225  1.00  0.00     0.031 C 
BRANCH   9  11
HETATM   11  C6  UNL     1       8.458   7.698  44.357  1.00  0.00     0.234 C 
HETATM   12  N1  UNL     1       8.811   6.758  43.358  1.00  0.00    -0.338 N 
HETATM   13  C2  UNL     1       9.615   7.056  42.208  1.00  0.00     0.148 C 
HETATM   14  C5  UNL     1       8.448   5.381  43.348  1.00  0.00     0.127 C 
HETATM   15  C3  UNL     1       9.558   5.824  41.354  1.00  0.00     0.038 C 
HETATM   16  C4  UNL     1       8.346   5.046  41.878  1.00  0.00     0.023 C 
HETATM   17  O1  UNL     1       8.849   8.913  44.307  1.00  0.00    -0.272 OA
BRANCH  13  18
HETATM   18  S1  UNL     1      11.353   7.338  42.644  1.00  0.00    -0.148 SA
HETATM   19  C1  UNL     1      12.333   5.826  42.528  1.00  0.00     0.092 C 
ENDBRANCH  13  18
ENDBRANCH   9  11
ENDBRANCH   8   9
ENDBRANCH   1   8
BRANCH   6  20
HETATM   20  S3  UNL     1       4.249  13.240  46.695  1.00  0.00    -0.093 SA
BRANCH  20  21
HETATM   21  C11 UNL     1       4.423  13.640  44.933  1.00  0.00     0.194 C 
BRANCH  21  22
HETATM   22  C12 UNL     1       3.534  14.785  44.593  1.00  0.00     0.182 C 
HETATM   23  O2  UNL     1       3.074  15.560  45.467  1.00  0.00    -0.647 OA
HETATM   24  O3  UNL     1       3.198  15.009  43.262  1.00  0.00    -0.647 OA
ENDBRANCH  21  22
ENDBRANCH  20  21
ENDBRANCH   6  20
TORSDOF 7
ENDMDL
MODEL 2
REMARK VINA RESULT: -6.928850288      1.349      1.600
REMARK  7 active torsions:
REMARK  status: ('A' for Active; 'I' for Inactive)
REMARK    1  A    between atoms: S1_2  and  C2_3 
REMARK       I    between atoms: N1_7  and  C6_8 
REMARK    2  A    between atoms: C6_8  and  C7_10 
REMARK    3  A    between atoms: C7_10  and  S2_12 
REMARK    4  A    between atoms: S2_12  and  C9_13 
REMARK    5  A    between atoms: C10_18  and  S3_19 
REMARK    6  A    between atoms: S3_19  and  C11_20 
REMARK    7  A    between atoms: C11_20  and  C12_21 
ROOT
HETATM    1  C9  UNL     1       6.923   9.817  47.062  1.00  0.00     0.130 A 
HETATM    2  N2  UNL     1       6.366  10.256  48.186  1.00  0.00    -0.287 N 
ATOM      3  H2  UNL     1       6.577   9.793  49.069  1.00  0.00     0.188 HD
HETATM    4  N3  UNL     1       5.578  11.239  48.168  1.00  0.00    -0.287 N 
ATOM      5  H3  UNL     1       5.155  11.569  49.035  1.00  0.00     0.188 HD
HETATM    6  C10 UNL     1       5.300  11.846  47.018  1.00  0.00     0.129 A 
HETATM    7  S4  UNL     1       6.236  10.932  45.927  1.00  0.00    -0.038 SA
ENDROOT
BRANCH   1   8
HETATM    8  S2  UNL     1       8.040   8.459  46.786  1.00  0.00    -0.089 SA
BRANCH   8   9
HETATM    9  C7  UNL     1       7.562   7.385  45.464  1.00  0.00     0.142 C 
HETATM   10  C8  UNL     1       6.113   7.093  45.306  1.00  0.00     0.031 C 
BRANCH   9  11
HETATM   11  C6  UNL     1       8.211   7.877  44.195  1.00  0.00     0.234 C 
HETATM   12  N1  UNL     1       9.532   7.537  43.815  1.00  0.00    -0.338 N 
HETATM   13  C2  UNL     1      10.173   7.984  42.613  1.00  0.00     0.148 C 
HETATM   14  C5  UNL     1      10.430   6.728  44.568  1.00  0.00     0.127 C 
HETATM   15  C3  UNL     1      11.467   7.226  42.547  1.00  0.00     0.038 C 
HETATM   16  C4  UNL     1      11.277   6.052  43.514  1.00  0.00     0.023 C 
HETATM   17  O1  UNL     1       7.476   8.633  43.474  1.00  0.00    -0.272 OA
BRANCH  13  18
HETATM   18  S1  UNL     1      10.578   9.751  42.670  1.00  0.00    -0.148 SA
HETATM   19  C1  UNL     1      12.359  10.040  42.604  1.00  0.00     0.092 C 
ENDBRANCH  13  18
ENDBRANCH   9  11
ENDBRANCH   8   9
ENDBRANCH   1   8
BRANCH   6  20
HETATM   20  S3  UNL     1       4.205  13.250  46.721  1.00  0.00    -0.093 SA
BRANCH  20  21
HETATM   21  C11 UNL     1       4.371  13.693  44.969  1.00  0.00     0.194 C 
BRANCH  21  22
HETATM   22  C12 UNL     1       3.469  14.836  44.657  1.00  0.00     0.182 C 
HETATM   23  O2  UNL     1       2.977  15.566  45.553  1.00  0.00    -0.647 OA
HETATM   24  O3  UNL     1       3.157  15.109  43.330  1.00  0.00    -0.647 OA
ENDBRANCH  21  22
ENDBRANCH  20  21
ENDBRANCH   6  20
TORSDOF 7
ENDMDL
MODEL 3
REMARK VINA RESULT: -6.892270324      3.375      7.911
REMARK  7 active torsions:
REMARK  status: ('A' for Active; 'I' for Inactive)
REMARK    1  A    between atoms: S1_2  and  C2_3 
REMARK       I    between atoms: N1_7  and  C6_8 
REMARK    2  A    between atoms: C6_8  and  C7_10 
REMARK    3  A    between atoms: C7_10  and  S2_12 
REMARK    4  A    between atoms: S2_12  and  C9_13 
REMARK    5  A    between atoms: C10_18  and  S3_19 
REMARK    6  A    between atoms: S3_19  and  C11_20 
REMARK    7  A    between atoms: C11_20  and  C12_21 
ROOT
HETATM    1  C9  UNL     1       8.163   6.128  43.981  1.00  0.00     0.130 A 
HETATM    2  N2  UNL     1       8.512   4.868  43.742  1.00  0.00    -0.287 N 
ATOM      3  H2  UNL     1       8.601   4.213  44.518  1.00  0.00     0.188 HD
HETATM    4  N3  UNL     1       8.733   4.477  42.565  1.00  0.00    -0.287 N 
ATOM      5  H3  UNL     1       9.000   3.509  42.391  1.00  0.00     0.188 HD
HETATM    6  C10 UNL     1       8.618   5.329  41.550  1.00  0.00     0.129 A 
HETATM    7  S4  UNL     1       8.166   6.755  42.366  1.00  0.00    -0.038 SA
ENDROOT
BRANCH   1   8
HETATM    8  S2  UNL     1       7.813   6.953  45.519  1.00  0.00    -0.089 SA
BRANCH   8   9
HETATM    9  C7  UNL     1       6.438   8.063  45.449  1.00  0.00     0.142 C 
HETATM   10  C8  UNL     1       5.193   7.659  46.154  1.00  0.00     0.031 C 
BRANCH   9  11
HETATM   11  C6  UNL     1       6.919   9.439  45.835  1.00  0.00     0.234 C 
HETATM   12  N1  UNL     1       6.444  10.627  45.227  1.00  0.00    -0.338 N 
HETATM   13  C2  UNL     1       6.877  11.948  45.576  1.00  0.00     0.148 C 
HETATM   14  C5  UNL     1       5.490  10.695  44.171  1.00  0.00     0.127 C 
HETATM   15  C3  UNL     1       5.973  12.876  44.818  1.00  0.00     0.038 C 
HETATM   16  C4  UNL     1       4.777  12.006  44.414  1.00  0.00     0.023 C 
HETATM   17  O1  UNL     1       7.799   9.462  46.761  1.00  0.00    -0.272 OA
BRANCH  13  18
HETATM   18  S1  UNL     1       8.576  12.277  45.032  1.00  0.00    -0.148 SA
HETATM   19  C1  UNL     1       9.144  11.068  43.818  1.00  0.00     0.092 C 
ENDBRANCH  13  18
ENDBRANCH   9  11
ENDBRANCH   8   9
ENDBRANCH   1   8
BRANCH   6  20
HETATM   20  S3  UNL     1       8.892   5.030  39.792  1.00  0.00    -0.093 SA
BRANCH  20  21
HETATM   21  C11 UNL     1       8.870   6.646  38.967  1.00  0.00     0.194 C 
BRANCH  21  22
HETATM   22  C12 UNL     1       9.478   6.523  37.613  1.00  0.00     0.182 C 
HETATM   23  O2  UNL     1      10.064   5.479  37.234  1.00  0.00    -0.647 OA
HETATM   24  O3  UNL     1       9.396   7.597  36.734  1.00  0.00    -0.647 OA
ENDBRANCH  21  22
ENDBRANCH  20  21
ENDBRANCH   6  20
TORSDOF 7
ENDMDL
MODEL 4
REMARK VINA RESULT: -6.770161860      2.044      2.414
REMARK  7 active torsions:
REMARK  status: ('A' for Active; 'I' for Inactive)
REMARK    1  A    between atoms: S1_2  and  C2_3 
REMARK       I    between atoms: N1_7  and  C6_8 
REMARK    2  A    between atoms: C6_8  and  C7_10 
REMARK    3  A    between atoms: C7_10  and  S2_12 
REMARK    4  A    between atoms: S2_12  and  C9_13 
REMARK    5  A    between atoms: C10_18  and  S3_19 
REMARK    6  A    between atoms: S3_19  and  C11_20 
REMARK    7  A    between atoms: C11_20  and  C12_21 
ROOT
HETATM    1  C9  UNL     1       6.323  11.188  46.778  1.00  0.00     0.130 A 
HETATM    2  N2  UNL     1       5.937  11.030  48.040  1.00  0.00    -0.287 N 
ATOM      3  H2  UNL     1       6.420  10.359  48.636  1.00  0.00     0.188 HD
HETATM    4  N3  UNL     1       4.980  11.704  48.506  1.00  0.00    -0.287 N 
ATOM      5  H3  UNL     1       4.690  11.577  49.475  1.00  0.00     0.188 HD
HETATM    6  C10 UNL     1       4.348  12.581  47.732  1.00  0.00     0.129 A 
HETATM    7  S4  UNL     1       5.199  12.404  46.267  1.00  0.00    -0.038 SA
ENDROOT
BRANCH   1   8
HETATM    8  S2  UNL     1       7.610  10.372  45.859  1.00  0.00    -0.089 SA
BRANCH   8   9
HETATM    9  C7  UNL     1       7.442   8.613  45.782  1.00  0.00     0.142 C 
HETATM   10  C8  UNL     1       6.248   8.067  45.086  1.00  0.00     0.031 C 
BRANCH   9  11
HETATM   11  C6  UNL     1       8.739   8.034  45.278  1.00  0.00     0.234 C 
HETATM   12  N1  UNL     1       9.334   8.410  44.048  1.00  0.00    -0.338 N 
HETATM   13  C2  UNL     1      10.568   7.882  43.546  1.00  0.00     0.148 C 
HETATM   14  C5  UNL     1       8.794   9.343  43.118  1.00  0.00     0.127 C 
HETATM   15  C3  UNL     1      10.887   8.703  42.332  1.00  0.00     0.038 C 
HETATM   16  C4  UNL     1      10.016   9.957  42.474  1.00  0.00     0.023 C 
HETATM   17  O1  UNL     1       9.275   7.165  46.047  1.00  0.00    -0.272 OA
BRANCH  13  18
HETATM   18  S1  UNL     1      10.405   6.156  43.010  1.00  0.00    -0.148 SA
HETATM   19  C1  UNL     1      11.972   5.481  42.418  1.00  0.00     0.092 C 
ENDBRANCH  13  18
ENDBRANCH   9  11
ENDBRANCH   8   9
ENDBRANCH   1   8
BRANCH   6  20
HETATM   20  S3  UNL     1       2.952  13.648  48.145  1.00  0.00    -0.093 SA
BRANCH  20  21
HETATM   21  C11 UNL     1       2.647  14.708  46.705  1.00  0.00     0.194 C 
BRANCH  21  22
HETATM   22  C12 UNL     1       2.942  16.125  47.057  1.00  0.00     0.182 C 
HETATM   23  O2  UNL     1       2.615  16.623  48.162  1.00  0.00    -0.647 OA
HETATM   24  O3  UNL     1       3.606  16.927  46.136  1.00  0.00    -0.647 OA
ENDBRANCH  21  22
ENDBRANCH  20  21
ENDBRANCH   6  20
TORSDOF 7
ENDMDL
MODEL 5
REMARK VINA RESULT: -6.741374040      1.917      2.228
REMARK  7 active torsions:
REMARK  status: ('A' for Active; 'I' for Inactive)
REMARK    1  A    between atoms: S1_2  and  C2_3 
REMARK       I    between atoms: N1_7  and  C6_8 
REMARK    2  A    between atoms: C6_8  and  C7_10 
REMARK    3  A    between atoms: C7_10  and  S2_12 
REMARK    4  A    between atoms: S2_12  and  C9_13 
REMARK    5  A    between atoms: C10_18  and  S3_19 
REMARK    6  A    between atoms: S3_19  and  C11_20 
REMARK    7  A    between atoms: C11_20  and  C12_21 
ROOT
HETATM    1  C9  UNL     1       6.329  11.167  46.877  1.00  0.00     0.130 A 
HETATM    2  N2  UNL     1       5.880  11.083  48.125  1.00  0.00    -0.287 N 
ATOM      3  H2  UNL     1       6.333  10.450  48.784  1.00  0.00     0.188 HD
HETATM    4  N3  UNL     1       4.900  11.780  48.501  1.00  0.00    -0.287 N 
ATOM      5  H3  UNL     1       4.562  11.710  49.460  1.00  0.00     0.188 HD
HETATM    6  C10 UNL     1       4.307  12.607  47.645  1.00  0.00     0.129 A 
HETATM    7  S4  UNL     1       5.232  12.346  46.238  1.00  0.00    -0.038 SA
ENDROOT
BRANCH   1   8
HETATM    8  S2  UNL     1       7.662  10.302  46.075  1.00  0.00    -0.089 SA
BRANCH   8   9
HETATM    9  C7  UNL     1       7.213   8.718  45.428  1.00  0.00     0.142 C 
HETATM   10  C8  UNL     1       5.777   8.336  45.484  1.00  0.00     0.031 C 
BRANCH   9  11
HETATM   11  C6  UNL     1       7.810   8.581  44.051  1.00  0.00     0.234 C 
HETATM   12  N1  UNL     1       9.034   7.913  43.797  1.00  0.00    -0.338 N 
HETATM   13  C2  UNL     1       9.624   7.761  42.500  1.00  0.00     0.148 C 
HETATM   14  C5  UNL     1       9.872   7.315  44.781  1.00  0.00     0.127 C 
HETATM   15  C3  UNL     1      10.788   6.836  42.699  1.00  0.00     0.038 C 
HETATM   16  C4  UNL     1      10.521   6.162  44.049  1.00  0.00     0.023 C 
HETATM   17  O1  UNL     1       7.129   9.117  43.113  1.00  0.00    -0.272 OA
BRANCH  13  18
HETATM   18  S1  UNL     1      10.275   9.327  41.857  1.00  0.00    -0.148 SA
HETATM   19  C1  UNL     1      11.923   9.690  42.500  1.00  0.00     0.092 C 
ENDBRANCH  13  18
ENDBRANCH   9  11
ENDBRANCH   8   9
ENDBRANCH   1   8
BRANCH   6  20
HETATM   20  S3  UNL     1       2.891  13.692  47.923  1.00  0.00    -0.093 SA
BRANCH  20  21
HETATM   21  C11 UNL     1       2.822  14.846  46.525  1.00  0.00     0.194 C 
BRANCH  21  22
HETATM   22  C12 UNL     1       2.999  16.239  47.020  1.00  0.00     0.182 C 
HETATM   23  O2  UNL     1       2.599  16.604  48.153  1.00  0.00    -0.647 OA
HETATM   24  O3  UNL     1       3.630  17.173  46.205  1.00  0.00    -0.647 OA
ENDBRANCH  21  22
ENDBRANCH  20  21
ENDBRANCH   6  20
TORSDOF 7
ENDMDL
