MODEL 1
REMARK VINA RESULT: -7.065852094      0.000      0.000
REMARK  10 active torsions:
REMARK  status: ('A' for Active; 'I' for Inactive)
REMARK    1  A    between atoms: O1_2  and  C2_3 
REMARK    2  A    between atoms: C2_3  and  C3_5 
REMARK    3  A    between atoms: C3_5  and  C15_26 
REMARK    4  A    between atoms: N1_6  and  N2_8 
REMARK    5  A    between atoms: N2_8  and  C4_10 
REMARK    6  A    between atoms: C6_12  and  O3_13 
REMARK    7  A    between atoms: C8_15  and  O4_16 
REMARK    8  A    between atoms: C10_18  and  O5_19 
REMARK    9  A    between atoms: O5_19  and  C11_20 
REMARK   10  A    between atoms: C11_20  and  C12_22 
ROOT
HETATM    1  C12 UNL     1       5.628   7.932  39.607  1.00  0.00     0.235 C 
HETATM    2  C13 UNL     1       5.539   6.524  39.233  1.00  0.00     0.069 C 
HETATM    3  N3  UNL     1       5.467   5.398  38.956  1.00  0.00    -0.197 NA
ENDROOT
BRANCH   1   4
HETATM    4  C11 UNL     1       6.759   8.553  38.880  1.00  0.00     0.277 C 
HETATM    5  O6  UNL     1       6.596   9.553  38.141  1.00  0.00    -0.264 OA
BRANCH   4   6
HETATM    6  O5  UNL     1       8.018   8.029  39.014  1.00  0.00    -0.275 OA
BRANCH   6   7
HETATM    7  C10 UNL     1       8.755   7.986  40.182  1.00  0.00     0.117 A 
HETATM    8  C8  UNL     1       9.683   6.987  40.341  1.00  0.00     0.135 A 
HETATM    9  C6  UNL     1      10.454   6.893  41.496  1.00  0.00     0.106 A 
HETATM   10  C5  UNL     1      10.282   7.826  42.502  1.00  0.00     0.070 A 
HETATM   11  C4  UNL     1       9.349   8.846  42.361  1.00  0.00     0.053 A 
HETATM   12  C14 UNL     1       8.599   8.913  41.205  1.00  0.00     0.071 A 
BRANCH   8  13
HETATM   13  O4  UNL     1       9.845   6.061  39.326  1.00  0.00    -0.351 OA
HETATM   14  C9  UNL     1       9.049   4.895  39.301  1.00  0.00     0.210 C 
ENDBRANCH   8  13
BRANCH   9  15
HETATM   15  O3  UNL     1      11.367   5.851  41.573  1.00  0.00    -0.353 OA
HETATM   16  C7  UNL     1      12.369   5.759  42.539  1.00  0.00     0.210 C 
ENDBRANCH   9  15
BRANCH  11  17
HETATM   17  N2  UNL     1       9.165   9.823  43.409  1.00  0.00    -0.300 N 
ATOM     18  H2  UNL     1       9.550  10.762  43.307  1.00  0.00     0.187 HD
BRANCH  17  19
HETATM   19  N1  UNL     1       8.485   9.490  44.520  1.00  0.00    -0.298 N 
HETATM   20  C3  UNL     1       7.704  10.058  45.309  1.00  0.00     0.108 C 
ATOM     21  H1  UNL     1       8.650   8.519  44.787  1.00  0.00     0.187 HD
BRANCH  20  22
HETATM   22  C2  UNL     1       7.190   9.239  46.439  1.00  0.00     0.307 C 
HETATM   23  O2  UNL     1       7.912   9.129  47.451  1.00  0.00    -0.258 OA
BRANCH  22  24
HETATM   24  O1  UNL     1       5.973   8.612  46.411  1.00  0.00    -0.322 OA
HETATM   25  C1  UNL     1       5.717   7.486  45.567  1.00  0.00     0.213 C 
ENDBRANCH  22  24
ENDBRANCH  20  22
BRANCH  20  26
HETATM   26  C15 UNL     1       7.238  11.461  45.235  1.00  0.00    -0.001 C 
HETATM   27  C16 UNL     1       6.486  11.777  46.513  1.00  0.00     0.021 C 
HETATM   28  C17 UNL     1       6.292  11.555  44.047  1.00  0.00     0.021 C 
HETATM   29  C18 UNL     1       8.319  12.477  45.061  1.00  0.00     0.021 C 
ENDBRANCH  20  26
ENDBRANCH  17  19
ENDBRANCH  11  17
ENDBRANCH   6   7
ENDBRANCH   4   6
ENDBRANCH   1   4
TORSDOF 10
ENDMDL
MODEL 2
REMARK VINA RESULT: -6.956793069      3.100      7.285
REMARK  10 active torsions:
REMARK  status: ('A' for Active; 'I' for Inactive)
REMARK    1  A    between atoms: O1_2  and  C2_3 
REMARK    2  A    between atoms: C2_3  and  C3_5 
REMARK    3  A    between atoms: C3_5  and  C15_26 
REMARK    4  A    between atoms: N1_6  and  N2_8 
REMARK    5  A    between atoms: N2_8  and  C4_10 
REMARK    6  A    between atoms: C6_12  and  O3_13 
REMARK    7  A    between atoms: C8_15  and  O4_16 
REMARK    8  A    between atoms: C10_18  and  O5_19 
REMARK    9  A    between atoms: O5_19  and  C11_20 
REMARK   10  A    between atoms: C11_20  and  C12_22 
ROOT
HETATM    1  C12 UNL     1       4.382  12.513  47.165  1.00  0.00     0.235 C 
HETATM    2  C13 UNL     1       4.322  12.849  48.583  1.00  0.00     0.069 C 
HETATM    3  N3  UNL     1       4.267  13.136  49.708  1.00  0.00    -0.197 NA
ENDROOT
BRANCH   1   4
HETATM    4  C11 UNL     1       5.729  11.984  46.851  1.00  0.00     0.277 C 
HETATM    5  O6  UNL     1       6.283  11.125  47.578  1.00  0.00    -0.264 OA
BRANCH   4   6
HETATM    6  O5  UNL     1       6.392  12.437  45.742  1.00  0.00    -0.275 OA
BRANCH   6   7
HETATM    7  C10 UNL     1       6.541  11.750  44.552  1.00  0.00     0.117 A 
HETATM    8  C8  UNL     1       5.527  11.801  43.629  1.00  0.00     0.135 A 
HETATM    9  C6  UNL     1       5.622  11.129  42.414  1.00  0.00     0.106 A 
HETATM   10  C5  UNL     1       6.761  10.397  42.132  1.00  0.00     0.070 A 
HETATM   11  C4  UNL     1       7.799  10.333  43.052  1.00  0.00     0.053 A 
HETATM   12  C14 UNL     1       7.677  11.009  44.248  1.00  0.00     0.071 A 
BRANCH   8  13
HETATM   13  O4  UNL     1       4.394  12.538  43.923  1.00  0.00    -0.351 OA
HETATM   14  C9  UNL     1       4.350  13.915  43.618  1.00  0.00     0.210 C 
ENDBRANCH   8  13
BRANCH   9  15
HETATM   15  O3  UNL     1       4.549  11.234  41.538  1.00  0.00    -0.353 OA
HETATM   16  C7  UNL     1       4.553  12.024  40.389  1.00  0.00     0.210 C 
ENDBRANCH   9  15
BRANCH  11  17
HETATM   17  N2  UNL     1       8.991   9.570  42.763  1.00  0.00    -0.300 N 
ATOM     18  H2  UNL     1       9.478   9.697  41.876  1.00  0.00     0.187 HD
BRANCH  17  19
HETATM   19  N1  UNL     1       9.456   8.690  43.668  1.00  0.00    -0.298 N 
HETATM   20  C3  UNL     1       9.135   7.557  44.079  1.00  0.00     0.108 C 
ATOM     21  H1  UNL     1      10.288   9.041  44.142  1.00  0.00     0.187 HD
BRANCH  20  22
HETATM   22  C2  UNL     1       9.996   6.967  45.137  1.00  0.00     0.307 C 
HETATM   23  O2  UNL     1       9.615   7.073  46.321  1.00  0.00    -0.258 OA
BRANCH  22  24
HETATM   24  O1  UNL     1      11.173   6.321  44.866  1.00  0.00    -0.322 OA
HETATM   25  C1  UNL     1      11.621   6.088  43.528  1.00  0.00     0.213 C 
ENDBRANCH  22  24
ENDBRANCH  20  22
BRANCH  20  26
HETATM   26  C15 UNL     1       7.987   6.743  43.620  1.00  0.00    -0.001 C 
HETATM   27  C16 UNL     1       6.752   7.204  44.369  1.00  0.00     0.021 C 
HETATM   28  C17 UNL     1       8.294   5.297  43.978  1.00  0.00     0.021 C 
HETATM   29  C18 UNL     1       7.705   6.818  42.155  1.00  0.00     0.021 C 
ENDBRANCH  20  26
ENDBRANCH  17  19
ENDBRANCH  11  17
ENDBRANCH   6   7
ENDBRANCH   4   6
ENDBRANCH   1   4
TORSDOF 10
ENDMDL
MODEL 3
REMARK VINA RESULT: -6.939448690      3.146      6.694
REMARK  10 active torsions:
REMARK  status: ('A' for Active; 'I' for Inactive)
REMARK    1  A    between atoms: O1_2  and  C2_3 
REMARK    2  A    between atoms: C2_3  and  C3_5 
REMARK    3  A    between atoms: C3_5  and  C15_26 
REMARK    4  A    between atoms: N1_6  and  N2_8 
REMARK    5  A    between atoms: N2_8  and  C4_10 
REMARK    6  A    between atoms: C6_12  and  O3_13 
REMARK    7  A    between atoms: C8_15  and  O4_16 
REMARK    8  A    between atoms: C10_18  and  O5_19 
REMARK    9  A    between atoms: O5_19  and  C11_20 
REMARK   10  A    between atoms: C11_20  and  C12_22 
ROOT
HETATM    1  C12 UNL     1       4.083  14.189  42.760  1.00  0.00     0.235 C 
HETATM    2  C13 UNL     1       3.539  15.098  41.757  1.00  0.00     0.069 C 
HETATM    3  N3  UNL     1       3.090  15.826  40.970  1.00  0.00    -0.197 NA
ENDROOT
BRANCH   1   4
HETATM    4  C11 UNL     1       4.419  12.901  42.112  1.00  0.00     0.277 C 
HETATM    5  O6  UNL     1       4.671  12.828  40.886  1.00  0.00    -0.264 OA
BRANCH   4   6
HETATM    6  O5  UNL     1       4.461  11.757  42.864  1.00  0.00    -0.275 OA
BRANCH   6   7
HETATM    7  C10 UNL     1       5.553  11.294  43.573  1.00  0.00     0.117 A 
HETATM    8  C8  UNL     1       5.536  11.379  44.943  1.00  0.00     0.135 A 
HETATM    9  C6  UNL     1       6.608  10.929  45.708  1.00  0.00     0.106 A 
HETATM   10  C5  UNL     1       7.710  10.386  45.075  1.00  0.00     0.070 A 
HETATM   11  C4  UNL     1       7.748  10.290  43.690  1.00  0.00     0.053 A 
HETATM   12  C14 UNL     1       6.671  10.744  42.958  1.00  0.00     0.071 A 
BRANCH   8  13
HETATM   13  O4  UNL     1       4.426  11.925  45.562  1.00  0.00    -0.351 OA
HETATM   14  C9  UNL     1       4.475  13.243  46.065  1.00  0.00     0.210 C 
ENDBRANCH   8  13
BRANCH   9  15
HETATM   15  O3  UNL     1       6.507  11.054  47.087  1.00  0.00    -0.353 OA
HETATM   16  C7  UNL     1       6.674   9.997  47.982  1.00  0.00     0.210 C 
ENDBRANCH   9  15
BRANCH  11  17
HETATM   17  N2  UNL     1       8.898   9.723  43.024  1.00  0.00    -0.300 N 
ATOM     18  H2  UNL     1       9.180  10.070  42.107  1.00  0.00     0.187 HD
BRANCH  17  19
HETATM   19  N1  UNL     1       9.593   8.737  43.616  1.00  0.00    -0.298 N 
HETATM   20  C3  UNL     1       9.424   7.524  43.853  1.00  0.00     0.108 C 
ATOM     21  H1  UNL     1      10.495   9.066  43.961  1.00  0.00     0.187 HD
BRANCH  20  22
HETATM   22  C2  UNL     1      10.528   6.827  44.565  1.00  0.00     0.307 C 
HETATM   23  O2  UNL     1      10.517   6.847  45.812  1.00  0.00    -0.258 OA
BRANCH  22  24
HETATM   24  O1  UNL     1      11.539   6.173  43.913  1.00  0.00    -0.322 OA
HETATM   25  C1  UNL     1      11.868   6.450  42.549  1.00  0.00     0.213 C 
ENDBRANCH  22  24
ENDBRANCH  20  22
BRANCH  20  26
HETATM   26  C15 UNL     1       8.239   6.711  43.498  1.00  0.00    -0.001 C 
HETATM   27  C16 UNL     1       8.607   5.248  43.653  1.00  0.00     0.021 C 
HETATM   28  C17 UNL     1       7.915   7.007  42.041  1.00  0.00     0.021 C 
HETATM   29  C18 UNL     1       7.020   6.980  44.318  1.00  0.00     0.021 C 
ENDBRANCH  20  26
ENDBRANCH  17  19
ENDBRANCH  11  17
ENDBRANCH   6   7
ENDBRANCH   4   6
ENDBRANCH   1   4
TORSDOF 10
ENDMDL
MODEL 4
REMARK VINA RESULT: -6.847852477      3.672      7.878
REMARK  10 active torsions:
REMARK  status: ('A' for Active; 'I' for Inactive)
REMARK    1  A    between atoms: O1_2  and  C2_3 
REMARK    2  A    between atoms: C2_3  and  C3_5 
REMARK    3  A    between atoms: C3_5  and  C15_26 
REMARK    4  A    between atoms: N1_6  and  N2_8 
REMARK    5  A    between atoms: N2_8  and  C4_10 
REMARK    6  A    between atoms: C6_12  and  O3_13 
REMARK    7  A    between atoms: C8_15  and  O4_16 
REMARK    8  A    between atoms: C10_18  and  O5_19 
REMARK    9  A    between atoms: O5_19  and  C11_20 
REMARK   10  A    between atoms: C11_20  and  C12_22 
ROOT
HETATM    1  C12 UNL     1       2.863  13.212  47.324  1.00  0.00     0.235 C 
HETATM    2  C13 UNL     1       3.716  13.183  48.507  1.00  0.00     0.069 C 
HETATM    3  N3  UNL     1       4.379  13.159  49.462  1.00  0.00    -0.197 NA
ENDROOT
BRANCH   1   4
HETATM    4  C11 UNL     1       3.267  14.348  46.465  1.00  0.00     0.277 C 
HETATM    5  O6  UNL     1       2.526  15.346  46.304  1.00  0.00    -0.264 OA
BRANCH   4   6
HETATM    6  O5  UNL     1       4.479  14.316  45.828  1.00  0.00    -0.275 OA
BRANCH   6   7
HETATM    7  C10 UNL     1       4.973  13.264  45.081  1.00  0.00     0.117 A 
HETATM    8  C8  UNL     1       4.552  13.122  43.782  1.00  0.00     0.135 A 
HETATM    9  C6  UNL     1       5.015  12.082  42.982  1.00  0.00     0.106 A 
HETATM   10  C5  UNL     1       5.917  11.175  43.507  1.00  0.00     0.070 A 
HETATM   11  C4  UNL     1       6.357  11.300  44.818  1.00  0.00     0.053 A 
HETATM   12  C14 UNL     1       5.880  12.341  45.587  1.00  0.00     0.071 A 
BRANCH   8  13
HETATM   13  O4  UNL     1       3.650  14.037  43.270  1.00  0.00    -0.351 OA
HETATM   14  C9  UNL     1       4.115  15.157  42.547  1.00  0.00     0.210 C 
ENDBRANCH   8  13
BRANCH   9  15
HETATM   15  O3  UNL     1       4.537  12.013  41.681  1.00  0.00    -0.353 OA
HETATM   16  C7  UNL     1       5.157  11.298  40.656  1.00  0.00     0.210 C 
ENDBRANCH   9  15
BRANCH  11  17
HETATM   17  N2  UNL     1       7.299  10.355  45.372  1.00  0.00    -0.300 N 
ATOM     18  H2  UNL     1       7.294  10.154  46.371  1.00  0.00     0.187 HD
BRANCH  17  19
HETATM   19  N1  UNL     1       8.181   9.742  44.564  1.00  0.00    -0.298 N 
HETATM   20  C3  UNL     1       8.443   8.569  44.231  1.00  0.00     0.108 C 
ATOM     21  H1  UNL     1       8.798  10.411  44.103  1.00  0.00     0.187 HD
BRANCH  20  22
HETATM   22  C2  UNL     1       9.558   8.386  43.266  1.00  0.00     0.307 C 
HETATM   23  O2  UNL     1       9.367   8.740  42.085  1.00  0.00    -0.258 OA
BRANCH  22  24
HETATM   24  O1  UNL     1      10.769   7.853  43.619  1.00  0.00    -0.322 OA
HETATM   25  C1  UNL     1      11.479   6.950  42.768  1.00  0.00     0.213 C 
ENDBRANCH  22  24
ENDBRANCH  20  22
BRANCH  20  26
HETATM   26  C15 UNL     1       7.755   7.344  44.698  1.00  0.00    -0.001 C 
HETATM   27  C16 UNL     1       8.498   6.819  45.911  1.00  0.00     0.021 C 
HETATM   28  C17 UNL     1       7.836   6.328  43.568  1.00  0.00     0.021 C 
HETATM   29  C18 UNL     1       6.319   7.527  45.067  1.00  0.00     0.021 C 
ENDBRANCH  20  26
ENDBRANCH  17  19
ENDBRANCH  11  17
ENDBRANCH   6   7
ENDBRANCH   4   6
ENDBRANCH   1   4
TORSDOF 10
ENDMDL
MODEL 5
REMARK VINA RESULT: -6.821880098      4.304      8.105
REMARK  10 active torsions:
REMARK  status: ('A' for Active; 'I' for Inactive)
REMARK    1  A    between atoms: O1_2  and  C2_3 
REMARK    2  A    between atoms: C2_3  and  C3_5 
REMARK    3  A    between atoms: C3_5  and  C15_26 
REMARK    4  A    between atoms: N1_6  and  N2_8 
REMARK    5  A    between atoms: N2_8  and  C4_10 
REMARK    6  A    between atoms: C6_12  and  O3_13 
REMARK    7  A    between atoms: C8_15  and  O4_16 
REMARK    8  A    between atoms: C10_18  and  O5_19 
REMARK    9  A    between atoms: O5_19  and  C11_20 
REMARK   10  A    between atoms: C11_20  and  C12_22 
ROOT
HETATM    1  C12 UNL     1       3.671  14.569  41.593  1.00  0.00     0.235 C 
HETATM    2  C13 UNL     1       3.029  15.535  40.708  1.00  0.00     0.069 C 
HETATM    3  N3  UNL     1       2.531  16.299  39.987  1.00  0.00    -0.197 NA
ENDROOT
BRANCH   1   4
HETATM    4  C11 UNL     1       4.022  15.241  42.865  1.00  0.00     0.277 C 
HETATM    5  O6  UNL     1       4.778  16.241  42.894  1.00  0.00    -0.264 OA
BRANCH   4   6
HETATM    6  O5  UNL     1       3.513  14.764  44.045  1.00  0.00    -0.275 OA
BRANCH   6   7
HETATM    7  C10 UNL     1       4.183  13.963  44.949  1.00  0.00     0.117 A 
HETATM    8  C8  UNL     1       3.664  13.813  46.210  1.00  0.00     0.135 A 
HETATM    9  C6  UNL     1       4.295  13.018  47.162  1.00  0.00     0.106 A 
HETATM   10  C5  UNL     1       5.468  12.367  46.830  1.00  0.00     0.070 A 
HETATM   11  C4  UNL     1       6.012  12.505  45.559  1.00  0.00     0.053 A 
HETATM   12  C14 UNL     1       5.363  13.299  44.636  1.00  0.00     0.071 A 
BRANCH   8  13
HETATM   13  O4  UNL     1       2.488  14.470  46.529  1.00  0.00    -0.351 OA
HETATM   14  C9  UNL     1       2.531  15.792  47.023  1.00  0.00     0.210 C 
ENDBRANCH   8  13
BRANCH   9  15
HETATM   15  O3  UNL     1       3.700  12.923  48.413  1.00  0.00    -0.353 OA
HETATM   16  C7  UNL     1       4.406  12.924  49.616  1.00  0.00     0.210 C 
ENDBRANCH   9  15
BRANCH  11  17
HETATM   17  N2  UNL     1       7.237  11.827  45.206  1.00  0.00    -0.300 N 
ATOM     18  H2  UNL     1       8.015  12.352  44.807  1.00  0.00     0.187 HD
BRANCH  17  19
HETATM   19  N1  UNL     1       7.349  10.502  45.406  1.00  0.00    -0.298 N 
HETATM   20  C3  UNL     1       7.491   9.487  44.695  1.00  0.00     0.108 C 
ATOM     21  H1  UNL     1       7.307  10.265  46.397  1.00  0.00     0.187 HD
BRANCH  20  22
HETATM   22  C2  UNL     1       7.567   8.184  45.407  1.00  0.00     0.307 C 
HETATM   23  O2  UNL     1       6.514   7.525  45.523  1.00  0.00    -0.258 OA
BRANCH  22  24
HETATM   24  O1  UNL     1       8.731   7.688  45.930  1.00  0.00    -0.322 OA
HETATM   25  C1  UNL     1       9.651   6.924  45.147  1.00  0.00     0.213 C 
ENDBRANCH  22  24
ENDBRANCH  20  22
BRANCH  20  26
HETATM   26  C15 UNL     1       7.592   9.449  43.219  1.00  0.00    -0.001 C 
HETATM   27  C16 UNL     1       7.406   8.013  42.770  1.00  0.00     0.021 C 
HETATM   28  C17 UNL     1       8.991   9.924  42.854  1.00  0.00     0.021 C 
HETATM   29  C18 UNL     1       6.600  10.301  42.496  1.00  0.00     0.021 C 
ENDBRANCH  20  26
ENDBRANCH  17  19
ENDBRANCH  11  17
ENDBRANCH   6   7
ENDBRANCH   4   6
ENDBRANCH   1   4
TORSDOF 10
ENDMDL
