MODEL 1
REMARK VINA RESULT: -6.608049960      0.000      0.000
REMARK  9 active torsions:
REMARK  status: ('A' for Active; 'I' for Inactive)
REMARK    1  A    between atoms: C2_2  and  O1_3 
REMARK    2  A    between atoms: O1_3  and  C3_4 
REMARK    3  A    between atoms: C3_4  and  C4_6 
REMARK    4  A    between atoms: C6_9  and  N1_10 
REMARK    5  A    between atoms: N1_10  and  C7_12 
REMARK    6  A    between atoms: C9_14  and  O3_15 
REMARK    7  A    between atoms: C11_17  and  O4_18 
REMARK    8  A    between atoms: C13_20  and  O5_21 
REMARK    9  A    between atoms: C15_23  and  O6_24 
ROOT
HETATM    1  C7  UNL     1       8.624   9.315  43.160  1.00  0.00     0.073 A 
HETATM    2  C8  UNL     1       9.955   9.595  42.943  1.00  0.00     0.072 A 
HETATM    3  C9  UNL     1      10.947   8.646  43.062  1.00  0.00     0.106 A 
HETATM    4  C11 UNL     1      10.621   7.369  43.411  1.00  0.00     0.138 A 
HETATM    5  C13 UNL     1       9.301   7.045  43.638  1.00  0.00     0.140 A 
HETATM    6  C15 UNL     1       8.326   8.015  43.511  1.00  0.00     0.131 A 
ENDROOT
BRANCH   1   7
HETATM    7  N1  UNL     1       7.661  10.348  43.017  1.00  0.00    -0.334 N 
ATOM      8  H1  UNL     1       7.161  10.481  42.139  1.00  0.00     0.168 HD
BRANCH   7   9
HETATM    9  C6  UNL     1       7.436  11.121  44.042  1.00  0.00     0.149 A 
HETATM   10  S1  UNL     1       8.542  12.143  44.825  1.00  0.00    -0.063 SA
HETATM   11  C5  UNL     1       7.500  12.783  46.020  1.00  0.00     0.089 A 
HETATM   12  C4  UNL     1       6.314  12.148  45.734  1.00  0.00     0.117 A 
HETATM   13  N2  UNL     1       6.316  11.312  44.725  1.00  0.00    -0.331 N 
ATOM     14  H2  UNL     1       5.465  10.813  44.467  1.00  0.00     0.168 HD
BRANCH  12  15
HETATM   15  C3  UNL     1       5.107  12.430  46.564  1.00  0.00     0.310 C 
HETATM   16  O2  UNL     1       5.134  12.201  47.781  1.00  0.00    -0.258 OA
BRANCH  15  17
HETATM   17  O1  UNL     1       3.953  12.942  46.024  1.00  0.00    -0.317 OA
BRANCH  17  18
HETATM   18  C2  UNL     1       3.780  14.267  45.608  1.00  0.00     0.175 C 
HETATM   19  C1  UNL     1       3.879  14.302  44.097  1.00  0.00     0.034 C 
ENDBRANCH  17  18
ENDBRANCH  15  17
ENDBRANCH  12  15
ENDBRANCH   7   9
ENDBRANCH   1   7
BRANCH   6  20
HETATM   20  O6  UNL     1       7.010   7.663  43.745  1.00  0.00    -0.351 OA
HETATM   21  C16 UNL     1       6.417   7.633  45.022  1.00  0.00     0.210 C 
ENDBRANCH   6  20
BRANCH   3  22
HETATM   22  O3  UNL     1      12.295   8.945  42.838  1.00  0.00    -0.353 OA
HETATM   23  C10 UNL     1      12.619  10.288  42.512  1.00  0.00     0.210 C 
ENDBRANCH   3  22
BRANCH   5  24
HETATM   24  O5  UNL     1       9.023   5.731  43.990  1.00  0.00    -0.350 OA
HETATM   25  C14 UNL     1       8.474   4.778  43.131  1.00  0.00     0.210 C 
ENDBRANCH   5  24
BRANCH   4  26
HETATM   26  O4  UNL     1      11.608   6.411  43.534  1.00  0.00    -0.351 OA
HETATM   27  C12 UNL     1      12.005   5.734  42.339  1.00  0.00     0.210 C 
ENDBRANCH   4  26
TORSDOF 9
ENDMDL
MODEL 2
REMARK VINA RESULT: -6.586127423      3.095      3.916
REMARK  9 active torsions:
REMARK  status: ('A' for Active; 'I' for Inactive)
REMARK    1  A    between atoms: C2_2  and  O1_3 
REMARK    2  A    between atoms: O1_3  and  C3_4 
REMARK    3  A    between atoms: C3_4  and  C4_6 
REMARK    4  A    between atoms: C6_9  and  N1_10 
REMARK    5  A    between atoms: N1_10  and  C7_12 
REMARK    6  A    between atoms: C9_14  and  O3_15 
REMARK    7  A    between atoms: C11_17  and  O4_18 
REMARK    8  A    between atoms: C13_20  and  O5_21 
REMARK    9  A    between atoms: C15_23  and  O6_24 
ROOT
HETATM    1  C7  UNL     1       9.237   8.658  41.968  1.00  0.00     0.073 A 
HETATM    2  C8  UNL     1      10.047   7.565  42.186  1.00  0.00     0.072 A 
HETATM    3  C9  UNL     1      10.266   6.595  41.233  1.00  0.00     0.106 A 
HETATM    4  C11 UNL     1       9.664   6.698  40.014  1.00  0.00     0.138 A 
HETATM    5  C13 UNL     1       8.845   7.775  39.752  1.00  0.00     0.140 A 
HETATM    6  C15 UNL     1       8.643   8.734  40.725  1.00  0.00     0.131 A 
ENDROOT
BRANCH   1   7
HETATM    7  N1  UNL     1       9.062   9.614  43.001  1.00  0.00    -0.334 N 
ATOM      8  H1  UNL     1       9.555  10.506  42.979  1.00  0.00     0.168 HD
BRANCH   7   9
HETATM    9  C6  UNL     1       8.252   9.319  43.978  1.00  0.00     0.149 A 
HETATM   10  S1  UNL     1       7.023   8.149  43.981  1.00  0.00    -0.063 SA
HETATM   11  C5  UNL     1       6.450   8.379  45.575  1.00  0.00     0.089 A 
HETATM   12  C4  UNL     1       7.272   9.383  46.031  1.00  0.00     0.117 A 
HETATM   13  N2  UNL     1       8.175   9.837  45.196  1.00  0.00    -0.331 N 
ATOM     14  H2  UNL     1       8.812  10.581  45.480  1.00  0.00     0.168 HD
BRANCH  12  15
HETATM   15  C3  UNL     1       7.105   9.899  47.420  1.00  0.00     0.310 C 
HETATM   16  O2  UNL     1       7.863   9.500  48.315  1.00  0.00    -0.258 OA
BRANCH  15  17
HETATM   17  O1  UNL     1       6.133  10.810  47.749  1.00  0.00    -0.317 OA
BRANCH  17  18
HETATM   18  C2  UNL     1       5.824  11.957  47.008  1.00  0.00     0.175 C 
HETATM   19  C1  UNL     1       4.570  12.573  47.595  1.00  0.00     0.034 C 
ENDBRANCH  17  18
ENDBRANCH  15  17
ENDBRANCH  12  15
ENDBRANCH   7   9
ENDBRANCH   1   7
BRANCH   6  20
HETATM   20  O6  UNL     1       7.816   9.803  40.437  1.00  0.00    -0.351 OA
HETATM   21  C16 UNL     1       6.416   9.782  40.591  1.00  0.00     0.210 C 
ENDBRANCH   6  20
BRANCH   3  22
HETATM   22  O3  UNL     1      11.092   5.491  41.468  1.00  0.00    -0.353 OA
HETATM   23  C10 UNL     1      12.159   5.661  42.390  1.00  0.00     0.210 C 
ENDBRANCH   3  22
BRANCH   5  24
HETATM   24  O5  UNL     1       8.257   7.833  38.496  1.00  0.00    -0.350 OA
HETATM   25  C14 UNL     1       8.749   8.576  37.422  1.00  0.00     0.210 C 
ENDBRANCH   5  24
BRANCH   4  26
HETATM   26  O4  UNL     1       9.876   5.731  39.052  1.00  0.00    -0.351 OA
HETATM   27  C12 UNL     1       8.927   4.664  38.988  1.00  0.00     0.210 C 
ENDBRANCH   4  26
TORSDOF 9
ENDMDL
MODEL 3
REMARK VINA RESULT: -6.471751601      1.875      2.417
REMARK  9 active torsions:
REMARK  status: ('A' for Active; 'I' for Inactive)
REMARK    1  A    between atoms: C2_2  and  O1_3 
REMARK    2  A    between atoms: O1_3  and  C3_4 
REMARK    3  A    between atoms: C3_4  and  C4_6 
REMARK    4  A    between atoms: C6_9  and  N1_10 
REMARK    5  A    between atoms: N1_10  and  C7_12 
REMARK    6  A    between atoms: C9_14  and  O3_15 
REMARK    7  A    between atoms: C11_17  and  O4_18 
REMARK    8  A    between atoms: C13_20  and  O5_21 
REMARK    9  A    between atoms: C15_23  and  O6_24 
ROOT
HETATM    1  C7  UNL     1       8.144  10.199  44.553  1.00  0.00     0.073 A 
HETATM    2  C8  UNL     1       9.032  10.614  43.585  1.00  0.00     0.072 A 
HETATM    3  C9  UNL     1       9.874   9.748  42.923  1.00  0.00     0.106 A 
HETATM    4  C11 UNL     1       9.846   8.418  43.222  1.00  0.00     0.138 A 
HETATM    5  C13 UNL     1       8.974   7.958  44.184  1.00  0.00     0.140 A 
HETATM    6  C15 UNL     1       8.140   8.848  44.833  1.00  0.00     0.131 A 
ENDROOT
BRANCH   1   7
HETATM    7  N1  UNL     1       7.309  11.153  45.190  1.00  0.00    -0.334 N 
ATOM      8  H1  UNL     1       7.443  11.396  46.171  1.00  0.00     0.168 HD
BRANCH   7   9
HETATM    9  C6  UNL     1       6.366  11.710  44.483  1.00  0.00     0.149 A 
HETATM   10  S1  UNL     1       5.689  11.139  43.036  1.00  0.00    -0.063 SA
HETATM   11  C5  UNL     1       4.562  12.395  42.764  1.00  0.00     0.089 A 
HETATM   12  C4  UNL     1       4.781  13.213  43.848  1.00  0.00     0.117 A 
HETATM   13  N2  UNL     1       5.703  12.836  44.700  1.00  0.00    -0.331 N 
ATOM     14  H2  UNL     1       5.908  13.404  45.522  1.00  0.00     0.168 HD
BRANCH  12  15
HETATM   15  C3  UNL     1       3.981  14.463  44.003  1.00  0.00     0.310 C 
HETATM   16  O2  UNL     1       3.281  14.860  43.062  1.00  0.00    -0.258 OA
BRANCH  15  17
HETATM   17  O1  UNL     1       3.992  15.198  45.162  1.00  0.00    -0.317 OA
BRANCH  17  18
HETATM   18  C2  UNL     1       2.904  15.341  46.032  1.00  0.00     0.175 C 
HETATM   19  C1  UNL     1       2.969  14.224  47.054  1.00  0.00     0.034 C 
ENDBRANCH  17  18
ENDBRANCH  15  17
ENDBRANCH  12  15
ENDBRANCH   7   9
ENDBRANCH   1   7
BRANCH   6  20
HETATM   20  O6  UNL     1       7.274   8.361  45.795  1.00  0.00    -0.351 OA
HETATM   21  C16 UNL     1       5.937   8.000  45.540  1.00  0.00     0.210 C 
ENDBRANCH   6  20
BRANCH   3  22
HETATM   22  O3  UNL     1      10.770  10.184  41.941  1.00  0.00    -0.353 OA
HETATM   23  C10 UNL     1      11.962  10.817  42.382  1.00  0.00     0.210 C 
ENDBRANCH   3  22
BRANCH   5  24
HETATM   24  O5  UNL     1       8.985   6.596  44.452  1.00  0.00    -0.350 OA
HETATM   25  C14 UNL     1       8.151   5.660  43.839  1.00  0.00     0.210 C 
ENDBRANCH   5  24
BRANCH   4  26
HETATM   26  O4  UNL     1      10.687   7.542  42.565  1.00  0.00    -0.351 OA
HETATM   27  C12 UNL     1      10.243   7.047  41.300  1.00  0.00     0.210 C 
ENDBRANCH   4  26
TORSDOF 9
ENDMDL
MODEL 4
REMARK VINA RESULT: -6.451587701      1.824      1.961
REMARK  9 active torsions:
REMARK  status: ('A' for Active; 'I' for Inactive)
REMARK    1  A    between atoms: C2_2  and  O1_3 
REMARK    2  A    between atoms: O1_3  and  C3_4 
REMARK    3  A    between atoms: C3_4  and  C4_6 
REMARK    4  A    between atoms: C6_9  and  N1_10 
REMARK    5  A    between atoms: N1_10  and  C7_12 
REMARK    6  A    between atoms: C9_14  and  O3_15 
REMARK    7  A    between atoms: C11_17  and  O4_18 
REMARK    8  A    between atoms: C13_20  and  O5_21 
REMARK    9  A    between atoms: C15_23  and  O6_24 
ROOT
HETATM    1  C7  UNL     1       8.508   8.915  42.332  1.00  0.00     0.073 A 
HETATM    2  C8  UNL     1       9.796   9.260  42.679  1.00  0.00     0.072 A 
HETATM    3  C9  UNL     1      10.872   8.424  42.482  1.00  0.00     0.106 A 
HETATM    4  C11 UNL     1      10.680   7.195  41.922  1.00  0.00     0.138 A 
HETATM    5  C13 UNL     1       9.408   6.808  41.559  1.00  0.00     0.140 A 
HETATM    6  C15 UNL     1       8.346   7.667  41.767  1.00  0.00     0.131 A 
ENDROOT
BRANCH   1   7
HETATM    7  N1  UNL     1       7.452   9.833  42.566  1.00  0.00    -0.334 N 
ATOM      8  H1  UNL     1       7.009  10.333  41.795  1.00  0.00     0.168 HD
BRANCH   7   9
HETATM    9  C6  UNL     1       7.064  10.018  43.797  1.00  0.00     0.149 A 
HETATM   10  S1  UNL     1       7.020   8.872  45.048  1.00  0.00    -0.063 SA
HETATM   11  C5  UNL     1       6.415   9.873  46.294  1.00  0.00     0.089 A 
HETATM   12  C4  UNL     1       6.276  11.080  45.648  1.00  0.00     0.117 A 
HETATM   13  N2  UNL     1       6.614  11.119  44.383  1.00  0.00    -0.331 N 
ATOM     14  H2  UNL     1       6.533  11.987  43.854  1.00  0.00     0.168 HD
BRANCH  12  15
HETATM   15  C3  UNL     1       5.760  12.262  46.397  1.00  0.00     0.310 C 
HETATM   16  O2  UNL     1       5.663  12.210  47.631  1.00  0.00    -0.258 OA
BRANCH  15  17
HETATM   17  O1  UNL     1       5.385  13.421  45.764  1.00  0.00    -0.317 OA
BRANCH  17  18
HETATM   18  C2  UNL     1       4.064  13.790  45.483  1.00  0.00     0.175 C 
HETATM   19  C1  UNL     1       4.009  14.291  44.055  1.00  0.00     0.034 C 
ENDBRANCH  17  18
ENDBRANCH  15  17
ENDBRANCH  12  15
ENDBRANCH   7   9
ENDBRANCH   1   7
BRANCH   6  20
HETATM   20  O6  UNL     1       7.080   7.254  41.394  1.00  0.00    -0.351 OA
HETATM   21  C16 UNL     1       6.477   7.576  40.163  1.00  0.00     0.210 C 
ENDBRANCH   6  20
BRANCH   3  22
HETATM   22  O3  UNL     1      12.174   8.788  42.840  1.00  0.00    -0.353 OA
HETATM   23  C10 UNL     1      12.564  10.131  42.599  1.00  0.00     0.210 C 
ENDBRANCH   3  22
BRANCH   5  24
HETATM   24  O5  UNL     1       9.265   5.549  40.993  1.00  0.00    -0.350 OA
HETATM   25  C14 UNL     1       9.343   5.279  39.626  1.00  0.00     0.210 C 
ENDBRANCH   5  24
BRANCH   4  26
HETATM   26  O4  UNL     1      11.752   6.349  41.722  1.00  0.00    -0.351 OA
HETATM   27  C12 UNL     1      12.097   5.477  42.800  1.00  0.00     0.210 C 
ENDBRANCH   4  26
TORSDOF 9
ENDMDL
MODEL 5
REMARK VINA RESULT: -6.424816931      0.983      1.463
REMARK  9 active torsions:
REMARK  status: ('A' for Active; 'I' for Inactive)
REMARK    1  A    between atoms: C2_2  and  O1_3 
REMARK    2  A    between atoms: O1_3  and  C3_4 
REMARK    3  A    between atoms: C3_4  and  C4_6 
REMARK    4  A    between atoms: C6_9  and  N1_10 
REMARK    5  A    between atoms: N1_10  and  C7_12 
REMARK    6  A    between atoms: C9_14  and  O3_15 
REMARK    7  A    between atoms: C11_17  and  O4_18 
REMARK    8  A    between atoms: C13_20  and  O5_21 
REMARK    9  A    between atoms: C15_23  and  O6_24 
ROOT
HETATM    1  C7  UNL     1       8.357   9.583  43.178  1.00  0.00     0.073 A 
HETATM    2  C8  UNL     1       9.661   9.926  42.892  1.00  0.00     0.072 A 
HETATM    3  C9  UNL     1      10.714   9.052  43.048  1.00  0.00     0.106 A 
HETATM    4  C11 UNL     1      10.482   7.788  43.505  1.00  0.00     0.138 A 
HETATM    5  C13 UNL     1       9.193   7.403  43.805  1.00  0.00     0.140 A 
HETATM    6  C15 UNL     1       8.155   8.299  43.639  1.00  0.00     0.131 A 
ENDROOT
BRANCH   1   7
HETATM    7  N1  UNL     1       7.327  10.540  42.991  1.00  0.00    -0.334 N 
ATOM      8  H1  UNL     1       6.899  10.679  42.076  1.00  0.00     0.168 HD
BRANCH   7   9
HETATM    9  C6  UNL     1       6.944  11.237  44.023  1.00  0.00     0.149 A 
HETATM   10  S1  UNL     1       7.799  11.499  45.466  1.00  0.00    -0.063 SA
HETATM   11  C5  UNL     1       6.652  12.478  46.273  1.00  0.00     0.089 A 
HETATM   12  C4  UNL     1       5.638  12.548  45.347  1.00  0.00     0.117 A 
HETATM   13  N2  UNL     1       5.817  11.908  44.218  1.00  0.00    -0.331 N 
ATOM     14  H2  UNL     1       5.098  11.926  43.495  1.00  0.00     0.168 HD
BRANCH  12  15
HETATM   15  C3  UNL     1       4.407  13.331  45.660  1.00  0.00     0.310 C 
HETATM   16  O2  UNL     1       4.188  14.393  45.061  1.00  0.00    -0.258 OA
BRANCH  15  17
HETATM   17  O1  UNL     1       3.496  12.915  46.599  1.00  0.00    -0.317 OA
BRANCH  17  18
HETATM   18  C2  UNL     1       3.219  13.580  47.799  1.00  0.00     0.175 C 
HETATM   19  C1  UNL     1       4.031  12.924  48.898  1.00  0.00     0.034 C 
ENDBRANCH  17  18
ENDBRANCH  15  17
ENDBRANCH  12  15
ENDBRANCH   7   9
ENDBRANCH   1   7
BRANCH   6  20
HETATM   20  O6  UNL     1       6.872   7.887  43.946  1.00  0.00    -0.351 OA
HETATM   21  C16 UNL     1       6.341   7.869  45.250  1.00  0.00     0.210 C 
ENDBRANCH   6  20
BRANCH   3  22
HETATM   22  O3  UNL     1      12.033   9.414  42.753  1.00  0.00    -0.353 OA
HETATM   23  C10 UNL     1      12.245  10.699  42.190  1.00  0.00     0.210 C 
ENDBRANCH   3  22
BRANCH   5  24
HETATM   24  O5  UNL     1       9.010   6.106  44.266  1.00  0.00    -0.350 OA
HETATM   25  C14 UNL     1       8.527   5.049  43.494  1.00  0.00     0.210 C 
ENDBRANCH   5  24
BRANCH   4  26
HETATM   26  O4  UNL     1      11.531   6.905  43.666  1.00  0.00    -0.351 OA
HETATM   27  C12 UNL     1      11.909   6.136  42.523  1.00  0.00     0.210 C 
ENDBRANCH   4  26
TORSDOF 9
ENDMDL
