MODEL 1
REMARK VINA RESULT: -7.816949363      0.000      0.000
REMARK  14 active torsions:
REMARK  status: ('A' for Active; 'I' for Inactive)
REMARK    1  A    between atoms: C2_2  and  C4_4 
REMARK    2  A    between atoms: C4_4  and  O1_5 
REMARK    3  A    between atoms: C4_4  and  C5_7 
REMARK    4  A    between atoms: C6_8  and  O2_9 
REMARK    5  A    between atoms: O2_9  and  C7_10 
REMARK    6  A    between atoms: C7_10  and  C8_11 
REMARK    7  A    between atoms: C8_11  and  O3_14 
REMARK    8  A    between atoms: C12_17  and  O4_18 
REMARK    9  A    between atoms: O4_18  and  C13_19 
REMARK   10  A    between atoms: C20_26  and  O5_27 
REMARK   11  A    between atoms: C21_29  and  O6_30 
REMARK   12  A    between atoms: C21_29  and  C22_32 
REMARK   13  A    between atoms: C22_32  and  O7_33 
REMARK   14  A    between atoms: C22_32  and  C23_35 
ROOT
HETATM    1  C23 UNL     1       9.554 -18.892 -48.339  1.00  0.00     0.058 A 
HETATM    2  C24 UNL     1       9.172 -19.348 -49.580  1.00  0.00     0.115 A 
HETATM    3  N1  UNL     1       7.993 -19.057 -50.145  1.00  0.00    -0.370 N 
ATOM      4  H1  UNL     1       7.762 -19.422 -51.069  1.00  0.00     0.164 HD
HETATM    5  C25 UNL     1       7.128 -18.289 -49.494  1.00  0.00     0.128 A 
HETATM    6  C26 UNL     1       7.457 -17.807 -48.253  1.00  0.00     0.129 A 
HETATM    7  C27 UNL     1       6.538 -16.979 -47.538  1.00  0.00     0.119 C 
HETATM    8  N2  UNL     1       5.777 -16.311 -46.960  1.00  0.00    -0.190 NA
HETATM    9  N3  UNL     1       8.636 -18.118 -47.725  1.00  0.00    -0.347 N 
ATOM     10  H3  UNL     1       8.860 -17.749 -46.801  1.00  0.00     0.166 HD
ENDROOT
BRANCH   1  11
HETATM   11  C22 UNL     1      10.845 -19.256 -47.787  1.00  0.00     0.206 C 
BRANCH  11  12
HETATM   12  C21 UNL     1      10.978 -20.267 -46.715  1.00  0.00     0.126 C 
HETATM   13  C5  UNL     1      10.204 -20.311 -45.509  1.00  0.00     0.084 C 
HETATM   14  C6  UNL     1      10.560 -19.010 -44.729  1.00  0.00     0.133 C 
HETATM   15  C11 UNL     1      11.828 -19.412 -43.960  1.00  0.00     0.067 C 
HETATM   16  C12 UNL     1      12.739 -20.248 -44.829  1.00  0.00     0.156 C 
HETATM   17  C20 UNL     1      12.464 -20.137 -46.282  1.00  0.00     0.185 C 
BRANCH  13  18
HETATM   18  C4  UNL     1       8.776 -20.642 -45.370  1.00  0.00     0.131 C 
BRANCH  18  19
HETATM   19  C2  UNL     1       8.432 -21.829 -44.500  1.00  0.00     0.007 C 
HETATM   20  C1  UNL     1       7.256 -22.626 -44.940  1.00  0.00     0.012 C 
HETATM   21  C3  UNL     1       9.622 -22.724 -44.256  1.00  0.00     0.012 C 
ENDBRANCH  18  19
BRANCH  18  22
HETATM   22  O1  UNL     1       8.097 -20.901 -46.549  1.00  0.00    -0.395 OA
ATOM     23  H1  UNL     1       8.748 -21.336 -47.086  1.00  0.00     0.210 HD
ENDBRANCH  18  22
ENDBRANCH  13  18
BRANCH  14  24
HETATM   24  O2  UNL     1       9.571 -18.606 -43.930  1.00  0.00    -0.382 OA
BRANCH  24  25
HETATM   25  C7  UNL     1       9.681 -18.374 -42.609  1.00  0.00     0.205 C 
BRANCH  25  26
HETATM   26  C8  UNL     1       8.865 -19.157 -41.641  1.00  0.00     0.072 C 
HETATM   27  C9  UNL     1       7.439 -19.323 -42.042  1.00  0.00     0.047 C 
HETATM   28  C10 UNL     1       9.500 -20.474 -41.251  1.00  0.00     0.047 C 
BRANCH  26  29
HETATM   29  O3  UNL     1       8.911 -18.397 -40.416  1.00  0.00    -0.388 OA
ATOM     30  H3  UNL     1       8.023 -18.421 -40.080  1.00  0.00     0.210 HD
ENDBRANCH  26  29
ENDBRANCH  25  26
ENDBRANCH  24  25
ENDBRANCH  14  24
BRANCH  16  31
HETATM   31  O4  UNL     1      12.962 -21.531 -44.354  1.00  0.00    -0.378 OA
BRANCH  31  32
HETATM   32  C13 UNL     1      13.261 -21.666 -43.049  1.00  0.00     0.122 C 
HETATM   33  C14 UNL     1      12.840 -22.985 -42.434  1.00  0.00     0.033 C 
HETATM   34  C15 UNL     1      14.106 -23.717 -42.063  1.00  0.00     0.011 C 
HETATM   35  C16 UNL     1      15.036 -22.578 -41.720  1.00  0.00    -0.045 C 
HETATM   36  C17 UNL     1      14.676 -22.146 -40.294  1.00  0.00     0.015 C 
HETATM   37  C18 UNL     1      16.475 -22.977 -41.742  1.00  0.00     0.015 C 
HETATM   38  C19 UNL     1      14.708 -21.458 -42.685  1.00  0.00     0.040 C 
ENDBRANCH  31  32
ENDBRANCH  16  31
BRANCH  17  39
HETATM   39  O5  UNL     1      12.995 -18.887 -46.685  1.00  0.00    -0.390 OA
ATOM     40  H5  UNL     1      12.941 -18.872 -47.633  1.00  0.00     0.210 HD
ENDBRANCH  17  39
BRANCH  12  41
HETATM   41  O6  UNL     1      10.900 -21.517 -47.381  1.00  0.00    -0.383 OA
ATOM     42  H6  UNL     1      11.140 -22.215 -46.783  1.00  0.00     0.210 HD
ENDBRANCH  12  41
ENDBRANCH  11  12
BRANCH  11  43
HETATM   43  O7  UNL     1      11.431 -19.926 -48.939  1.00  0.00    -0.386 OA
ATOM     44  H7  UNL     1      10.673 -20.130 -49.474  1.00  0.00     0.210 HD
ENDBRANCH  11  43
ENDBRANCH   1  11
TORSDOF 14
ENDMDL
MODEL 2
REMARK VINA RESULT: -7.648425817      3.145      7.957
REMARK  14 active torsions:
REMARK  status: ('A' for Active; 'I' for Inactive)
REMARK    1  A    between atoms: C2_2  and  C4_4 
REMARK    2  A    between atoms: C4_4  and  O1_5 
REMARK    3  A    between atoms: C4_4  and  C5_7 
REMARK    4  A    between atoms: C6_8  and  O2_9 
REMARK    5  A    between atoms: O2_9  and  C7_10 
REMARK    6  A    between atoms: C7_10  and  C8_11 
REMARK    7  A    between atoms: C8_11  and  O3_14 
REMARK    8  A    between atoms: C12_17  and  O4_18 
REMARK    9  A    between atoms: O4_18  and  C13_19 
REMARK   10  A    between atoms: C20_26  and  O5_27 
REMARK   11  A    between atoms: C21_29  and  O6_30 
REMARK   12  A    between atoms: C21_29  and  C22_32 
REMARK   13  A    between atoms: C22_32  and  O7_33 
REMARK   14  A    between atoms: C22_32  and  C23_35 
ROOT
HETATM    1  C23 UNL     1      10.164 -20.530 -42.522  1.00  0.00     0.058 A 
HETATM    2  C24 UNL     1      11.538 -20.489 -42.573  1.00  0.00     0.115 A 
HETATM    3  N1  UNL     1      12.322 -21.528 -42.256  1.00  0.00    -0.370 N 
ATOM      4  H1  UNL     1      13.338 -21.442 -42.311  1.00  0.00     0.164 HD
HETATM    5  C25 UNL     1      11.769 -22.670 -41.868  1.00  0.00     0.128 A 
HETATM    6  C26 UNL     1      10.403 -22.767 -41.800  1.00  0.00     0.129 A 
HETATM    7  C27 UNL     1       9.790 -23.989 -41.385  1.00  0.00     0.119 C 
HETATM    8  N2  UNL     1       9.301 -24.990 -41.037  1.00  0.00    -0.190 NA
HETATM    9  N3  UNL     1       9.658 -21.715 -42.122  1.00  0.00    -0.347 N 
ATOM     10  H3  UNL     1       8.645 -21.809 -42.063  1.00  0.00     0.166 HD
ENDROOT
BRANCH   1  11
HETATM   11  C22 UNL     1       9.379 -19.362 -42.873  1.00  0.00     0.206 C 
BRANCH  11  12
HETATM   12  C21 UNL     1       8.552 -19.317 -44.098  1.00  0.00     0.126 C 
HETATM   13  C5  UNL     1       9.008 -19.613 -45.424  1.00  0.00     0.084 C 
HETATM   14  C6  UNL     1      10.080 -18.532 -45.756  1.00  0.00     0.133 C 
HETATM   15  C11 UNL     1       9.230 -17.363 -46.282  1.00  0.00     0.067 C 
HETATM   16  C12 UNL     1       7.975 -17.200 -45.456  1.00  0.00     0.156 C 
HETATM   17  C20 UNL     1       8.033 -17.853 -44.127  1.00  0.00     0.185 C 
BRANCH  13  18
HETATM   18  C4  UNL     1       9.390 -20.927 -45.970  1.00  0.00     0.131 C 
BRANCH  18  19
HETATM   19  C2  UNL     1       8.511 -21.495 -47.060  1.00  0.00     0.007 C 
HETATM   20  C1  UNL     1       7.411 -22.383 -46.598  1.00  0.00     0.012 C 
HETATM   21  C3  UNL     1       7.979 -20.426 -47.983  1.00  0.00     0.012 C 
ENDBRANCH  18  19
BRANCH  18  22
HETATM   22  O1  UNL     1       9.475 -21.962 -45.054  1.00  0.00    -0.395 OA
ATOM     23  H1  UNL     1       9.819 -21.539 -44.277  1.00  0.00     0.210 HD
ENDBRANCH  18  22
ENDBRANCH  13  18
BRANCH  14  24
HETATM   24  O2  UNL     1      10.983 -18.959 -46.639  1.00  0.00    -0.382 OA
BRANCH  24  25
HETATM   25  C7  UNL     1      12.285 -18.621 -46.650  1.00  0.00     0.205 C 
BRANCH  25  26
HETATM   26  C8  UNL     1      13.334 -19.677 -46.616  1.00  0.00     0.072 C 
HETATM   27  C9  UNL     1      14.006 -19.824 -45.293  1.00  0.00     0.047 C 
HETATM   28  C10 UNL     1      12.863 -21.006 -47.162  1.00  0.00     0.047 C 
BRANCH  26  29
HETATM   29  O3  UNL     1      14.317 -19.255 -47.584  1.00  0.00    -0.388 OA
ATOM     30  H3  UNL     1      14.349 -19.958 -48.222  1.00  0.00     0.210 HD
ENDBRANCH  26  29
ENDBRANCH  25  26
ENDBRANCH  24  25
ENDBRANCH  14  24
BRANCH  16  31
HETATM   31  O4  UNL     1       6.798 -17.378 -46.166  1.00  0.00    -0.378 OA
BRANCH  31  32
HETATM   32  C13 UNL     1       5.980 -16.316 -46.287  1.00  0.00     0.122 C 
HETATM   33  C14 UNL     1       6.014 -15.352 -45.119  1.00  0.00     0.033 C 
HETATM   34  C15 UNL     1       6.594 -14.059 -45.639  1.00  0.00     0.011 C 
HETATM   35  C16 UNL     1       6.112 -14.055 -47.070  1.00  0.00    -0.045 C 
HETATM   36  C17 UNL     1       4.658 -13.575 -47.031  1.00  0.00     0.015 C 
HETATM   37  C18 UNL     1       6.892 -13.125 -47.942  1.00  0.00     0.015 C 
HETATM   38  C19 UNL     1       6.157 -15.494 -47.537  1.00  0.00     0.040 C 
ENDBRANCH  31  32
ENDBRANCH  16  31
BRANCH  17  39
HETATM   39  O5  UNL     1       8.842 -17.019 -43.317  1.00  0.00    -0.390 OA
ATOM     40  H5  UNL     1       9.717 -17.389 -43.350  1.00  0.00     0.210 HD
ENDBRANCH  17  39
BRANCH  12  41
HETATM   41  O6  UNL     1       7.411 -20.103 -43.796  1.00  0.00    -0.383 OA
ATOM     42  H6  UNL     1       6.849 -19.635 -43.189  1.00  0.00     0.210 HD
ENDBRANCH  12  41
ENDBRANCH  11  12
BRANCH  11  43
HETATM   43  O7  UNL     1       8.384 -19.399 -41.810  1.00  0.00    -0.386 OA
ATOM     44  H7  UNL     1       8.584 -18.619 -41.306  1.00  0.00     0.210 HD
ENDBRANCH  11  43
ENDBRANCH   1  11
TORSDOF 14
ENDMDL
MODEL 3
REMARK VINA RESULT: -7.578501474      3.023      8.083
REMARK  14 active torsions:
REMARK  status: ('A' for Active; 'I' for Inactive)
REMARK    1  A    between atoms: C2_2  and  C4_4 
REMARK    2  A    between atoms: C4_4  and  O1_5 
REMARK    3  A    between atoms: C4_4  and  C5_7 
REMARK    4  A    between atoms: C6_8  and  O2_9 
REMARK    5  A    between atoms: O2_9  and  C7_10 
REMARK    6  A    between atoms: C7_10  and  C8_11 
REMARK    7  A    between atoms: C8_11  and  O3_14 
REMARK    8  A    between atoms: C12_17  and  O4_18 
REMARK    9  A    between atoms: O4_18  and  C13_19 
REMARK   10  A    between atoms: C20_26  and  O5_27 
REMARK   11  A    between atoms: C21_29  and  O6_30 
REMARK   12  A    between atoms: C21_29  and  C22_32 
REMARK   13  A    between atoms: C22_32  and  O7_33 
REMARK   14  A    between atoms: C22_32  and  C23_35 
ROOT
HETATM    1  C23 UNL     1       9.560 -20.521 -41.647  1.00  0.00     0.058 A 
HETATM    2  C24 UNL     1       8.885 -21.427 -40.862  1.00  0.00     0.115 A 
HETATM    3  N1  UNL     1       9.473 -22.465 -40.255  1.00  0.00    -0.370 N 
ATOM      4  H1  UNL     1       8.923 -23.107 -39.683  1.00  0.00     0.164 HD
HETATM    5  C25 UNL     1      10.778 -22.654 -40.403  1.00  0.00     0.128 A 
HETATM    6  C26 UNL     1      11.502 -21.782 -41.175  1.00  0.00     0.129 A 
HETATM    7  C27 UNL     1      12.908 -21.969 -41.346  1.00  0.00     0.119 C 
HETATM    8  N2  UNL     1      14.054 -22.138 -41.484  1.00  0.00    -0.190 NA
HETATM    9  N3  UNL     1      10.882 -20.763 -41.761  1.00  0.00    -0.347 N 
ATOM     10  H3  UNL     1      11.439 -20.127 -42.331  1.00  0.00     0.166 HD
ENDROOT
BRANCH   1  11
HETATM   11  C22 UNL     1       8.853 -19.424 -42.279  1.00  0.00     0.206 C 
BRANCH  11  12
HETATM   12  C21 UNL     1       8.362 -19.512 -43.672  1.00  0.00     0.126 C 
HETATM   13  C5  UNL     1       9.138 -19.925 -44.805  1.00  0.00     0.084 C 
HETATM   14  C6  UNL     1      10.265 -18.860 -44.959  1.00  0.00     0.133 C 
HETATM   15  C11 UNL     1       9.583 -17.764 -45.794  1.00  0.00     0.067 C 
HETATM   16  C12 UNL     1       8.161 -17.546 -45.331  1.00  0.00     0.156 C 
HETATM   17  C20 UNL     1       7.877 -18.068 -43.973  1.00  0.00     0.185 C 
BRANCH  13  18
HETATM   18  C4  UNL     1       9.638 -21.277 -45.107  1.00  0.00     0.131 C 
BRANCH  18  19
HETATM   19  C2  UNL     1       9.130 -21.926 -46.373  1.00  0.00     0.007 C 
HETATM   20  C1  UNL     1       8.668 -23.333 -46.232  1.00  0.00     0.012 C 
HETATM   21  C3  UNL     1       8.083 -21.089 -47.065  1.00  0.00     0.012 C 
ENDBRANCH  18  19
BRANCH  18  22
HETATM   22  O1  UNL     1       9.405 -22.239 -44.138  1.00  0.00    -0.395 OA
ATOM     23  H1  UNL     1       8.902 -21.772 -43.482  1.00  0.00     0.210 HD
ENDBRANCH  18  22
ENDBRANCH  13  18
BRANCH  14  24
HETATM   24  O2  UNL     1      11.360 -19.353 -45.540  1.00  0.00    -0.382 OA
BRANCH  24  25
HETATM   25  C7  UNL     1      12.151 -18.690 -46.403  1.00  0.00     0.205 C 
BRANCH  25  26
HETATM   26  C8  UNL     1      12.483 -19.288 -47.726  1.00  0.00     0.072 C 
HETATM   27  C9  UNL     1      13.516 -20.362 -47.664  1.00  0.00     0.047 C 
HETATM   28  C10 UNL     1      11.265 -19.720 -48.511  1.00  0.00     0.047 C 
BRANCH  26  29
HETATM   29  O3  UNL     1      13.006 -18.195 -48.507  1.00  0.00    -0.388 OA
ATOM     30  H3  UNL     1      13.692 -18.580 -49.039  1.00  0.00     0.210 HD
ENDBRANCH  26  29
ENDBRANCH  25  26
ENDBRANCH  24  25
ENDBRANCH  14  24
BRANCH  16  31
HETATM   31  O4  UNL     1       7.201 -17.813 -46.295  1.00  0.00    -0.378 OA
BRANCH  31  32
HETATM   32  C13 UNL     1       7.400 -17.311 -47.526  1.00  0.00     0.122 C 
HETATM   33  C14 UNL     1       6.589 -17.972 -48.622  1.00  0.00     0.033 C 
HETATM   34  C15 UNL     1       5.622 -16.934 -49.135  1.00  0.00     0.011 C 
HETATM   35  C16 UNL     1       6.408 -15.658 -48.950  1.00  0.00    -0.045 C 
HETATM   36  C17 UNL     1       7.375 -15.576 -50.136  1.00  0.00     0.015 C 
HETATM   37  C18 UNL     1       5.544 -14.439 -48.962  1.00  0.00     0.015 C 
HETATM   38  C19 UNL     1       7.193 -15.825 -47.667  1.00  0.00     0.040 C 
ENDBRANCH  31  32
ENDBRANCH  16  31
BRANCH  17  39
HETATM   39  O5  UNL     1       8.459 -17.145 -43.070  1.00  0.00    -0.390 OA
ATOM     40  H5  UNL     1       8.093 -17.346 -42.217  1.00  0.00     0.210 HD
ENDBRANCH  17  39
BRANCH  12  41
HETATM   41  O6  UNL     1       7.178 -20.287 -43.594  1.00  0.00    -0.383 OA
ATOM     42  H6  UNL     1       6.532 -19.835 -43.064  1.00  0.00     0.210 HD
ENDBRANCH  12  41
ENDBRANCH  11  12
BRANCH  11  43
HETATM   43  O7  UNL     1       7.622 -19.436 -41.501  1.00  0.00    -0.386 OA
ATOM     44  H7  UNL     1       7.811 -20.069 -40.818  1.00  0.00     0.210 HD
ENDBRANCH  11  43
ENDBRANCH   1  11
TORSDOF 14
ENDMDL
MODEL 4
REMARK VINA RESULT: -7.552353317      2.971      7.990
REMARK  14 active torsions:
REMARK  status: ('A' for Active; 'I' for Inactive)
REMARK    1  A    between atoms: C2_2  and  C4_4 
REMARK    2  A    between atoms: C4_4  and  O1_5 
REMARK    3  A    between atoms: C4_4  and  C5_7 
REMARK    4  A    between atoms: C6_8  and  O2_9 
REMARK    5  A    between atoms: O2_9  and  C7_10 
REMARK    6  A    between atoms: C7_10  and  C8_11 
REMARK    7  A    between atoms: C8_11  and  O3_14 
REMARK    8  A    between atoms: C12_17  and  O4_18 
REMARK    9  A    between atoms: O4_18  and  C13_19 
REMARK   10  A    between atoms: C20_26  and  O5_27 
REMARK   11  A    between atoms: C21_29  and  O6_30 
REMARK   12  A    between atoms: C21_29  and  C22_32 
REMARK   13  A    between atoms: C22_32  and  O7_33 
REMARK   14  A    between atoms: C22_32  and  C23_35 
ROOT
HETATM    1  C23 UNL     1       9.938 -20.103 -42.229  1.00  0.00     0.058 A 
HETATM    2  C24 UNL     1       9.476 -21.049 -41.343  1.00  0.00     0.115 A 
HETATM    3  N1  UNL     1      10.231 -22.047 -40.866  1.00  0.00    -0.370 N 
ATOM      4  H1  UNL     1       9.837 -22.722 -40.210  1.00  0.00     0.164 HD
HETATM    5  C25 UNL     1      11.496 -22.152 -41.253  1.00  0.00     0.128 A 
HETATM    6  C26 UNL     1      12.008 -21.236 -42.135  1.00  0.00     0.129 A 
HETATM    7  C27 UNL     1      13.369 -21.333 -42.562  1.00  0.00     0.119 C 
HETATM    8  N2  UNL     1      14.478 -21.428 -42.910  1.00  0.00    -0.190 NA
HETATM    9  N3  UNL     1      11.229 -20.260 -42.586  1.00  0.00    -0.347 N 
ATOM     10  H3  UNL     1      11.630 -19.590 -43.242  1.00  0.00     0.166 HD
ENDROOT
BRANCH   1  11
HETATM   11  C22 UNL     1       9.058 -19.054 -42.709  1.00  0.00     0.206 C 
BRANCH  11  12
HETATM   12  C21 UNL     1       8.400 -19.133 -44.031  1.00  0.00     0.126 C 
HETATM   13  C5  UNL     1       9.035 -19.515 -45.259  1.00  0.00     0.084 C 
HETATM   14  C6  UNL     1      10.115 -18.426 -45.535  1.00  0.00     0.133 C 
HETATM   15  C11 UNL     1       9.314 -17.332 -46.260  1.00  0.00     0.067 C 
HETATM   16  C12 UNL     1       7.957 -17.149 -45.621  1.00  0.00     0.156 C 
HETATM   17  C20 UNL     1       7.854 -17.695 -44.247  1.00  0.00     0.185 C 
BRANCH  13  18
HETATM   18  C4  UNL     1       9.518 -20.853 -45.641  1.00  0.00     0.131 C 
BRANCH  18  19
HETATM   19  C2  UNL     1       8.821 -21.524 -46.802  1.00  0.00     0.007 C 
HETATM   20  C1  UNL     1       7.713 -22.447 -46.437  1.00  0.00     0.012 C 
HETATM   21  C3  UNL     1       8.368 -20.535 -47.847  1.00  0.00     0.012 C 
ENDBRANCH  18  19
BRANCH  18  22
HETATM   22  O1  UNL     1       9.485 -21.816 -44.647  1.00  0.00    -0.395 OA
ATOM     23  H1  UNL     1      10.401 -22.025 -44.512  1.00  0.00     0.210 HD
ENDBRANCH  18  22
ENDBRANCH  13  18
BRANCH  14  24
HETATM   24  O2  UNL     1      11.137 -18.889 -46.255  1.00  0.00    -0.382 OA
BRANCH  24  25
HETATM   25  C7  UNL     1      12.432 -18.843 -45.891  1.00  0.00     0.205 C 
BRANCH  25  26
HETATM   26  C8  UNL     1      13.379 -19.893 -46.358  1.00  0.00     0.072 C 
HETATM   27  C9  UNL     1      12.876 -21.286 -46.182  1.00  0.00     0.047 C 
HETATM   28  C10 UNL     1      13.898 -19.652 -47.758  1.00  0.00     0.047 C 
BRANCH  26  29
HETATM   29  O3  UNL     1      14.554 -19.724 -45.540  1.00  0.00    -0.388 OA
ATOM     30  H3  UNL     1      14.306 -20.053 -44.684  1.00  0.00     0.210 HD
ENDBRANCH  26  29
ENDBRANCH  25  26
ENDBRANCH  24  25
ENDBRANCH  14  24
BRANCH  16  31
HETATM   31  O4  UNL     1       6.889 -17.423 -46.461  1.00  0.00    -0.378 OA
BRANCH  31  32
HETATM   32  C13 UNL     1       6.034 -16.418 -46.726  1.00  0.00     0.122 C 
HETATM   33  C14 UNL     1       5.788 -15.472 -45.568  1.00  0.00     0.033 C 
HETATM   34  C15 UNL     1       6.361 -14.135 -45.969  1.00  0.00     0.011 C 
HETATM   35  C16 UNL     1       6.149 -14.140 -47.464  1.00  0.00    -0.045 C 
HETATM   36  C17 UNL     1       4.681 -13.761 -47.689  1.00  0.00     0.015 C 
HETATM   37  C18 UNL     1       7.007 -13.145 -48.174  1.00  0.00     0.015 C 
HETATM   38  C19 UNL     1       6.378 -15.565 -47.919  1.00  0.00     0.040 C 
ENDBRANCH  31  32
ENDBRANCH  16  31
BRANCH  17  39
HETATM   39  O5  UNL     1       8.528 -16.773 -43.409  1.00  0.00    -0.390 OA
ATOM     40  H5  UNL     1       9.456 -16.939 -43.529  1.00  0.00     0.210 HD
ENDBRANCH  17  39
BRANCH  12  41
HETATM   41  O6  UNL     1       7.248 -19.933 -43.818  1.00  0.00    -0.383 OA
ATOM     42  H6  UNL     1       7.372 -20.786 -44.215  1.00  0.00     0.210 HD
ENDBRANCH  12  41
ENDBRANCH  11  12
BRANCH  11  43
HETATM   43  O7  UNL     1       7.947 -19.214 -41.783  1.00  0.00    -0.386 OA
ATOM     44  H7  UNL     1       7.877 -18.354 -41.385  1.00  0.00     0.210 HD
ENDBRANCH  11  43
ENDBRANCH   1  11
TORSDOF 14
ENDMDL
MODEL 5
REMARK VINA RESULT: -7.529394584      3.108      8.075
REMARK  14 active torsions:
REMARK  status: ('A' for Active; 'I' for Inactive)
REMARK    1  A    between atoms: C2_2  and  C4_4 
REMARK    2  A    between atoms: C4_4  and  O1_5 
REMARK    3  A    between atoms: C4_4  and  C5_7 
REMARK    4  A    between atoms: C6_8  and  O2_9 
REMARK    5  A    between atoms: O2_9  and  C7_10 
REMARK    6  A    between atoms: C7_10  and  C8_11 
REMARK    7  A    between atoms: C8_11  and  O3_14 
REMARK    8  A    between atoms: C12_17  and  O4_18 
REMARK    9  A    between atoms: O4_18  and  C13_19 
REMARK   10  A    between atoms: C20_26  and  O5_27 
REMARK   11  A    between atoms: C21_29  and  O6_30 
REMARK   12  A    between atoms: C21_29  and  C22_32 
REMARK   13  A    between atoms: C22_32  and  O7_33 
REMARK   14  A    between atoms: C22_32  and  C23_35 
ROOT
HETATM    1  C23 UNL     1       9.742 -20.528 -41.684  1.00  0.00     0.058 A 
HETATM    2  C24 UNL     1       9.124 -21.468 -40.892  1.00  0.00     0.115 A 
HETATM    3  N1  UNL     1       9.761 -22.516 -40.353  1.00  0.00    -0.370 N 
ATOM      4  H1  UNL     1       9.253 -23.184 -39.772  1.00  0.00     0.164 HD
HETATM    5  C25 UNL     1      11.059 -22.679 -40.579  1.00  0.00     0.128 A 
HETATM    6  C26 UNL     1      11.725 -21.771 -41.362  1.00  0.00     0.129 A 
HETATM    7  C27 UNL     1      13.122 -21.931 -41.617  1.00  0.00     0.119 C 
HETATM    8  N2  UNL     1      14.260 -22.077 -41.824  1.00  0.00    -0.190 NA
HETATM    9  N3  UNL     1      11.059 -20.746 -41.880  1.00  0.00    -0.347 N 
ATOM     10  H3  UNL     1      11.573 -20.083 -42.459  1.00  0.00     0.166 HD
ENDROOT
BRANCH   1  11
HETATM   11  C22 UNL     1       8.984 -19.423 -42.241  1.00  0.00     0.206 C 
BRANCH  11  12
HETATM   12  C21 UNL     1       8.442 -19.464 -43.617  1.00  0.00     0.126 C 
HETATM   13  C5  UNL     1       9.165 -19.870 -44.787  1.00  0.00     0.084 C 
HETATM   14  C6  UNL     1      10.314 -18.832 -44.957  1.00  0.00     0.133 C 
HETATM   15  C11 UNL     1       9.634 -17.698 -45.740  1.00  0.00     0.067 C 
HETATM   16  C12 UNL     1       8.235 -17.454 -45.221  1.00  0.00     0.156 C 
HETATM   17  C20 UNL     1       7.985 -18.001 -43.866  1.00  0.00     0.185 C 
BRANCH  13  18
HETATM   18  C4  UNL     1       9.617 -21.227 -45.138  1.00  0.00     0.131 C 
BRANCH  18  19
HETATM   19  C2  UNL     1       9.070 -21.819 -46.416  1.00  0.00     0.007 C 
HETATM   20  C1  UNL     1       8.592 -23.224 -46.319  1.00  0.00     0.012 C 
HETATM   21  C3  UNL     1       8.019 -20.941 -47.050  1.00  0.00     0.012 C 
ENDBRANCH  18  19
BRANCH  18  22
HETATM   22  O1  UNL     1       9.366 -22.211 -44.196  1.00  0.00    -0.395 OA
ATOM     23  H1  UNL     1       9.904 -22.937 -44.489  1.00  0.00     0.210 HD
ENDBRANCH  18  22
ENDBRANCH  13  18
BRANCH  14  24
HETATM   24  O2  UNL     1      11.374 -19.340 -45.588  1.00  0.00    -0.382 OA
BRANCH  24  25
HETATM   25  C7  UNL     1      12.184 -18.662 -46.423  1.00  0.00     0.205 C 
BRANCH  25  26
HETATM   26  C8  UNL     1      12.533 -19.230 -47.754  1.00  0.00     0.072 C 
HETATM   27  C9  UNL     1      13.633 -20.235 -47.716  1.00  0.00     0.047 C 
HETATM   28  C10 UNL     1      11.332 -19.734 -48.523  1.00  0.00     0.047 C 
BRANCH  26  29
HETATM   29  O3  UNL     1      12.972 -18.100 -48.536  1.00  0.00    -0.388 OA
ATOM     30  H3  UNL     1      12.178 -17.617 -48.735  1.00  0.00     0.210 HD
ENDBRANCH  26  29
ENDBRANCH  25  26
ENDBRANCH  24  25
ENDBRANCH  14  24
BRANCH  16  31
HETATM   31  O4  UNL     1       7.234 -17.672 -46.154  1.00  0.00    -0.378 OA
BRANCH  31  32
HETATM   32  C13 UNL     1       6.295 -16.718 -46.291  1.00  0.00     0.122 C 
HETATM   33  C14 UNL     1       6.125 -15.817 -45.085  1.00  0.00     0.033 C 
HETATM   34  C15 UNL     1       6.565 -14.437 -45.508  1.00  0.00     0.011 C 
HETATM   35  C16 UNL     1       6.184 -14.422 -46.969  1.00  0.00    -0.045 C 
HETATM   36  C17 UNL     1       4.680 -14.133 -47.016  1.00  0.00     0.015 C 
HETATM   37  C18 UNL     1       6.892 -13.358 -47.742  1.00  0.00     0.015 C 
HETATM   38  C19 UNL     1       6.447 -15.819 -47.490  1.00  0.00     0.040 C 
ENDBRANCH  31  32
ENDBRANCH  16  31
BRANCH  17  39
HETATM   39  O5  UNL     1       8.625 -17.116 -42.963  1.00  0.00    -0.390 OA
ATOM     40  H5  UNL     1       8.699 -17.588 -42.142  1.00  0.00     0.210 HD
ENDBRANCH  17  39
BRANCH  12  41
HETATM   41  O6  UNL     1       7.240 -20.210 -43.513  1.00  0.00    -0.383 OA
ATOM     42  H6  UNL     1       6.658 -19.795 -42.887  1.00  0.00     0.210 HD
ENDBRANCH  12  41
ENDBRANCH  11  12
BRANCH  11  43
HETATM   43  O7  UNL     1       7.786 -19.500 -41.418  1.00  0.00    -0.386 OA
ATOM     44  H7  UNL     1       7.883 -20.338 -40.980  1.00  0.00     0.210 HD
ENDBRANCH  11  43
ENDBRANCH   1  11
TORSDOF 14
ENDMDL
