MODEL 1
REMARK VINA RESULT: -8.478872926      0.000      0.000
REMARK  13 active torsions:
REMARK  status: ('A' for Active; 'I' for Inactive)
REMARK    1  A    between atoms: C2_2  and  C4_4 
REMARK    2  A    between atoms: C4_4  and  C5_5 
REMARK    3  A    between atoms: C5_5  and  O1_6 
REMARK    4  A    between atoms: O1_6  and  C6_7 
REMARK       I    between atoms: C6_7  and  N1_9 
REMARK    5  A    between atoms: N1_9  and  C7_10 
REMARK    6  A    between atoms: C9_12  and  C10_13 
REMARK       I    between atoms: C10_13  and  N2_15 
REMARK    7  A    between atoms: N2_15  and  N3_17 
REMARK    8  A    between atoms: N3_17  and  C11_19 
REMARK    9  A    between atoms: C13_21  and  O4_22 
REMARK   10  A    between atoms: C14_26  and  O5_27 
REMARK       I    between atoms: N5_29  and  C15_30 
REMARK   11  A    between atoms: C15_30  and  C16_32 
REMARK       I    between atoms: C16_32  and  N6_34 
REMARK   12  A    between atoms: N6_34  and  O8_36 
REMARK   13  A    between atoms: O8_36  and  S1_37 
ROOT
HETATM    1  C7  UNL     1       7.113 -18.131 -47.142  1.00  0.00     0.193 C 
HETATM    2  C8  UNL     1       7.788 -19.118 -46.117  1.00  0.00     0.104 C 
HETATM    3  C9  UNL     1       7.768 -18.263 -44.892  1.00  0.00     0.087 C 
HETATM    4  N5  UNL     1       7.400 -16.919 -45.206  1.00  0.00    -0.305 N 
HETATM    5  C15 UNL     1       6.707 -15.933 -44.503  1.00  0.00     0.318 C 
HETATM    6  O6  UNL     1       6.602 -16.104 -43.290  1.00  0.00    -0.262 OA
HETATM    7  C19 UNL     1       7.738 -16.775 -46.594  1.00  0.00     0.172 C 
ENDROOT
BRANCH   3   8
HETATM    8  C10 UNL     1       8.797 -18.609 -43.962  1.00  0.00     0.282 C 
HETATM    9  O3  UNL     1       8.904 -18.317 -42.783  1.00  0.00    -0.265 OA
HETATM   10  N2  UNL     1       9.814 -19.434 -44.567  1.00  0.00    -0.264 N 
ATOM     11  H2  UNL     1       9.732 -19.932 -45.453  1.00  0.00     0.190 HD
BRANCH  10  12
HETATM   12  N3  UNL     1      11.049 -19.432 -43.635  1.00  0.00    -0.294 N 
ATOM     13  H3  UNL     1      11.142 -19.556 -42.627  1.00  0.00     0.187 HD
BRANCH  12  14
HETATM   14  C11 UNL     1      12.070 -19.186 -44.719  1.00  0.00     0.103 A 
HETATM   15  C12 UNL     1      12.003 -18.460 -45.834  1.00  0.00     0.091 A 
HETATM   16  C13 UNL     1      13.280 -18.683 -46.440  1.00  0.00     0.144 A 
HETATM   17  N4  UNL     1      14.144 -19.456 -45.536  1.00  0.00    -0.316 N 
HETATM   18  C14 UNL     1      13.194 -19.769 -44.453  1.00  0.00     0.171 A 
ATOM     19  H4  UNL     1      15.127 -19.707 -45.632  1.00  0.00     0.170 HD
BRANCH  16  20
HETATM   20  O4  UNL     1      13.728 -18.350 -47.703  1.00  0.00    -0.346 OA
ATOM     21  H4  UNL     1      14.285 -18.839 -48.299  1.00  0.00     0.219 HD
ENDBRANCH  16  20
BRANCH  18  22
HETATM   22  O5  UNL     1      13.662 -20.524 -43.473  1.00  0.00    -0.344 OA
ATOM     23  H5  UNL     1      14.265 -20.405 -42.750  1.00  0.00     0.219 HD
ENDBRANCH  18  22
ENDBRANCH  12  14
ENDBRANCH  10  12
ENDBRANCH   3   8
BRANCH   1  24
HETATM   24  N1  UNL     1       7.863 -18.331 -48.237  1.00  0.00    -0.383 NA
HETATM   25  C6  UNL     1       8.597 -18.527 -49.310  1.00  0.00     0.435 C 
HETATM   26  O2  UNL     1       8.833 -18.536 -50.417  1.00  0.00    -0.221 OA
BRANCH  25  27
HETATM   27  O1  UNL     1       9.845 -19.053 -48.389  1.00  0.00    -0.293 OA
BRANCH  27  28
HETATM   28  C5  UNL     1      10.577 -20.155 -48.770  1.00  0.00     0.182 C 
BRANCH  28  29
HETATM   29  C4  UNL     1      10.288 -21.221 -47.726  1.00  0.00     0.031 C 
BRANCH  29  30
HETATM   30  C2  UNL     1      11.463 -22.158 -47.675  1.00  0.00    -0.021 C 
HETATM   31  C1  UNL     1      11.767 -22.439 -46.234  1.00  0.00     0.009 C 
HETATM   32  C3  UNL     1      12.651 -21.649 -48.369  1.00  0.00     0.009 C 
ENDBRANCH  29  30
ENDBRANCH  28  29
ENDBRANCH  27  28
ENDBRANCH  25  27
ENDBRANCH   1  24
BRANCH   5  33
HETATM   33  C16 UNL     1       6.136 -14.822 -45.118  1.00  0.00     0.334 C 
HETATM   34  O7  UNL     1       6.706 -13.720 -45.230  1.00  0.00    -0.260 OA
HETATM   35  N6  UNL     1       4.834 -15.040 -45.771  1.00  0.00    -0.212 N 
ATOM     36  H6  UNL     1       4.377 -15.952 -45.758  1.00  0.00     0.199 HD
BRANCH  35  37
HETATM   37  O8  UNL     1       4.265 -13.962 -46.398  1.00  0.00    -0.185 OA
BRANCH  37  38
HETATM   38  S1  UNL     1       3.991 -13.954 -47.943  1.00  0.00     0.074 S 
HETATM   39  C17 UNL     1       2.978 -15.419 -48.155  1.00  0.00     0.145 C 
HETATM   40  C18 UNL     1       5.608 -13.482 -48.613  1.00  0.00     0.145 C 
HETATM   41  O9  UNL     1       2.904 -12.291 -47.282  1.00  0.00    -0.242 OA
ENDBRANCH  37  38
ENDBRANCH  35  37
ENDBRANCH   5  33
TORSDOF 13
ENDMDL
MODEL 2
REMARK VINA RESULT: -8.143445584      3.182      5.424
REMARK  13 active torsions:
REMARK  status: ('A' for Active; 'I' for Inactive)
REMARK    1  A    between atoms: C2_2  and  C4_4 
REMARK    2  A    between atoms: C4_4  and  C5_5 
REMARK    3  A    between atoms: C5_5  and  O1_6 
REMARK    4  A    between atoms: O1_6  and  C6_7 
REMARK       I    between atoms: C6_7  and  N1_9 
REMARK    5  A    between atoms: N1_9  and  C7_10 
REMARK    6  A    between atoms: C9_12  and  C10_13 
REMARK       I    between atoms: C10_13  and  N2_15 
REMARK    7  A    between atoms: N2_15  and  N3_17 
REMARK    8  A    between atoms: N3_17  and  C11_19 
REMARK    9  A    between atoms: C13_21  and  O4_22 
REMARK   10  A    between atoms: C14_26  and  O5_27 
REMARK       I    between atoms: N5_29  and  C15_30 
REMARK   11  A    between atoms: C15_30  and  C16_32 
REMARK       I    between atoms: C16_32  and  N6_34 
REMARK   12  A    between atoms: N6_34  and  O8_36 
REMARK   13  A    between atoms: O8_36  and  S1_37 
ROOT
HETATM    1  C7  UNL     1       7.455 -15.398 -48.545  1.00  0.00     0.193 C 
HETATM    2  C8  UNL     1       8.379 -16.601 -48.122  1.00  0.00     0.104 C 
HETATM    3  C9  UNL     1       8.045 -17.570 -49.208  1.00  0.00     0.087 C 
HETATM    4  N5  UNL     1       6.924 -17.123 -49.973  1.00  0.00    -0.305 N 
HETATM    5  C15 UNL     1       6.567 -17.270 -51.314  1.00  0.00     0.318 C 
HETATM    6  O6  UNL     1       7.149 -18.156 -51.936  1.00  0.00    -0.262 OA
HETATM    7  C19 UNL     1       6.220 -16.242 -49.085  1.00  0.00     0.172 C 
ENDROOT
BRANCH   3   8
HETATM    8  C10 UNL     1       8.248 -18.930 -48.816  1.00  0.00     0.282 C 
HETATM    9  O3  UNL     1       7.453 -19.728 -48.351  1.00  0.00    -0.265 OA
HETATM   10  N2  UNL     1       9.607 -19.357 -49.043  1.00  0.00    -0.264 N 
ATOM     11  H2  UNL     1      10.296 -18.880 -49.624  1.00  0.00     0.190 HD
BRANCH  10  12
HETATM   12  N3  UNL     1       9.836 -20.666 -48.250  1.00  0.00    -0.294 N 
ATOM     13  H3  UNL     1       9.201 -21.412 -47.968  1.00  0.00     0.187 HD
BRANCH  12  14
HETATM   14  C11 UNL     1      11.318 -20.468 -48.034  1.00  0.00     0.103 A 
HETATM   15  C12 UNL     1      12.080 -19.381 -48.149  1.00  0.00     0.091 A 
HETATM   16  C13 UNL     1      13.390 -19.875 -47.855  1.00  0.00     0.144 A 
HETATM   17  N4  UNL     1      13.318 -21.276 -47.415  1.00  0.00    -0.316 N 
HETATM   18  C14 UNL     1      11.888 -21.558 -47.634  1.00  0.00     0.171 A 
ATOM     19  H4  UNL     1      14.054 -21.885 -47.058  1.00  0.00     0.170 HD
BRANCH  16  20
HETATM   20  O4  UNL     1      14.618 -19.261 -48.002  1.00  0.00    -0.346 OA
ATOM     21  H4  UNL     1      15.329 -19.167 -47.378  1.00  0.00     0.219 HD
ENDBRANCH  16  20
BRANCH  18  22
HETATM   22  O5  UNL     1      11.495 -22.793 -47.374  1.00  0.00    -0.344 OA
ATOM     23  H5  UNL     1      11.171 -23.259 -46.612  1.00  0.00     0.219 HD
ENDBRANCH  18  22
ENDBRANCH  12  14
ENDBRANCH  10  12
ENDBRANCH   3   8
BRANCH   1  24
HETATM   24  N1  UNL     1       6.984 -14.993 -47.354  1.00  0.00    -0.383 NA
HETATM   25  C6  UNL     1       6.522 -14.597 -46.188  1.00  0.00     0.435 C 
HETATM   26  O2  UNL     1       6.220 -13.852 -45.392  1.00  0.00    -0.221 OA
BRANCH  25  27
HETATM   27  O1  UNL     1       6.292 -16.151 -45.725  1.00  0.00    -0.293 OA
BRANCH  27  28
HETATM   28  C5  UNL     1       6.739 -16.587 -44.498  1.00  0.00     0.182 C 
BRANCH  28  29
HETATM   29  C4  UNL     1       7.558 -17.836 -44.781  1.00  0.00     0.031 C 
BRANCH  29  30
HETATM   30  C2  UNL     1       8.984 -17.560 -44.391  1.00  0.00    -0.021 C 
HETATM   31  C1  UNL     1       9.875 -18.287 -45.353  1.00  0.00     0.009 C 
HETATM   32  C3  UNL     1       9.297 -17.933 -43.006  1.00  0.00     0.009 C 
ENDBRANCH  29  30
ENDBRANCH  28  29
ENDBRANCH  27  28
ENDBRANCH  25  27
ENDBRANCH   1  24
BRANCH   5  33
HETATM   33  C16 UNL     1       5.628 -16.456 -51.942  1.00  0.00     0.334 C 
HETATM   34  O7  UNL     1       5.861 -15.295 -52.329  1.00  0.00    -0.260 OA
HETATM   35  N6  UNL     1       4.336 -17.086 -52.262  1.00  0.00    -0.212 N 
ATOM     36  H6  UNL     1       4.143 -18.059 -52.022  1.00  0.00     0.199 HD
BRANCH  35  37
HETATM   37  O8  UNL     1       3.405 -16.307 -52.897  1.00  0.00    -0.185 OA
BRANCH  37  38
HETATM   38  S1  UNL     1       2.013 -15.987 -52.247  1.00  0.00     0.074 S 
HETATM   39  C17 UNL     1       1.705 -14.314 -52.815  1.00  0.00     0.145 C 
HETATM   40  C18 UNL     1       2.196 -16.699 -50.589  1.00  0.00     0.145 C 
HETATM   41  O9  UNL     1       1.524 -17.442 -53.672  1.00  0.00    -0.242 OA
ENDBRANCH  37  38
ENDBRANCH  35  37
ENDBRANCH   5  33
TORSDOF 13
ENDMDL
MODEL 3
REMARK VINA RESULT: -8.121610980      3.405      8.949
REMARK  13 active torsions:
REMARK  status: ('A' for Active; 'I' for Inactive)
REMARK    1  A    between atoms: C2_2  and  C4_4 
REMARK    2  A    between atoms: C4_4  and  C5_5 
REMARK    3  A    between atoms: C5_5  and  O1_6 
REMARK    4  A    between atoms: O1_6  and  C6_7 
REMARK       I    between atoms: C6_7  and  N1_9 
REMARK    5  A    between atoms: N1_9  and  C7_10 
REMARK    6  A    between atoms: C9_12  and  C10_13 
REMARK       I    between atoms: C10_13  and  N2_15 
REMARK    7  A    between atoms: N2_15  and  N3_17 
REMARK    8  A    between atoms: N3_17  and  C11_19 
REMARK    9  A    between atoms: C13_21  and  O4_22 
REMARK   10  A    between atoms: C14_26  and  O5_27 
REMARK       I    between atoms: N5_29  and  C15_30 
REMARK   11  A    between atoms: C15_30  and  C16_32 
REMARK       I    between atoms: C16_32  and  N6_34 
REMARK   12  A    between atoms: N6_34  and  O8_36 
REMARK   13  A    between atoms: O8_36  and  S1_37 
ROOT
HETATM    1  C7  UNL     1       6.874 -17.286 -45.837  1.00  0.00     0.193 C 
HETATM    2  C8  UNL     1       6.433 -16.671 -47.219  1.00  0.00     0.104 C 
HETATM    3  C9  UNL     1       7.601 -17.075 -48.059  1.00  0.00     0.087 C 
HETATM    4  N5  UNL     1       8.662 -17.593 -47.255  1.00  0.00    -0.305 N 
HETATM    5  C15 UNL     1       9.637 -18.565 -47.477  1.00  0.00     0.318 C 
HETATM    6  O6  UNL     1       9.834 -18.877 -48.649  1.00  0.00    -0.262 OA
HETATM    7  C19 UNL     1       8.437 -17.016 -45.959  1.00  0.00     0.172 C 
ENDROOT
BRANCH   3   8
HETATM    8  C10 UNL     1       7.801 -16.207 -49.177  1.00  0.00     0.282 C 
HETATM    9  O3  UNL     1       7.785 -14.989 -49.224  1.00  0.00    -0.265 OA
HETATM   10  N2  UNL     1       8.071 -16.943 -50.387  1.00  0.00    -0.264 N 
ATOM     11  H2  UNL     1       8.338 -17.926 -50.443  1.00  0.00     0.190 HD
BRANCH  10  12
HETATM   12  N3  UNL     1       7.887 -15.981 -51.585  1.00  0.00    -0.294 N 
ATOM     13  H3  UNL     1       8.454 -15.208 -51.931  1.00  0.00     0.187 HD
BRANCH  12  14
HETATM   14  C11 UNL     1       6.585 -16.572 -52.069  1.00  0.00     0.103 A 
HETATM   15  C12 UNL     1       5.364 -16.045 -52.154  1.00  0.00     0.091 A 
HETATM   16  C13 UNL     1       4.578 -17.134 -52.645  1.00  0.00     0.144 A 
HETATM   17  N4  UNL     1       5.442 -18.275 -52.982  1.00  0.00    -0.316 N 
HETATM   18  C14 UNL     1       6.745 -17.782 -52.500  1.00  0.00     0.171 A 
ATOM     19  H4  UNL     1       5.207 -19.161 -53.428  1.00  0.00     0.170 HD
BRANCH  16  20
HETATM   20  O4  UNL     1       3.206 -17.254 -52.753  1.00  0.00    -0.346 OA
ATOM     21  H4  UNL     1       2.536 -16.580 -52.761  1.00  0.00     0.219 HD
ENDBRANCH  16  20
BRANCH  18  22
HETATM   22  O5  UNL     1       7.760 -18.621 -52.613  1.00  0.00    -0.344 OA
ATOM     23  H5  UNL     1       7.954 -19.500 -52.310  1.00  0.00     0.219 HD
ENDBRANCH  18  22
ENDBRANCH  12  14
ENDBRANCH  10  12
ENDBRANCH   3   8
BRANCH   1  24
HETATM   24  N1  UNL     1       6.514 -16.312 -44.986  1.00  0.00    -0.383 NA
HETATM   25  C6  UNL     1       6.161 -15.359 -44.152  1.00  0.00     0.435 C 
HETATM   26  O2  UNL     1       5.870 -14.908 -43.156  1.00  0.00    -0.221 OA
BRANCH  25  27
HETATM   27  O1  UNL     1       6.202 -14.255 -45.361  1.00  0.00    -0.293 OA
BRANCH  27  28
HETATM   28  C5  UNL     1       5.129 -14.111 -46.212  1.00  0.00     0.182 C 
BRANCH  28  29
HETATM   29  C4  UNL     1       5.493 -12.965 -47.142  1.00  0.00     0.031 C 
BRANCH  29  30
HETATM   30  C2  UNL     1       4.264 -12.582 -47.918  1.00  0.00    -0.021 C 
HETATM   31  C1  UNL     1       3.560 -11.495 -47.162  1.00  0.00     0.009 C 
HETATM   32  C3  UNL     1       3.358 -13.708 -48.176  1.00  0.00     0.009 C 
ENDBRANCH  29  30
ENDBRANCH  28  29
ENDBRANCH  27  28
ENDBRANCH  25  27
ENDBRANCH   1  24
BRANCH   5  33
HETATM   33  C16 UNL     1      10.344 -19.180 -46.447  1.00  0.00     0.334 C 
HETATM   34  O7  UNL     1       9.865 -20.055 -45.700  1.00  0.00    -0.260 OA
HETATM   35  N6  UNL     1      11.774 -18.840 -46.349  1.00  0.00    -0.212 N 
ATOM     36  H6  UNL     1      12.210 -18.181 -46.994  1.00  0.00     0.199 HD
BRANCH  35  37
HETATM   37  O8  UNL     1      12.491 -19.449 -45.353  1.00  0.00    -0.185 OA
BRANCH  37  38
HETATM   38  S1  UNL     1      13.294 -20.774 -45.603  1.00  0.00     0.074 S 
HETATM   39  C17 UNL     1      13.193 -20.946 -47.385  1.00  0.00     0.145 C 
HETATM   40  C18 UNL     1      12.725 -21.827 -44.241  1.00  0.00     0.145 C 
HETATM   41  O9  UNL     1      14.792 -19.445 -44.990  1.00  0.00    -0.242 OA
ENDBRANCH  37  38
ENDBRANCH  35  37
ENDBRANCH   5  33
TORSDOF 13
ENDMDL
MODEL 4
REMARK VINA RESULT: -8.087151501      1.768      3.363
REMARK  13 active torsions:
REMARK  status: ('A' for Active; 'I' for Inactive)
REMARK    1  A    between atoms: C2_2  and  C4_4 
REMARK    2  A    between atoms: C4_4  and  C5_5 
REMARK    3  A    between atoms: C5_5  and  O1_6 
REMARK    4  A    between atoms: O1_6  and  C6_7 
REMARK       I    between atoms: C6_7  and  N1_9 
REMARK    5  A    between atoms: N1_9  and  C7_10 
REMARK    6  A    between atoms: C9_12  and  C10_13 
REMARK       I    between atoms: C10_13  and  N2_15 
REMARK    7  A    between atoms: N2_15  and  N3_17 
REMARK    8  A    between atoms: N3_17  and  C11_19 
REMARK    9  A    between atoms: C13_21  and  O4_22 
REMARK   10  A    between atoms: C14_26  and  O5_27 
REMARK       I    between atoms: N5_29  and  C15_30 
REMARK   11  A    between atoms: C15_30  and  C16_32 
REMARK       I    between atoms: C16_32  and  N6_34 
REMARK   12  A    between atoms: N6_34  and  O8_36 
REMARK   13  A    between atoms: O8_36  and  S1_37 
ROOT
HETATM    1  C7  UNL     1       6.964 -17.978 -47.377  1.00  0.00     0.193 C 
HETATM    2  C8  UNL     1       7.723 -18.991 -46.440  1.00  0.00     0.104 C 
HETATM    3  C9  UNL     1       7.764 -18.188 -45.181  1.00  0.00     0.087 C 
HETATM    4  N5  UNL     1       7.350 -16.841 -45.413  1.00  0.00    -0.305 N 
HETATM    5  C15 UNL     1       6.683 -15.901 -44.626  1.00  0.00     0.318 C 
HETATM    6  O6  UNL     1       6.660 -16.125 -43.417  1.00  0.00    -0.262 OA
HETATM    7  C19 UNL     1       7.595 -16.632 -46.812  1.00  0.00     0.172 C 
ENDROOT
BRANCH   3   8
HETATM    8  C10 UNL     1       8.857 -18.549 -44.333  1.00  0.00     0.282 C 
HETATM    9  O3  UNL     1       9.126 -18.159 -43.209  1.00  0.00    -0.265 OA
HETATM   10  N2  UNL     1       9.716 -19.529 -44.951  1.00  0.00    -0.264 N 
ATOM     11  H2  UNL     1       9.488 -20.097 -45.766  1.00  0.00     0.190 HD
BRANCH  10  12
HETATM   12  N3  UNL     1      11.046 -19.567 -44.160  1.00  0.00    -0.294 N 
ATOM     13  H3  UNL     1      11.253 -19.785 -43.186  1.00  0.00     0.187 HD
BRANCH  12  14
HETATM   14  C11 UNL     1      11.934 -19.172 -45.315  1.00  0.00     0.103 A 
HETATM   15  C12 UNL     1      11.660 -18.524 -46.447  1.00  0.00     0.091 A 
HETATM   16  C13 UNL     1      12.919 -18.517 -47.126  1.00  0.00     0.144 A 
HETATM   17  N4  UNL     1      13.969 -19.065 -46.255  1.00  0.00    -0.316 N 
HETATM   18  C14 UNL     1      13.165 -19.510 -45.103  1.00  0.00     0.171 A 
ATOM     19  H4  UNL     1      14.976 -19.120 -46.406  1.00  0.00     0.170 HD
BRANCH  16  20
HETATM   20  O4  UNL     1      13.218 -18.159 -48.426  1.00  0.00    -0.346 OA
ATOM     21  H4  UNL     1      13.996 -18.339 -48.942  1.00  0.00     0.219 HD
ENDBRANCH  16  20
BRANCH  18  22
HETATM   22  O5  UNL     1      13.828 -20.114 -44.133  1.00  0.00    -0.344 OA
ATOM     23  H5  UNL     1      13.922 -19.996 -43.195  1.00  0.00     0.219 HD
ENDBRANCH  18  22
ENDBRANCH  12  14
ENDBRANCH  10  12
ENDBRANCH   3   8
BRANCH   1  24
HETATM   24  N1  UNL     1       7.646 -18.115 -48.525  1.00  0.00    -0.383 NA
HETATM   25  C6  UNL     1       8.315 -18.250 -49.649  1.00  0.00     0.435 C 
HETATM   26  O2  UNL     1       8.947 -18.783 -50.422  1.00  0.00    -0.221 OA
BRANCH  25  27
HETATM   27  O1  UNL     1       7.946 -16.714 -50.080  1.00  0.00    -0.293 OA
BRANCH  27  28
HETATM   28  C5  UNL     1       7.556 -16.424 -51.369  1.00  0.00     0.182 C 
BRANCH  28  29
HETATM   29  C4  UNL     1       6.039 -16.517 -51.369  1.00  0.00     0.031 C 
BRANCH  29  30
HETATM   30  C2  UNL     1       5.613 -17.224 -52.626  1.00  0.00    -0.021 C 
HETATM   31  C1  UNL     1       6.842 -17.765 -53.291  1.00  0.00     0.009 C 
HETATM   32  C3  UNL     1       4.852 -16.373 -53.548  1.00  0.00     0.009 C 
ENDBRANCH  29  30
ENDBRANCH  28  29
ENDBRANCH  27  28
ENDBRANCH  25  27
ENDBRANCH   1  24
BRANCH   5  33
HETATM   33  C16 UNL     1       6.052 -14.779 -45.156  1.00  0.00     0.334 C 
HETATM   34  O7  UNL     1       6.555 -13.639 -45.167  1.00  0.00    -0.260 OA
HETATM   35  N6  UNL     1       4.773 -15.019 -45.845  1.00  0.00    -0.212 N 
ATOM     36  H6  UNL     1       4.373 -15.955 -45.914  1.00  0.00     0.199 HD
BRANCH  35  37
HETATM   37  O8  UNL     1       4.146 -13.929 -46.389  1.00  0.00    -0.185 OA
BRANCH  37  38
HETATM   38  S1  UNL     1       3.885 -13.810 -47.932  1.00  0.00     0.074 S 
HETATM   39  C17 UNL     1       2.820 -15.219 -48.245  1.00  0.00     0.145 C 
HETATM   40  C18 UNL     1       5.523 -13.355 -48.561  1.00  0.00     0.145 C 
HETATM   41  O9  UNL     1       2.853 -12.155 -47.169  1.00  0.00    -0.242 OA
ENDBRANCH  37  38
ENDBRANCH  35  37
ENDBRANCH   5  33
TORSDOF 13
ENDMDL
MODEL 5
REMARK VINA RESULT: -8.085480299      2.724      6.455
REMARK  13 active torsions:
REMARK  status: ('A' for Active; 'I' for Inactive)
REMARK    1  A    between atoms: C2_2  and  C4_4 
REMARK    2  A    between atoms: C4_4  and  C5_5 
REMARK    3  A    between atoms: C5_5  and  O1_6 
REMARK    4  A    between atoms: O1_6  and  C6_7 
REMARK       I    between atoms: C6_7  and  N1_9 
REMARK    5  A    between atoms: N1_9  and  C7_10 
REMARK    6  A    between atoms: C9_12  and  C10_13 
REMARK       I    between atoms: C10_13  and  N2_15 
REMARK    7  A    between atoms: N2_15  and  N3_17 
REMARK    8  A    between atoms: N3_17  and  C11_19 
REMARK    9  A    between atoms: C13_21  and  O4_22 
REMARK   10  A    between atoms: C14_26  and  O5_27 
REMARK       I    between atoms: N5_29  and  C15_30 
REMARK   11  A    between atoms: C15_30  and  C16_32 
REMARK       I    between atoms: C16_32  and  N6_34 
REMARK   12  A    between atoms: N6_34  and  O8_36 
REMARK   13  A    between atoms: O8_36  and  S1_37 
ROOT
HETATM    1  C7  UNL     1       7.650 -15.925 -47.222  1.00  0.00     0.193 C 
HETATM    2  C8  UNL     1       8.452 -17.104 -46.554  1.00  0.00     0.104 C 
HETATM    3  C9  UNL     1       8.514 -18.053 -47.706  1.00  0.00     0.087 C 
HETATM    4  N5  UNL     1       7.665 -17.626 -48.773  1.00  0.00    -0.305 N 
HETATM    5  C15 UNL     1       7.746 -17.746 -50.161  1.00  0.00     0.318 C 
HETATM    6  O6  UNL     1       8.531 -18.592 -50.586  1.00  0.00    -0.262 OA
HETATM    7  C19 UNL     1       6.682 -16.799 -48.133  1.00  0.00     0.172 C 
ENDROOT
BRANCH   3   8
HETATM    8  C10 UNL     1       8.647 -19.414 -47.292  1.00  0.00     0.282 C 
HETATM    9  O3  UNL     1       8.157 -19.983 -46.331  1.00  0.00    -0.265 OA
HETATM   10  N2  UNL     1       9.483 -20.170 -48.192  1.00  0.00    -0.264 N 
ATOM     11  H2  UNL     1       9.759 -19.888 -49.133  1.00  0.00     0.190 HD
BRANCH  10  12
HETATM   12  N3  UNL     1       9.887 -21.484 -47.482  1.00  0.00    -0.294 N 
ATOM     13  H3  UNL     1       9.352 -22.315 -47.230  1.00  0.00     0.187 HD
BRANCH  12  14
HETATM   14  C11 UNL     1      11.340 -21.123 -47.286  1.00  0.00     0.103 A 
HETATM   15  C12 UNL     1      11.988 -20.654 -46.220  1.00  0.00     0.091 A 
HETATM   16  C13 UNL     1      13.322 -20.480 -46.706  1.00  0.00     0.144 A 
HETATM   17  N4  UNL     1      13.441 -21.019 -48.069  1.00  0.00    -0.316 N 
HETATM   18  C14 UNL     1      12.036 -21.365 -48.350  1.00  0.00     0.171 A 
ATOM     19  H4  UNL     1      14.267 -21.124 -48.658  1.00  0.00     0.170 HD
BRANCH  16  20
HETATM   20  O4  UNL     1      14.399 -19.845 -46.121  1.00  0.00    -0.346 OA
ATOM     21  H4  UNL     1      15.201 -20.211 -45.765  1.00  0.00     0.219 HD
ENDBRANCH  16  20
BRANCH  18  22
HETATM   22  O5  UNL     1      11.787 -21.844 -49.556  1.00  0.00    -0.344 OA
ATOM     23  H5  UNL     1      12.072 -21.645 -50.440  1.00  0.00     0.219 HD
ENDBRANCH  18  22
ENDBRANCH  12  14
ENDBRANCH  10  12
ENDBRANCH   3   8
BRANCH   1  24
HETATM   24  N1  UNL     1       6.817 -15.574 -46.230  1.00  0.00    -0.383 NA
HETATM   25  C6  UNL     1       6.001 -15.230 -45.258  1.00  0.00     0.435 C 
HETATM   26  O2  UNL     1       5.532 -15.287 -44.229  1.00  0.00    -0.221 OA
BRANCH  25  27
HETATM   27  O1  UNL     1       5.359 -14.042 -46.184  1.00  0.00    -0.293 OA
BRANCH  27  28
HETATM   28  C5  UNL     1       4.197 -14.258 -46.890  1.00  0.00     0.182 C 
BRANCH  28  29
HETATM   29  C4  UNL     1       4.353 -13.480 -48.186  1.00  0.00     0.031 C 
BRANCH  29  30
HETATM   30  C2  UNL     1       3.246 -12.466 -48.262  1.00  0.00    -0.021 C 
HETATM   31  C1  UNL     1       3.174 -11.965 -49.673  1.00  0.00     0.009 C 
HETATM   32  C3  UNL     1       3.405 -11.352 -47.320  1.00  0.00     0.009 C 
ENDBRANCH  29  30
ENDBRANCH  28  29
ENDBRANCH  27  28
ENDBRANCH  25  27
ENDBRANCH   1  24
BRANCH   5  33
HETATM   33  C16 UNL     1       7.011 -16.951 -51.036  1.00  0.00     0.334 C 
HETATM   34  O7  UNL     1       7.427 -15.881 -51.519  1.00  0.00    -0.260 OA
HETATM   35  N6  UNL     1       5.725 -17.505 -51.489  1.00  0.00    -0.212 N 
ATOM     36  H6  UNL     1       5.392 -18.414 -51.166  1.00  0.00     0.199 HD
BRANCH  35  37
HETATM   37  O8  UNL     1       4.995 -16.745 -52.365  1.00  0.00    -0.185 OA
BRANCH  37  38
HETATM   38  S1  UNL     1       3.762 -15.896 -51.894  1.00  0.00     0.074 S 
HETATM   39  C17 UNL     1       4.119 -14.286 -52.599  1.00  0.00     0.145 C 
HETATM   40  C18 UNL     1       3.546 -16.458 -50.183  1.00  0.00     0.145 C 
HETATM   41  O9  UNL     1       2.900 -17.222 -53.266  1.00  0.00    -0.242 OA
ENDBRANCH  37  38
ENDBRANCH  35  37
ENDBRANCH   5  33
TORSDOF 13
ENDMDL
