MODEL 1
REMARK VINA RESULT: -8.690366020      0.000      0.000
REMARK  15 active torsions:
REMARK  status: ('A' for Active; 'I' for Inactive)
REMARK    1  A    between atoms: C2_2  and  C3_3 
REMARK    2  A    between atoms: C3_3  and  C4_5 
REMARK    3  A    between atoms: C5_6  and  O2_7 
REMARK    4  A    between atoms: C9_12  and  C10_13 
REMARK    5  A    between atoms: C10_13  and  O4_15 
REMARK    6  A    between atoms: O4_15  and  C11_16 
REMARK    7  A    between atoms: C11_16  and  C12_17 
REMARK    8  A    between atoms: C12_17  and  C13_19 
REMARK    9  A    between atoms: C13_19  and  O6_20 
REMARK   10  A    between atoms: C13_19  and  O7_22 
REMARK   11  A    between atoms: C15_24  and  O8_25 
REMARK   12  A    between atoms: O8_25  and  C16_26 
REMARK   13  A    between atoms: C18_28  and  O9_29 
REMARK   14  A    between atoms: C23_35  and  O10_36 
REMARK   15  A    between atoms: C25_39  and  O11_41 
ROOT
HETATM    1  C4  UNL     1       7.288 -16.996 -44.575  1.00  0.00     0.077 A 
HETATM    2  C5  UNL     1       7.051 -15.645 -44.316  1.00  0.00     0.082 A 
HETATM    3  C6  UNL     1       6.667 -14.816 -45.401  1.00  0.00     0.045 A 
HETATM    4  C7  UNL     1       6.524 -15.277 -46.666  1.00  0.00    -0.040 A 
HETATM    5  C8  UNL     1       6.121 -14.369 -47.772  1.00  0.00     0.049 C 
HETATM    6  C9  UNL     1       6.752 -16.630 -46.947  1.00  0.00     0.080 A 
HETATM    7  C15 UNL     1       7.119 -17.438 -45.888  1.00  0.00     0.102 A 
ENDROOT
BRANCH   7   8
HETATM    8  O8  UNL     1       7.296 -18.780 -46.188  1.00  0.00    -0.341 OA
BRANCH   8   9
HETATM    9  C16 UNL     1       8.501 -19.420 -46.499  1.00  0.00     0.165 C 
HETATM   10  C17 UNL     1       9.697 -18.486 -46.490  1.00  0.00     0.073 C 
HETATM   11  C18 UNL     1      10.910 -19.282 -46.109  1.00  0.00     0.066 C 
HETATM   12  C19 UNL     1      12.053 -18.303 -45.967  1.00  0.00     0.038 C 
HETATM   13  C22 UNL     1      11.319 -20.337 -47.051  1.00  0.00     0.049 C 
HETATM   14  C20 UNL     1      13.181 -18.800 -46.807  1.00  0.00     0.004 C 
HETATM   15  C21 UNL     1      12.854 -20.224 -47.070  1.00  0.00     0.010 C 
HETATM   16  C23 UNL     1      10.860 -20.238 -48.447  1.00  0.00     0.128 C 
HETATM   17  C24 UNL     1       9.448 -20.050 -48.736  1.00  0.00     0.072 C 
HETATM   18  C25 UNL     1       8.466 -20.366 -47.640  1.00  0.00     0.083 C 
HETATM   19  C26 UNL     1       8.581 -21.823 -47.196  1.00  0.00     0.049 C 
BRANCH  11  20
HETATM   20  O9  UNL     1      10.706 -19.831 -44.845  1.00  0.00    -0.389 OA
ATOM     21  H9  UNL     1      10.348 -20.705 -44.946  1.00  0.00     0.210 HD
ENDBRANCH  11  20
BRANCH  16  22
HETATM   22  O10 UNL     1      11.588 -19.192 -49.065  1.00  0.00    -0.395 OA
ATOM     23  H10 UNL     1      10.990 -18.467 -49.203  1.00  0.00     0.210 HD
ENDBRANCH  16  22
BRANCH  18  24
HETATM   24  O11 UNL     1       7.202 -20.278 -48.235  1.00  0.00    -0.388 OA
ATOM     25  H11 UNL     1       6.691 -21.026 -47.949  1.00  0.00     0.210 HD
ENDBRANCH  18  24
ENDBRANCH   8   9
ENDBRANCH   7   8
BRANCH   1  26
HETATM   26  C3  UNL     1       7.902 -17.824 -43.537  1.00  0.00     0.164 C 
HETATM   27  O1  UNL     1       9.102 -17.529 -43.202  1.00  0.00    -0.292 OA
BRANCH  26  28
HETATM   28  C2  UNL     1       7.319 -18.983 -42.832  1.00  0.00     0.079 C 
HETATM   29  C1  UNL     1       7.533 -18.782 -41.301  1.00  0.00     0.013 C 
ENDBRANCH  26  28
ENDBRANCH   1  26
BRANCH   6  30
HETATM   30  C10 UNL     1       6.689 -17.028 -48.349  1.00  0.00     0.297 C 
HETATM   31  O3  UNL     1       5.584 -17.609 -48.667  1.00  0.00    -0.259 OA
BRANCH  30  32
HETATM   32  O4  UNL     1       7.613 -16.872 -49.320  1.00  0.00    -0.310 OA
BRANCH  32  33
HETATM   33  C11 UNL     1       7.594 -17.519 -50.541  1.00  0.00     0.262 C 
BRANCH  33  34
HETATM   34  C12 UNL     1       7.323 -16.704 -51.738  1.00  0.00     0.205 C 
HETATM   35  O5  UNL     1       7.537 -15.515 -51.809  1.00  0.00    -0.290 OA
BRANCH  34  36
HETATM   36  C13 UNL     1       6.752 -17.345 -52.960  1.00  0.00     0.329 C 
BRANCH  36  37
HETATM   37  O6  UNL     1       7.697 -18.240 -53.451  1.00  0.00    -0.365 OA
ATOM     38  H6  UNL     1       7.526 -19.087 -53.055  1.00  0.00     0.213 HD
ENDBRANCH  36  37
BRANCH  36  39
HETATM   39  O7  UNL     1       5.607 -18.083 -52.681  1.00  0.00    -0.359 OA
HETATM   40  C14 UNL     1       4.483 -17.261 -52.708  1.00  0.00     0.205 C 
ENDBRANCH  36  39
ENDBRANCH  34  36
ENDBRANCH  33  34
ENDBRANCH  32  33
ENDBRANCH  30  32
ENDBRANCH   6  30
BRANCH   2  41
HETATM   41  O2  UNL     1       7.157 -15.079 -43.100  1.00  0.00    -0.360 OA
ATOM     42  H2  UNL     1       7.472 -14.196 -42.948  1.00  0.00     0.217 HD
ENDBRANCH   2  41
TORSDOF 15
ENDMDL
MODEL 2
REMARK VINA RESULT: -8.451494428      0.756      1.144
REMARK  15 active torsions:
REMARK  status: ('A' for Active; 'I' for Inactive)
REMARK    1  A    between atoms: C2_2  and  C3_3 
REMARK    2  A    between atoms: C3_3  and  C4_5 
REMARK    3  A    between atoms: C5_6  and  O2_7 
REMARK    4  A    between atoms: C9_12  and  C10_13 
REMARK    5  A    between atoms: C10_13  and  O4_15 
REMARK    6  A    between atoms: O4_15  and  C11_16 
REMARK    7  A    between atoms: C11_16  and  C12_17 
REMARK    8  A    between atoms: C12_17  and  C13_19 
REMARK    9  A    between atoms: C13_19  and  O6_20 
REMARK   10  A    between atoms: C13_19  and  O7_22 
REMARK   11  A    between atoms: C15_24  and  O8_25 
REMARK   12  A    between atoms: O8_25  and  C16_26 
REMARK   13  A    between atoms: C18_28  and  O9_29 
REMARK   14  A    between atoms: C23_35  and  O10_36 
REMARK   15  A    between atoms: C25_39  and  O11_41 
ROOT
HETATM    1  C4  UNL     1       7.306 -17.166 -44.459  1.00  0.00     0.077 A 
HETATM    2  C5  UNL     1       7.036 -15.824 -44.189  1.00  0.00     0.082 A 
HETATM    3  C6  UNL     1       6.660 -14.990 -45.273  1.00  0.00     0.045 A 
HETATM    4  C7  UNL     1       6.554 -15.438 -46.546  1.00  0.00    -0.040 A 
HETATM    5  C8  UNL     1       6.157 -14.524 -47.649  1.00  0.00     0.049 C 
HETATM    6  C9  UNL     1       6.814 -16.782 -46.837  1.00  0.00     0.080 A 
HETATM    7  C15 UNL     1       7.174 -17.596 -45.780  1.00  0.00     0.102 A 
ENDROOT
BRANCH   7   8
HETATM    8  O8  UNL     1       7.384 -18.930 -46.092  1.00  0.00    -0.341 OA
BRANCH   8   9
HETATM    9  C16 UNL     1       8.602 -19.533 -46.428  1.00  0.00     0.165 C 
HETATM   10  C17 UNL     1       9.773 -18.569 -46.417  1.00  0.00     0.073 C 
HETATM   11  C18 UNL     1      11.011 -19.340 -46.063  1.00  0.00     0.066 C 
HETATM   12  C19 UNL     1      12.130 -18.334 -45.919  1.00  0.00     0.038 C 
HETATM   13  C22 UNL     1      11.435 -20.369 -47.027  1.00  0.00     0.049 C 
HETATM   14  C20 UNL     1      13.260 -18.787 -46.780  1.00  0.00     0.004 C 
HETATM   15  C21 UNL     1      12.966 -20.215 -47.063  1.00  0.00     0.010 C 
HETATM   16  C23 UNL     1      10.957 -20.259 -48.416  1.00  0.00     0.128 C 
HETATM   17  C24 UNL     1       9.537 -20.103 -48.685  1.00  0.00     0.072 C 
HETATM   18  C25 UNL     1       8.577 -20.462 -47.584  1.00  0.00     0.083 C 
HETATM   19  C26 UNL     1       8.735 -21.923 -47.165  1.00  0.00     0.049 C 
BRANCH  11  20
HETATM   20  O9  UNL     1      10.836 -19.914 -44.806  1.00  0.00    -0.389 OA
ATOM     21  H9  UNL     1      11.011 -20.846 -44.869  1.00  0.00     0.210 HD
ENDBRANCH  11  20
BRANCH  16  22
HETATM   22  O10 UNL     1      11.650 -19.184 -49.026  1.00  0.00    -0.395 OA
ATOM     23  H10 UNL     1      12.296 -18.869 -48.405  1.00  0.00     0.210 HD
ENDBRANCH  16  22
BRANCH  18  24
HETATM   24  O11 UNL     1       7.304 -20.396 -48.162  1.00  0.00    -0.388 OA
ATOM     25  H11 UNL     1       7.333 -19.753 -48.861  1.00  0.00     0.210 HD
ENDBRANCH  18  24
ENDBRANCH   8   9
ENDBRANCH   7   8
BRANCH   1  26
HETATM   26  C3  UNL     1       7.914 -17.995 -43.418  1.00  0.00     0.164 C 
HETATM   27  O1  UNL     1       9.113 -17.704 -43.079  1.00  0.00    -0.292 OA
BRANCH  26  28
HETATM   28  C2  UNL     1       7.324 -19.150 -42.712  1.00  0.00     0.079 C 
HETATM   29  C1  UNL     1       7.356 -18.856 -41.181  1.00  0.00     0.013 C 
ENDBRANCH  26  28
ENDBRANCH   1  26
BRANCH   6  30
HETATM   30  C10 UNL     1       6.790 -17.164 -48.245  1.00  0.00     0.297 C 
HETATM   31  O3  UNL     1       5.678 -17.705 -48.609  1.00  0.00    -0.259 OA
BRANCH  30  32
HETATM   32  O4  UNL     1       7.753 -17.030 -49.180  1.00  0.00    -0.310 OA
BRANCH  32  33
HETATM   33  C11 UNL     1       7.671 -17.507 -50.475  1.00  0.00     0.262 C 
BRANCH  33  34
HETATM   34  C12 UNL     1       7.499 -16.520 -51.554  1.00  0.00     0.205 C 
HETATM   35  O5  UNL     1       7.711 -16.752 -52.723  1.00  0.00    -0.290 OA
BRANCH  34  36
HETATM   36  C13 UNL     1       7.034 -15.138 -51.230  1.00  0.00     0.329 C 
BRANCH  36  37
HETATM   37  O6  UNL     1       8.046 -14.255 -51.591  1.00  0.00    -0.365 OA
ATOM     38  H6  UNL     1       8.255 -13.727 -50.830  1.00  0.00     0.213 HD
ENDBRANCH  36  37
BRANCH  36  39
HETATM   39  O7  UNL     1       5.907 -14.777 -51.961  1.00  0.00    -0.359 OA
HETATM   40  C14 UNL     1       4.754 -15.245 -51.336  1.00  0.00     0.205 C 
ENDBRANCH  36  39
ENDBRANCH  34  36
ENDBRANCH  33  34
ENDBRANCH  32  33
ENDBRANCH  30  32
ENDBRANCH   6  30
BRANCH   2  41
HETATM   41  O2  UNL     1       7.105 -15.270 -42.964  1.00  0.00    -0.360 OA
ATOM     42  H2  UNL     1       6.978 -15.749 -42.154  1.00  0.00     0.217 HD
ENDBRANCH   2  41
TORSDOF 15
ENDMDL
MODEL 3
REMARK VINA RESULT: -8.324620496      1.021      1.144
REMARK  15 active torsions:
REMARK  status: ('A' for Active; 'I' for Inactive)
REMARK    1  A    between atoms: C2_2  and  C3_3 
REMARK    2  A    between atoms: C3_3  and  C4_5 
REMARK    3  A    between atoms: C5_6  and  O2_7 
REMARK    4  A    between atoms: C9_12  and  C10_13 
REMARK    5  A    between atoms: C10_13  and  O4_15 
REMARK    6  A    between atoms: O4_15  and  C11_16 
REMARK    7  A    between atoms: C11_16  and  C12_17 
REMARK    8  A    between atoms: C12_17  and  C13_19 
REMARK    9  A    between atoms: C13_19  and  O6_20 
REMARK   10  A    between atoms: C13_19  and  O7_22 
REMARK   11  A    between atoms: C15_24  and  O8_25 
REMARK   12  A    between atoms: O8_25  and  C16_26 
REMARK   13  A    between atoms: C18_28  and  O9_29 
REMARK   14  A    between atoms: C23_35  and  O10_36 
REMARK   15  A    between atoms: C25_39  and  O11_41 
ROOT
HETATM    1  C4  UNL     1       7.359 -17.067 -44.471  1.00  0.00     0.077 A 
HETATM    2  C5  UNL     1       7.026 -15.725 -44.280  1.00  0.00     0.082 A 
HETATM    3  C6  UNL     1       6.628 -14.970 -45.412  1.00  0.00     0.045 A 
HETATM    4  C7  UNL     1       6.558 -15.493 -46.659  1.00  0.00    -0.040 A 
HETATM    5  C8  UNL     1       6.135 -14.661 -47.817  1.00  0.00     0.049 C 
HETATM    6  C9  UNL     1       6.882 -16.838 -46.872  1.00  0.00     0.080 A 
HETATM    7  C15 UNL     1       7.264 -17.574 -45.768  1.00  0.00     0.102 A 
ENDROOT
BRANCH   7   8
HETATM    8  O8  UNL     1       7.538 -18.913 -46.001  1.00  0.00    -0.341 OA
BRANCH   8   9
HETATM    9  C16 UNL     1       8.784 -19.544 -45.914  1.00  0.00     0.165 C 
HETATM   10  C17 UNL     1       9.795 -19.021 -46.917  1.00  0.00     0.073 C 
HETATM   11  C18 UNL     1      11.164 -19.169 -46.324  1.00  0.00     0.066 C 
HETATM   12  C19 UNL     1      12.133 -18.510 -47.280  1.00  0.00     0.038 C 
HETATM   13  C22 UNL     1      11.622 -20.546 -46.079  1.00  0.00     0.049 C 
HETATM   14  C20 UNL     1      13.211 -19.494 -47.583  1.00  0.00     0.004 C 
HETATM   15  C21 UNL     1      13.099 -20.514 -46.509  1.00  0.00     0.010 C 
HETATM   16  C23 UNL     1      10.977 -21.637 -46.830  1.00  0.00     0.128 C 
HETATM   17  C24 UNL     1       9.528 -21.754 -46.840  1.00  0.00     0.072 C 
HETATM   18  C25 UNL     1       8.764 -21.020 -45.771  1.00  0.00     0.083 C 
HETATM   19  C26 UNL     1       9.182 -21.479 -44.376  1.00  0.00     0.049 C 
BRANCH  11  20
HETATM   20  O9  UNL     1      11.221 -18.435 -45.141  1.00  0.00    -0.389 OA
ATOM     21  H9  UNL     1      11.768 -17.671 -45.282  1.00  0.00     0.210 HD
ENDBRANCH  11  20
BRANCH  16  22
HETATM   22  O10 UNL     1      11.430 -21.562 -48.171  1.00  0.00    -0.395 OA
ATOM     23  H10 UNL     1      11.088 -22.318 -48.633  1.00  0.00     0.210 HD
ENDBRANCH  16  22
BRANCH  18  24
HETATM   24  O11 UNL     1       7.437 -21.448 -45.901  1.00  0.00    -0.388 OA
ATOM     25  H11 UNL     1       7.422 -22.391 -45.791  1.00  0.00     0.210 HD
ENDBRANCH  18  24
ENDBRANCH   8   9
ENDBRANCH   7   8
BRANCH   1  26
HETATM   26  C3  UNL     1       7.990 -17.808 -43.378  1.00  0.00     0.164 C 
HETATM   27  O1  UNL     1       9.220 -17.544 -43.139  1.00  0.00    -0.292 OA
BRANCH  26  28
HETATM   28  C2  UNL     1       7.392 -18.848 -42.518  1.00  0.00     0.079 C 
HETATM   29  C1  UNL     1       8.305 -19.033 -41.267  1.00  0.00     0.013 C 
ENDBRANCH  26  28
ENDBRANCH   1  26
BRANCH   6  30
HETATM   30  C10 UNL     1       6.893 -17.298 -48.257  1.00  0.00     0.297 C 
HETATM   31  O3  UNL     1       5.806 -17.896 -48.605  1.00  0.00    -0.259 OA
BRANCH  30  32
HETATM   32  O4  UNL     1       7.867 -17.184 -49.183  1.00  0.00    -0.310 OA
BRANCH  32  33
HETATM   33  C11 UNL     1       7.906 -17.877 -50.379  1.00  0.00     0.262 C 
BRANCH  33  34
HETATM   34  C12 UNL     1       7.636 -17.119 -51.613  1.00  0.00     0.205 C 
HETATM   35  O5  UNL     1       7.804 -15.925 -51.725  1.00  0.00    -0.290 OA
BRANCH  34  36
HETATM   36  C13 UNL     1       7.124 -17.828 -52.824  1.00  0.00     0.329 C 
BRANCH  36  37
HETATM   37  O6  UNL     1       7.953 -18.920 -53.057  1.00  0.00    -0.365 OA
ATOM     38  H6  UNL     1       7.563 -19.676 -52.633  1.00  0.00     0.213 HD
ENDBRANCH  36  37
BRANCH  36  39
HETATM   39  O7  UNL     1       5.841 -18.331 -52.636  1.00  0.00    -0.359 OA
HETATM   40  C14 UNL     1       4.897 -17.319 -52.790  1.00  0.00     0.205 C 
ENDBRANCH  36  39
ENDBRANCH  34  36
ENDBRANCH  33  34
ENDBRANCH  32  33
ENDBRANCH  30  32
ENDBRANCH   6  30
BRANCH   2  41
HETATM   41  O2  UNL     1       7.054 -15.102 -43.087  1.00  0.00    -0.360 OA
ATOM     42  H2  UNL     1       6.960 -14.164 -42.973  1.00  0.00     0.217 HD
ENDBRANCH   2  41
TORSDOF 15
ENDMDL
MODEL 4
REMARK VINA RESULT: -8.192690386      1.233      1.530
REMARK  15 active torsions:
REMARK  status: ('A' for Active; 'I' for Inactive)
REMARK    1  A    between atoms: C2_2  and  C3_3 
REMARK    2  A    between atoms: C3_3  and  C4_5 
REMARK    3  A    between atoms: C5_6  and  O2_7 
REMARK    4  A    between atoms: C9_12  and  C10_13 
REMARK    5  A    between atoms: C10_13  and  O4_15 
REMARK    6  A    between atoms: O4_15  and  C11_16 
REMARK    7  A    between atoms: C11_16  and  C12_17 
REMARK    8  A    between atoms: C12_17  and  C13_19 
REMARK    9  A    between atoms: C13_19  and  O6_20 
REMARK   10  A    between atoms: C13_19  and  O7_22 
REMARK   11  A    between atoms: C15_24  and  O8_25 
REMARK   12  A    between atoms: O8_25  and  C16_26 
REMARK   13  A    between atoms: C18_28  and  O9_29 
REMARK   14  A    between atoms: C23_35  and  O10_36 
REMARK   15  A    between atoms: C25_39  and  O11_41 
ROOT
HETATM    1  C4  UNL     1       7.502 -18.290 -44.300  1.00  0.00     0.077 A 
HETATM    2  C5  UNL     1       7.081 -17.176 -43.572  1.00  0.00     0.082 A 
HETATM    3  C6  UNL     1       6.783 -15.988 -44.287  1.00  0.00     0.045 A 
HETATM    4  C7  UNL     1       6.891 -15.891 -45.633  1.00  0.00    -0.040 A 
HETATM    5  C8  UNL     1       6.568 -14.623 -46.338  1.00  0.00     0.049 C 
HETATM    6  C9  UNL     1       7.307 -16.998 -46.382  1.00  0.00     0.080 A 
HETATM    7  C15 UNL     1       7.590 -18.157 -45.687  1.00  0.00     0.102 A 
ENDROOT
BRANCH   7   8
HETATM    8  O8  UNL     1       7.958 -19.248 -46.458  1.00  0.00    -0.341 OA
BRANCH   8   9
HETATM    9  C16 UNL     1       9.255 -19.732 -46.666  1.00  0.00     0.165 C 
HETATM   10  C17 UNL     1      10.334 -18.808 -46.133  1.00  0.00     0.073 C 
HETATM   11  C18 UNL     1      11.513 -19.645 -45.735  1.00  0.00     0.066 C 
HETATM   12  C19 UNL     1      12.510 -18.718 -45.078  1.00  0.00     0.038 C 
HETATM   13  C22 UNL     1      12.198 -20.363 -46.823  1.00  0.00     0.049 C 
HETATM   14  C20 UNL     1      13.824 -18.912 -45.756  1.00  0.00     0.004 C 
HETATM   15  C21 UNL     1      13.688 -20.204 -46.474  1.00  0.00     0.010 C 
HETATM   16  C23 UNL     1      12.021 -19.871 -48.200  1.00  0.00     0.128 C 
HETATM   17  C24 UNL     1      10.684 -19.647 -48.726  1.00  0.00     0.072 C 
HETATM   18  C25 UNL     1       9.536 -20.301 -48.006  1.00  0.00     0.083 C 
HETATM   19  C26 UNL     1       9.693 -21.821 -47.976  1.00  0.00     0.049 C 
BRANCH  11  20
HETATM   20  O9  UNL     1      11.111 -20.547 -44.754  1.00  0.00    -0.389 OA
ATOM     21  H9  UNL     1      11.745 -20.531 -44.046  1.00  0.00     0.210 HD
ENDBRANCH  11  20
BRANCH  16  22
HETATM   22  O10 UNL     1      12.759 -18.668 -48.324  1.00  0.00    -0.395 OA
ATOM     23  H10 UNL     1      13.420 -18.803 -48.993  1.00  0.00     0.210 HD
ENDBRANCH  16  22
BRANCH  18  24
HETATM   24  O11 UNL     1       8.414 -20.078 -48.813  1.00  0.00    -0.388 OA
ATOM     25  H11 UNL     1       7.758 -20.728 -48.588  1.00  0.00     0.210 HD
ENDBRANCH  18  24
ENDBRANCH   8   9
ENDBRANCH   7   8
BRANCH   1  26
HETATM   26  C3  UNL     1       8.035 -19.450 -43.585  1.00  0.00     0.164 C 
HETATM   27  O1  UNL     1       9.129 -19.278 -42.943  1.00  0.00    -0.292 OA
BRANCH  26  28
HETATM   28  C2  UNL     1       7.477 -20.816 -43.520  1.00  0.00     0.079 C 
HETATM   29  C1  UNL     1       6.911 -21.047 -42.086  1.00  0.00     0.013 C 
ENDBRANCH  26  28
ENDBRANCH   1  26
BRANCH   6  30
HETATM   30  C10 UNL     1       7.507 -16.783 -47.812  1.00  0.00     0.297 C 
HETATM   31  O3  UNL     1       8.701 -16.403 -48.110  1.00  0.00    -0.259 OA
BRANCH  30  32
HETATM   32  O4  UNL     1       6.627 -16.925 -48.824  1.00  0.00    -0.310 OA
BRANCH  32  33
HETATM   33  C11 UNL     1       6.328 -15.947 -49.755  1.00  0.00     0.262 C 
BRANCH  33  34
HETATM   34  C12 UNL     1       7.161 -15.887 -50.969  1.00  0.00     0.205 C 
HETATM   35  O5  UNL     1       7.533 -14.855 -51.483  1.00  0.00    -0.290 OA
BRANCH  34  36
HETATM   36  C13 UNL     1       7.596 -17.150 -51.636  1.00  0.00     0.329 C 
BRANCH  36  37
HETATM   37  O6  UNL     1       8.462 -17.809 -50.770  1.00  0.00    -0.365 OA
ATOM     38  H6  UNL     1       8.313 -18.743 -50.868  1.00  0.00     0.213 HD
ENDBRANCH  36  37
BRANCH  36  39
HETATM   39  O7  UNL     1       6.533 -18.013 -51.874  1.00  0.00    -0.359 OA
HETATM   40  C14 UNL     1       5.918 -17.701 -53.084  1.00  0.00     0.205 C 
ENDBRANCH  36  39
ENDBRANCH  34  36
ENDBRANCH  33  34
ENDBRANCH  32  33
ENDBRANCH  30  32
ENDBRANCH   6  30
BRANCH   2  41
HETATM   41  O2  UNL     1       6.934 -17.159 -42.235  1.00  0.00    -0.360 OA
ATOM     42  H2  UNL     1       6.231 -16.709 -41.781  1.00  0.00     0.217 HD
ENDBRANCH   2  41
TORSDOF 15
ENDMDL
MODEL 5
REMARK VINA RESULT: -8.091760010      0.829      1.242
REMARK  15 active torsions:
REMARK  status: ('A' for Active; 'I' for Inactive)
REMARK    1  A    between atoms: C2_2  and  C3_3 
REMARK    2  A    between atoms: C3_3  and  C4_5 
REMARK    3  A    between atoms: C5_6  and  O2_7 
REMARK    4  A    between atoms: C9_12  and  C10_13 
REMARK    5  A    between atoms: C10_13  and  O4_15 
REMARK    6  A    between atoms: O4_15  and  C11_16 
REMARK    7  A    between atoms: C11_16  and  C12_17 
REMARK    8  A    between atoms: C12_17  and  C13_19 
REMARK    9  A    between atoms: C13_19  and  O6_20 
REMARK   10  A    between atoms: C13_19  and  O7_22 
REMARK   11  A    between atoms: C15_24  and  O8_25 
REMARK   12  A    between atoms: O8_25  and  C16_26 
REMARK   13  A    between atoms: C18_28  and  O9_29 
REMARK   14  A    between atoms: C23_35  and  O10_36 
REMARK   15  A    between atoms: C25_39  and  O11_41 
ROOT
HETATM    1  C4  UNL     1       7.208 -16.637 -44.685  1.00  0.00     0.077 A 
HETATM    2  C5  UNL     1       7.061 -15.276 -44.418  1.00  0.00     0.082 A 
HETATM    3  C6  UNL     1       6.730 -14.418 -45.498  1.00  0.00     0.045 A 
HETATM    4  C7  UNL     1       6.555 -14.861 -46.765  1.00  0.00    -0.040 A 
HETATM    5  C8  UNL     1       6.210 -13.923 -47.865  1.00  0.00     0.049 C 
HETATM    6  C9  UNL     1       6.693 -16.224 -47.053  1.00  0.00     0.080 A 
HETATM    7  C15 UNL     1       7.008 -17.060 -46.000  1.00  0.00     0.102 A 
ENDROOT
BRANCH   7   8
HETATM    8  O8  UNL     1       7.096 -18.410 -46.307  1.00  0.00    -0.341 OA
BRANCH   8   9
HETATM    9  C16 UNL     1       8.258 -19.128 -46.612  1.00  0.00     0.165 C 
HETATM   10  C17 UNL     1       9.518 -18.285 -46.559  1.00  0.00     0.073 C 
HETATM   11  C18 UNL     1      10.662 -19.175 -46.175  1.00  0.00     0.066 C 
HETATM   12  C19 UNL     1      11.870 -18.285 -45.989  1.00  0.00     0.038 C 
HETATM   13  C22 UNL     1      11.012 -20.236 -47.134  1.00  0.00     0.049 C 
HETATM   14  C20 UNL     1      12.975 -18.844 -46.820  1.00  0.00     0.004 C 
HETATM   15  C21 UNL     1      12.551 -20.234 -47.124  1.00  0.00     0.010 C 
HETATM   16  C23 UNL     1      10.589 -20.072 -48.536  1.00  0.00     0.128 C 
HETATM   17  C24 UNL     1       9.200 -19.775 -48.845  1.00  0.00     0.072 C 
HETATM   18  C25 UNL     1       8.177 -20.044 -47.776  1.00  0.00     0.083 C 
HETATM   19  C26 UNL     1       8.177 -21.515 -47.365  1.00  0.00     0.049 C 
BRANCH  11  20
HETATM   20  O9  UNL     1      10.394 -19.736 -44.928  1.00  0.00    -0.389 OA
ATOM     21  H9  UNL     1      10.616 -20.660 -44.955  1.00  0.00     0.210 HD
ENDBRANCH  11  20
BRANCH  16  22
HETATM   22  O10 UNL     1      11.403 -19.068 -49.116  1.00  0.00    -0.395 OA
ATOM     23  H10 UNL     1      11.108 -18.938 -50.009  1.00  0.00     0.210 HD
ENDBRANCH  16  22
BRANCH  18  24
HETATM   24  O11 UNL     1       6.934 -19.850 -48.391  1.00  0.00    -0.388 OA
ATOM     25  H11 UNL     1       6.683 -20.666 -48.809  1.00  0.00     0.210 HD
ENDBRANCH  18  24
ENDBRANCH   8   9
ENDBRANCH   7   8
BRANCH   1  26
HETATM   26  C3  UNL     1       7.769 -17.510 -43.653  1.00  0.00     0.164 C 
HETATM   27  O1  UNL     1       9.005 -17.340 -43.366  1.00  0.00    -0.292 OA
BRANCH  26  28
HETATM   28  C2  UNL     1       7.092 -18.588 -42.904  1.00  0.00     0.079 C 
HETATM   29  C1  UNL     1       7.977 -18.961 -41.675  1.00  0.00     0.013 C 
ENDBRANCH  26  28
ENDBRANCH   1  26
BRANCH   6  30
HETATM   30  C10 UNL     1       6.601 -16.609 -48.458  1.00  0.00     0.297 C 
HETATM   31  O3  UNL     1       7.720 -16.513 -49.089  1.00  0.00    -0.259 OA
BRANCH  30  32
HETATM   32  O4  UNL     1       5.527 -17.034 -49.154  1.00  0.00    -0.310 OA
BRANCH  32  33
HETATM   33  C11 UNL     1       4.901 -16.318 -50.158  1.00  0.00     0.262 C 
BRANCH  33  34
HETATM   34  C12 UNL     1       5.453 -16.430 -51.519  1.00  0.00     0.205 C 
HETATM   35  O5  UNL     1       5.721 -15.480 -52.220  1.00  0.00    -0.290 OA
BRANCH  34  36
HETATM   36  C13 UNL     1       5.715 -17.777 -52.107  1.00  0.00     0.329 C 
BRANCH  36  37
HETATM   37  O6  UNL     1       4.675 -18.065 -52.985  1.00  0.00    -0.365 OA
ATOM     38  H6  UNL     1       4.617 -19.010 -53.064  1.00  0.00     0.213 HD
ENDBRANCH  36  37
BRANCH  36  39
HETATM   39  O7  UNL     1       6.888 -17.807 -52.853  1.00  0.00    -0.359 OA
HETATM   40  C14 UNL     1       7.959 -18.200 -52.054  1.00  0.00     0.205 C 
ENDBRANCH  36  39
ENDBRANCH  34  36
ENDBRANCH  33  34
ENDBRANCH  32  33
ENDBRANCH  30  32
ENDBRANCH   6  30
BRANCH   2  41
HETATM   41  O2  UNL     1       7.206 -14.724 -43.199  1.00  0.00    -0.360 OA
ATOM     42  H2  UNL     1       6.963 -13.832 -42.985  1.00  0.00     0.217 HD
ENDBRANCH   2  41
TORSDOF 15
ENDMDL
