MODEL 1
REMARK VINA RESULT: -7.760459339      0.000      0.000
REMARK  14 active torsions:
REMARK  status: ('A' for Active; 'I' for Inactive)
REMARK    1  A    between atoms: C2_2  and  C3_3 
REMARK    2  A    between atoms: C3_3  and  C5_5 
REMARK    3  A    between atoms: C5_5  and  O2_7 
REMARK    4  A    between atoms: O2_7  and  C6_8 
REMARK    5  A    between atoms: C7_9  and  C8_10 
REMARK    6  A    between atoms: C8_10  and  O3_11 
REMARK    7  A    between atoms: C8_10  and  C9_13 
REMARK    8  A    between atoms: C9_13  and  O4_14 
REMARK    9  A    between atoms: C11_18  and  O6_19 
REMARK   10  A    between atoms: O6_19  and  C12_20 
REMARK   11  A    between atoms: C14_23  and  C15_24 
REMARK   12  A    between atoms: C18_29  and  O10_30 
REMARK   13  A    between atoms: C20_33  and  C21_34 
REMARK   14  A    between atoms: C24_38  and  O12_40 
ROOT
HETATM    1  C6  UNL     1       6.645 -16.990 -48.909  1.00  0.00     0.204 C 
HETATM    2  C7  UNL     1       6.617 -17.327 -50.360  1.00  0.00     0.005 C 
HETATM    3  C10 UNL     1       7.506 -18.200 -50.833  1.00  0.00     0.146 C 
HETATM    4  O5  UNL     1       8.480 -18.833 -50.062  1.00  0.00    -0.329 OA
HETATM    5  C11 UNL     1       8.300 -18.701 -48.635  1.00  0.00     0.305 C 
HETATM    6  C24 UNL     1       8.099 -17.197 -48.489  1.00  0.00     0.135 C 
HETATM    7  C25 UNL     1       8.471 -16.620 -47.194  1.00  0.00     0.054 C 
ENDROOT
BRANCH   5   8
HETATM    8  O6  UNL     1       9.284 -19.208 -47.885  1.00  0.00    -0.318 OA
BRANCH   8   9
HETATM    9  C12 UNL     1       9.103 -20.424 -47.233  1.00  0.00     0.192 C 
HETATM   10  C13 UNL     1       7.740 -20.957 -47.548  1.00  0.00     0.085 C 
HETATM   11  O7  UNL     1      10.028 -21.303 -47.725  1.00  0.00    -0.305 OA
HETATM   12  C14 UNL     1      11.315 -21.158 -47.341  1.00  0.00     0.261 C 
HETATM   13  C16 UNL     1      11.738 -21.971 -46.149  1.00  0.00     0.086 C 
HETATM   14  O11 UNL     1      11.702 -19.823 -47.078  1.00  0.00    -0.306 OA
HETATM   15  C17 UNL     1      12.499 -20.976 -45.260  1.00  0.00     0.079 C 
HETATM   16  C18 UNL     1      11.774 -19.696 -45.722  1.00  0.00     0.185 C 
HETATM   17  C19 UNL     1      10.406 -19.798 -45.153  1.00  0.00     0.049 C 
HETATM   18  C20 UNL     1       9.292 -20.104 -45.793  1.00  0.00    -0.014 C 
BRANCH  12  19
HETATM   19  C15 UNL     1      12.194 -21.583 -48.460  1.00  0.00     0.239 C 
HETATM   20  O8  UNL     1      11.676 -21.950 -49.535  1.00  0.00    -0.644 OA
HETATM   21  O9  UNL     1      13.576 -21.588 -48.357  1.00  0.00    -0.644 OA
ENDBRANCH  12  19
BRANCH  16  22
HETATM   22  O10 UNL     1      12.483 -18.599 -45.313  1.00  0.00    -0.362 OA
ATOM     23  H10 UNL     1      11.880 -17.912 -45.054  1.00  0.00     0.213 HD
ENDBRANCH  16  22
BRANCH  18  24
HETATM   24  C21 UNL     1       8.079 -20.090 -44.951  1.00  0.00     0.012 C 
HETATM   25  C22 UNL     1       8.355 -21.019 -43.774  1.00  0.00     0.014 C 
HETATM   26  C23 UNL     1       7.886 -18.703 -44.299  1.00  0.00     0.014 C 
ENDBRANCH  18  24
ENDBRANCH   8   9
ENDBRANCH   5   8
BRANCH   6  27
HETATM   27  O12 UNL     1       8.859 -16.520 -49.473  1.00  0.00    -0.382 OA
ATOM     28  H12 UNL     1       9.330 -15.847 -48.995  1.00  0.00     0.210 HD
ENDBRANCH   6  27
BRANCH   1  29
HETATM   29  O2  UNL     1       6.098 -15.786 -48.539  1.00  0.00    -0.308 OA
BRANCH  29  30
HETATM   30  C5  UNL     1       5.028 -15.741 -47.664  1.00  0.00     0.263 C 
HETATM   31  O1  UNL     1       4.017 -16.432 -47.952  1.00  0.00    -0.265 OA
BRANCH  30  32
HETATM   32  C3  UNL     1       4.993 -14.944 -46.427  1.00  0.00     0.081 C 
HETATM   33  C4  UNL     1       5.717 -13.631 -46.622  1.00  0.00     0.020 C 
BRANCH  32  34
HETATM   34  C2  UNL     1       5.534 -15.694 -45.220  1.00  0.00     0.010 C 
HETATM   35  C1  UNL     1       6.604 -14.911 -44.517  1.00  0.00     0.006 C 
ENDBRANCH  32  34
ENDBRANCH  30  32
ENDBRANCH  29  30
ENDBRANCH   1  29
BRANCH   2  36
HETATM   36  C8  UNL     1       5.676 -16.746 -51.336  1.00  0.00     0.175 C 
BRANCH  36  37
HETATM   37  O3  UNL     1       4.363 -16.895 -50.905  1.00  0.00    -0.389 OA
ATOM     38  H3  UNL     1       4.025 -16.076 -50.562  1.00  0.00     0.210 HD
ENDBRANCH  36  37
BRANCH  36  39
HETATM   39  C9  UNL     1       5.761 -17.320 -52.718  1.00  0.00     0.200 C 
BRANCH  39  40
HETATM   40  O4  UNL     1       4.696 -18.166 -53.015  1.00  0.00    -0.398 OA
ATOM     41  H4  UNL     1       4.527 -18.229 -53.947  1.00  0.00     0.209 HD
ENDBRANCH  39  40
ENDBRANCH  36  39
ENDBRANCH   2  36
TORSDOF 14
ENDMDL
MODEL 2
REMARK VINA RESULT: -7.688245666      4.231      9.242
REMARK  14 active torsions:
REMARK  status: ('A' for Active; 'I' for Inactive)
REMARK    1  A    between atoms: C2_2  and  C3_3 
REMARK    2  A    between atoms: C3_3  and  C5_5 
REMARK    3  A    between atoms: C5_5  and  O2_7 
REMARK    4  A    between atoms: O2_7  and  C6_8 
REMARK    5  A    between atoms: C7_9  and  C8_10 
REMARK    6  A    between atoms: C8_10  and  O3_11 
REMARK    7  A    between atoms: C8_10  and  C9_13 
REMARK    8  A    between atoms: C9_13  and  O4_14 
REMARK    9  A    between atoms: C11_18  and  O6_19 
REMARK   10  A    between atoms: O6_19  and  C12_20 
REMARK   11  A    between atoms: C14_23  and  C15_24 
REMARK   12  A    between atoms: C18_29  and  O10_30 
REMARK   13  A    between atoms: C20_33  and  C21_34 
REMARK   14  A    between atoms: C24_38  and  O12_40 
ROOT
HETATM    1  C6  UNL     1      12.847 -23.155 -42.128  1.00  0.00     0.204 C 
HETATM    2  C7  UNL     1      13.387 -24.269 -42.958  1.00  0.00     0.005 C 
HETATM    3  C10 UNL     1      13.008 -24.360 -44.232  1.00  0.00     0.146 C 
HETATM    4  O5  UNL     1      12.130 -23.480 -44.862  1.00  0.00    -0.329 OA
HETATM    5  C11 UNL     1      11.853 -22.271 -44.121  1.00  0.00     0.305 C 
HETATM    6  C24 UNL     1      11.490 -22.828 -42.750  1.00  0.00     0.135 C 
HETATM    7  C25 UNL     1      10.603 -21.998 -41.930  1.00  0.00     0.054 C 
ENDROOT
BRANCH   5   8
HETATM    8  O6  UNL     1      10.929 -21.470 -44.660  1.00  0.00    -0.318 OA
BRANCH   8   9
HETATM    9  C12 UNL     1      11.302 -20.238 -45.190  1.00  0.00     0.192 C 
HETATM   10  C13 UNL     1      12.211 -19.541 -44.227  1.00  0.00     0.085 C 
HETATM   11  O7  UNL     1      12.001 -20.474 -46.342  1.00  0.00    -0.305 OA
HETATM   12  C14 UNL     1      11.315 -20.867 -47.437  1.00  0.00     0.261 C 
HETATM   13  C16 UNL     1      10.890 -19.768 -48.371  1.00  0.00     0.086 C 
HETATM   14  O11 UNL     1      10.159 -21.634 -47.162  1.00  0.00    -0.306 OA
HETATM   15  C17 UNL     1       9.416 -20.075 -48.676  1.00  0.00     0.079 C 
HETATM   16  C18 UNL     1       9.088 -20.812 -47.362  1.00  0.00     0.185 C 
HETATM   17  C19 UNL     1       9.084 -19.758 -46.316  1.00  0.00     0.049 C 
HETATM   18  C20 UNL     1      10.016 -19.524 -45.410  1.00  0.00    -0.014 C 
BRANCH  12  19
HETATM   19  C15 UNL     1      12.178 -21.774 -48.237  1.00  0.00     0.239 C 
HETATM   20  O8  UNL     1      13.189 -22.276 -47.705  1.00  0.00    -0.644 OA
HETATM   21  O9  UNL     1      11.902 -22.086 -49.558  1.00  0.00    -0.644 OA
ENDBRANCH  12  19
BRANCH  16  22
HETATM   22  O10 UNL     1       7.903 -21.484 -47.502  1.00  0.00    -0.362 OA
ATOM     23  H10 UNL     1       8.001 -22.368 -47.166  1.00  0.00     0.213 HD
ENDBRANCH  16  22
BRANCH  18  24
HETATM   24  C21 UNL     1       9.702 -18.419 -44.481  1.00  0.00     0.012 C 
HETATM   25  C22 UNL     1       8.900 -17.396 -45.276  1.00  0.00     0.014 C 
HETATM   26  C23 UNL     1       8.725 -18.894 -43.383  1.00  0.00     0.014 C 
ENDBRANCH  18  24
ENDBRANCH   8   9
ENDBRANCH   5   8
BRANCH   6  27
HETATM   27  O12 UNL     1      10.851 -24.083 -42.902  1.00  0.00    -0.382 OA
ATOM     28  H12 UNL     1      10.470 -24.057 -43.771  1.00  0.00     0.210 HD
ENDBRANCH   6  27
BRANCH   1  29
HETATM   29  O2  UNL     1      12.834 -23.341 -40.768  1.00  0.00    -0.308 OA
BRANCH  29  30
HETATM   30  C5  UNL     1      13.609 -22.546 -39.943  1.00  0.00     0.263 C 
HETATM   31  O1  UNL     1      14.640 -22.028 -40.444  1.00  0.00    -0.265 OA
BRANCH  30  32
HETATM   32  C3  UNL     1      13.310 -22.268 -38.530  1.00  0.00     0.081 C 
HETATM   33  C4  UNL     1      11.836 -21.984 -38.346  1.00  0.00     0.020 C 
BRANCH  32  34
HETATM   34  C2  UNL     1      14.160 -21.147 -37.951  1.00  0.00     0.010 C 
HETATM   35  C1  UNL     1      13.799 -20.860 -36.523  1.00  0.00     0.006 C 
ENDBRANCH  32  34
ENDBRANCH  30  32
ENDBRANCH  29  30
ENDBRANCH   1  29
BRANCH   2  36
HETATM   36  C8  UNL     1      14.310 -25.308 -42.464  1.00  0.00     0.175 C 
BRANCH  36  37
HETATM   37  O3  UNL     1      15.389 -24.735 -41.802  1.00  0.00    -0.389 OA
ATOM     38  H3  UNL     1      16.183 -25.231 -41.958  1.00  0.00     0.210 HD
ENDBRANCH  36  37
BRANCH  36  39
HETATM   39  C9  UNL     1      14.865 -26.216 -43.520  1.00  0.00     0.200 C 
BRANCH  39  40
HETATM   40  O4  UNL     1      16.256 -26.266 -43.510  1.00  0.00    -0.398 OA
ATOM     41  H4  UNL     1      16.601 -26.961 -44.057  1.00  0.00     0.209 HD
ENDBRANCH  39  40
ENDBRANCH  36  39
ENDBRANCH   2  36
TORSDOF 14
ENDMDL
MODEL 3
REMARK VINA RESULT: -7.649561305      1.296      1.601
REMARK  14 active torsions:
REMARK  status: ('A' for Active; 'I' for Inactive)
REMARK    1  A    between atoms: C2_2  and  C3_3 
REMARK    2  A    between atoms: C3_3  and  C5_5 
REMARK    3  A    between atoms: C5_5  and  O2_7 
REMARK    4  A    between atoms: O2_7  and  C6_8 
REMARK    5  A    between atoms: C7_9  and  C8_10 
REMARK    6  A    between atoms: C8_10  and  O3_11 
REMARK    7  A    between atoms: C8_10  and  C9_13 
REMARK    8  A    between atoms: C9_13  and  O4_14 
REMARK    9  A    between atoms: C11_18  and  O6_19 
REMARK   10  A    between atoms: O6_19  and  C12_20 
REMARK   11  A    between atoms: C14_23  and  C15_24 
REMARK   12  A    between atoms: C18_29  and  O10_30 
REMARK   13  A    between atoms: C20_33  and  C21_34 
REMARK   14  A    between atoms: C24_38  and  O12_40 
ROOT
HETATM    1  C6  UNL     1       6.591 -16.899 -48.963  1.00  0.00     0.204 C 
HETATM    2  C7  UNL     1       7.040 -17.369 -50.303  1.00  0.00     0.005 C 
HETATM    3  C10 UNL     1       8.196 -18.024 -50.399  1.00  0.00     0.146 C 
HETATM    4  O5  UNL     1       9.034 -18.309 -49.322  1.00  0.00    -0.329 OA
HETATM    5  C11 UNL     1       8.443 -18.093 -48.022  1.00  0.00     0.305 C 
HETATM    6  C24 UNL     1       7.881 -16.684 -48.172  1.00  0.00     0.135 C 
HETATM    7  C25 UNL     1       7.743 -15.909 -46.936  1.00  0.00     0.054 C 
ENDROOT
BRANCH   5   8
HETATM    8  O6  UNL     1       9.269 -18.255 -46.984  1.00  0.00    -0.318 OA
BRANCH   8   9
HETATM    9  C12 UNL     1       9.100 -19.338 -46.127  1.00  0.00     0.192 C 
HETATM   10  C13 UNL     1       7.641 -19.532 -45.855  1.00  0.00     0.085 C 
HETATM   11  O7  UNL     1       9.566 -20.454 -46.766  1.00  0.00    -0.305 OA
HETATM   12  C14 UNL     1      10.903 -20.610 -46.887  1.00  0.00     0.261 C 
HETATM   13  C16 UNL     1      11.567 -21.419 -45.806  1.00  0.00     0.086 C 
HETATM   14  O11 UNL     1      11.629 -19.401 -46.991  1.00  0.00    -0.306 OA
HETATM   15  C17 UNL     1      12.796 -20.587 -45.410  1.00  0.00     0.079 C 
HETATM   16  C18 UNL     1      12.233 -19.202 -45.784  1.00  0.00     0.185 C 
HETATM   17  C19 UNL     1      11.193 -18.917 -44.763  1.00  0.00     0.049 C 
HETATM   18  C20 UNL     1       9.883 -18.977 -44.914  1.00  0.00    -0.014 C 
BRANCH  12  19
HETATM   19  C15 UNL     1      11.184 -21.320 -48.161  1.00  0.00     0.239 C 
HETATM   20  O8  UNL     1      10.688 -20.886 -49.221  1.00  0.00    -0.644 OA
HETATM   21  O9  UNL     1      11.979 -22.453 -48.219  1.00  0.00    -0.644 OA
ENDBRANCH  12  19
BRANCH  16  22
HETATM   22  O10 UNL     1      13.256 -18.293 -45.829  1.00  0.00    -0.362 OA
ATOM     23  H10 UNL     1      12.897 -17.414 -45.794  1.00  0.00     0.213 HD
ENDBRANCH  16  22
BRANCH  18  24
HETATM   24  C21 UNL     1       9.110 -18.599 -43.713  1.00  0.00     0.012 C 
HETATM   25  C22 UNL     1      10.051 -18.754 -42.524  1.00  0.00     0.014 C 
HETATM   26  C23 UNL     1       8.775 -17.092 -43.735  1.00  0.00     0.014 C 
ENDBRANCH  18  24
ENDBRANCH   8   9
ENDBRANCH   5   8
BRANCH   6  27
HETATM   27  O12 UNL     1       8.712 -15.931 -49.037  1.00  0.00    -0.382 OA
ATOM     28  H12 UNL     1       8.949 -16.535 -49.731  1.00  0.00     0.210 HD
ENDBRANCH   6  27
BRANCH   1  29
HETATM   29  O2  UNL     1       5.709 -15.846 -48.935  1.00  0.00    -0.308 OA
BRANCH  29  30
HETATM   30  C5  UNL     1       4.412 -16.029 -48.491  1.00  0.00     0.263 C 
HETATM   31  O1  UNL     1       3.862 -17.129 -48.754  1.00  0.00    -0.265 OA
BRANCH  30  32
HETATM   32  C3  UNL     1       3.638 -15.030 -47.738  1.00  0.00     0.081 C 
HETATM   33  C4  UNL     1       2.839 -14.158 -48.681  1.00  0.00     0.020 C 
BRANCH  32  34
HETATM   34  C2  UNL     1       4.497 -14.187 -46.809  1.00  0.00     0.010 C 
HETATM   35  C1  UNL     1       4.494 -12.741 -47.212  1.00  0.00     0.006 C 
ENDBRANCH  32  34
ENDBRANCH  30  32
ENDBRANCH  29  30
ENDBRANCH   1  29
BRANCH   2  36
HETATM   36  C8  UNL     1       6.299 -17.144 -51.559  1.00  0.00     0.175 C 
BRANCH  36  37
HETATM   37  O3  UNL     1       4.971 -17.527 -51.424  1.00  0.00    -0.389 OA
ATOM     38  H3  UNL     1       4.401 -16.768 -51.400  1.00  0.00     0.210 HD
ENDBRANCH  36  37
BRANCH  36  39
HETATM   39  C9  UNL     1       6.852 -17.859 -52.756  1.00  0.00     0.200 C 
BRANCH  39  40
HETATM   40  O4  UNL     1       6.075 -17.676 -53.897  1.00  0.00    -0.398 OA
ATOM     41  H4  UNL     1       6.597 -17.510 -54.672  1.00  0.00     0.209 HD
ENDBRANCH  39  40
ENDBRANCH  36  39
ENDBRANCH   2  36
TORSDOF 14
ENDMDL
MODEL 4
REMARK VINA RESULT: -7.622239720      3.841      6.190
REMARK  14 active torsions:
REMARK  status: ('A' for Active; 'I' for Inactive)
REMARK    1  A    between atoms: C2_2  and  C3_3 
REMARK    2  A    between atoms: C3_3  and  C5_5 
REMARK    3  A    between atoms: C5_5  and  O2_7 
REMARK    4  A    between atoms: O2_7  and  C6_8 
REMARK    5  A    between atoms: C7_9  and  C8_10 
REMARK    6  A    between atoms: C8_10  and  O3_11 
REMARK    7  A    between atoms: C8_10  and  C9_13 
REMARK    8  A    between atoms: C9_13  and  O4_14 
REMARK    9  A    between atoms: C11_18  and  O6_19 
REMARK   10  A    between atoms: O6_19  and  C12_20 
REMARK   11  A    between atoms: C14_23  and  C15_24 
REMARK   12  A    between atoms: C18_29  and  O10_30 
REMARK   13  A    between atoms: C20_33  and  C21_34 
REMARK   14  A    between atoms: C24_38  and  O12_40 
ROOT
HETATM    1  C6  UNL     1      11.275 -20.200 -46.027  1.00  0.00     0.204 C 
HETATM    2  C7  UNL     1      11.182 -20.897 -47.341  1.00  0.00     0.005 C 
HETATM    3  C10 UNL     1      11.700 -22.118 -47.457  1.00  0.00     0.146 C 
HETATM    4  O5  UNL     1      12.335 -22.809 -46.427  1.00  0.00    -0.329 OA
HETATM    5  C11 UNL     1      12.161 -22.231 -45.115  1.00  0.00     0.305 C 
HETATM    6  C24 UNL     1      12.530 -20.774 -45.370  1.00  0.00     0.135 C 
HETATM    7  C25 UNL     1      13.038 -20.025 -44.217  1.00  0.00     0.054 C 
ENDROOT
BRANCH   5   8
HETATM    8  O6  UNL     1      12.854 -22.818 -44.134  1.00  0.00    -0.318 OA
BRANCH   8   9
HETATM    9  C12 UNL     1      12.208 -23.665 -43.239  1.00  0.00     0.192 C 
HETATM   10  C13 UNL     1      10.838 -23.976 -43.753  1.00  0.00     0.085 C 
HETATM   11  O7  UNL     1      12.918 -24.833 -43.183  1.00  0.00    -0.305 OA
HETATM   12  C14 UNL     1      14.093 -24.836 -42.516  1.00  0.00     0.261 C 
HETATM   13  C16 UNL     1      14.024 -25.254 -41.073  1.00  0.00     0.086 C 
HETATM   14  O11 UNL     1      14.789 -23.606 -42.549  1.00  0.00    -0.306 OA
HETATM   15  C17 UNL     1      14.853 -24.195 -40.331  1.00  0.00     0.079 C 
HETATM   16  C18 UNL     1      14.631 -23.034 -41.320  1.00  0.00     0.185 C 
HETATM   17  C19 UNL     1      13.209 -22.643 -41.148  1.00  0.00     0.049 C 
HETATM   18  C20 UNL     1      12.199 -22.912 -41.956  1.00  0.00    -0.014 C 
BRANCH  12  19
HETATM   19  C15 UNL     1      15.011 -25.798 -43.179  1.00  0.00     0.239 C 
HETATM   20  O8  UNL     1      14.532 -26.706 -43.888  1.00  0.00    -0.644 OA
HETATM   21  O9  UNL     1      16.387 -25.725 -43.039  1.00  0.00    -0.644 OA
ENDBRANCH  12  19
BRANCH  16  22
HETATM   22  O10 UNL     1      15.533 -22.037 -41.062  1.00  0.00    -0.362 OA
ATOM     23  H10 UNL     1      15.524 -21.411 -41.776  1.00  0.00     0.213 HD
ENDBRANCH  16  22
BRANCH  18  24
HETATM   24  C21 UNL     1      10.903 -22.353 -41.523  1.00  0.00     0.012 C 
HETATM   25  C22 UNL     1      10.837 -22.525 -40.010  1.00  0.00     0.014 C 
HETATM   26  C23 UNL     1      10.876 -20.822 -41.729  1.00  0.00     0.014 C 
ENDBRANCH  18  24
ENDBRANCH   8   9
ENDBRANCH   5   8
BRANCH   6  27
HETATM   27  O12 UNL     1      13.526 -20.706 -46.374  1.00  0.00    -0.382 OA
ATOM     28  H12 UNL     1      14.348 -20.707 -45.899  1.00  0.00     0.210 HD
ENDBRANCH   6  27
BRANCH   1  29
HETATM   29  O2  UNL     1      11.202 -18.829 -46.042  1.00  0.00    -0.308 OA
BRANCH  29  30
HETATM   30  C5  UNL     1      10.026 -18.185 -45.703  1.00  0.00     0.263 C 
HETATM   31  O1  UNL     1       9.609 -17.294 -46.488  1.00  0.00    -0.265 OA
BRANCH  30  32
HETATM   32  C3  UNL     1       9.235 -18.470 -44.496  1.00  0.00     0.081 C 
HETATM   33  C4  UNL     1       8.044 -19.338 -44.835  1.00  0.00     0.020 C 
BRANCH  32  34
HETATM   34  C2  UNL     1       8.804 -17.213 -43.756  1.00  0.00     0.010 C 
HETATM   35  C1  UNL     1       7.313 -17.041 -43.781  1.00  0.00     0.006 C 
ENDBRANCH  32  34
ENDBRANCH  30  32
ENDBRANCH  29  30
ENDBRANCH   1  29
BRANCH   2  36
HETATM   36  C8  UNL     1      10.564 -20.320 -48.550  1.00  0.00     0.175 C 
BRANCH  36  37
HETATM   37  O3  UNL     1      11.047 -19.039 -48.788  1.00  0.00    -0.389 OA
ATOM     38  H3  UNL     1      11.984 -18.999 -48.640  1.00  0.00     0.210 HD
ENDBRANCH  36  37
BRANCH  36  39
HETATM   39  C9  UNL     1       9.068 -20.235 -48.518  1.00  0.00     0.200 C 
BRANCH  39  40
HETATM   40  O4  UNL     1       8.597 -18.953 -48.785  1.00  0.00    -0.398 OA
ATOM     41  H4  UNL     1       8.868 -18.319 -48.132  1.00  0.00     0.209 HD
ENDBRANCH  39  40
ENDBRANCH  36  39
ENDBRANCH   2  36
TORSDOF 14
ENDMDL
MODEL 5
REMARK VINA RESULT: -7.612532987      0.883      1.086
REMARK  14 active torsions:
REMARK  status: ('A' for Active; 'I' for Inactive)
REMARK    1  A    between atoms: C2_2  and  C3_3 
REMARK    2  A    between atoms: C3_3  and  C5_5 
REMARK    3  A    between atoms: C5_5  and  O2_7 
REMARK    4  A    between atoms: O2_7  and  C6_8 
REMARK    5  A    between atoms: C7_9  and  C8_10 
REMARK    6  A    between atoms: C8_10  and  O3_11 
REMARK    7  A    between atoms: C8_10  and  C9_13 
REMARK    8  A    between atoms: C9_13  and  O4_14 
REMARK    9  A    between atoms: C11_18  and  O6_19 
REMARK   10  A    between atoms: O6_19  and  C12_20 
REMARK   11  A    between atoms: C14_23  and  C15_24 
REMARK   12  A    between atoms: C18_29  and  O10_30 
REMARK   13  A    between atoms: C20_33  and  C21_34 
REMARK   14  A    between atoms: C24_38  and  O12_40 
ROOT
HETATM    1  C6  UNL     1       6.831 -17.249 -48.919  1.00  0.00     0.204 C 
HETATM    2  C7  UNL     1       7.234 -17.539 -50.324  1.00  0.00     0.005 C 
HETATM    3  C10 UNL     1       8.286 -18.328 -50.540  1.00  0.00     0.146 C 
HETATM    4  O5  UNL     1       9.054 -18.913 -49.535  1.00  0.00    -0.329 OA
HETATM    5  C11 UNL     1       8.476 -18.843 -48.214  1.00  0.00     0.305 C 
HETATM    6  C24 UNL     1       8.124 -17.363 -48.112  1.00  0.00     0.135 C 
HETATM    7  C25 UNL     1       8.074 -16.804 -46.759  1.00  0.00     0.054 C 
ENDROOT
BRANCH   5   8
HETATM    8  O6  UNL     1       9.250 -19.301 -47.225  1.00  0.00    -0.318 OA
BRANCH   8   9
HETATM    9  C12 UNL     1       9.149 -20.630 -46.824  1.00  0.00     0.192 C 
HETATM   10  C13 UNL     1       7.812 -21.168 -47.226  1.00  0.00     0.085 C 
HETATM   11  O7  UNL     1      10.111 -21.341 -47.487  1.00  0.00    -0.305 OA
HETATM   12  C14 UNL     1      11.396 -21.200 -47.093  1.00  0.00     0.261 C 
HETATM   13  C16 UNL     1      11.886 -22.205 -46.088  1.00  0.00     0.086 C 
HETATM   14  O11 UNL     1      11.714 -19.922 -46.576  1.00  0.00    -0.306 OA
HETATM   15  C17 UNL     1      12.609 -21.361 -45.027  1.00  0.00     0.079 C 
HETATM   16  C18 UNL     1      11.806 -20.060 -45.222  1.00  0.00     0.185 C 
HETATM   17  C19 UNL     1      10.457 -20.350 -44.672  1.00  0.00     0.049 C 
HETATM   18  C20 UNL     1       9.349 -20.588 -45.350  1.00  0.00    -0.014 C 
BRANCH  12  19
HETATM   19  C15 UNL     1      12.274 -21.346 -48.282  1.00  0.00     0.239 C 
HETATM   20  O8  UNL     1      11.806 -21.844 -49.327  1.00  0.00    -0.644 OA
HETATM   21  O9  UNL     1      13.602 -20.950 -48.276  1.00  0.00    -0.644 OA
ENDBRANCH  12  19
BRANCH  16  22
HETATM   22  O10 UNL     1      12.462 -19.025 -44.611  1.00  0.00    -0.362 OA
ATOM     23  H10 UNL     1      11.939 -18.235 -44.680  1.00  0.00     0.213 HD
ENDBRANCH  16  22
BRANCH  18  24
HETATM   24  C21 UNL     1       8.154 -20.809 -44.511  1.00  0.00     0.012 C 
HETATM   25  C22 UNL     1       8.561 -21.797 -43.425  1.00  0.00     0.014 C 
HETATM   26  C23 UNL     1       7.790 -19.524 -43.735  1.00  0.00     0.014 C 
ENDBRANCH  18  24
ENDBRANCH   8   9
ENDBRANCH   5   8
BRANCH   6  27
HETATM   27  O12 UNL     1       9.071 -16.600 -48.837  1.00  0.00    -0.382 OA
ATOM     28  H12 UNL     1       9.276 -15.867 -48.269  1.00  0.00     0.210 HD
ENDBRANCH   6  27
BRANCH   1  29
HETATM   29  O2  UNL     1       6.109 -16.102 -48.702  1.00  0.00    -0.308 OA
BRANCH  29  30
HETATM   30  C5  UNL     1       4.788 -16.169 -48.301  1.00  0.00     0.263 C 
HETATM   31  O1  UNL     1       4.090 -17.107 -48.768  1.00  0.00    -0.265 OA
BRANCH  30  32
HETATM   32  C3  UNL     1       4.147 -15.225 -47.372  1.00  0.00     0.081 C 
HETATM   33  C4  UNL     1       3.227 -14.288 -48.121  1.00  0.00     0.020 C 
BRANCH  32  34
HETATM   34  C2  UNL     1       5.146 -14.453 -46.525  1.00  0.00     0.010 C 
HETATM   35  C1  UNL     1       5.364 -13.066 -47.055  1.00  0.00     0.006 C 
ENDBRANCH  32  34
ENDBRANCH  30  32
ENDBRANCH  29  30
ENDBRANCH   1  29
BRANCH   2  36
HETATM   36  C8  UNL     1       6.557 -16.996 -51.517  1.00  0.00     0.175 C 
BRANCH  36  37
HETATM   37  O3  UNL     1       5.206 -17.319 -51.508  1.00  0.00    -0.389 OA
ATOM     38  H3  UNL     1       4.674 -16.552 -51.685  1.00  0.00     0.210 HD
ENDBRANCH  36  37
BRANCH  36  39
HETATM   39  C9  UNL     1       7.119 -17.457 -52.829  1.00  0.00     0.200 C 
BRANCH  39  40
HETATM   40  O4  UNL     1       6.129 -17.781 -53.752  1.00  0.00    -0.398 OA
ATOM     41  H4  UNL     1       6.476 -18.206 -54.528  1.00  0.00     0.209 HD
ENDBRANCH  39  40
ENDBRANCH  36  39
ENDBRANCH   2  36
TORSDOF 14
ENDMDL
