MODEL 1
REMARK VINA RESULT: -8.071243969      0.000      0.000
REMARK  14 active torsions:
REMARK  status: ('A' for Active; 'I' for Inactive)
REMARK    1  A    between atoms: C2_2  and  C3_3 
REMARK    2  A    between atoms: C3_3  and  C4_4 
REMARK    3  A    between atoms: C4_4  and  C5_5 
REMARK    4  A    between atoms: C12_15  and  O1_16 
REMARK    5  A    between atoms: O1_16  and  C13_17 
REMARK    6  A    between atoms: C16_21  and  O3_22 
REMARK    7  A    between atoms: C17_24  and  O4_25 
REMARK    8  A    between atoms: C18_27  and  O5_28 
REMARK    9  A    between atoms: C19_31  and  C20_32 
REMARK   10  A    between atoms: C22_34  and  C23_35 
REMARK   11  A    between atoms: C23_35  and  O7_36 
REMARK   12  A    between atoms: C23_35  and  O8_38 
REMARK   13  A    between atoms: O8_38  and  C24_39 
REMARK   14  A    between atoms: C24_39  and  C25_41 
ROOT
HETATM    1  C5  UNL     1      12.606 -21.242 -44.658  1.00  0.00     0.187 C 
HETATM    2  C6  UNL     1      12.691 -19.845 -44.139  1.00  0.00     0.035 C 
HETATM    3  C7  UNL     1      11.321 -19.253 -44.509  1.00  0.00     0.044 C 
HETATM    4  C8  UNL     1      10.844 -20.096 -45.686  1.00  0.00     0.159 C 
HETATM    5  N1  UNL     1      11.307 -21.424 -45.224  1.00  0.00    -0.059 N 
ATOM      6  H11 UNL     1      10.653 -21.877 -44.586  1.00  0.00     0.278 HD
ATOM      7  H12 UNL     1      11.286 -22.132 -45.958  1.00  0.00     0.278 HD
HETATM    8  C9  UNL     1      11.642 -19.816 -46.919  1.00  0.00     0.025 C 
HETATM    9  C10 UNL     1      11.966 -18.360 -47.123  1.00  0.00     0.012 C 
HETATM   10  C11 UNL     1      10.913 -20.347 -48.102  1.00  0.00     0.067 C 
HETATM   11  C12 UNL     1       9.479 -19.919 -48.161  1.00  0.00     0.264 C 
HETATM   12  O6  UNL     1       8.822 -19.809 -47.016  1.00  0.00    -0.349 OA
HETATM   13  C19 UNL     1       9.375 -20.112 -45.809  1.00  0.00     0.189 C 
ENDROOT
BRANCH  11  14
HETATM   14  O1  UNL     1       9.461 -18.679 -48.818  1.00  0.00    -0.329 OA
BRANCH  14  15
HETATM   15  C13 UNL     1       8.192 -18.361 -49.305  1.00  0.00     0.294 C 
HETATM   16  O2  UNL     1       8.322 -18.196 -50.662  1.00  0.00    -0.351 OA
HETATM   17  C14 UNL     1       7.224 -17.712 -51.321  1.00  0.00     0.152 C 
HETATM   18  C15 UNL     1       7.661 -16.484 -52.096  1.00  0.00     0.042 C 
HETATM   19  C16 UNL     1       6.047 -17.399 -50.451  1.00  0.00     0.178 C 
HETATM   20  C17 UNL     1       6.427 -16.672 -49.189  1.00  0.00     0.183 C 
HETATM   21  C18 UNL     1       7.778 -17.041 -48.662  1.00  0.00     0.204 C 
BRANCH  19  22
HETATM   22  O3  UNL     1       5.178 -16.599 -51.184  1.00  0.00    -0.390 OA
ATOM     23  H3  UNL     1       4.994 -15.823 -50.668  1.00  0.00     0.210 HD
ENDBRANCH  19  22
BRANCH  20  24
HETATM   24  O4  UNL     1       6.380 -15.278 -49.398  1.00  0.00    -0.390 OA
ATOM     25  H4  UNL     1       5.531 -14.937 -49.143  1.00  0.00     0.210 HD
ENDBRANCH  20  24
BRANCH  21  26
HETATM   26  O5  UNL     1       8.688 -16.045 -48.944  1.00  0.00    -0.388 OA
ATOM     27  H5  UNL     1       8.421 -15.219 -48.558  1.00  0.00     0.210 HD
ENDBRANCH  21  26
ENDBRANCH  14  15
ENDBRANCH  11  14
BRANCH  13  28
HETATM   28  C20 UNL     1       8.635 -19.309 -44.785  1.00  0.00    -0.052 C 
HETATM   29  C21 UNL     1       8.197 -19.946 -43.515  1.00  0.00     0.046 C 
HETATM   30  C22 UNL     1       8.339 -18.030 -44.953  1.00  0.00     0.038 C 
BRANCH  30  31
HETATM   31  C23 UNL     1       7.605 -17.268 -43.916  1.00  0.00     0.291 C 
BRANCH  31  32
HETATM   32  O7  UNL     1       8.346 -16.179 -43.453  1.00  0.00    -0.367 OA
ATOM     33  H7  UNL     1       8.155 -15.985 -42.544  1.00  0.00     0.213 HD
ENDBRANCH  31  32
BRANCH  31  34
HETATM   34  O8  UNL     1       6.367 -16.787 -44.364  1.00  0.00    -0.280 OA
BRANCH  34  35
HETATM   35  C24 UNL     1       6.052 -15.433 -44.212  1.00  0.00     0.331 C 
HETATM   36  O9  UNL     1       5.958 -14.935 -43.062  1.00  0.00    -0.256 OA
BRANCH  35  37
HETATM   37  C25 UNL     1       5.829 -14.588 -45.372  1.00  0.00     0.220 C 
HETATM   38  C26 UNL     1       4.789 -14.955 -46.364  1.00  0.00     0.103 C 
HETATM   39  O10 UNL     1       6.539 -13.540 -45.511  1.00  0.00    -0.287 OA
ENDBRANCH  35  37
ENDBRANCH  34  35
ENDBRANCH  31  34
ENDBRANCH  30  31
ENDBRANCH  13  28
BRANCH   1  40
HETATM   40  C4  UNL     1      12.777 -22.278 -43.555  1.00  0.00     0.036 C 
BRANCH  40  41
HETATM   41  C3  UNL     1      13.043 -21.637 -42.210  1.00  0.00     0.028 C 
BRANCH  41  42
HETATM   42  C2  UNL     1      11.965 -22.023 -41.285  1.00  0.00    -0.037 C 
HETATM   43  C1  UNL     1      10.868 -21.289 -41.202  1.00  0.00     0.007 C 
ENDBRANCH  41  42
ENDBRANCH  40  41
ENDBRANCH   1  40
TORSDOF 14
ENDMDL
MODEL 2
REMARK VINA RESULT: -8.038611625      2.567      7.111
REMARK  14 active torsions:
REMARK  status: ('A' for Active; 'I' for Inactive)
REMARK    1  A    between atoms: C2_2  and  C3_3 
REMARK    2  A    between atoms: C3_3  and  C4_4 
REMARK    3  A    between atoms: C4_4  and  C5_5 
REMARK    4  A    between atoms: C12_15  and  O1_16 
REMARK    5  A    between atoms: O1_16  and  C13_17 
REMARK    6  A    between atoms: C16_21  and  O3_22 
REMARK    7  A    between atoms: C17_24  and  O4_25 
REMARK    8  A    between atoms: C18_27  and  O5_28 
REMARK    9  A    between atoms: C19_31  and  C20_32 
REMARK   10  A    between atoms: C22_34  and  C23_35 
REMARK   11  A    between atoms: C23_35  and  O7_36 
REMARK   12  A    between atoms: C23_35  and  O8_38 
REMARK   13  A    between atoms: O8_38  and  C24_39 
REMARK   14  A    between atoms: C24_39  and  C25_41 
ROOT
HETATM    1  C5  UNL     1       7.694 -16.977 -50.223  1.00  0.00     0.187 C 
HETATM    2  C6  UNL     1       6.485 -17.644 -49.653  1.00  0.00     0.035 C 
HETATM    3  C7  UNL     1       6.805 -17.716 -48.151  1.00  0.00     0.044 C 
HETATM    4  C8  UNL     1       8.326 -17.670 -48.080  1.00  0.00     0.159 C 
HETATM    5  N1  UNL     1       8.580 -16.674 -49.145  1.00  0.00    -0.059 N 
ATOM      6  H11 UNL     1       8.498 -15.710 -48.820  1.00  0.00     0.278 HD
ATOM      7  H12 UNL     1       9.558 -16.633 -49.430  1.00  0.00     0.278 HD
HETATM    8  C9  UNL     1       8.937 -18.939 -48.585  1.00  0.00     0.025 C 
HETATM    9  C10 UNL     1       8.204 -20.183 -48.161  1.00  0.00     0.012 C 
HETATM   10  C11 UNL     1      10.355 -19.006 -48.143  1.00  0.00     0.067 C 
HETATM   11  C12 UNL     1      10.537 -18.751 -46.678  1.00  0.00     0.264 C 
HETATM   12  O6  UNL     1       9.743 -17.860 -46.105  1.00  0.00    -0.349 OA
HETATM   13  C19 UNL     1       8.815 -17.140 -46.794  1.00  0.00     0.189 C 
ENDROOT
BRANCH  11  14
HETATM   14  O1  UNL     1      10.372 -19.988 -46.036  1.00  0.00    -0.329 OA
BRANCH  14  15
HETATM   15  C13 UNL     1      10.282 -19.854 -44.650  1.00  0.00     0.294 C 
HETATM   16  O2  UNL     1      11.541 -20.079 -44.151  1.00  0.00    -0.351 OA
HETATM   17  C14 UNL     1      11.647 -20.163 -42.789  1.00  0.00     0.152 C 
HETATM   18  C15 UNL     1      12.321 -21.481 -42.462  1.00  0.00     0.042 C 
HETATM   19  C16 UNL     1      10.356 -20.028 -42.041  1.00  0.00     0.178 C 
HETATM   20  C17 UNL     1       9.235 -20.817 -42.661  1.00  0.00     0.183 C 
HETATM   21  C18 UNL     1       9.327 -20.932 -44.150  1.00  0.00     0.204 C 
BRANCH  19  22
HETATM   22  O3  UNL     1      10.566 -20.489 -40.747  1.00  0.00    -0.390 OA
ATOM     23  H3  UNL     1      10.672 -21.432 -40.789  1.00  0.00     0.210 HD
ENDBRANCH  19  22
BRANCH  20  24
HETATM   24  O4  UNL     1       9.183 -22.111 -42.102  1.00  0.00    -0.390 OA
ATOM     25  H4  UNL     1       8.647 -22.680 -42.642  1.00  0.00     0.210 HD
ENDBRANCH  20  24
BRANCH  21  26
HETATM   26  O5  UNL     1       9.769 -22.189 -44.504  1.00  0.00    -0.388 OA
ATOM     27  H5  UNL     1      10.120 -22.652 -43.752  1.00  0.00     0.210 HD
ENDBRANCH  21  26
ENDBRANCH  14  15
ENDBRANCH  11  14
BRANCH  13  28
HETATM   28  C20 UNL     1       7.752 -16.758 -45.811  1.00  0.00    -0.052 C 
HETATM   29  C21 UNL     1       7.439 -17.654 -44.668  1.00  0.00     0.046 C 
HETATM   30  C22 UNL     1       7.058 -15.635 -45.906  1.00  0.00     0.038 C 
BRANCH  30  31
HETATM   31  C23 UNL     1       6.014 -15.290 -44.913  1.00  0.00     0.291 C 
BRANCH  31  32
HETATM   32  O7  UNL     1       6.333 -14.126 -44.211  1.00  0.00    -0.367 OA
ATOM     33  H7  UNL     1       7.268 -14.051 -44.062  1.00  0.00     0.213 HD
ENDBRANCH  31  32
BRANCH  31  34
HETATM   34  O8  UNL     1       4.748 -15.112 -45.488  1.00  0.00    -0.280 OA
BRANCH  34  35
HETATM   35  C24 UNL     1       4.562 -14.129 -46.466  1.00  0.00     0.331 C 
HETATM   36  O9  UNL     1       5.216 -13.057 -46.411  1.00  0.00    -0.256 OA
BRANCH  35  37
HETATM   37  C25 UNL     1       3.618 -14.331 -47.551  1.00  0.00     0.220 C 
HETATM   38  C26 UNL     1       3.412 -15.691 -48.107  1.00  0.00     0.103 C 
HETATM   39  O10 UNL     1       2.980 -13.325 -48.003  1.00  0.00    -0.287 OA
ENDBRANCH  35  37
ENDBRANCH  34  35
ENDBRANCH  31  34
ENDBRANCH  30  31
ENDBRANCH  13  28
BRANCH   1  40
HETATM   40  C4  UNL     1       7.355 -15.669 -50.923  1.00  0.00     0.036 C 
BRANCH  40  41
HETATM   41  C3  UNL     1       5.952 -15.200 -50.602  1.00  0.00     0.028 C 
BRANCH  41  42
HETATM   42  C2  UNL     1       6.018 -13.805 -50.140  1.00  0.00    -0.037 C 
HETATM   43  C1  UNL     1       6.976 -13.425 -49.311  1.00  0.00     0.007 C 
ENDBRANCH  41  42
ENDBRANCH  40  41
ENDBRANCH   1  40
TORSDOF 14
ENDMDL
MODEL 3
REMARK VINA RESULT: -7.842281518      2.436      7.068
REMARK  14 active torsions:
REMARK  status: ('A' for Active; 'I' for Inactive)
REMARK    1  A    between atoms: C2_2  and  C3_3 
REMARK    2  A    between atoms: C3_3  and  C4_4 
REMARK    3  A    between atoms: C4_4  and  C5_5 
REMARK    4  A    between atoms: C12_15  and  O1_16 
REMARK    5  A    between atoms: O1_16  and  C13_17 
REMARK    6  A    between atoms: C16_21  and  O3_22 
REMARK    7  A    between atoms: C17_24  and  O4_25 
REMARK    8  A    between atoms: C18_27  and  O5_28 
REMARK    9  A    between atoms: C19_31  and  C20_32 
REMARK   10  A    between atoms: C22_34  and  C23_35 
REMARK   11  A    between atoms: C23_35  and  O7_36 
REMARK   12  A    between atoms: C23_35  and  O8_38 
REMARK   13  A    between atoms: O8_38  and  C24_39 
REMARK   14  A    between atoms: C24_39  and  C25_41 
ROOT
HETATM    1  C5  UNL     1       7.927 -17.742 -49.829  1.00  0.00     0.187 C 
HETATM    2  C6  UNL     1       6.839 -18.515 -49.160  1.00  0.00     0.035 C 
HETATM    3  C7  UNL     1       7.289 -18.546 -47.690  1.00  0.00     0.044 C 
HETATM    4  C8  UNL     1       8.800 -18.356 -47.746  1.00  0.00     0.159 C 
HETATM    5  N1  UNL     1       8.867 -17.347 -48.828  1.00  0.00    -0.059 N 
ATOM      6  H11 UNL     1       8.722 -16.394 -48.497  1.00  0.00     0.278 HD
ATOM      7  H12 UNL     1       9.810 -17.217 -49.195  1.00  0.00     0.278 HD
HETATM    8  C9  UNL     1       9.483 -19.565 -48.302  1.00  0.00     0.025 C 
HETATM    9  C10 UNL     1       8.911 -20.870 -47.819  1.00  0.00     0.012 C 
HETATM   10  C11 UNL     1      10.934 -19.494 -47.981  1.00  0.00     0.067 C 
HETATM   11  C12 UNL     1      11.213 -19.213 -46.536  1.00  0.00     0.264 C 
HETATM   12  O6  UNL     1      10.388 -18.396 -45.898  1.00  0.00    -0.349 OA
HETATM   13  C19 UNL     1       9.341 -17.772 -46.506  1.00  0.00     0.189 C 
ENDROOT
BRANCH  11  14
HETATM   14  O1  UNL     1      11.220 -20.455 -45.883  1.00  0.00    -0.329 OA
BRANCH  14  15
HETATM   15  C13 UNL     1      10.960 -20.333 -44.517  1.00  0.00     0.294 C 
HETATM   16  O2  UNL     1      12.169 -20.437 -43.877  1.00  0.00    -0.351 OA
HETATM   17  C14 UNL     1      12.126 -20.514 -42.511  1.00  0.00     0.152 C 
HETATM   18  C15 UNL     1      12.883 -21.761 -42.098  1.00  0.00     0.042 C 
HETATM   19  C16 UNL     1      10.752 -20.506 -41.916  1.00  0.00     0.178 C 
HETATM   20  C17 UNL     1       9.790 -21.398 -42.653  1.00  0.00     0.183 C 
HETATM   21  C18 UNL     1      10.062 -21.500 -44.121  1.00  0.00     0.204 C 
BRANCH  19  22
HETATM   22  O3  UNL     1      10.856 -20.948 -40.602  1.00  0.00    -0.390 OA
ATOM     23  H3  UNL     1      11.511 -20.414 -40.168  1.00  0.00     0.210 HD
ENDBRANCH  19  22
BRANCH  20  24
HETATM   24  O4  UNL     1       9.800 -22.692 -42.092  1.00  0.00    -0.390 OA
ATOM     25  H4  UNL     1      10.179 -23.312 -42.705  1.00  0.00     0.210 HD
ENDBRANCH  20  24
BRANCH  21  26
HETATM   26  O5  UNL     1      10.661 -22.707 -44.411  1.00  0.00    -0.388 OA
ATOM     27  H5  UNL     1      11.593 -22.599 -44.564  1.00  0.00     0.210 HD
ENDBRANCH  21  26
ENDBRANCH  14  15
ENDBRANCH  11  14
BRANCH  13  28
HETATM   28  C20 UNL     1       8.334 -17.485 -45.436  1.00  0.00    -0.052 C 
HETATM   29  C21 UNL     1       8.072 -18.488 -44.372  1.00  0.00     0.046 C 
HETATM   30  C22 UNL     1       7.643 -16.356 -45.386  1.00  0.00     0.038 C 
BRANCH  30  31
HETATM   31  C23 UNL     1       6.655 -16.108 -44.311  1.00  0.00     0.291 C 
BRANCH  31  32
HETATM   32  O7  UNL     1       7.139 -15.204 -43.363  1.00  0.00    -0.367 OA
ATOM     33  H7  UNL     1       7.226 -15.607 -42.507  1.00  0.00     0.213 HD
ENDBRANCH  31  32
BRANCH  31  34
HETATM   34  O8  UNL     1       5.435 -15.613 -44.794  1.00  0.00    -0.280 OA
BRANCH  34  35
HETATM   35  C24 UNL     1       5.429 -14.585 -45.743  1.00  0.00     0.331 C 
HETATM   36  O9  UNL     1       6.181 -13.589 -45.594  1.00  0.00    -0.256 OA
BRANCH  35  37
HETATM   37  C25 UNL     1       4.562 -14.654 -46.905  1.00  0.00     0.220 C 
HETATM   38  C26 UNL     1       4.764 -15.721 -47.916  1.00  0.00     0.103 C 
HETATM   39  O10 UNL     1       3.637 -13.787 -47.031  1.00  0.00    -0.287 OA
ENDBRANCH  35  37
ENDBRANCH  34  35
ENDBRANCH  31  34
ENDBRANCH  30  31
ENDBRANCH  13  28
BRANCH   1  40
HETATM   40  C4  UNL     1       7.408 -16.476 -50.497  1.00  0.00     0.036 C 
BRANCH  40  41
HETATM   41  C3  UNL     1       7.759 -16.426 -51.969  1.00  0.00     0.028 C 
BRANCH  41  42
HETATM   42  C2  UNL     1       7.312 -17.677 -52.601  1.00  0.00    -0.037 C 
HETATM   43  C1  UNL     1       6.081 -17.778 -53.075  1.00  0.00     0.007 C 
ENDBRANCH  41  42
ENDBRANCH  40  41
ENDBRANCH   1  40
TORSDOF 14
ENDMDL
MODEL 4
REMARK VINA RESULT: -7.841130386      2.672      7.232
REMARK  14 active torsions:
REMARK  status: ('A' for Active; 'I' for Inactive)
REMARK    1  A    between atoms: C2_2  and  C3_3 
REMARK    2  A    between atoms: C3_3  and  C4_4 
REMARK    3  A    between atoms: C4_4  and  C5_5 
REMARK    4  A    between atoms: C12_15  and  O1_16 
REMARK    5  A    between atoms: O1_16  and  C13_17 
REMARK    6  A    between atoms: C16_21  and  O3_22 
REMARK    7  A    between atoms: C17_24  and  O4_25 
REMARK    8  A    between atoms: C18_27  and  O5_28 
REMARK    9  A    between atoms: C19_31  and  C20_32 
REMARK   10  A    between atoms: C22_34  and  C23_35 
REMARK   11  A    between atoms: C23_35  and  O7_36 
REMARK   12  A    between atoms: C23_35  and  O8_38 
REMARK   13  A    between atoms: O8_38  and  C24_39 
REMARK   14  A    between atoms: C24_39  and  C25_41 
ROOT
HETATM    1  C5  UNL     1       7.601 -17.071 -50.321  1.00  0.00     0.187 C 
HETATM    2  C6  UNL     1       6.414 -17.728 -49.697  1.00  0.00     0.035 C 
HETATM    3  C7  UNL     1       6.773 -17.746 -48.203  1.00  0.00     0.044 C 
HETATM    4  C8  UNL     1       8.295 -17.683 -48.172  1.00  0.00     0.159 C 
HETATM    5  N1  UNL     1       8.511 -16.722 -49.277  1.00  0.00    -0.059 N 
ATOM      6  H11 UNL     1       8.428 -15.749 -48.983  1.00  0.00     0.278 HD
ATOM      7  H12 UNL     1       9.481 -16.682 -49.589  1.00  0.00     0.278 HD
HETATM    8  C9  UNL     1       8.905 -18.963 -48.650  1.00  0.00     0.025 C 
HETATM    9  C10 UNL     1       8.197 -20.199 -48.164  1.00  0.00     0.012 C 
HETATM   10  C11 UNL     1      10.335 -19.002 -48.243  1.00  0.00     0.067 C 
HETATM   11  C12 UNL     1      10.552 -18.695 -46.792  1.00  0.00     0.264 C 
HETATM   12  O6  UNL     1       9.764 -17.792 -46.230  1.00  0.00    -0.349 OA
HETATM   13  C19 UNL     1       8.811 -17.104 -46.919  1.00  0.00     0.189 C 
ENDROOT
BRANCH  11  14
HETATM   14  O1  UNL     1      10.416 -19.910 -46.104  1.00  0.00    -0.329 OA
BRANCH  14  15
HETATM   15  C13 UNL     1      11.398 -20.074 -45.126  1.00  0.00     0.294 C 
HETATM   16  O2  UNL     1      12.005 -21.279 -45.377  1.00  0.00    -0.351 OA
HETATM   17  C14 UNL     1      12.892 -21.719 -44.432  1.00  0.00     0.152 C 
HETATM   18  C15 UNL     1      12.461 -23.110 -44.012  1.00  0.00     0.042 C 
HETATM   19  C16 UNL     1      13.043 -20.827 -43.238  1.00  0.00     0.178 C 
HETATM   20  C17 UNL     1      11.726 -20.320 -42.715  1.00  0.00     0.183 C 
HETATM   21  C18 UNL     1      10.689 -20.123 -43.776  1.00  0.00     0.204 C 
BRANCH  19  22
HETATM   22  O3  UNL     1      13.669 -21.562 -42.237  1.00  0.00    -0.390 OA
ATOM     23  H3  UNL     1      14.348 -21.016 -41.859  1.00  0.00     0.210 HD
ENDBRANCH  19  22
BRANCH  20  24
HETATM   24  O4  UNL     1      11.220 -21.200 -41.735  1.00  0.00    -0.390 OA
ATOM     25  H4  UNL     1      10.895 -20.708 -40.990  1.00  0.00     0.210 HD
ENDBRANCH  20  24
BRANCH  21  26
HETATM   26  O5  UNL     1       9.768 -21.147 -43.737  1.00  0.00    -0.388 OA
ATOM     27  H5  UNL     1       9.081 -20.966 -43.105  1.00  0.00     0.210 HD
ENDBRANCH  21  26
ENDBRANCH  14  15
ENDBRANCH  11  14
BRANCH  13  28
HETATM   28  C20 UNL     1       7.770 -16.698 -45.922  1.00  0.00    -0.052 C 
HETATM   29  C21 UNL     1       7.504 -17.551 -44.735  1.00  0.00     0.046 C 
HETATM   30  C22 UNL     1       7.055 -15.591 -46.043  1.00  0.00     0.038 C 
BRANCH  30  31
HETATM   31  C23 UNL     1       6.034 -15.222 -45.035  1.00  0.00     0.291 C 
BRANCH  31  32
HETATM   32  O7  UNL     1       6.353 -14.024 -44.392  1.00  0.00    -0.367 OA
ATOM     33  H7  UNL     1       5.951 -13.278 -44.819  1.00  0.00     0.213 HD
ENDBRANCH  31  32
BRANCH  31  34
HETATM   34  O8  UNL     1       4.749 -15.088 -45.581  1.00  0.00    -0.280 OA
BRANCH  34  35
HETATM   35  C24 UNL     1       4.499 -14.093 -46.531  1.00  0.00     0.331 C 
HETATM   36  O9  UNL     1       5.097 -12.991 -46.459  1.00  0.00    -0.256 OA
BRANCH  35  37
HETATM   37  C25 UNL     1       3.550 -14.317 -47.608  1.00  0.00     0.220 C 
HETATM   38  C26 UNL     1       3.325 -15.691 -48.120  1.00  0.00     0.103 C 
HETATM   39  O10 UNL     1       2.925 -13.317 -48.092  1.00  0.00    -0.287 OA
ENDBRANCH  35  37
ENDBRANCH  34  35
ENDBRANCH  31  34
ENDBRANCH  30  31
ENDBRANCH  13  28
BRANCH   1  40
HETATM   40  C4  UNL     1       7.230 -15.790 -51.057  1.00  0.00     0.036 C 
BRANCH  40  41
HETATM   41  C3  UNL     1       5.891 -15.245 -50.609  1.00  0.00     0.028 C 
BRANCH  41  42
HETATM   42  C2  UNL     1       6.064 -13.837 -50.219  1.00  0.00    -0.037 C 
HETATM   43  C1  UNL     1       6.974 -13.505 -49.317  1.00  0.00     0.007 C 
ENDBRANCH  41  42
ENDBRANCH  40  41
ENDBRANCH   1  40
TORSDOF 14
ENDMDL
MODEL 5
REMARK VINA RESULT: -7.834206292      2.416      3.412
REMARK  14 active torsions:
REMARK  status: ('A' for Active; 'I' for Inactive)
REMARK    1  A    between atoms: C2_2  and  C3_3 
REMARK    2  A    between atoms: C3_3  and  C4_4 
REMARK    3  A    between atoms: C4_4  and  C5_5 
REMARK    4  A    between atoms: C12_15  and  O1_16 
REMARK    5  A    between atoms: O1_16  and  C13_17 
REMARK    6  A    between atoms: C16_21  and  O3_22 
REMARK    7  A    between atoms: C17_24  and  O4_25 
REMARK    8  A    between atoms: C18_27  and  O5_28 
REMARK    9  A    between atoms: C19_31  and  C20_32 
REMARK   10  A    between atoms: C22_34  and  C23_35 
REMARK   11  A    between atoms: C23_35  and  O7_36 
REMARK   12  A    between atoms: C23_35  and  O8_38 
REMARK   13  A    between atoms: O8_38  and  C24_39 
REMARK   14  A    between atoms: C24_39  and  C25_41 
ROOT
HETATM    1  C5  UNL     1       9.599 -19.632 -44.633  1.00  0.00     0.187 C 
HETATM    2  C6  UNL     1      10.269 -18.300 -44.718  1.00  0.00     0.035 C 
HETATM    3  C7  UNL     1       9.202 -17.417 -45.386  1.00  0.00     0.044 C 
HETATM    4  C8  UNL     1       8.319 -18.394 -46.151  1.00  0.00     0.159 C 
HETATM    5  N1  UNL     1       8.280 -19.496 -45.163  1.00  0.00    -0.059 N 
ATOM      6  H11 UNL     1       7.571 -19.363 -44.441  1.00  0.00     0.278 HD
ATOM      7  H12 UNL     1       7.912 -20.366 -45.548  1.00  0.00     0.278 HD
HETATM    8  C9  UNL     1       9.031 -18.964 -47.336  1.00  0.00     0.025 C 
HETATM    9  C10 UNL     1       9.867 -17.964 -48.088  1.00  0.00     0.012 C 
HETATM   10  C11 UNL     1       8.036 -19.586 -48.250  1.00  0.00     0.067 C 
HETATM   11  C12 UNL     1       6.879 -18.691 -48.572  1.00  0.00     0.264 C 
HETATM   12  O6  UNL     1       6.437 -17.888 -47.616  1.00  0.00    -0.349 OA
HETATM   13  C19 UNL     1       6.953 -17.879 -46.355  1.00  0.00     0.189 C 
ENDROOT
BRANCH  11  14
HETATM   14  O1  UNL     1       7.271 -17.915 -49.674  1.00  0.00    -0.329 OA
BRANCH  14  15
HETATM   15  C13 UNL     1       6.302 -16.975 -50.028  1.00  0.00     0.294 C 
HETATM   16  O2  UNL     1       5.729 -17.422 -51.192  1.00  0.00    -0.351 OA
HETATM   17  C14 UNL     1       4.863 -16.562 -51.810  1.00  0.00     0.152 C 
HETATM   18  C15 UNL     1       5.338 -16.380 -53.239  1.00  0.00     0.042 C 
HETATM   19  C16 UNL     1       4.694 -15.236 -51.135  1.00  0.00     0.178 C 
HETATM   20  C17 UNL     1       5.999 -14.639 -50.681  1.00  0.00     0.183 C 
HETATM   21  C18 UNL     1       7.021 -15.654 -50.279  1.00  0.00     0.204 C 
BRANCH  19  22
HETATM   22  O3  UNL     1       4.097 -14.370 -52.045  1.00  0.00    -0.390 OA
ATOM     23  H3  UNL     1       4.599 -14.406 -52.850  1.00  0.00     0.210 HD
ENDBRANCH  19  22
BRANCH  20  24
HETATM   24  O4  UNL     1       6.538 -13.820 -51.696  1.00  0.00    -0.390 OA
ATOM     25  H4  UNL     1       5.847 -13.519 -52.275  1.00  0.00     0.210 HD
ENDBRANCH  20  24
BRANCH  21  26
HETATM   26  O5  UNL     1       7.973 -15.788 -51.266  1.00  0.00    -0.388 OA
ATOM     27  H5  UNL     1       7.806 -15.191 -51.986  1.00  0.00     0.210 HD
ENDBRANCH  21  26
ENDBRANCH  14  15
ENDBRANCH  11  14
BRANCH  13  28
HETATM   28  C20 UNL     1       6.689 -16.517 -45.793  1.00  0.00    -0.052 C 
HETATM   29  C21 UNL     1       6.617 -16.319 -44.323  1.00  0.00     0.046 C 
HETATM   30  C22 UNL     1       6.510 -15.449 -46.556  1.00  0.00     0.038 C 
BRANCH  30  31
HETATM   31  C23 UNL     1       6.251 -14.116 -45.964  1.00  0.00     0.291 C 
BRANCH  31  32
HETATM   32  O7  UNL     1       6.941 -13.108 -46.640  1.00  0.00    -0.367 OA
ATOM     33  H7  UNL     1       7.130 -12.371 -46.072  1.00  0.00     0.213 HD
ENDBRANCH  31  32
BRANCH  31  34
HETATM   34  O8  UNL     1       4.891 -13.777 -45.955  1.00  0.00    -0.280 OA
BRANCH  34  35
HETATM   35  C24 UNL     1       4.399 -12.857 -46.887  1.00  0.00     0.331 C 
HETATM   36  O9  UNL     1       4.624 -11.630 -46.738  1.00  0.00    -0.256 OA
BRANCH  35  37
HETATM   37  C25 UNL     1       3.627 -13.304 -48.033  1.00  0.00     0.220 C 
HETATM   38  C26 UNL     1       3.334 -12.359 -49.139  1.00  0.00     0.103 C 
HETATM   39  O10 UNL     1       3.215 -14.509 -48.063  1.00  0.00    -0.287 OA
ENDBRANCH  35  37
ENDBRANCH  34  35
ENDBRANCH  31  34
ENDBRANCH  30  31
ENDBRANCH  13  28
BRANCH   1  40
HETATM   40  C4  UNL     1       9.472 -20.123 -43.198  1.00  0.00     0.036 C 
BRANCH  40  41
HETATM   41  C3  UNL     1       9.776 -19.031 -42.195  1.00  0.00     0.028 C 
BRANCH  41  42
HETATM   42  C2  UNL     1       8.660 -18.945 -41.240  1.00  0.00    -0.037 C 
HETATM   43  C1  UNL     1       7.415 -18.867 -41.681  1.00  0.00     0.007 C 
ENDBRANCH  41  42
ENDBRANCH  40  41
ENDBRANCH   1  40
TORSDOF 14
ENDMDL
