MODEL 1
REMARK VINA RESULT: -9.092777012      0.000      0.000
REMARK  13 active torsions:
REMARK  status: ('A' for Active; 'I' for Inactive)
REMARK    1  A    between atoms: C2_2  and  C3_4 
REMARK    2  A    between atoms: C5_7  and  N1_8 
REMARK       I    between atoms: N1_8  and  C6_10 
REMARK    3  A    between atoms: C6_10  and  C7_12 
REMARK    4  A    between atoms: C7_12  and  C10_15 
REMARK    5  A    between atoms: C10_15  and  C11_17 
REMARK    6  A    between atoms: C11_17  and  O4_18 
REMARK    7  A    between atoms: C11_17  and  N2_20 
REMARK    8  A    between atoms: C13_24  and  C14_25 
REMARK    9  A    between atoms: C14_25  and  O5_26 
REMARK   10  A    between atoms: C14_25  and  C15_28 
REMARK   11  A    between atoms: C15_28  and  C16_29 
REMARK   12  A    between atoms: C16_29  and  O6_32 
REMARK   13  A    between atoms: C20_38  and  C21_39 
ROOT
HETATM    1  C11 UNL     1      10.342 -19.182 -42.423  1.00  0.00     0.291 C 
ENDROOT
BRANCH   1   2
HETATM    2  C10 UNL     1       9.452 -20.020 -41.600  1.00  0.00     0.192 C 
HETATM    3  O3  UNL     1      10.008 -20.816 -40.829  1.00  0.00    -0.292 OA
BRANCH   2   4
HETATM    4  C7  UNL     1       7.977 -19.903 -41.700  1.00  0.00     0.099 C 
HETATM    5  C8  UNL     1       7.382 -18.915 -40.727  1.00  0.00     0.033 C 
HETATM    6  C9  UNL     1       7.365 -21.252 -41.378  1.00  0.00     0.033 C 
BRANCH   4   7
HETATM    7  C6  UNL     1       7.648 -19.521 -43.121  1.00  0.00     0.238 C 
HETATM    8  N1  UNL     1       7.674 -18.193 -43.542  1.00  0.00    -0.319 N 
ATOM      9  H1  UNL     1       7.969 -17.527 -42.829  1.00  0.00     0.169 HD
HETATM   10  O2  UNL     1       7.363 -20.481 -43.855  1.00  0.00    -0.272 OA
BRANCH   8  11
HETATM   11  C5  UNL     1       7.360 -17.622 -44.790  1.00  0.00     0.094 A 
HETATM   12  S1  UNL     1       7.867 -18.448 -46.251  1.00  0.00    -0.082 SA
HETATM   13  C4  UNL     1       7.249 -17.382 -47.396  1.00  0.00     0.068 A 
HETATM   14  C3  UNL     1       6.654 -16.381 -46.633  1.00  0.00     0.036 A 
HETATM   15  C20 UNL     1       6.733 -16.523 -45.284  1.00  0.00     0.088 A 
BRANCH  14  16
HETATM   16  C2  UNL     1       5.907 -15.355 -47.400  1.00  0.00     0.157 C 
HETATM   17  C1  UNL     1       6.679 -14.319 -48.207  1.00  0.00     0.097 C 
HETATM   18  O1  UNL     1       4.682 -15.299 -47.412  1.00  0.00    -0.293 OA
ENDBRANCH  14  16
BRANCH  15  19
HETATM   19  C21 UNL     1       6.476 -15.360 -44.385  1.00  0.00     0.213 C 
HETATM   20  O7  UNL     1       6.141 -15.617 -43.174  1.00  0.00    -0.644 OA
HETATM   21  O8  UNL     1       6.550 -14.036 -44.689  1.00  0.00    -0.644 OA
ENDBRANCH  15  19
ENDBRANCH   8  11
ENDBRANCH   4   7
ENDBRANCH   2   4
ENDBRANCH   1   2
BRANCH   1  22
HETATM   22  O4  UNL     1      10.515 -17.905 -41.893  1.00  0.00    -0.370 OA
ATOM     23  H4  UNL     1      11.389 -17.565 -42.040  1.00  0.00     0.212 HD
ENDBRANCH   1  22
BRANCH   1  24
HETATM   24  N2  UNL     1      11.609 -19.870 -42.564  1.00  0.00    -0.337 N 
HETATM   25  C12 UNL     1      12.184 -19.946 -43.744  1.00  0.00     0.165 A 
HETATM   26  S2  UNL     1      11.683 -19.339 -45.263  1.00  0.00    -0.035 SA
HETATM   27  N4  UNL     1      13.341 -20.536 -44.055  1.00  0.00    -0.275 N 
HETATM   28  C13 UNL     1      13.021 -19.902 -46.187  1.00  0.00     0.098 A 
HETATM   29  N3  UNL     1      13.734 -20.503 -45.261  1.00  0.00    -0.291 N 
ATOM     30  H3  UNL     1      14.614 -20.948 -45.515  1.00  0.00     0.187 HD
HETATM   31  C19 UNL     1      14.127 -21.208 -42.991  1.00  0.00     0.180 C 
ATOM     32  H2  UNL     1      12.054 -20.295 -41.750  1.00  0.00     0.164 HD
BRANCH  28  33
HETATM   33  C14 UNL     1      13.293 -19.741 -47.664  1.00  0.00     0.179 C 
BRANCH  33  34
HETATM   34  O5  UNL     1      14.593 -19.284 -47.863  1.00  0.00    -0.389 OA
ATOM     35  H5  UNL     1      15.168 -20.014 -48.060  1.00  0.00     0.210 HD
ENDBRANCH  33  34
BRANCH  33  36
HETATM   36  C15 UNL     1      13.157 -21.128 -48.254  1.00  0.00     0.075 C 
BRANCH  36  37
HETATM   37  C16 UNL     1      11.738 -21.418 -48.687  1.00  0.00     0.053 C 
HETATM   38  C17 UNL     1      10.961 -20.138 -48.797  1.00  0.00     0.045 C 
HETATM   39  C18 UNL     1      11.122 -22.304 -47.618  1.00  0.00     0.045 C 
BRANCH  37  40
HETATM   40  O6  UNL     1      11.717 -22.087 -49.891  1.00  0.00    -0.391 OA
ATOM     41  H6  UNL     1      11.363 -21.535 -50.580  1.00  0.00     0.210 HD
ENDBRANCH  37  40
ENDBRANCH  36  37
ENDBRANCH  33  36
ENDBRANCH  28  33
ENDBRANCH   1  24
TORSDOF 13
ENDMDL
MODEL 2
REMARK VINA RESULT: -9.020744233      1.958      3.063
REMARK  13 active torsions:
REMARK  status: ('A' for Active; 'I' for Inactive)
REMARK    1  A    between atoms: C2_2  and  C3_4 
REMARK    2  A    between atoms: C5_7  and  N1_8 
REMARK       I    between atoms: N1_8  and  C6_10 
REMARK    3  A    between atoms: C6_10  and  C7_12 
REMARK    4  A    between atoms: C7_12  and  C10_15 
REMARK    5  A    between atoms: C10_15  and  C11_17 
REMARK    6  A    between atoms: C11_17  and  O4_18 
REMARK    7  A    between atoms: C11_17  and  N2_20 
REMARK    8  A    between atoms: C13_24  and  C14_25 
REMARK    9  A    between atoms: C14_25  and  O5_26 
REMARK   10  A    between atoms: C14_25  and  C15_28 
REMARK   11  A    between atoms: C15_28  and  C16_29 
REMARK   12  A    between atoms: C16_29  and  O6_32 
REMARK   13  A    between atoms: C20_38  and  C21_39 
ROOT
HETATM    1  C11 UNL     1       8.891 -21.409 -42.978  1.00  0.00     0.291 C 
ENDROOT
BRANCH   1   2
HETATM    2  C10 UNL     1       8.022 -20.429 -42.304  1.00  0.00     0.192 C 
HETATM    3  O3  UNL     1       6.847 -20.776 -42.118  1.00  0.00    -0.292 OA
BRANCH   2   4
HETATM    4  C7  UNL     1       8.541 -19.106 -41.878  1.00  0.00     0.099 C 
HETATM    5  C8  UNL     1       9.946 -19.156 -41.329  1.00  0.00     0.033 C 
HETATM    6  C9  UNL     1       7.658 -18.579 -40.764  1.00  0.00     0.033 C 
BRANCH   4   7
HETATM    7  C6  UNL     1       8.462 -18.184 -43.069  1.00  0.00     0.238 C 
HETATM    8  N1  UNL     1       7.324 -18.126 -43.870  1.00  0.00    -0.319 N 
ATOM      9  H1  UNL     1       6.554 -18.718 -43.559  1.00  0.00     0.169 HD
HETATM   10  O2  UNL     1       9.482 -17.502 -43.255  1.00  0.00    -0.272 OA
BRANCH   8  11
HETATM   11  C5  UNL     1       7.062 -17.383 -45.037  1.00  0.00     0.094 A 
HETATM   12  S1  UNL     1       7.468 -18.082 -46.594  1.00  0.00    -0.082 SA
HETATM   13  C4  UNL     1       6.959 -16.831 -47.596  1.00  0.00     0.068 A 
HETATM   14  C3  UNL     1       6.478 -15.869 -46.711  1.00  0.00     0.036 A 
HETATM   15  C20 UNL     1       6.552 -16.175 -45.390  1.00  0.00     0.088 A 
BRANCH  14  16
HETATM   16  C2  UNL     1       5.838 -14.689 -47.340  1.00  0.00     0.157 C 
HETATM   17  C1  UNL     1       6.712 -13.636 -48.011  1.00  0.00     0.097 C 
HETATM   18  O1  UNL     1       4.624 -14.517 -47.343  1.00  0.00    -0.293 OA
ENDBRANCH  14  16
BRANCH  15  19
HETATM   19  C21 UNL     1       6.425 -15.104 -44.358  1.00  0.00     0.213 C 
HETATM   20  O7  UNL     1       5.776 -15.391 -43.291  1.00  0.00    -0.644 OA
HETATM   21  O8  UNL     1       6.918 -13.837 -44.404  1.00  0.00    -0.644 OA
ENDBRANCH  15  19
ENDBRANCH   8  11
ENDBRANCH   4   7
ENDBRANCH   2   4
ENDBRANCH   1   2
BRANCH   1  22
HETATM   22  O4  UNL     1       9.142 -22.531 -42.191  1.00  0.00    -0.370 OA
ATOM     23  H4  UNL     1       8.479 -23.203 -42.291  1.00  0.00     0.212 HD
ENDBRANCH   1  22
BRANCH   1  24
HETATM   24  N2  UNL     1       8.272 -21.775 -44.235  1.00  0.00    -0.337 N 
HETATM   25  C12 UNL     1       8.852 -21.451 -45.369  1.00  0.00     0.165 A 
HETATM   26  S2  UNL     1      10.315 -20.614 -45.667  1.00  0.00    -0.035 SA
HETATM   27  N4  UNL     1       8.427 -21.705 -46.609  1.00  0.00    -0.275 N 
HETATM   28  C13 UNL     1      10.258 -20.660 -47.386  1.00  0.00     0.098 A 
HETATM   29  N3  UNL     1       9.133 -21.307 -47.586  1.00  0.00    -0.291 N 
ATOM     30  H3  UNL     1       8.822 -21.493 -48.539  1.00  0.00     0.187 HD
HETATM   31  C19 UNL     1       7.152 -22.438 -46.808  1.00  0.00     0.180 C 
ATOM     32  H2  UNL     1       7.387 -22.283 -44.240  1.00  0.00     0.164 HD
BRANCH  28  33
HETATM   33  C14 UNL     1      11.244 -20.103 -48.386  1.00  0.00     0.179 C 
BRANCH  33  34
HETATM   34  O5  UNL     1      10.594 -19.246 -49.270  1.00  0.00    -0.389 OA
ATOM     35  H5  UNL     1      11.125 -18.472 -49.422  1.00  0.00     0.210 HD
ENDBRANCH  33  34
BRANCH  33  36
HETATM   36  C15 UNL     1      12.244 -19.313 -47.571  1.00  0.00     0.075 C 
BRANCH  36  37
HETATM   37  C16 UNL     1      13.568 -20.034 -47.454  1.00  0.00     0.053 C 
HETATM   38  C17 UNL     1      13.455 -21.416 -48.029  1.00  0.00     0.045 C 
HETATM   39  C18 UNL     1      13.897 -20.118 -45.973  1.00  0.00     0.045 C 
BRANCH  37  40
HETATM   40  O6  UNL     1      14.568 -19.337 -48.097  1.00  0.00    -0.391 OA
ATOM     41  H6  UNL     1      15.425 -19.668 -47.851  1.00  0.00     0.210 HD
ENDBRANCH  37  40
ENDBRANCH  36  37
ENDBRANCH  33  36
ENDBRANCH  28  33
ENDBRANCH   1  24
TORSDOF 13
ENDMDL
MODEL 3
REMARK VINA RESULT: -8.871102772      2.401      3.387
REMARK  13 active torsions:
REMARK  status: ('A' for Active; 'I' for Inactive)
REMARK    1  A    between atoms: C2_2  and  C3_4 
REMARK    2  A    between atoms: C5_7  and  N1_8 
REMARK       I    between atoms: N1_8  and  C6_10 
REMARK    3  A    between atoms: C6_10  and  C7_12 
REMARK    4  A    between atoms: C7_12  and  C10_15 
REMARK    5  A    between atoms: C10_15  and  C11_17 
REMARK    6  A    between atoms: C11_17  and  O4_18 
REMARK    7  A    between atoms: C11_17  and  N2_20 
REMARK    8  A    between atoms: C13_24  and  C14_25 
REMARK    9  A    between atoms: C14_25  and  O5_26 
REMARK   10  A    between atoms: C14_25  and  C15_28 
REMARK   11  A    between atoms: C15_28  and  C16_29 
REMARK   12  A    between atoms: C16_29  and  O6_32 
REMARK   13  A    between atoms: C20_38  and  C21_39 
ROOT
HETATM    1  C11 UNL     1       9.329 -21.421 -42.768  1.00  0.00     0.291 C 
ENDROOT
BRANCH   1   2
HETATM    2  C10 UNL     1       8.360 -20.623 -41.998  1.00  0.00     0.192 C 
HETATM    3  O3  UNL     1       7.462 -21.257 -41.423  1.00  0.00    -0.292 OA
BRANCH   2   4
HETATM    4  C7  UNL     1       8.465 -19.145 -41.923  1.00  0.00     0.099 C 
HETATM    5  C8  UNL     1       9.885 -18.647 -41.802  1.00  0.00     0.033 C 
HETATM    6  C9  UNL     1       7.733 -18.672 -40.684  1.00  0.00     0.033 C 
BRANCH   4   7
HETATM    7  C6  UNL     1       7.801 -18.581 -43.154  1.00  0.00     0.238 C 
HETATM    8  N1  UNL     1       7.967 -17.248 -43.524  1.00  0.00    -0.319 N 
ATOM      9  H1  UNL     1       8.597 -16.715 -42.924  1.00  0.00     0.169 HD
HETATM   10  O2  UNL     1       7.115 -19.400 -43.786  1.00  0.00    -0.272 OA
BRANCH   8  11
HETATM   11  C5  UNL     1       7.409 -16.517 -44.589  1.00  0.00     0.094 A 
HETATM   12  S1  UNL     1       6.188 -15.307 -44.238  1.00  0.00    -0.082 SA
HETATM   13  C4  UNL     1       5.890 -14.759 -45.801  1.00  0.00     0.068 A 
HETATM   14  C3  UNL     1       6.742 -15.526 -46.592  1.00  0.00     0.036 A 
HETATM   15  C20 UNL     1       7.512 -16.437 -45.941  1.00  0.00     0.088 A 
BRANCH  14  16
HETATM   16  C2  UNL     1       6.779 -15.159 -48.028  1.00  0.00     0.157 C 
HETATM   17  C1  UNL     1       5.653 -15.617 -48.945  1.00  0.00     0.097 C 
HETATM   18  O1  UNL     1       7.689 -14.498 -48.518  1.00  0.00    -0.293 OA
ENDBRANCH  14  16
BRANCH  15  19
HETATM   19  C21 UNL     1       8.165 -17.549 -46.693  1.00  0.00     0.213 C 
HETATM   20  O7  UNL     1       9.366 -17.355 -47.099  1.00  0.00    -0.644 OA
HETATM   21  O8  UNL     1       7.643 -18.763 -47.011  1.00  0.00    -0.644 OA
ENDBRANCH  15  19
ENDBRANCH   8  11
ENDBRANCH   4   7
ENDBRANCH   2   4
ENDBRANCH   1   2
BRANCH   1  22
HETATM   22  O4  UNL     1       9.855 -22.480 -42.032  1.00  0.00    -0.370 OA
ATOM     23  H4  UNL     1      10.276 -23.132 -42.579  1.00  0.00     0.212 HD
ENDBRANCH   1  22
BRANCH   1  24
HETATM   24  N2  UNL     1       8.676 -21.889 -43.973  1.00  0.00    -0.337 N 
HETATM   25  C12 UNL     1       9.158 -21.559 -45.150  1.00  0.00     0.165 A 
HETATM   26  S2  UNL     1      10.519 -20.606 -45.563  1.00  0.00    -0.035 SA
HETATM   27  N4  UNL     1       8.688 -21.897 -46.353  1.00  0.00    -0.275 N 
HETATM   28  C13 UNL     1      10.368 -20.724 -47.273  1.00  0.00     0.098 A 
HETATM   29  N3  UNL     1       9.297 -21.477 -47.383  1.00  0.00    -0.291 N 
ATOM     30  H3  UNL     1       8.951 -21.727 -48.308  1.00  0.00     0.187 HD
HETATM   31  C19 UNL     1       7.477 -22.749 -46.450  1.00  0.00     0.180 C 
ATOM     32  H2  UNL     1       7.843 -22.475 -43.907  1.00  0.00     0.164 HD
BRANCH  28  33
HETATM   33  C14 UNL     1      11.240 -20.120 -48.349  1.00  0.00     0.179 C 
BRANCH  33  34
HETATM   34  O5  UNL     1      10.487 -19.263 -49.148  1.00  0.00    -0.389 OA
ATOM     35  H5  UNL     1      11.042 -18.861 -49.807  1.00  0.00     0.210 HD
ENDBRANCH  33  34
BRANCH  33  36
HETATM   36  C15 UNL     1      12.293 -19.318 -47.614  1.00  0.00     0.075 C 
BRANCH  36  37
HETATM   37  C16 UNL     1      13.600 -20.071 -47.509  1.00  0.00     0.053 C 
HETATM   38  C17 UNL     1      13.456 -21.440 -48.108  1.00  0.00     0.045 C 
HETATM   39  C18 UNL     1      13.926 -20.187 -46.031  1.00  0.00     0.045 C 
BRANCH  37  40
HETATM   40  O6  UNL     1      14.615 -19.386 -48.141  1.00  0.00    -0.391 OA
ATOM     41  H6  UNL     1      15.408 -19.909 -48.177  1.00  0.00     0.210 HD
ENDBRANCH  37  40
ENDBRANCH  36  37
ENDBRANCH  33  36
ENDBRANCH  28  33
ENDBRANCH   1  24
TORSDOF 13
ENDMDL
MODEL 4
REMARK VINA RESULT: -8.838193954      2.593      7.323
REMARK  13 active torsions:
REMARK  status: ('A' for Active; 'I' for Inactive)
REMARK    1  A    between atoms: C2_2  and  C3_4 
REMARK    2  A    between atoms: C5_7  and  N1_8 
REMARK       I    between atoms: N1_8  and  C6_10 
REMARK    3  A    between atoms: C6_10  and  C7_12 
REMARK    4  A    between atoms: C7_12  and  C10_15 
REMARK    5  A    between atoms: C10_15  and  C11_17 
REMARK    6  A    between atoms: C11_17  and  O4_18 
REMARK    7  A    between atoms: C11_17  and  N2_20 
REMARK    8  A    between atoms: C13_24  and  C14_25 
REMARK    9  A    between atoms: C14_25  and  O5_26 
REMARK   10  A    between atoms: C14_25  and  C15_28 
REMARK   11  A    between atoms: C15_28  and  C16_29 
REMARK   12  A    between atoms: C16_29  and  O6_32 
REMARK   13  A    between atoms: C20_38  and  C21_39 
ROOT
HETATM    1  C11 UNL     1      12.110 -18.544 -47.547  1.00  0.00     0.291 C 
ENDROOT
BRANCH   1   2
HETATM    2  C10 UNL     1      11.923 -19.969 -47.872  1.00  0.00     0.192 C 
HETATM    3  O3  UNL     1      11.217 -20.218 -48.860  1.00  0.00    -0.292 OA
BRANCH   2   4
HETATM    4  C7  UNL     1      12.553 -21.033 -47.053  1.00  0.00     0.099 C 
HETATM    5  C8  UNL     1      13.420 -20.504 -45.937  1.00  0.00     0.033 C 
HETATM    6  C9  UNL     1      13.454 -21.859 -47.947  1.00  0.00     0.033 C 
BRANCH   4   7
HETATM    7  C6  UNL     1      11.445 -21.900 -46.507  1.00  0.00     0.238 C 
HETATM    8  N1  UNL     1      10.818 -21.603 -45.298  1.00  0.00    -0.319 N 
ATOM      9  H1  UNL     1      11.141 -20.746 -44.850  1.00  0.00     0.169 HD
HETATM   10  O2  UNL     1      11.156 -22.871 -47.223  1.00  0.00    -0.272 OA
BRANCH   8  11
HETATM   11  C5  UNL     1       9.813 -22.293 -44.595  1.00  0.00     0.094 A 
HETATM   12  S1  UNL     1      10.281 -23.395 -43.313  1.00  0.00    -0.082 SA
HETATM   13  C4  UNL     1       8.755 -23.914 -42.828  1.00  0.00     0.068 A 
HETATM   14  C3  UNL     1       7.886 -23.228 -43.673  1.00  0.00     0.036 A 
HETATM   15  C20 UNL     1       8.459 -22.402 -44.587  1.00  0.00     0.088 A 
BRANCH  14  16
HETATM   16  C2  UNL     1       6.443 -23.402 -43.380  1.00  0.00     0.157 C 
HETATM   17  C1  UNL     1       5.869 -24.809 -43.267  1.00  0.00     0.097 C 
HETATM   18  O1  UNL     1       5.680 -22.455 -43.224  1.00  0.00    -0.293 OA
ENDBRANCH  14  16
BRANCH  15  19
HETATM   19  C21 UNL     1       7.678 -21.919 -45.764  1.00  0.00     0.213 C 
HETATM   20  O7  UNL     1       7.737 -20.667 -46.033  1.00  0.00    -0.644 OA
HETATM   21  O8  UNL     1       6.896 -22.648 -46.604  1.00  0.00    -0.644 OA
ENDBRANCH  15  19
ENDBRANCH   8  11
ENDBRANCH   4   7
ENDBRANCH   2   4
ENDBRANCH   1   2
BRANCH   1  22
HETATM   22  O4  UNL     1      13.105 -17.946 -48.318  1.00  0.00    -0.370 OA
ATOM     23  H4  UNL     1      12.775 -17.607 -49.141  1.00  0.00     0.212 HD
ENDBRANCH   1  22
BRANCH   1  24
HETATM   24  N2  UNL     1      10.838 -17.871 -47.713  1.00  0.00    -0.337 N 
HETATM   25  C12 UNL     1      10.037 -17.723 -46.682  1.00  0.00     0.165 A 
HETATM   26  S2  UNL     1      10.223 -18.214 -45.053  1.00  0.00    -0.035 SA
HETATM   27  N4  UNL     1       8.838 -17.135 -46.653  1.00  0.00    -0.275 N 
HETATM   28  C13 UNL     1       8.723 -17.612 -44.461  1.00  0.00     0.098 A 
HETATM   29  N3  UNL     1       8.210 -17.091 -45.553  1.00  0.00    -0.291 N 
ATOM     30  H3  UNL     1       7.294 -16.646 -45.514  1.00  0.00     0.187 HD
HETATM   31  C19 UNL     1       8.280 -16.554 -47.900  1.00  0.00     0.180 C 
ATOM     32  H2  UNL     1      10.566 -17.512 -48.629  1.00  0.00     0.164 HD
BRANCH  28  33
HETATM   33  C14 UNL     1       8.160 -17.673 -43.061  1.00  0.00     0.179 C 
BRANCH  33  34
HETATM   34  O5  UNL     1       6.929 -17.023 -43.013  1.00  0.00    -0.389 OA
ATOM     35  H5  UNL     1       6.374 -17.425 -42.355  1.00  0.00     0.210 HD
ENDBRANCH  33  34
BRANCH  33  36
HETATM   36  C15 UNL     1       7.957 -19.144 -42.770  1.00  0.00     0.075 C 
BRANCH  36  37
HETATM   37  C16 UNL     1       8.561 -19.542 -41.441  1.00  0.00     0.053 C 
HETATM   38  C17 UNL     1      10.032 -19.795 -41.599  1.00  0.00     0.045 C 
HETATM   39  C18 UNL     1       7.862 -20.816 -41.002  1.00  0.00     0.045 C 
BRANCH  37  40
HETATM   40  O6  UNL     1       8.351 -18.565 -40.492  1.00  0.00    -0.391 OA
ATOM     41  H6  UNL     1       8.923 -17.820 -40.639  1.00  0.00     0.210 HD
ENDBRANCH  37  40
ENDBRANCH  36  37
ENDBRANCH  33  36
ENDBRANCH  28  33
ENDBRANCH   1  24
TORSDOF 13
ENDMDL
MODEL 5
REMARK VINA RESULT: -8.812626644      2.506      8.419
REMARK  13 active torsions:
REMARK  status: ('A' for Active; 'I' for Inactive)
REMARK    1  A    between atoms: C2_2  and  C3_4 
REMARK    2  A    between atoms: C5_7  and  N1_8 
REMARK       I    between atoms: N1_8  and  C6_10 
REMARK    3  A    between atoms: C6_10  and  C7_12 
REMARK    4  A    between atoms: C7_12  and  C10_15 
REMARK    5  A    between atoms: C10_15  and  C11_17 
REMARK    6  A    between atoms: C11_17  and  O4_18 
REMARK    7  A    between atoms: C11_17  and  N2_20 
REMARK    8  A    between atoms: C13_24  and  C14_25 
REMARK    9  A    between atoms: C14_25  and  O5_26 
REMARK   10  A    between atoms: C14_25  and  C15_28 
REMARK   11  A    between atoms: C15_28  and  C16_29 
REMARK   12  A    between atoms: C16_29  and  O6_32 
REMARK   13  A    between atoms: C20_38  and  C21_39 
ROOT
HETATM    1  C11 UNL     1       9.494 -19.994 -46.070  1.00  0.00     0.291 C 
ENDROOT
BRANCH   1   2
HETATM    2  C10 UNL     1      10.739 -20.758 -45.881  1.00  0.00     0.192 C 
HETATM    3  O3  UNL     1      10.653 -21.987 -46.017  1.00  0.00    -0.292 OA
BRANCH   2   4
HETATM    4  C7  UNL     1      12.015 -20.080 -45.547  1.00  0.00     0.099 C 
HETATM    5  C8  UNL     1      12.068 -18.640 -45.994  1.00  0.00     0.033 C 
HETATM    6  C9  UNL     1      13.142 -20.798 -46.260  1.00  0.00     0.033 C 
BRANCH   4   7
HETATM    7  C6  UNL     1      12.207 -20.186 -44.054  1.00  0.00     0.238 C 
HETATM    8  N1  UNL     1      12.707 -21.346 -43.466  1.00  0.00    -0.319 N 
ATOM      9  H1  UNL     1      12.963 -22.081 -44.125  1.00  0.00     0.169 HD
HETATM   10  O2  UNL     1      11.887 -19.166 -43.424  1.00  0.00    -0.272 OA
BRANCH   8  11
HETATM   11  C5  UNL     1      12.916 -21.669 -42.112  1.00  0.00     0.094 A 
HETATM   12  S1  UNL     1      14.441 -22.396 -41.641  1.00  0.00    -0.082 SA
HETATM   13  C4  UNL     1      14.168 -22.556 -39.988  1.00  0.00     0.068 A 
HETATM   14  C3  UNL     1      12.885 -22.045 -39.811  1.00  0.00     0.036 A 
HETATM   15  C20 UNL     1      12.253 -21.600 -40.929  1.00  0.00     0.088 A 
BRANCH  14  16
HETATM   16  C2  UNL     1      12.429 -21.944 -38.404  1.00  0.00     0.157 C 
HETATM   17  C1  UNL     1      13.450 -21.679 -37.306  1.00  0.00     0.097 C 
HETATM   18  O1  UNL     1      11.252 -22.068 -38.079  1.00  0.00    -0.293 OA
ENDBRANCH  14  16
BRANCH  15  19
HETATM   19  C21 UNL     1      10.775 -21.390 -40.928  1.00  0.00     0.213 C 
HETATM   20  O7  UNL     1      10.352 -20.202 -40.697  1.00  0.00    -0.644 OA
HETATM   21  O8  UNL     1       9.799 -22.312 -41.143  1.00  0.00    -0.644 OA
ENDBRANCH  15  19
ENDBRANCH   8  11
ENDBRANCH   4   7
ENDBRANCH   2   4
ENDBRANCH   1   2
BRANCH   1  22
HETATM   22  O4  UNL     1       8.563 -20.672 -46.854  1.00  0.00    -0.370 OA
ATOM     23  H4  UNL     1       7.860 -21.051 -46.340  1.00  0.00     0.212 HD
ENDBRANCH   1  22
BRANCH   1  24
HETATM   24  N2  UNL     1       8.953 -19.678 -44.764  1.00  0.00    -0.337 N 
HETATM   25  C12 UNL     1       8.239 -18.587 -44.597  1.00  0.00     0.165 A 
HETATM   26  S2  UNL     1       7.793 -17.372 -45.717  1.00  0.00    -0.035 SA
HETATM   27  N4  UNL     1       7.670 -18.143 -43.474  1.00  0.00    -0.275 N 
HETATM   28  C13 UNL     1       6.897 -16.380 -44.633  1.00  0.00     0.098 A 
HETATM   29  N3  UNL     1       7.015 -17.058 -43.513  1.00  0.00    -0.291 N 
ATOM     30  H3  UNL     1       6.574 -16.706 -42.664  1.00  0.00     0.187 HD
HETATM   31  C19 UNL     1       7.817 -18.927 -42.222  1.00  0.00     0.180 C 
ATOM     32  H2  UNL     1       9.125 -20.302 -43.975  1.00  0.00     0.164 HD
BRANCH  28  33
HETATM   33  C14 UNL     1       6.174 -15.083 -44.907  1.00  0.00     0.179 C 
BRANCH  33  34
HETATM   34  O5  UNL     1       6.672 -14.076 -44.083  1.00  0.00    -0.389 OA
ATOM     35  H5  UNL     1       7.104 -13.411 -44.607  1.00  0.00     0.210 HD
ENDBRANCH  33  34
BRANCH  33  36
HETATM   36  C15 UNL     1       6.483 -14.744 -46.349  1.00  0.00     0.075 C 
BRANCH  36  37
HETATM   37  C16 UNL     1       5.349 -13.987 -47.003  1.00  0.00     0.053 C 
HETATM   38  C17 UNL     1       4.073 -14.770 -46.887  1.00  0.00     0.045 C 
HETATM   39  C18 UNL     1       5.717 -13.817 -48.466  1.00  0.00     0.045 C 
BRANCH  37  40
HETATM   40  O6  UNL     1       5.191 -12.743 -46.431  1.00  0.00    -0.391 OA
ATOM     41  H6  UNL     1       4.418 -12.308 -46.772  1.00  0.00     0.210 HD
ENDBRANCH  37  40
ENDBRANCH  36  37
ENDBRANCH  33  36
ENDBRANCH  28  33
ENDBRANCH   1  24
TORSDOF 13
ENDMDL
