MODEL 1
REMARK VINA RESULT: -7.207607888      0.000      0.000
REMARK  15 active torsions:
REMARK  status: ('A' for Active; 'I' for Inactive)
REMARK    1  A    between atoms: O1_2  and  C2_3 
REMARK    2  A    between atoms: C6_7  and  O2_8 
REMARK    3  A    between atoms: C8_10  and  O3_11 
REMARK    4  A    between atoms: C10_13  and  N1_14 
REMARK    5  A    between atoms: N1_14  and  O4_15 
REMARK    6  A    between atoms: N1_14  and  C11_17 
REMARK    7  A    between atoms: C11_17  and  C13_19 
REMARK    8  A    between atoms: C13_19  and  O5_20 
REMARK    9  A    between atoms: C13_19  and  C14_22 
REMARK   10  A    between atoms: C14_22  and  C15_23 
REMARK   11  A    between atoms: C19_27  and  O6_28 
REMARK   12  A    between atoms: O6_28  and  C20_29 
REMARK   13  A    between atoms: C22_32  and  O8_33 
REMARK   14  A    between atoms: C24_36  and  O9_37 
REMARK   15  A    between atoms: C24_36  and  O10_39 
ROOT
HETATM    1  C2  UNL     1       6.570 -16.059 -44.526  1.00  0.00     0.104 A 
HETATM    2  C3  UNL     1       7.011 -17.078 -43.705  1.00  0.00     0.048 A 
HETATM    3  C4  UNL     1       7.621 -18.179 -44.242  1.00  0.00    -0.032 A 
HETATM    4  C5  UNL     1       7.820 -18.329 -45.630  1.00  0.00     0.038 A 
HETATM    5  C6  UNL     1       7.360 -17.288 -46.410  1.00  0.00     0.117 A 
HETATM    6  C8  UNL     1       6.737 -16.141 -45.888  1.00  0.00     0.136 A 
HETATM    7  C10 UNL     1       8.309 -19.602 -46.139  1.00  0.00     0.104 C 
HETATM    8  C19 UNL     1       8.507 -20.618 -45.263  1.00  0.00     0.121 C 
HETATM    9  C22 UNL     1       8.207 -20.498 -43.876  1.00  0.00     0.122 C 
HETATM   10  C23 UNL     1       9.029 -21.190 -42.837  1.00  0.00     0.113 C 
HETATM   11  C24 UNL     1       8.260 -20.692 -41.580  1.00  0.00     0.163 C 
HETATM   12  C25 UNL     1       7.642 -19.341 -41.996  1.00  0.00     0.081 C 
HETATM   13  C26 UNL     1       8.276 -19.115 -43.351  1.00  0.00     0.066 C 
ENDROOT
BRANCH   7  14
HETATM   14  N1  UNL     1       8.683 -19.798 -47.485  1.00  0.00    -0.251 N 
BRANCH  14  15
HETATM   15  O4  UNL     1       7.662 -20.330 -48.259  1.00  0.00    -0.287 OA
ATOM     16  H4  UNL     1       7.534 -21.260 -48.118  1.00  0.00     0.244 HD
ENDBRANCH  14  15
BRANCH  14  17
HETATM   17  C11 UNL     1       9.941 -19.691 -48.127  1.00  0.00     0.139 C 
HETATM   18  C12 UNL     1      10.611 -20.907 -48.655  1.00  0.00     0.037 C 
BRANCH  17  19
HETATM   19  C13 UNL     1      10.983 -19.076 -47.155  1.00  0.00     0.143 C 
BRANCH  19  20
HETATM   20  O5  UNL     1      11.604 -18.054 -47.862  1.00  0.00    -0.393 OA
ATOM     21  H5  UNL     1      12.517 -18.307 -47.934  1.00  0.00     0.210 HD
ENDBRANCH  19  20
BRANCH  19  22
HETATM   22  C14 UNL     1      11.967 -20.184 -46.819  1.00  0.00     0.042 C 
BRANCH  22  23
HETATM   23  C15 UNL     1      12.430 -20.179 -45.405  1.00  0.00    -0.049 C 
HETATM   24  C16 UNL     1      11.783 -19.090 -44.603  1.00  0.00     0.014 C 
HETATM   25  C17 UNL     1      12.311 -21.532 -44.738  1.00  0.00     0.014 C 
HETATM   26  C18 UNL     1      13.931 -19.860 -45.441  1.00  0.00     0.014 C 
ENDBRANCH  22  23
ENDBRANCH  19  22
ENDBRANCH  17  19
ENDBRANCH  14  17
ENDBRANCH   7  14
BRANCH   8  27
HETATM   27  O6  UNL     1       8.999 -21.785 -45.849  1.00  0.00    -0.278 OA
BRANCH  27  28
HETATM   28  C20 UNL     1       8.182 -22.887 -45.933  1.00  0.00     0.259 C 
HETATM   29  C21 UNL     1       8.484 -24.184 -45.275  1.00  0.00     0.126 C 
HETATM   30  O7  UNL     1       7.117 -22.837 -46.591  1.00  0.00    -0.265 OA
ENDBRANCH  27  28
ENDBRANCH   8  27
BRANCH   5  31
HETATM   31  O2  UNL     1       7.444 -17.266 -47.771  1.00  0.00    -0.352 OA
HETATM   32  C7  UNL     1       8.381 -16.411 -48.437  1.00  0.00     0.210 C 
ENDBRANCH   5  31
BRANCH   9  33
HETATM   33  O8  UNL     1       6.864 -20.938 -43.599  1.00  0.00    -0.382 OA
ATOM     34  H8  UNL     1       6.270 -20.676 -44.293  1.00  0.00     0.211 HD
ENDBRANCH   9  33
BRANCH   6  35
HETATM   35  O3  UNL     1       6.279 -15.091 -46.624  1.00  0.00    -0.351 OA
HETATM   36  C9  UNL     1       5.068 -14.892 -47.256  1.00  0.00     0.210 C 
ENDBRANCH   6  35
BRANCH   1  37
HETATM   37  O1  UNL     1       5.950 -14.934 -43.980  1.00  0.00    -0.353 OA
HETATM   38  C1  UNL     1       6.376 -14.506 -42.705  1.00  0.00     0.210 C 
ENDBRANCH   1  37
BRANCH  11  39
HETATM   39  O9  UNL     1       7.275 -21.638 -41.345  1.00  0.00    -0.365 OA
ATOM     40  H9  UNL     1       6.965 -21.905 -42.202  1.00  0.00     0.213 HD
ENDBRANCH  11  39
BRANCH  11  41
HETATM   41  O10 UNL     1       9.128 -20.526 -40.510  1.00  0.00    -0.365 OA
ATOM     42  H10 UNL     1       9.621 -21.323 -40.351  1.00  0.00     0.213 HD
ENDBRANCH  11  41
TORSDOF 15
ENDMDL
MODEL 2
REMARK VINA RESULT: -7.126292517      1.334      1.535
REMARK  15 active torsions:
REMARK  status: ('A' for Active; 'I' for Inactive)
REMARK    1  A    between atoms: O1_2  and  C2_3 
REMARK    2  A    between atoms: C6_7  and  O2_8 
REMARK    3  A    between atoms: C8_10  and  O3_11 
REMARK    4  A    between atoms: C10_13  and  N1_14 
REMARK    5  A    between atoms: N1_14  and  O4_15 
REMARK    6  A    between atoms: N1_14  and  C11_17 
REMARK    7  A    between atoms: C11_17  and  C13_19 
REMARK    8  A    between atoms: C13_19  and  O5_20 
REMARK    9  A    between atoms: C13_19  and  C14_22 
REMARK   10  A    between atoms: C14_22  and  C15_23 
REMARK   11  A    between atoms: C19_27  and  O6_28 
REMARK   12  A    between atoms: O6_28  and  C20_29 
REMARK   13  A    between atoms: C22_32  and  O8_33 
REMARK   14  A    between atoms: C24_36  and  O9_37 
REMARK   15  A    between atoms: C24_36  and  O10_39 
ROOT
HETATM    1  C2  UNL     1       6.415 -16.435 -46.222  1.00  0.00     0.104 A 
HETATM    2  C3  UNL     1       6.895 -16.933 -45.027  1.00  0.00     0.048 A 
HETATM    3  C4  UNL     1       7.613 -18.099 -45.005  1.00  0.00    -0.032 A 
HETATM    4  C5  UNL     1       7.886 -18.838 -46.175  1.00  0.00     0.038 A 
HETATM    5  C6  UNL     1       7.384 -18.304 -47.344  1.00  0.00     0.117 A 
HETATM    6  C8  UNL     1       6.651 -17.106 -47.399  1.00  0.00     0.136 A 
HETATM    7  C10 UNL     1       8.495 -20.154 -46.052  1.00  0.00     0.104 C 
HETATM    8  C19 UNL     1       8.730 -20.647 -44.810  1.00  0.00     0.121 C 
HETATM    9  C22 UNL     1       8.358 -19.944 -43.628  1.00  0.00     0.122 C 
HETATM   10  C23 UNL     1       9.182 -20.019 -42.384  1.00  0.00     0.113 C 
HETATM   11  C24 UNL     1       8.321 -19.081 -41.492  1.00  0.00     0.163 C 
HETATM   12  C25 UNL     1       7.620 -18.121 -42.476  1.00  0.00     0.081 C 
HETATM   13  C26 UNL     1       8.297 -18.473 -43.783  1.00  0.00     0.066 C 
ENDROOT
BRANCH   7  14
HETATM   14  N1  UNL     1       8.944 -20.900 -47.162  1.00  0.00    -0.251 N 
BRANCH  14  15
HETATM   15  O4  UNL     1       8.039 -21.871 -47.565  1.00  0.00    -0.287 OA
ATOM     16  H4  UNL     1       8.214 -22.203 -48.437  1.00  0.00     0.244 HD
ENDBRANCH  14  15
BRANCH  14  17
HETATM   17  C11 UNL     1      10.198 -20.926 -47.820  1.00  0.00     0.139 C 
HETATM   18  C12 UNL     1      11.043 -22.146 -47.760  1.00  0.00     0.037 C 
BRANCH  17  19
HETATM   19  C13 UNL     1      11.114 -19.803 -47.264  1.00  0.00     0.143 C 
BRANCH  19  20
HETATM   20  O5  UNL     1      11.586 -19.114 -48.373  1.00  0.00    -0.393 OA
ATOM     21  H5  UNL     1      11.113 -18.290 -48.387  1.00  0.00     0.210 HD
ENDBRANCH  19  20
BRANCH  19  22
HETATM   22  C14 UNL     1      12.248 -20.497 -46.528  1.00  0.00     0.042 C 
BRANCH  22  23
HETATM   23  C15 UNL     1      12.540 -19.927 -45.184  1.00  0.00    -0.049 C 
HETATM   24  C16 UNL     1      11.699 -18.722 -44.888  1.00  0.00     0.014 C 
HETATM   25  C17 UNL     1      12.478 -20.958 -44.078  1.00  0.00     0.014 C 
HETATM   26  C18 UNL     1      13.996 -19.443 -45.225  1.00  0.00     0.014 C 
ENDBRANCH  22  23
ENDBRANCH  19  22
ENDBRANCH  17  19
ENDBRANCH  14  17
ENDBRANCH   7  14
BRANCH   8  27
HETATM   27  O6  UNL     1       9.337 -21.903 -44.803  1.00  0.00    -0.278 OA
BRANCH  27  28
HETATM   28  C20 UNL     1       8.608 -22.996 -44.398  1.00  0.00     0.259 C 
HETATM   29  C21 UNL     1       9.181 -24.118 -43.610  1.00  0.00     0.126 C 
HETATM   30  O7  UNL     1       7.393 -23.090 -44.688  1.00  0.00    -0.265 OA
ENDBRANCH  27  28
ENDBRANCH   8  27
BRANCH   5  31
HETATM   31  O2  UNL     1       7.528 -18.888 -48.567  1.00  0.00    -0.352 OA
HETATM   32  C7  UNL     1       8.387 -18.315 -49.560  1.00  0.00     0.210 C 
ENDBRANCH   5  31
BRANCH   9  33
HETATM   33  O8  UNL     1       7.042 -20.331 -43.191  1.00  0.00    -0.382 OA
ATOM     34  H8  UNL     1       6.513 -19.568 -42.987  1.00  0.00     0.211 HD
ENDBRANCH   9  33
BRANCH   6  35
HETATM   35  O3  UNL     1       6.148 -16.543 -48.533  1.00  0.00    -0.351 OA
HETATM   36  C9  UNL     1       4.910 -16.673 -49.132  1.00  0.00     0.210 C 
ENDBRANCH   6  35
BRANCH   1  37
HETATM   37  O1  UNL     1       5.687 -15.246 -46.247  1.00  0.00    -0.353 OA
HETATM   38  C1  UNL     1       6.390 -14.042 -46.026  1.00  0.00     0.210 C 
ENDBRANCH   1  37
BRANCH  11  39
HETATM   39  O9  UNL     1       7.402 -19.905 -40.861  1.00  0.00    -0.365 OA
ATOM     40  H9  UNL     1       6.615 -19.382 -40.761  1.00  0.00     0.213 HD
ENDBRANCH  11  39
BRANCH  11  41
HETATM   41  O10 UNL     1       9.124 -18.375 -40.606  1.00  0.00    -0.365 OA
ATOM     42  H10 UNL     1       9.879 -18.893 -40.353  1.00  0.00     0.213 HD
ENDBRANCH  11  41
TORSDOF 15
ENDMDL
MODEL 3
REMARK VINA RESULT: -7.030587932      2.793      7.518
REMARK  15 active torsions:
REMARK  status: ('A' for Active; 'I' for Inactive)
REMARK    1  A    between atoms: O1_2  and  C2_3 
REMARK    2  A    between atoms: C6_7  and  O2_8 
REMARK    3  A    between atoms: C8_10  and  O3_11 
REMARK    4  A    between atoms: C10_13  and  N1_14 
REMARK    5  A    between atoms: N1_14  and  O4_15 
REMARK    6  A    between atoms: N1_14  and  C11_17 
REMARK    7  A    between atoms: C11_17  and  C13_19 
REMARK    8  A    between atoms: C13_19  and  O5_20 
REMARK    9  A    between atoms: C13_19  and  C14_22 
REMARK   10  A    between atoms: C14_22  and  C15_23 
REMARK   11  A    between atoms: C19_27  and  O6_28 
REMARK   12  A    between atoms: O6_28  and  C20_29 
REMARK   13  A    between atoms: C22_32  and  O8_33 
REMARK   14  A    between atoms: C24_36  and  O9_37 
REMARK   15  A    between atoms: C24_36  and  O10_39 
ROOT
HETATM    1  C2  UNL     1      14.386 -21.743 -41.960  1.00  0.00     0.104 A 
HETATM    2  C3  UNL     1      14.221 -21.142 -43.192  1.00  0.00     0.048 A 
HETATM    3  C4  UNL     1      12.963 -20.908 -43.681  1.00  0.00    -0.032 A 
HETATM    4  C5  UNL     1      11.799 -21.268 -42.969  1.00  0.00     0.038 A 
HETATM    5  C6  UNL     1      12.014 -21.868 -41.746  1.00  0.00     0.117 A 
HETATM    6  C8  UNL     1      13.292 -22.114 -41.214  1.00  0.00     0.136 A 
HETATM    7  C10 UNL     1      10.507 -21.154 -43.629  1.00  0.00     0.104 C 
HETATM    8  C19 UNL     1      10.472 -20.756 -44.925  1.00  0.00     0.121 C 
HETATM    9  C22 UNL     1      11.655 -20.493 -45.674  1.00  0.00     0.122 C 
HETATM   10  C23 UNL     1      11.697 -19.424 -46.716  1.00  0.00     0.113 C 
HETATM   11  C24 UNL     1      13.180 -19.598 -47.151  1.00  0.00     0.163 C 
HETATM   12  C25 UNL     1      13.898 -20.170 -45.911  1.00  0.00     0.081 C 
HETATM   13  C26 UNL     1      12.817 -20.075 -44.857  1.00  0.00     0.066 C 
ENDROOT
BRANCH   7  14
HETATM   14  N1  UNL     1       9.282 -21.343 -42.955  1.00  0.00    -0.251 N 
BRANCH  14  15
HETATM   15  O4  UNL     1       8.578 -22.450 -43.407  1.00  0.00    -0.287 OA
ATOM     16  H4  UNL     1       7.830 -22.220 -43.945  1.00  0.00     0.244 HD
ENDBRANCH  14  15
BRANCH  14  17
HETATM   17  C11 UNL     1       8.595 -20.523 -42.026  1.00  0.00     0.139 C 
HETATM   18  C12 UNL     1       7.112 -20.565 -41.952  1.00  0.00     0.037 C 
BRANCH  17  19
HETATM   19  C13 UNL     1       8.920 -19.030 -42.293  1.00  0.00     0.143 C 
BRANCH  19  20
HETATM   20  O5  UNL     1       9.141 -18.460 -41.045  1.00  0.00    -0.393 OA
ATOM     21  H5  UNL     1       9.465 -17.583 -41.214  1.00  0.00     0.210 HD
ENDBRANCH  19  20
BRANCH  19  22
HETATM   22  C14 UNL     1       7.690 -18.433 -42.955  1.00  0.00     0.042 C 
BRANCH  22  23
HETATM   23  C15 UNL     1       7.989 -17.563 -44.126  1.00  0.00    -0.049 C 
HETATM   24  C16 UNL     1       9.460 -17.478 -44.402  1.00  0.00     0.014 C 
HETATM   25  C17 UNL     1       7.193 -17.934 -45.357  1.00  0.00     0.014 C 
HETATM   26  C18 UNL     1       7.536 -16.148 -43.742  1.00  0.00     0.014 C 
ENDBRANCH  22  23
ENDBRANCH  19  22
ENDBRANCH  17  19
ENDBRANCH  14  17
ENDBRANCH   7  14
BRANCH   8  27
HETATM   27  O6  UNL     1       9.185 -20.657 -45.454  1.00  0.00    -0.278 OA
BRANCH  27  28
HETATM   28  C20 UNL     1       8.855 -21.410 -46.555  1.00  0.00     0.259 C 
HETATM   29  C21 UNL     1       8.236 -20.844 -47.782  1.00  0.00     0.126 C 
HETATM   30  O7  UNL     1       9.069 -22.645 -46.566  1.00  0.00    -0.265 OA
ENDBRANCH  27  28
ENDBRANCH   8  27
BRANCH   5  31
HETATM   31  O2  UNL     1      11.014 -22.303 -40.929  1.00  0.00    -0.352 OA
HETATM   32  C7  UNL     1      10.647 -23.687 -40.888  1.00  0.00     0.210 C 
ENDBRANCH   5  31
BRANCH   9  33
HETATM   33  O8  UNL     1      12.093 -21.672 -46.375  1.00  0.00    -0.382 OA
ATOM     34  H8  UNL     1      13.039 -21.757 -46.340  1.00  0.00     0.211 HD
ENDBRANCH   9  33
BRANCH   6  35
HETATM   35  O3  UNL     1      13.544 -22.694 -40.008  1.00  0.00    -0.351 OA
HETATM   36  C9  UNL     1      13.675 -22.140 -38.750  1.00  0.00     0.210 C 
ENDBRANCH   6  35
BRANCH   1  37
HETATM   37  O1  UNL     1      15.667 -21.979 -41.459  1.00  0.00    -0.353 OA
HETATM   38  C1  UNL     1      16.312 -23.172 -41.848  1.00  0.00     0.210 C 
ENDBRANCH   1  37
BRANCH  11  39
HETATM   39  O9  UNL     1      13.160 -20.520 -48.185  1.00  0.00    -0.365 OA
ATOM     40  H9  UNL     1      13.737 -21.224 -47.912  1.00  0.00     0.213 HD
ENDBRANCH  11  39
BRANCH  11  41
HETATM   41  O10 UNL     1      13.729 -18.376 -47.516  1.00  0.00    -0.365 OA
ATOM     42  H10 UNL     1      14.588 -18.265 -47.125  1.00  0.00     0.213 HD
ENDBRANCH  11  41
TORSDOF 15
ENDMDL
MODEL 4
REMARK VINA RESULT: -6.976094985      1.390      1.711
REMARK  15 active torsions:
REMARK  status: ('A' for Active; 'I' for Inactive)
REMARK    1  A    between atoms: O1_2  and  C2_3 
REMARK    2  A    between atoms: C6_7  and  O2_8 
REMARK    3  A    between atoms: C8_10  and  O3_11 
REMARK    4  A    between atoms: C10_13  and  N1_14 
REMARK    5  A    between atoms: N1_14  and  O4_15 
REMARK    6  A    between atoms: N1_14  and  C11_17 
REMARK    7  A    between atoms: C11_17  and  C13_19 
REMARK    8  A    between atoms: C13_19  and  O5_20 
REMARK    9  A    between atoms: C13_19  and  C14_22 
REMARK   10  A    between atoms: C14_22  and  C15_23 
REMARK   11  A    between atoms: C19_27  and  O6_28 
REMARK   12  A    between atoms: O6_28  and  C20_29 
REMARK   13  A    between atoms: C22_32  and  O8_33 
REMARK   14  A    between atoms: C24_36  and  O9_37 
REMARK   15  A    between atoms: C24_36  and  O10_39 
ROOT
HETATM    1  C2  UNL     1       7.287 -15.615 -46.652  1.00  0.00     0.104 A 
HETATM    2  C3  UNL     1       7.565 -16.308 -45.490  1.00  0.00     0.048 A 
HETATM    3  C4  UNL     1       8.241 -17.498 -45.543  1.00  0.00    -0.032 A 
HETATM    4  C5  UNL     1       8.672 -18.066 -46.760  1.00  0.00     0.038 A 
HETATM    5  C6  UNL     1       8.370 -17.341 -47.893  1.00  0.00     0.117 A 
HETATM    6  C8  UNL     1       7.684 -16.114 -47.871  1.00  0.00     0.136 A 
HETATM    7  C10 UNL     1       9.222 -19.414 -46.752  1.00  0.00     0.104 C 
HETATM    8  C19 UNL     1       9.251 -20.097 -45.581  1.00  0.00     0.121 C 
HETATM    9  C22 UNL     1       8.720 -19.561 -44.373  1.00  0.00     0.122 C 
HETATM   10  C23 UNL     1       9.341 -19.860 -43.047  1.00  0.00     0.113 C 
HETATM   11  C24 UNL     1       8.376 -19.024 -42.158  1.00  0.00     0.163 C 
HETATM   12  C25 UNL     1       7.859 -17.896 -43.075  1.00  0.00     0.081 C 
HETATM   13  C26 UNL     1       8.720 -18.081 -44.306  1.00  0.00     0.066 C 
ENDROOT
BRANCH   7  14
HETATM   14  N1  UNL     1       9.817 -20.007 -47.886  1.00  0.00    -0.251 N 
BRANCH  14  15
HETATM   15  O4  UNL     1       8.969 -20.880 -48.550  1.00  0.00    -0.287 OA
ATOM     16  H4  UNL     1       9.379 -21.301 -49.296  1.00  0.00     0.244 HD
ENDBRANCH  14  15
BRANCH  14  17
HETATM   17  C11 UNL     1      11.153 -19.978 -48.357  1.00  0.00     0.139 C 
HETATM   18  C12 UNL     1      11.895 -21.249 -48.562  1.00  0.00     0.037 C 
BRANCH  17  19
HETATM   19  C13 UNL     1      12.046 -19.172 -47.378  1.00  0.00     0.143 C 
BRANCH  19  20
HETATM   20  O5  UNL     1      12.699 -18.223 -48.154  1.00  0.00    -0.393 OA
ATOM     21  H5  UNL     1      12.353 -18.324 -49.033  1.00  0.00     0.210 HD
ENDBRANCH  19  20
BRANCH  19  22
HETATM   22  C14 UNL     1      13.031 -20.160 -46.779  1.00  0.00     0.042 C 
BRANCH  22  23
HETATM   23  C15 UNL     1      13.151 -20.080 -45.297  1.00  0.00    -0.049 C 
HETATM   24  C16 UNL     1      12.349 -18.948 -44.728  1.00  0.00     0.014 C 
HETATM   25  C17 UNL     1      12.859 -21.395 -44.608  1.00  0.00     0.014 C 
HETATM   26  C18 UNL     1      14.622 -19.765 -44.996  1.00  0.00     0.014 C 
ENDBRANCH  22  23
ENDBRANCH  19  22
ENDBRANCH  17  19
ENDBRANCH  14  17
ENDBRANCH   7  14
BRANCH   8  27
HETATM   27  O6  UNL     1       9.818 -21.367 -45.679  1.00  0.00    -0.278 OA
BRANCH  27  28
HETATM   28  C20 UNL     1       9.011 -22.472 -45.545  1.00  0.00     0.259 C 
HETATM   29  C21 UNL     1       9.072 -23.397 -44.384  1.00  0.00     0.126 C 
HETATM   30  O7  UNL     1       8.166 -22.750 -46.427  1.00  0.00    -0.265 OA
ENDBRANCH  27  28
ENDBRANCH   8  27
BRANCH   5  31
HETATM   31  O2  UNL     1       8.685 -17.742 -49.157  1.00  0.00    -0.352 OA
HETATM   32  C7  UNL     1       7.686 -18.286 -50.028  1.00  0.00     0.210 C 
ENDBRANCH   5  31
BRANCH   9  33
HETATM   33  O8  UNL     1       7.342 -19.945 -44.200  1.00  0.00    -0.382 OA
ATOM     34  H8  UNL     1       6.969 -19.536 -43.428  1.00  0.00     0.211 HD
ENDBRANCH   9  33
BRANCH   6  35
HETATM   35  O3  UNL     1       7.375 -15.365 -48.966  1.00  0.00    -0.351 OA
HETATM   36  C9  UNL     1       6.197 -15.249 -49.677  1.00  0.00     0.210 C 
ENDBRANCH   6  35
BRANCH   1  37
HETATM   37  O1  UNL     1       6.601 -14.402 -46.601  1.00  0.00    -0.353 OA
HETATM   38  C1  UNL     1       5.235 -14.437 -46.245  1.00  0.00     0.210 C 
ENDBRANCH   1  37
BRANCH  11  39
HETATM   39  O9  UNL     1       7.351 -19.888 -41.805  1.00  0.00    -0.365 OA
ATOM     40  H9  UNL     1       6.678 -19.341 -41.416  1.00  0.00     0.213 HD
ENDBRANCH  11  39
BRANCH  11  41
HETATM   41  O10 UNL     1       9.051 -18.498 -41.065  1.00  0.00    -0.365 OA
ATOM     42  H10 UNL     1       8.901 -17.562 -40.998  1.00  0.00     0.213 HD
ENDBRANCH  11  41
TORSDOF 15
ENDMDL
MODEL 5
REMARK VINA RESULT: -6.838985636      2.160      5.702
REMARK  15 active torsions:
REMARK  status: ('A' for Active; 'I' for Inactive)
REMARK    1  A    between atoms: O1_2  and  C2_3 
REMARK    2  A    between atoms: C6_7  and  O2_8 
REMARK    3  A    between atoms: C8_10  and  O3_11 
REMARK    4  A    between atoms: C10_13  and  N1_14 
REMARK    5  A    between atoms: N1_14  and  O4_15 
REMARK    6  A    between atoms: N1_14  and  C11_17 
REMARK    7  A    between atoms: C11_17  and  C13_19 
REMARK    8  A    between atoms: C13_19  and  O5_20 
REMARK    9  A    between atoms: C13_19  and  C14_22 
REMARK   10  A    between atoms: C14_22  and  C15_23 
REMARK   11  A    between atoms: C19_27  and  O6_28 
REMARK   12  A    between atoms: O6_28  and  C20_29 
REMARK   13  A    between atoms: C22_32  and  O8_33 
REMARK   14  A    between atoms: C24_36  and  O9_37 
REMARK   15  A    between atoms: C24_36  and  O10_39 
ROOT
HETATM    1  C2  UNL     1       8.220 -18.067 -47.918  1.00  0.00     0.104 A 
HETATM    2  C3  UNL     1       9.465 -18.655 -48.019  1.00  0.00     0.048 A 
HETATM    3  C4  UNL     1      10.143 -19.030 -46.891  1.00  0.00    -0.032 A 
HETATM    4  C5  UNL     1       9.619 -18.834 -45.596  1.00  0.00     0.038 A 
HETATM    5  C6  UNL     1       8.375 -18.240 -45.544  1.00  0.00     0.117 A 
HETATM    6  C8  UNL     1       7.651 -17.851 -46.684  1.00  0.00     0.136 A 
HETATM    7  C10 UNL     1      10.471 -19.091 -44.445  1.00  0.00     0.104 C 
HETATM    8  C19 UNL     1      11.758 -19.461 -44.659  1.00  0.00     0.121 C 
HETATM    9  C22 UNL     1      12.316 -19.558 -45.966  1.00  0.00     0.122 C 
HETATM   10  C23 UNL     1      13.342 -20.590 -46.301  1.00  0.00     0.113 C 
HETATM   11  C24 UNL     1      13.543 -20.224 -47.800  1.00  0.00     0.163 C 
HETATM   12  C25 UNL     1      12.204 -19.596 -48.242  1.00  0.00     0.081 C 
HETATM   13  C26 UNL     1      11.331 -19.849 -47.033  1.00  0.00     0.066 C 
ENDROOT
BRANCH   7  14
HETATM   14  N1  UNL     1       9.994 -19.071 -43.117  1.00  0.00    -0.251 N 
BRANCH  14  15
HETATM   15  O4  UNL     1      10.533 -18.039 -42.362  1.00  0.00    -0.287 OA
ATOM     16  H4  UNL     1      10.351 -18.123 -41.434  1.00  0.00     0.244 HD
ENDBRANCH  14  15
BRANCH  14  17
HETATM   17  C11 UNL     1       9.198 -19.997 -42.400  1.00  0.00     0.139 C 
HETATM   18  C12 UNL     1       9.817 -20.868 -41.368  1.00  0.00     0.037 C 
BRANCH  17  19
HETATM   19  C13 UNL     1       8.526 -20.993 -43.383  1.00  0.00     0.143 C 
BRANCH  19  20
HETATM   20  O5  UNL     1       7.164 -20.725 -43.323  1.00  0.00    -0.393 OA
ATOM     21  H5  UNL     1       6.818 -21.292 -42.645  1.00  0.00     0.210 HD
ENDBRANCH  19  20
BRANCH  19  22
HETATM   22  C14 UNL     1       8.832 -22.387 -42.861  1.00  0.00     0.042 C 
BRANCH  22  23
HETATM   23  C15 UNL     1       9.028 -23.407 -43.927  1.00  0.00    -0.049 C 
HETATM   24  C16 UNL     1       9.452 -22.791 -45.226  1.00  0.00     0.014 C 
HETATM   25  C17 UNL     1       9.938 -24.538 -43.502  1.00  0.00     0.014 C 
HETATM   26  C18 UNL     1       7.654 -24.044 -44.176  1.00  0.00     0.014 C 
ENDBRANCH  22  23
ENDBRANCH  19  22
ENDBRANCH  17  19
ENDBRANCH  14  17
ENDBRANCH   7  14
BRANCH   8  27
HETATM   27  O6  UNL     1      12.481 -19.706 -43.491  1.00  0.00    -0.278 OA
BRANCH  27  28
HETATM   28  C20 UNL     1      13.003 -20.959 -43.277  1.00  0.00     0.259 C 
HETATM   29  C21 UNL     1      14.428 -21.207 -42.935  1.00  0.00     0.126 C 
HETATM   30  O7  UNL     1      12.273 -21.973 -43.367  1.00  0.00    -0.265 OA
ENDBRANCH  27  28
ENDBRANCH   8  27
BRANCH   5  31
HETATM   31  O2  UNL     1       7.721 -17.951 -44.383  1.00  0.00    -0.352 OA
HETATM   32  C7  UNL     1       7.746 -16.628 -43.835  1.00  0.00     0.210 C 
ENDBRANCH   5  31
BRANCH   9  33
HETATM   33  O8  UNL     1      12.937 -18.318 -46.355  1.00  0.00    -0.382 OA
ATOM     34  H8  UNL     1      13.758 -18.476 -46.807  1.00  0.00     0.211 HD
ENDBRANCH   9  33
BRANCH   6  35
HETATM   35  O3  UNL     1       6.418 -17.271 -46.673  1.00  0.00    -0.351 OA
HETATM   36  C9  UNL     1       6.041 -15.952 -46.821  1.00  0.00     0.210 C 
ENDBRANCH   6  35
BRANCH   1  37
HETATM   37  O1  UNL     1       7.525 -17.686 -49.066  1.00  0.00    -0.353 OA
HETATM   38  C1  UNL     1       8.077 -18.046 -50.315  1.00  0.00     0.210 C 
ENDBRANCH   1  37
BRANCH  11  39
HETATM   39  O9  UNL     1      14.564 -19.288 -47.823  1.00  0.00    -0.365 OA
ATOM     40  H9  UNL     1      15.371 -19.788 -47.815  1.00  0.00     0.213 HD
ENDBRANCH  11  39
BRANCH  11  41
HETATM   41  O10 UNL     1      13.822 -21.360 -48.548  1.00  0.00    -0.365 OA
ATOM     42  H10 UNL     1      13.755 -21.174 -49.477  1.00  0.00     0.213 HD
ENDBRANCH  11  41
TORSDOF 15
ENDMDL
