MODEL 1
REMARK VINA RESULT: -8.666552108      0.000      0.000
REMARK  14 active torsions:
REMARK  status: ('A' for Active; 'I' for Inactive)
REMARK    1  A    between atoms: C2_2  and  C4_4 
REMARK    2  A    between atoms: C4_4  and  O1_5 
REMARK    3  A    between atoms: O1_5  and  C5_6 
REMARK    4  A    between atoms: C6_7  and  O2_8 
REMARK    5  A    between atoms: O2_8  and  C7_9 
REMARK    6  A    between atoms: C9_13  and  O5_15 
REMARK    7  A    between atoms: C14_21  and  C15_22 
REMARK    8  A    between atoms: C15_22  and  C16_23 
REMARK    9  A    between atoms: C16_23  and  C18_25 
REMARK   10  A    between atoms: C18_25  and  C19_26 
REMARK   11  A    between atoms: C22_29  and  O7_30 
REMARK   12  A    between atoms: C24_34  and  O9_35 
REMARK   13  A    between atoms: C25_37  and  O10_38 
REMARK   14  A    between atoms: C26_40  and  O11_41 
ROOT
HETATM    1  C7  UNL     1       7.483 -18.220 -45.866  1.00  0.00     0.276 C 
HETATM    2  O3  UNL     1       7.588 -19.485 -46.458  1.00  0.00    -0.328 OA
HETATM    3  C8  UNL     1       8.901 -19.616 -46.694  1.00  0.00     0.302 C 
HETATM    4  O4  UNL     1       9.523 -20.784 -46.890  1.00  0.00    -0.323 OA
HETATM    5  C9  UNL     1      10.823 -20.463 -47.317  1.00  0.00     0.161 C 
HETATM    6  C10 UNL     1      10.741 -20.839 -48.824  1.00  0.00     0.078 C 
HETATM    7  C11 UNL     1      11.270 -19.071 -47.268  1.00  0.00     0.071 C 
HETATM    8  C12 UNL     1      10.639 -18.136 -46.224  1.00  0.00     0.050 C 
HETATM    9  C13 UNL     1       9.624 -18.959 -45.554  1.00  0.00     0.128 C 
HETATM   10  O6  UNL     1      10.324 -19.791 -44.682  1.00  0.00    -0.335 OA
HETATM   11  C14 UNL     1      10.321 -19.384 -43.359  1.00  0.00     0.069 C 
HETATM   12  C21 UNL     1       9.715 -18.319 -42.903  1.00  0.00     0.042 C 
HETATM   13  C22 UNL     1       8.927 -17.415 -43.861  1.00  0.00     0.155 C 
HETATM   14  C23 UNL     1       8.488 -18.394 -44.819  1.00  0.00     0.114 C 
ENDROOT
BRANCH   1  15
HETATM   15  O2  UNL     1       7.683 -17.151 -46.692  1.00  0.00    -0.328 OA
BRANCH  15  16
HETATM   16  C6  UNL     1       6.485 -16.536 -47.061  1.00  0.00     0.297 C 
HETATM   17  C5  UNL     1       6.639 -15.120 -47.478  1.00  0.00     0.208 C 
HETATM   18  C26 UNL     1       7.234 -15.008 -48.892  1.00  0.00     0.185 C 
HETATM   19  C25 UNL     1       6.214 -15.664 -49.786  1.00  0.00     0.204 C 
HETATM   20  C24 UNL     1       6.046 -17.093 -49.312  1.00  0.00     0.291 C 
HETATM   21  O8  UNL     1       5.869 -17.292 -48.001  1.00  0.00    -0.326 OA
BRANCH  17  22
HETATM   22  O1  UNL     1       5.333 -14.580 -47.523  1.00  0.00    -0.374 OA
BRANCH  22  23
HETATM   23  C4  UNL     1       5.340 -13.269 -47.027  1.00  0.00     0.201 C 
BRANCH  23  24
HETATM   24  C2  UNL     1       4.089 -12.599 -47.429  1.00  0.00    -0.070 C 
HETATM   25  C1  UNL     1       3.644 -11.485 -47.030  1.00  0.00     0.016 C 
HETATM   26  C3  UNL     1       3.262 -13.357 -48.457  1.00  0.00     0.044 C 
ENDBRANCH  23  24
ENDBRANCH  22  23
ENDBRANCH  17  22
BRANCH  18  27
HETATM   27  O11 UNL     1       8.429 -15.729 -48.877  1.00  0.00    -0.390 OA
ATOM     28  H11 UNL     1       8.276 -16.495 -48.338  1.00  0.00     0.210 HD
ENDBRANCH  18  27
BRANCH  19  29
HETATM   29  O10 UNL     1       6.718 -15.604 -51.079  1.00  0.00    -0.388 OA
ATOM     30  H10 UNL     1       7.646 -15.401 -51.088  1.00  0.00     0.210 HD
ENDBRANCH  19  29
BRANCH  20  31
HETATM   31  O9  UNL     1       7.209 -17.779 -49.733  1.00  0.00    -0.368 OA
ATOM     32  H9  UNL     1       6.957 -18.521 -50.271  1.00  0.00     0.212 HD
ENDBRANCH  20  31
ENDBRANCH  15  16
ENDBRANCH   1  15
BRANCH  13  33
HETATM   33  O7  UNL     1       7.915 -16.779 -43.129  1.00  0.00    -0.391 OA
ATOM     34  H7  UNL     1       7.077 -17.069 -43.469  1.00  0.00     0.210 HD
ENDBRANCH  13  33
BRANCH   5  35
HETATM   35  O5  UNL     1      11.744 -21.409 -46.818  1.00  0.00    -0.365 OA
ATOM     36  H5  UNL     1      12.035 -21.153 -45.950  1.00  0.00     0.213 HD
ENDBRANCH   5  35
BRANCH  11  37
HETATM   37  C15 UNL     1      11.078 -20.255 -42.343  1.00  0.00     0.042 C 
BRANCH  37  38
HETATM   38  C16 UNL     1      11.189 -21.473 -42.586  1.00  0.00    -0.065 C 
HETATM   39  C17 UNL     1      11.312 -22.838 -42.860  1.00  0.00     0.019 C 
BRANCH  38  40
HETATM   40  C18 UNL     1      13.001 -21.305 -42.454  1.00  0.00     0.037 C 
BRANCH  40  41
HETATM   41  C19 UNL     1      13.445 -21.211 -43.797  1.00  0.00     0.000 C 
HETATM   42  C20 UNL     1      14.081 -20.091 -44.487  1.00  0.00     0.005 C 
ENDBRANCH  40  41
ENDBRANCH  38  40
ENDBRANCH  37  38
ENDBRANCH  11  37
TORSDOF 14
ENDMDL
MODEL 2
REMARK VINA RESULT: -8.634208804      1.742      2.170
REMARK  14 active torsions:
REMARK  status: ('A' for Active; 'I' for Inactive)
REMARK    1  A    between atoms: C2_2  and  C4_4 
REMARK    2  A    between atoms: C4_4  and  O1_5 
REMARK    3  A    between atoms: O1_5  and  C5_6 
REMARK    4  A    between atoms: C6_7  and  O2_8 
REMARK    5  A    between atoms: O2_8  and  C7_9 
REMARK    6  A    between atoms: C9_13  and  O5_15 
REMARK    7  A    between atoms: C14_21  and  C15_22 
REMARK    8  A    between atoms: C15_22  and  C16_23 
REMARK    9  A    between atoms: C16_23  and  C18_25 
REMARK   10  A    between atoms: C18_25  and  C19_26 
REMARK   11  A    between atoms: C22_29  and  O7_30 
REMARK   12  A    between atoms: C24_34  and  O9_35 
REMARK   13  A    between atoms: C25_37  and  O10_38 
REMARK   14  A    between atoms: C26_40  and  O11_41 
ROOT
HETATM    1  C7  UNL     1       8.022 -18.989 -45.265  1.00  0.00     0.276 C 
HETATM    2  O3  UNL     1       8.366 -20.168 -45.938  1.00  0.00    -0.328 OA
HETATM    3  C8  UNL     1       9.707 -20.163 -45.920  1.00  0.00     0.302 C 
HETATM    4  O4  UNL     1      10.471 -21.246 -46.096  1.00  0.00    -0.323 OA
HETATM    5  C9  UNL     1      11.789 -20.773 -46.224  1.00  0.00     0.161 C 
HETATM    6  C10 UNL     1      12.032 -20.985 -47.746  1.00  0.00     0.078 C 
HETATM    7  C11 UNL     1      12.072 -19.363 -45.959  1.00  0.00     0.071 C 
HETATM    8  C12 UNL     1      11.162 -18.605 -44.979  1.00  0.00     0.050 C 
HETATM    9  C13 UNL     1      10.129 -19.579 -44.603  1.00  0.00     0.128 C 
HETATM   10  O6  UNL     1      10.733 -20.441 -43.690  1.00  0.00    -0.335 OA
HETATM   11  C14 UNL     1      10.439 -20.185 -42.363  1.00  0.00     0.069 C 
HETATM   12  C21 UNL     1       9.651 -19.230 -41.939  1.00  0.00     0.042 C 
HETATM   13  C22 UNL     1       8.970 -18.295 -42.947  1.00  0.00     0.155 C 
HETATM   14  C23 UNL     1       8.822 -19.194 -44.060  1.00  0.00     0.114 C 
ENDROOT
BRANCH   1  15
HETATM   15  O2  UNL     1       8.263 -17.822 -45.932  1.00  0.00    -0.328 OA
BRANCH  15  16
HETATM   16  C6  UNL     1       7.109 -17.301 -46.520  1.00  0.00     0.297 C 
HETATM   17  C5  UNL     1       7.303 -15.970 -47.148  1.00  0.00     0.208 C 
HETATM   18  C26 UNL     1       8.043 -16.081 -48.491  1.00  0.00     0.185 C 
HETATM   19  C25 UNL     1       7.124 -16.894 -49.365  1.00  0.00     0.204 C 
HETATM   20  C24 UNL     1       6.910 -18.229 -48.681  1.00  0.00     0.291 C 
HETATM   21  O8  UNL     1       6.597 -18.213 -47.380  1.00  0.00    -0.326 OA
BRANCH  17  22
HETATM   22  O1  UNL     1       6.008 -15.470 -47.416  1.00  0.00    -0.374 OA
BRANCH  22  23
HETATM   23  C4  UNL     1       5.637 -14.546 -46.428  1.00  0.00     0.201 C 
BRANCH  23  24
HETATM   24  C2  UNL     1       5.713 -13.186 -46.994  1.00  0.00    -0.070 C 
HETATM   25  C1  UNL     1       6.750 -12.533 -47.305  1.00  0.00     0.016 C 
HETATM   26  C3  UNL     1       4.366 -12.519 -47.234  1.00  0.00     0.044 C 
ENDBRANCH  23  24
ENDBRANCH  22  23
ENDBRANCH  17  22
BRANCH  18  27
HETATM   27  O11 UNL     1       9.232 -16.765 -48.234  1.00  0.00    -0.390 OA
ATOM     28  H11 UNL     1       9.088 -17.666 -48.500  1.00  0.00     0.210 HD
ENDBRANCH  18  27
BRANCH  19  29
HETATM   29  O10 UNL     1       7.761 -17.038 -50.591  1.00  0.00    -0.388 OA
ATOM     30  H10 UNL     1       8.665 -17.313 -50.490  1.00  0.00     0.210 HD
ENDBRANCH  19  29
BRANCH  20  31
HETATM   31  O9  UNL     1       8.113 -18.952 -48.859  1.00  0.00    -0.368 OA
ATOM     32  H9  UNL     1       8.065 -19.441 -49.672  1.00  0.00     0.212 HD
ENDBRANCH  20  31
ENDBRANCH  15  16
ENDBRANCH   1  15
BRANCH  13  33
HETATM   33  O7  UNL     1       7.777 -17.829 -42.375  1.00  0.00    -0.391 OA
ATOM     34  H7  UNL     1       7.573 -16.986 -42.762  1.00  0.00     0.210 HD
ENDBRANCH  13  33
BRANCH   5  35
HETATM   35  O5  UNL     1      12.690 -21.689 -45.642  1.00  0.00    -0.365 OA
ATOM     36  H5  UNL     1      13.272 -21.236 -45.041  1.00  0.00     0.213 HD
ENDBRANCH   5  35
BRANCH  11  37
HETATM   37  C15 UNL     1      11.075 -21.097 -41.302  1.00  0.00     0.042 C 
BRANCH  37  38
HETATM   38  C16 UNL     1      10.319 -21.828 -40.630  1.00  0.00    -0.065 C 
HETATM   39  C17 UNL     1       9.470 -22.645 -39.880  1.00  0.00     0.019 C 
BRANCH  38  40
HETATM   40  C18 UNL     1      11.787 -22.657 -39.932  1.00  0.00     0.037 C 
BRANCH  40  41
HETATM   41  C19 UNL     1      11.984 -22.026 -38.678  1.00  0.00     0.000 C 
HETATM   42  C20 UNL     1      13.229 -21.744 -37.967  1.00  0.00     0.005 C 
ENDBRANCH  40  41
ENDBRANCH  38  40
ENDBRANCH  37  38
ENDBRANCH  11  37
TORSDOF 14
ENDMDL
MODEL 3
REMARK VINA RESULT: -8.548419201      0.807      1.321
REMARK  14 active torsions:
REMARK  status: ('A' for Active; 'I' for Inactive)
REMARK    1  A    between atoms: C2_2  and  C4_4 
REMARK    2  A    between atoms: C4_4  and  O1_5 
REMARK    3  A    between atoms: O1_5  and  C5_6 
REMARK    4  A    between atoms: C6_7  and  O2_8 
REMARK    5  A    between atoms: O2_8  and  C7_9 
REMARK    6  A    between atoms: C9_13  and  O5_15 
REMARK    7  A    between atoms: C14_21  and  C15_22 
REMARK    8  A    between atoms: C15_22  and  C16_23 
REMARK    9  A    between atoms: C16_23  and  C18_25 
REMARK   10  A    between atoms: C18_25  and  C19_26 
REMARK   11  A    between atoms: C22_29  and  O7_30 
REMARK   12  A    between atoms: C24_34  and  O9_35 
REMARK   13  A    between atoms: C25_37  and  O10_38 
REMARK   14  A    between atoms: C26_40  and  O11_41 
ROOT
HETATM    1  C7  UNL     1       7.594 -18.306 -45.794  1.00  0.00     0.276 C 
HETATM    2  O3  UNL     1       7.696 -19.569 -46.391  1.00  0.00    -0.328 OA
HETATM    3  C8  UNL     1       9.009 -19.703 -46.628  1.00  0.00     0.302 C 
HETATM    4  O4  UNL     1       9.627 -20.871 -46.828  1.00  0.00    -0.323 OA
HETATM    5  C9  UNL     1      10.929 -20.551 -47.253  1.00  0.00     0.161 C 
HETATM    6  C10 UNL     1      10.846 -20.920 -48.761  1.00  0.00     0.078 C 
HETATM    7  C11 UNL     1      11.379 -19.161 -47.198  1.00  0.00     0.071 C 
HETATM    8  C12 UNL     1      10.750 -18.229 -46.150  1.00  0.00     0.050 C 
HETATM    9  C13 UNL     1       9.733 -19.052 -45.484  1.00  0.00     0.128 C 
HETATM   10  O6  UNL     1      10.430 -19.889 -44.615  1.00  0.00    -0.335 OA
HETATM   11  C14 UNL     1      10.428 -19.488 -43.291  1.00  0.00     0.069 C 
HETATM   12  C21 UNL     1       9.824 -18.423 -42.830  1.00  0.00     0.042 C 
HETATM   13  C22 UNL     1       9.039 -17.513 -43.785  1.00  0.00     0.155 C 
HETATM   14  C23 UNL     1       8.597 -18.487 -44.747  1.00  0.00     0.114 C 
ENDROOT
BRANCH   1  15
HETATM   15  O2  UNL     1       7.796 -17.234 -46.615  1.00  0.00    -0.328 OA
BRANCH  15  16
HETATM   16  C6  UNL     1       6.600 -16.614 -46.981  1.00  0.00     0.297 C 
HETATM   17  C5  UNL     1       6.764 -15.210 -47.433  1.00  0.00     0.208 C 
HETATM   18  C26 UNL     1       7.339 -15.137 -48.857  1.00  0.00     0.185 C 
HETATM   19  C25 UNL     1       6.298 -15.801 -49.721  1.00  0.00     0.204 C 
HETATM   20  C24 UNL     1       6.120 -17.217 -49.212  1.00  0.00     0.291 C 
HETATM   21  O8  UNL     1       5.961 -17.384 -47.894  1.00  0.00    -0.326 OA
BRANCH  17  22
HETATM   22  O1  UNL     1       5.464 -14.655 -47.470  1.00  0.00    -0.374 OA
BRANCH  22  23
HETATM   23  C4  UNL     1       5.502 -13.318 -47.050  1.00  0.00     0.201 C 
BRANCH  23  24
HETATM   24  C2  UNL     1       4.349 -12.602 -47.630  1.00  0.00    -0.070 C 
HETATM   25  C1  UNL     1       3.588 -11.770 -47.059  1.00  0.00     0.016 C 
HETATM   26  C3  UNL     1       4.076 -12.914 -49.094  1.00  0.00     0.044 C 
ENDBRANCH  23  24
ENDBRANCH  22  23
ENDBRANCH  17  22
BRANCH  18  27
HETATM   27  O11 UNL     1       8.526 -15.871 -48.844  1.00  0.00    -0.390 OA
ATOM     28  H11 UNL     1       9.061 -15.533 -49.551  1.00  0.00     0.210 HD
ENDBRANCH  18  27
BRANCH  19  29
HETATM   29  O10 UNL     1       6.783 -15.776 -51.022  1.00  0.00    -0.388 OA
ATOM     30  H10 UNL     1       7.288 -14.991 -51.197  1.00  0.00     0.210 HD
ENDBRANCH  19  29
BRANCH  20  31
HETATM   31  O9  UNL     1       7.270 -17.926 -49.634  1.00  0.00    -0.368 OA
ATOM     32  H9  UNL     1       7.615 -17.520 -50.421  1.00  0.00     0.212 HD
ENDBRANCH  20  31
ENDBRANCH  15  16
ENDBRANCH   1  15
BRANCH  13  33
HETATM   33  O7  UNL     1       8.028 -16.878 -43.051  1.00  0.00    -0.391 OA
ATOM     34  H7  UNL     1       8.425 -16.474 -42.289  1.00  0.00     0.210 HD
ENDBRANCH  13  33
BRANCH   5  35
HETATM   35  O5  UNL     1      11.847 -21.501 -46.757  1.00  0.00    -0.365 OA
ATOM     36  H5  UNL     1      12.701 -21.367 -47.153  1.00  0.00     0.213 HD
ENDBRANCH   5  35
BRANCH  11  37
HETATM   37  C15 UNL     1      11.182 -20.365 -42.278  1.00  0.00     0.042 C 
BRANCH  37  38
HETATM   38  C16 UNL     1      12.257 -20.883 -42.640  1.00  0.00    -0.065 C 
HETATM   39  C17 UNL     1      13.463 -21.461 -43.046  1.00  0.00     0.019 C 
BRANCH  38  40
HETATM   40  C18 UNL     1      11.870 -22.337 -41.609  1.00  0.00     0.037 C 
BRANCH  40  41
HETATM   41  C19 UNL     1      12.567 -22.104 -40.396  1.00  0.00     0.000 C 
HETATM   42  C20 UNL     1      12.072 -22.133 -39.022  1.00  0.00     0.005 C 
ENDBRANCH  40  41
ENDBRANCH  38  40
ENDBRANCH  37  38
ENDBRANCH  11  37
TORSDOF 14
ENDMDL
MODEL 4
REMARK VINA RESULT: -8.533094219      2.410      4.293
REMARK  14 active torsions:
REMARK  status: ('A' for Active; 'I' for Inactive)
REMARK    1  A    between atoms: C2_2  and  C4_4 
REMARK    2  A    between atoms: C4_4  and  O1_5 
REMARK    3  A    between atoms: O1_5  and  C5_6 
REMARK    4  A    between atoms: C6_7  and  O2_8 
REMARK    5  A    between atoms: O2_8  and  C7_9 
REMARK    6  A    between atoms: C9_13  and  O5_15 
REMARK    7  A    between atoms: C14_21  and  C15_22 
REMARK    8  A    between atoms: C15_22  and  C16_23 
REMARK    9  A    between atoms: C16_23  and  C18_25 
REMARK   10  A    between atoms: C18_25  and  C19_26 
REMARK   11  A    between atoms: C22_29  and  O7_30 
REMARK   12  A    between atoms: C24_34  and  O9_35 
REMARK   13  A    between atoms: C25_37  and  O10_38 
REMARK   14  A    between atoms: C26_40  and  O11_41 
ROOT
HETATM    1  C7  UNL     1      10.830 -18.749 -44.806  1.00  0.00     0.276 C 
HETATM    2  O3  UNL     1      10.187 -19.085 -43.608  1.00  0.00    -0.328 OA
HETATM    3  C8  UNL     1      10.292 -20.420 -43.554  1.00  0.00     0.302 C 
HETATM    4  O4  UNL     1      10.173 -21.146 -42.438  1.00  0.00    -0.323 OA
HETATM    5  C9  UNL     1      10.129 -22.489 -42.851  1.00  0.00     0.161 C 
HETATM    6  C10 UNL     1       8.628 -22.821 -42.616  1.00  0.00     0.078 C 
HETATM    7  C11 UNL     1      10.405 -22.816 -44.250  1.00  0.00     0.071 C 
HETATM    8  C12 UNL     1      11.319 -21.879 -45.055  1.00  0.00     0.050 C 
HETATM    9  C13 UNL     1      11.631 -20.781 -44.130  1.00  0.00     0.128 C 
HETATM   10  O6  UNL     1      12.587 -21.286 -43.249  1.00  0.00    -0.335 OA
HETATM   11  C14 UNL     1      13.890 -20.917 -43.529  1.00  0.00     0.069 C 
HETATM   12  C21 UNL     1      14.257 -20.146 -44.521  1.00  0.00     0.042 C 
HETATM   13  C22 UNL     1      13.201 -19.574 -45.477  1.00  0.00     0.155 C 
HETATM   14  C23 UNL     1      12.086 -19.460 -44.576  1.00  0.00     0.114 C 
ENDROOT
BRANCH   1  15
HETATM   15  O2  UNL     1      10.174 -19.085 -45.956  1.00  0.00    -0.328 OA
BRANCH  15  16
HETATM   16  C6  UNL     1       8.796 -18.882 -45.858  1.00  0.00     0.297 C 
HETATM   17  C5  UNL     1       8.338 -17.586 -46.419  1.00  0.00     0.208 C 
HETATM   18  C26 UNL     1       8.313 -17.613 -47.956  1.00  0.00     0.185 C 
HETATM   19  C25 UNL     1       7.298 -18.672 -48.302  1.00  0.00     0.204 C 
HETATM   20  C24 UNL     1       7.769 -19.972 -47.682  1.00  0.00     0.291 C 
HETATM   21  O8  UNL     1       8.151 -19.942 -46.400  1.00  0.00    -0.326 OA
BRANCH  17  22
HETATM   22  O1  UNL     1       7.006 -17.416 -45.975  1.00  0.00    -0.374 OA
BRANCH  22  23
HETATM   23  C4  UNL     1       6.997 -17.024 -44.629  1.00  0.00     0.201 C 
BRANCH  23  24
HETATM   24  C2  UNL     1       6.524 -15.629 -44.541  1.00  0.00    -0.070 C 
HETATM   25  C1  UNL     1       6.927 -14.723 -43.758  1.00  0.00     0.016 C 
HETATM   26  C3  UNL     1       5.429 -15.263 -45.533  1.00  0.00     0.044 C 
ENDBRANCH  23  24
ENDBRANCH  22  23
ENDBRANCH  17  22
BRANCH  18  27
HETATM   27  O11 UNL     1       9.593 -17.988 -48.368  1.00  0.00    -0.390 OA
ATOM     28  H11 UNL     1       9.480 -18.545 -49.128  1.00  0.00     0.210 HD
ENDBRANCH  18  27
BRANCH  19  29
HETATM   29  O10 UNL     1       7.254 -18.746 -49.688  1.00  0.00    -0.388 OA
ATOM     30  H10 UNL     1       6.502 -19.241 -49.992  1.00  0.00     0.210 HD
ENDBRANCH  19  29
BRANCH  20  31
HETATM   31  O9  UNL     1       8.853 -20.410 -48.479  1.00  0.00    -0.368 OA
ATOM     32  H9  UNL     1       8.638 -20.280 -49.395  1.00  0.00     0.212 HD
ENDBRANCH  20  31
ENDBRANCH  15  16
ENDBRANCH   1  15
BRANCH  13  33
HETATM   33  O7  UNL     1      13.691 -18.369 -45.999  1.00  0.00    -0.391 OA
ATOM     34  H7  UNL     1      14.001 -18.533 -46.881  1.00  0.00     0.210 HD
ENDBRANCH  13  33
BRANCH   5  35
HETATM   35  O5  UNL     1      10.774 -23.309 -41.902  1.00  0.00    -0.365 OA
ATOM     36  H5  UNL     1      11.577 -23.661 -42.268  1.00  0.00     0.213 HD
ENDBRANCH   5  35
BRANCH  11  37
HETATM   37  C15 UNL     1      14.996 -21.441 -42.599  1.00  0.00     0.042 C 
BRANCH  37  38
HETATM   38  C16 UNL     1      14.651 -21.984 -41.530  1.00  0.00    -0.065 C 
HETATM   39  C17 UNL     1      14.262 -22.592 -40.334  1.00  0.00     0.019 C 
BRANCH  38  40
HETATM   40  C18 UNL     1      16.250 -22.862 -41.493  1.00  0.00     0.037 C 
BRANCH  40  41
HETATM   41  C19 UNL     1      15.941 -24.176 -41.926  1.00  0.00     0.000 C 
HETATM   42  C20 UNL     1      16.835 -25.234 -42.391  1.00  0.00     0.005 C 
ENDBRANCH  40  41
ENDBRANCH  38  40
ENDBRANCH  37  38
ENDBRANCH  11  37
TORSDOF 14
ENDMDL
MODEL 5
REMARK VINA RESULT: -8.526590214      3.022      9.064
REMARK  14 active torsions:
REMARK  status: ('A' for Active; 'I' for Inactive)
REMARK    1  A    between atoms: C2_2  and  C4_4 
REMARK    2  A    between atoms: C4_4  and  O1_5 
REMARK    3  A    between atoms: O1_5  and  C5_6 
REMARK    4  A    between atoms: C6_7  and  O2_8 
REMARK    5  A    between atoms: O2_8  and  C7_9 
REMARK    6  A    between atoms: C9_13  and  O5_15 
REMARK    7  A    between atoms: C14_21  and  C15_22 
REMARK    8  A    between atoms: C15_22  and  C16_23 
REMARK    9  A    between atoms: C16_23  and  C18_25 
REMARK   10  A    between atoms: C18_25  and  C19_26 
REMARK   11  A    between atoms: C22_29  and  O7_30 
REMARK   12  A    between atoms: C24_34  and  O9_35 
REMARK   13  A    between atoms: C25_37  and  O10_38 
REMARK   14  A    between atoms: C26_40  and  O11_41 
ROOT
HETATM    1  C7  UNL     1      10.981 -20.148 -42.777  1.00  0.00     0.276 C 
HETATM    2  O3  UNL     1      11.977 -19.373 -43.384  1.00  0.00    -0.328 OA
HETATM    3  C8  UNL     1      11.637 -19.378 -44.681  1.00  0.00     0.302 C 
HETATM    4  O4  UNL     1      12.056 -18.479 -45.577  1.00  0.00    -0.323 OA
HETATM    5  C9  UNL     1      11.656 -18.969 -46.833  1.00  0.00     0.161 C 
HETATM    6  C10 UNL     1      13.021 -19.429 -47.418  1.00  0.00     0.078 C 
HETATM    7  C11 UNL     1      10.771 -20.131 -46.898  1.00  0.00     0.071 C 
HETATM    8  C12 UNL     1       9.816 -20.391 -45.723  1.00  0.00     0.050 C 
HETATM    9  C13 UNL     1      10.137 -19.344 -44.745  1.00  0.00     0.128 C 
HETATM   10  O6  UNL     1       9.548 -18.177 -45.228  1.00  0.00    -0.335 OA
HETATM   11  C14 UNL     1       8.347 -17.840 -44.629  1.00  0.00     0.069 C 
HETATM   12  C21 UNL     1       7.769 -18.516 -43.670  1.00  0.00     0.042 C 
HETATM   13  C22 UNL     1       8.431 -19.789 -43.124  1.00  0.00     0.155 C 
HETATM   14  C23 UNL     1       9.815 -19.451 -43.318  1.00  0.00     0.114 C 
ENDROOT
BRANCH   1  15
HETATM   15  O2  UNL     1      11.025 -21.489 -43.028  1.00  0.00    -0.328 OA
BRANCH  15  16
HETATM   16  C6  UNL     1      11.731 -22.188 -42.047  1.00  0.00     0.297 C 
HETATM   17  C5  UNL     1      11.038 -22.247 -40.735  1.00  0.00     0.208 C 
HETATM   18  C26 UNL     1       9.882 -23.260 -40.750  1.00  0.00     0.185 C 
HETATM   19  C25 UNL     1      10.545 -24.589 -41.003  1.00  0.00     0.204 C 
HETATM   20  C24 UNL     1      11.278 -24.488 -42.325  1.00  0.00     0.291 C 
HETATM   21  O8  UNL     1      12.053 -23.415 -42.521  1.00  0.00    -0.326 OA
BRANCH  17  22
HETATM   22  O1  UNL     1      11.998 -22.710 -39.806  1.00  0.00    -0.374 OA
BRANCH  22  23
HETATM   23  C4  UNL     1      11.875 -22.005 -38.600  1.00  0.00     0.201 C 
BRANCH  23  24
HETATM   24  C2  UNL     1      13.224 -21.704 -38.084  1.00  0.00    -0.070 C 
HETATM   25  C1  UNL     1      13.545 -21.356 -36.912  1.00  0.00     0.016 C 
HETATM   26  C3  UNL     1      14.344 -21.852 -39.103  1.00  0.00     0.044 C 
ENDBRANCH  23  24
ENDBRANCH  22  23
ENDBRANCH  17  22
BRANCH  18  27
HETATM   27  O11 UNL     1       9.053 -22.901 -41.814  1.00  0.00    -0.390 OA
ATOM     28  H11 UNL     1       8.385 -22.329 -41.455  1.00  0.00     0.210 HD
ENDBRANCH  18  27
BRANCH  19  29
HETATM   29  O10 UNL     1       9.533 -25.540 -41.044  1.00  0.00    -0.388 OA
ATOM     30  H10 UNL     1       9.010 -25.535 -40.251  1.00  0.00     0.210 HD
ENDBRANCH  19  29
BRANCH  20  31
HETATM   31  O9  UNL     1      10.277 -24.526 -43.325  1.00  0.00    -0.368 OA
ATOM     32  H9  UNL     1      10.150 -23.651 -43.672  1.00  0.00     0.212 HD
ENDBRANCH  20  31
ENDBRANCH  15  16
ENDBRANCH   1  15
BRANCH  13  33
HETATM   33  O7  UNL     1       8.023 -19.958 -41.794  1.00  0.00    -0.391 OA
ATOM     34  H7  UNL     1       8.737 -19.688 -41.229  1.00  0.00     0.210 HD
ENDBRANCH  13  33
BRANCH   5  35
HETATM   35  O5  UNL     1      11.307 -17.897 -47.682  1.00  0.00    -0.365 OA
ATOM     36  H5  UNL     1      12.085 -17.543 -48.097  1.00  0.00     0.213 HD
ENDBRANCH   5  35
BRANCH  11  37
HETATM   37  C15 UNL     1       7.641 -16.564 -45.117  1.00  0.00     0.042 C 
BRANCH  37  38
HETATM   38  C16 UNL     1       7.099 -15.833 -44.264  1.00  0.00    -0.065 C 
HETATM   39  C17 UNL     1       6.495 -15.014 -43.307  1.00  0.00     0.019 C 
BRANCH  38  40
HETATM   40  C18 UNL     1       5.872 -15.329 -45.516  1.00  0.00     0.037 C 
BRANCH  40  41
HETATM   41  C19 UNL     1       6.403 -14.135 -46.067  1.00  0.00     0.000 C 
HETATM   42  C20 UNL     1       5.857 -13.276 -47.116  1.00  0.00     0.005 C 
ENDBRANCH  40  41
ENDBRANCH  38  40
ENDBRANCH  37  38
ENDBRANCH  11  37
TORSDOF 14
ENDMDL
