MODEL 1
REMARK VINA RESULT: -7.940138968      0.000      0.000
REMARK  17 active torsions:
REMARK  status: ('A' for Active; 'I' for Inactive)
REMARK    1  A    between atoms: O1_2  and  C2_3 
REMARK    2  A    between atoms: C2_3  and  C3_5 
REMARK    3  A    between atoms: C6_8  and  C7_9 
REMARK    4  A    between atoms: C9_13  and  O4_14 
REMARK    5  A    between atoms: O4_14  and  S1_15 
REMARK    6  A    between atoms: S1_15  and  N2_18 
REMARK    7  A    between atoms: N2_18  and  C10_20 
REMARK    8  A    between atoms: C10_20  and  C11_21 
REMARK    9  A    between atoms: C11_21  and  C12_22 
REMARK   10  A    between atoms: C12_22  and  C13_23 
REMARK   11  A    between atoms: C13_23  and  C14_24 
REMARK   12  A    between atoms: C14_24  and  N3_25 
REMARK   13  A    between atoms: C19_30  and  C20_31 
REMARK   14  A    between atoms: C20_31  and  C21_32 
REMARK   15  A    between atoms: C24_35  and  C25_36 
REMARK   16  A    between atoms: C25_36  and  C26_37 
REMARK   17  A    between atoms: C29_40  and  C30_41 
ROOT
HETATM    1  N3  UNL     1      -5.509   0.033 -28.299  1.00  0.00    -0.357 N 
HETATM    2  C15 UNL     1      -5.000  -1.028 -28.939  1.00  0.00     0.091 A 
HETATM    3  C16 UNL     1      -4.474  -0.972 -30.204  1.00  0.00     0.017 A 
HETATM    4  C17 UNL     1      -4.465   0.232 -30.862  1.00  0.00     0.004 A 
HETATM    5  C18 UNL     1      -4.985   1.339 -30.226  1.00  0.00     0.029 A 
HETATM    6  C19 UNL     1      -5.502   1.228 -28.949  1.00  0.00     0.035 A 
ENDROOT
BRANCH   1   7
HETATM    7  C14 UNL     1      -6.052  -0.015 -26.954  1.00  0.00     0.128 C 
BRANCH   7   8
HETATM    8  C13 UNL     1      -4.928  -0.121 -25.930  1.00  0.00     0.020 C 
BRANCH   8   9
HETATM    9  C12 UNL     1      -5.302   0.521 -24.612  1.00  0.00     0.003 C 
BRANCH   9  10
HETATM   10  C11 UNL     1      -5.438   2.009 -24.749  1.00  0.00     0.020 C 
BRANCH  10  11
HETATM   11  C10 UNL     1      -6.821   2.500 -24.483  1.00  0.00     0.134 C 
BRANCH  11  12
HETATM   12  N2  UNL     1      -7.619   1.524 -23.759  1.00  0.00    -0.297 N 
ATOM     13  H2  UNL     1      -7.454   1.261 -22.788  1.00  0.00     0.174 HD
BRANCH  12  14
HETATM   14  S1  UNL     1      -8.883   0.857 -24.741  1.00  0.00     0.362 S 
HETATM   15  O5  UNL     1     -10.228   0.989 -24.140  1.00  0.00    -0.175 OA
HETATM   16  O6  UNL     1      -8.800   1.551 -26.058  1.00  0.00    -0.175 OA
BRANCH  14  17
HETATM   17  O4  UNL     1      -8.548  -0.821 -24.917  1.00  0.00    -0.216 OA
BRANCH  17  18
HETATM   18  C9  UNL     1      -9.338  -1.556 -25.789  1.00  0.00     0.108 A 
HETATM   19  C3  UNL     1     -10.044  -2.656 -25.374  1.00  0.00     0.074 A 
HETATM   20  C4  UNL     1     -10.813  -3.328 -26.326  1.00  0.00     0.021 A 
HETATM   21  C5  UNL     1     -10.837  -2.869 -27.625  1.00  0.00     0.018 A 
HETATM   22  C6  UNL     1     -10.129  -1.766 -28.037  1.00  0.00     0.032 A 
HETATM   23  C8  UNL     1      -9.362  -1.090 -27.106  1.00  0.00     0.056 A 
BRANCH  19  24
HETATM   24  C2  UNL     1      -9.971  -3.165 -24.023  1.00  0.00     0.295 C 
HETATM   25  O2  UNL     1      -9.011  -3.846 -23.628  1.00  0.00    -0.259 OA
BRANCH  24  26
HETATM   26  O1  UNL     1     -10.979  -2.917 -23.089  1.00  0.00    -0.322 OA
HETATM   27  C1  UNL     1     -12.194  -3.644 -23.068  1.00  0.00     0.213 C 
ENDBRANCH  24  26
ENDBRANCH  19  24
BRANCH  22  28
HETATM   28  C7  UNL     1     -10.184  -1.321 -29.428  1.00  0.00     0.265 C 
HETATM   29  N1  UNL     1     -11.119  -0.348 -29.858  1.00  0.00    -0.057 NA
HETATM   30  O3  UNL     1      -9.360  -1.837 -30.258  1.00  0.00    -0.271 OA
ENDBRANCH  22  28
ENDBRANCH  17  18
ENDBRANCH  14  17
ENDBRANCH  12  14
ENDBRANCH  11  12
ENDBRANCH  10  11
ENDBRANCH   9  10
ENDBRANCH   8   9
ENDBRANCH   7   8
ENDBRANCH   1   7
BRANCH   6  31
HETATM   31  C20 UNL     1      -6.059   2.392 -28.294  1.00  0.00     0.048 C 
BRANCH  31  32
HETATM   32  C21 UNL     1      -7.216   2.852 -28.794  1.00  0.00     0.007 A 
HETATM   33  C22 UNL     1      -8.182   2.181 -29.494  1.00  0.00     0.020 A 
HETATM   34  C23 UNL     1      -9.255   2.871 -29.886  1.00  0.00     0.020 A 
HETATM   35  C24 UNL     1      -9.318   4.198 -29.563  1.00  0.00     0.007 A 
HETATM   36  S3  UNL     1      -7.844   4.435 -28.707  1.00  0.00    -0.090 SA
BRANCH  35  37
HETATM   37  C25 UNL     1     -10.271   5.105 -29.837  1.00  0.00     0.037 C 
BRANCH  37  38
HETATM   38  C26 UNL     1     -10.812   5.938 -28.782  1.00  0.00     0.007 A 
HETATM   39  C27 UNL     1     -11.877   5.761 -27.949  1.00  0.00     0.020 A 
HETATM   40  C28 UNL     1     -12.141   6.714 -27.049  1.00  0.00     0.021 A 
HETATM   41  C29 UNL     1     -11.314   7.809 -27.028  1.00  0.00     0.015 A 
HETATM   42  S2  UNL     1     -10.201   7.461 -28.273  1.00  0.00    -0.090 SA
BRANCH  41  43
HETATM   43  C30 UNL     1     -11.367   8.980 -26.161  1.00  0.00    -0.019 A 
HETATM   44  C31 UNL     1     -12.332   9.090 -25.184  1.00  0.00     0.013 A 
HETATM   45  C32 UNL     1     -12.414  10.187 -24.348  1.00  0.00     0.001 A 
HETATM   46  C33 UNL     1     -11.516  11.228 -24.465  1.00  0.00     0.000 A 
HETATM   47  C34 UNL     1     -10.546  11.135 -25.436  1.00  0.00     0.001 A 
HETATM   48  C35 UNL     1     -10.473  10.017 -26.277  1.00  0.00     0.013 A 
ENDBRANCH  41  43
ENDBRANCH  37  38
ENDBRANCH  35  37
ENDBRANCH  31  32
ENDBRANCH   6  31
TORSDOF 17
ENDMDL
MODEL 2
REMARK VINA RESULT: -7.915764073      2.276      4.545
REMARK  17 active torsions:
REMARK  status: ('A' for Active; 'I' for Inactive)
REMARK    1  A    between atoms: O1_2  and  C2_3 
REMARK    2  A    between atoms: C2_3  and  C3_5 
REMARK    3  A    between atoms: C6_8  and  C7_9 
REMARK    4  A    between atoms: C9_13  and  O4_14 
REMARK    5  A    between atoms: O4_14  and  S1_15 
REMARK    6  A    between atoms: S1_15  and  N2_18 
REMARK    7  A    between atoms: N2_18  and  C10_20 
REMARK    8  A    between atoms: C10_20  and  C11_21 
REMARK    9  A    between atoms: C11_21  and  C12_22 
REMARK   10  A    between atoms: C12_22  and  C13_23 
REMARK   11  A    between atoms: C13_23  and  C14_24 
REMARK   12  A    between atoms: C14_24  and  N3_25 
REMARK   13  A    between atoms: C19_30  and  C20_31 
REMARK   14  A    between atoms: C20_31  and  C21_32 
REMARK   15  A    between atoms: C24_35  and  C25_36 
REMARK   16  A    between atoms: C25_36  and  C26_37 
REMARK   17  A    between atoms: C29_40  and  C30_41 
ROOT
HETATM    1  N3  UNL     1      -7.238   3.436 -27.416  1.00  0.00    -0.357 N 
HETATM    2  C15 UNL     1      -5.962   3.154 -27.711  1.00  0.00     0.091 A 
HETATM    3  C16 UNL     1      -5.455   3.173 -28.985  1.00  0.00     0.017 A 
HETATM    4  C17 UNL     1      -6.291   3.496 -30.024  1.00  0.00     0.004 A 
HETATM    5  C18 UNL     1      -7.609   3.789 -29.747  1.00  0.00     0.029 A 
HETATM    6  C19 UNL     1      -8.070   3.755 -28.444  1.00  0.00     0.035 A 
ENDROOT
BRANCH   1   7
HETATM    7  C14 UNL     1      -7.777   3.434 -26.069  1.00  0.00     0.128 C 
BRANCH   7   8
HETATM    8  C13 UNL     1      -7.518   2.094 -25.393  1.00  0.00     0.020 C 
BRANCH   8   9
HETATM    9  C12 UNL     1      -6.378   2.172 -24.402  1.00  0.00     0.003 C 
BRANCH   9  10
HETATM   10  C11 UNL     1      -5.289   1.196 -24.744  1.00  0.00     0.020 C 
BRANCH  10  11
HETATM   11  C10 UNL     1      -5.806  -0.097 -25.279  1.00  0.00     0.134 C 
BRANCH  11  12
HETATM   12  N2  UNL     1      -5.219  -0.430 -26.567  1.00  0.00    -0.297 N 
ATOM     13  H2  UNL     1      -4.219  -0.393 -26.764  1.00  0.00     0.174 HD
BRANCH  12  14
HETATM   14  S1  UNL     1      -6.418  -0.899 -27.729  1.00  0.00     0.362 S 
HETATM   15  O5  UNL     1      -6.327  -0.154 -29.004  1.00  0.00    -0.175 OA
HETATM   16  O6  UNL     1      -6.247  -2.366 -27.937  1.00  0.00    -0.175 OA
BRANCH  14  17
HETATM   17  O4  UNL     1      -7.953  -0.560 -27.029  1.00  0.00    -0.216 OA
BRANCH  17  18
HETATM   18  C9  UNL     1      -8.781  -1.630 -26.726  1.00  0.00     0.108 A 
HETATM   19  C3  UNL     1      -9.643  -2.163 -27.650  1.00  0.00     0.074 A 
HETATM   20  C4  UNL     1     -10.435  -3.241 -27.249  1.00  0.00     0.021 A 
HETATM   21  C5  UNL     1     -10.323  -3.724 -25.964  1.00  0.00     0.018 A 
HETATM   22  C6  UNL     1      -9.458  -3.188 -25.041  1.00  0.00     0.032 A 
HETATM   23  C8  UNL     1      -8.668  -2.119 -25.421  1.00  0.00     0.056 A 
BRANCH  19  24
HETATM   24  C2  UNL     1      -9.797  -1.616 -28.979  1.00  0.00     0.295 C 
HETATM   25  O2  UNL     1     -10.633  -0.736 -29.236  1.00  0.00    -0.259 OA
BRANCH  24  26
HETATM   26  O1  UNL     1      -9.008  -2.051 -30.047  1.00  0.00    -0.322 OA
HETATM   27  C1  UNL     1      -9.080  -1.467 -31.335  1.00  0.00     0.213 C 
ENDBRANCH  24  26
ENDBRANCH  19  24
BRANCH  22  28
HETATM   28  C7  UNL     1      -9.379  -3.734 -23.688  1.00  0.00     0.265 C 
HETATM   29  N1  UNL     1     -10.516  -3.791 -22.844  1.00  0.00    -0.057 NA
HETATM   30  O3  UNL     1      -8.247  -4.164 -23.277  1.00  0.00    -0.271 OA
ENDBRANCH  22  28
ENDBRANCH  17  18
ENDBRANCH  14  17
ENDBRANCH  12  14
ENDBRANCH  11  12
ENDBRANCH  10  11
ENDBRANCH   9  10
ENDBRANCH   8   9
ENDBRANCH   7   8
ENDBRANCH   1   7
BRANCH   6  31
HETATM   31  C20 UNL     1      -9.458   4.050 -28.163  1.00  0.00     0.048 C 
BRANCH  31  32
HETATM   32  C21 UNL     1      -9.795   5.349 -28.159  1.00  0.00     0.007 A 
HETATM   33  C22 UNL     1      -9.002   6.448 -28.348  1.00  0.00     0.020 A 
HETATM   34  C23 UNL     1      -9.584   7.648 -28.297  1.00  0.00     0.020 A 
HETATM   35  C24 UNL     1     -10.929   7.700 -28.060  1.00  0.00     0.007 A 
HETATM   36  S3  UNL     1     -11.338   6.035 -27.915  1.00  0.00    -0.090 SA
BRANCH  35  37
HETATM   37  C25 UNL     1     -11.744   8.764 -27.957  1.00  0.00     0.037 C 
BRANCH  37  38
HETATM   38  C26 UNL     1     -12.088   9.298 -26.655  1.00  0.00     0.007 A 
HETATM   39  C27 UNL     1     -12.294   8.685 -25.454  1.00  0.00     0.020 A 
HETATM   40  C28 UNL     1     -12.598   9.448 -24.399  1.00  0.00     0.021 A 
HETATM   41  C29 UNL     1     -12.681  10.803 -24.602  1.00  0.00     0.015 A 
HETATM   42  S2  UNL     1     -12.330  10.954 -26.264  1.00  0.00    -0.090 SA
BRANCH  41  43
HETATM   43  C30 UNL     1     -12.988  11.856 -23.641  1.00  0.00    -0.019 A 
HETATM   44  C31 UNL     1     -12.287  13.042 -23.649  1.00  0.00     0.013 A 
HETATM   45  C32 UNL     1     -12.549  14.059 -22.751  1.00  0.00     0.001 A 
HETATM   46  C33 UNL     1     -13.538  13.919 -21.799  1.00  0.00     0.000 A 
HETATM   47  C34 UNL     1     -14.247  12.740 -21.777  1.00  0.00     0.001 A 
HETATM   48  C35 UNL     1     -13.973  11.717 -22.693  1.00  0.00     0.013 A 
ENDBRANCH  41  43
ENDBRANCH  37  38
ENDBRANCH  35  37
ENDBRANCH  31  32
ENDBRANCH   6  31
TORSDOF 17
ENDMDL
MODEL 3
REMARK VINA RESULT: -7.865530761      3.444     10.016
REMARK  17 active torsions:
REMARK  status: ('A' for Active; 'I' for Inactive)
REMARK    1  A    between atoms: O1_2  and  C2_3 
REMARK    2  A    between atoms: C2_3  and  C3_5 
REMARK    3  A    between atoms: C6_8  and  C7_9 
REMARK    4  A    between atoms: C9_13  and  O4_14 
REMARK    5  A    between atoms: O4_14  and  S1_15 
REMARK    6  A    between atoms: S1_15  and  N2_18 
REMARK    7  A    between atoms: N2_18  and  C10_20 
REMARK    8  A    between atoms: C10_20  and  C11_21 
REMARK    9  A    between atoms: C11_21  and  C12_22 
REMARK   10  A    between atoms: C12_22  and  C13_23 
REMARK   11  A    between atoms: C13_23  and  C14_24 
REMARK   12  A    between atoms: C14_24  and  N3_25 
REMARK   13  A    between atoms: C19_30  and  C20_31 
REMARK   14  A    between atoms: C20_31  and  C21_32 
REMARK   15  A    between atoms: C24_35  and  C25_36 
REMARK   16  A    between atoms: C25_36  and  C26_37 
REMARK   17  A    between atoms: C29_40  and  C30_41 
ROOT
HETATM    1  N3  UNL     1     -10.086  -2.519 -24.806  1.00  0.00    -0.357 N 
HETATM    2  C15 UNL     1     -10.201  -3.058 -23.585  1.00  0.00     0.091 A 
HETATM    3  C16 UNL     1     -11.063  -4.082 -23.284  1.00  0.00     0.017 A 
HETATM    4  C17 UNL     1     -11.857  -4.590 -24.281  1.00  0.00     0.004 A 
HETATM    5  C18 UNL     1     -11.760  -4.052 -25.546  1.00  0.00     0.029 A 
HETATM    6  C19 UNL     1     -10.873  -3.020 -25.796  1.00  0.00     0.035 A 
ENDROOT
BRANCH   1   7
HETATM    7  C14 UNL     1      -9.165  -1.448 -25.135  1.00  0.00     0.128 C 
BRANCH   7   8
HETATM    8  C13 UNL     1      -7.724  -1.924 -25.000  1.00  0.00     0.020 C 
BRANCH   8   9
HETATM    9  C12 UNL     1      -6.771  -1.082 -25.820  1.00  0.00     0.003 C 
BRANCH   9  10
HETATM   10  C11 UNL     1      -5.972  -0.157 -24.948  1.00  0.00     0.020 C 
BRANCH  10  11
HETATM   11  C10 UNL     1      -6.053   1.270 -25.376  1.00  0.00     0.134 C 
BRANCH  11  12
HETATM   12  N2  UNL     1      -6.924   1.448 -26.525  1.00  0.00    -0.297 N 
ATOM     13  H2  UNL     1      -6.736   1.058 -27.449  1.00  0.00     0.174 HD
BRANCH  12  14
HETATM   14  S1  UNL     1      -8.322   2.400 -26.144  1.00  0.00     0.362 S 
HETATM   15  O5  UNL     1      -9.312   1.687 -25.306  1.00  0.00    -0.175 OA
HETATM   16  O6  UNL     1      -7.818   3.631 -25.470  1.00  0.00    -0.175 OA
BRANCH  14  17
HETATM   17  O4  UNL     1      -9.083   2.794 -27.636  1.00  0.00    -0.216 OA
BRANCH  17  18
HETATM   18  C9  UNL     1      -9.103   4.125 -28.026  1.00  0.00     0.108 A 
HETATM   19  C3  UNL     1      -8.145   4.651 -28.855  1.00  0.00     0.074 A 
HETATM   20  C4  UNL     1      -8.253   6.002 -29.192  1.00  0.00     0.021 A 
HETATM   21  C5  UNL     1      -9.301   6.744 -28.691  1.00  0.00     0.018 A 
HETATM   22  C6  UNL     1     -10.258   6.213 -27.862  1.00  0.00     0.032 A 
HETATM   23  C8  UNL     1     -10.165   4.878 -27.517  1.00  0.00     0.056 A 
BRANCH  19  24
HETATM   24  C2  UNL     1      -7.019   3.881 -29.332  1.00  0.00     0.295 C 
HETATM   25  O2  UNL     1      -6.003   3.703 -28.640  1.00  0.00    -0.259 OA
BRANCH  24  26
HETATM   26  O1  UNL     1      -7.014   3.295 -30.600  1.00  0.00    -0.322 OA
HETATM   27  C1  UNL     1      -6.431   3.923 -31.727  1.00  0.00     0.213 C 
ENDBRANCH  24  26
ENDBRANCH  19  24
BRANCH  22  28
HETATM   28  C7  UNL     1     -11.348   7.044 -27.354  1.00  0.00     0.265 C 
HETATM   29  N1  UNL     1     -11.113   8.345 -26.845  1.00  0.00    -0.057 NA
HETATM   30  O3  UNL     1     -12.533   6.564 -27.378  1.00  0.00    -0.271 OA
ENDBRANCH  22  28
ENDBRANCH  17  18
ENDBRANCH  14  17
ENDBRANCH  12  14
ENDBRANCH  11  12
ENDBRANCH  10  11
ENDBRANCH   9  10
ENDBRANCH   8   9
ENDBRANCH   7   8
ENDBRANCH   1   7
BRANCH   6  31
HETATM   31  C20 UNL     1     -10.787  -2.452 -27.123  1.00  0.00     0.048 C 
BRANCH  31  32
HETATM   32  C21 UNL     1      -9.819  -2.943 -27.912  1.00  0.00     0.007 A 
HETATM   33  C22 UNL     1      -9.439  -4.244 -28.106  1.00  0.00     0.020 A 
HETATM   34  C23 UNL     1      -8.435  -4.476 -28.955  1.00  0.00     0.020 A 
HETATM   35  C24 UNL     1      -7.855  -3.403 -29.571  1.00  0.00     0.007 A 
HETATM   36  S3  UNL     1      -8.753  -2.084 -28.929  1.00  0.00    -0.090 SA
BRANCH  35  37
HETATM   37  C25 UNL     1      -6.840  -3.363 -30.452  1.00  0.00     0.037 C 
BRANCH  37  38
HETATM   38  C26 UNL     1      -5.508  -2.997 -30.016  1.00  0.00     0.007 A 
HETATM   39  C27 UNL     1      -5.072  -2.017 -29.174  1.00  0.00     0.020 A 
HETATM   40  C28 UNL     1      -3.758  -1.918 -28.947  1.00  0.00     0.021 A 
HETATM   41  C29 UNL     1      -2.937  -2.816 -29.582  1.00  0.00     0.015 A 
HETATM   42  S2  UNL     1      -4.040  -3.765 -30.473  1.00  0.00    -0.090 SA
BRANCH  41  43
HETATM   43  C30 UNL     1      -1.486  -2.939 -29.513  1.00  0.00    -0.019 A 
HETATM   44  C31 UNL     1      -0.714  -2.808 -30.647  1.00  0.00     0.013 A 
HETATM   45  C32 UNL     1       0.663  -2.922 -30.620  1.00  0.00     0.001 A 
HETATM   46  C33 UNL     1       1.323  -3.176 -29.435  1.00  0.00     0.000 A 
HETATM   47  C34 UNL     1       0.567  -3.311 -28.294  1.00  0.00     0.001 A 
HETATM   48  C35 UNL     1      -0.828  -3.192 -28.334  1.00  0.00     0.013 A 
ENDBRANCH  41  43
ENDBRANCH  37  38
ENDBRANCH  35  37
ENDBRANCH  31  32
ENDBRANCH   6  31
TORSDOF 17
ENDMDL
MODEL 4
REMARK VINA RESULT: -7.829208336      4.402      8.159
REMARK  17 active torsions:
REMARK  status: ('A' for Active; 'I' for Inactive)
REMARK    1  A    between atoms: O1_2  and  C2_3 
REMARK    2  A    between atoms: C2_3  and  C3_5 
REMARK    3  A    between atoms: C6_8  and  C7_9 
REMARK    4  A    between atoms: C9_13  and  O4_14 
REMARK    5  A    between atoms: O4_14  and  S1_15 
REMARK    6  A    between atoms: S1_15  and  N2_18 
REMARK    7  A    between atoms: N2_18  and  C10_20 
REMARK    8  A    between atoms: C10_20  and  C11_21 
REMARK    9  A    between atoms: C11_21  and  C12_22 
REMARK   10  A    between atoms: C12_22  and  C13_23 
REMARK   11  A    between atoms: C13_23  and  C14_24 
REMARK   12  A    between atoms: C14_24  and  N3_25 
REMARK   13  A    between atoms: C19_30  and  C20_31 
REMARK   14  A    between atoms: C20_31  and  C21_32 
REMARK   15  A    between atoms: C24_35  and  C25_36 
REMARK   16  A    between atoms: C25_36  and  C26_37 
REMARK   17  A    between atoms: C29_40  and  C30_41 
ROOT
HETATM    1  N3  UNL     1     -10.604  -3.996 -25.421  1.00  0.00    -0.357 N 
HETATM    2  C15 UNL     1     -11.807  -4.547 -25.213  1.00  0.00     0.091 A 
HETATM    3  C16 UNL     1     -12.511  -4.416 -24.043  1.00  0.00     0.017 A 
HETATM    4  C17 UNL     1     -11.963  -3.681 -23.022  1.00  0.00     0.004 A 
HETATM    5  C18 UNL     1     -10.726  -3.104 -23.211  1.00  0.00     0.029 A 
HETATM    6  C19 UNL     1     -10.058  -3.267 -24.410  1.00  0.00     0.035 A 
ENDROOT
BRANCH   1   7
HETATM    7  C14 UNL     1      -9.861  -4.117 -26.662  1.00  0.00     0.128 C 
BRANCH   7   8
HETATM    8  C13 UNL     1     -10.267  -3.017 -27.635  1.00  0.00     0.020 C 
BRANCH   8   9
HETATM    9  C12 UNL     1      -9.170  -2.711 -28.631  1.00  0.00     0.003 C 
BRANCH   9  10
HETATM   10  C11 UNL     1      -8.657  -1.310 -28.465  1.00  0.00     0.020 C 
BRANCH  10  11
HETATM   11  C10 UNL     1      -7.231  -1.254 -28.028  1.00  0.00     0.134 C 
BRANCH  11  12
HETATM   12  N2  UNL     1      -6.575  -2.547 -28.134  1.00  0.00    -0.297 N 
ATOM     13  H2  UNL     1      -6.850  -3.370 -27.598  1.00  0.00     0.174 HD
BRANCH  12  14
HETATM   14  S1  UNL     1      -5.272  -2.527 -29.278  1.00  0.00     0.362 S 
HETATM   15  O5  UNL     1      -4.071  -3.258 -28.817  1.00  0.00    -0.175 OA
HETATM   16  O6  UNL     1      -5.815  -3.104 -30.541  1.00  0.00    -0.175 OA
BRANCH  14  17
HETATM   17  O4  UNL     1      -4.831  -0.879 -29.504  1.00  0.00    -0.216 OA
BRANCH  17  18
HETATM   18  C9  UNL     1      -5.019  -0.321 -30.760  1.00  0.00     0.108 A 
HETATM   19  C3  UNL     1      -4.033  -0.335 -31.714  1.00  0.00     0.074 A 
HETATM   20  C4  UNL     1      -4.319   0.250 -32.949  1.00  0.00     0.021 A 
HETATM   21  C5  UNL     1      -5.560   0.810 -33.162  1.00  0.00     0.018 A 
HETATM   22  C6  UNL     1      -6.545   0.822 -32.205  1.00  0.00     0.032 A 
HETATM   23  C8  UNL     1      -6.277   0.248 -30.976  1.00  0.00     0.056 A 
BRANCH  19  24
HETATM   24  C2  UNL     1      -2.715  -0.874 -31.464  1.00  0.00     0.295 C 
HETATM   25  O2  UNL     1      -2.471  -2.088 -31.562  1.00  0.00    -0.259 OA
BRANCH  24  26
HETATM   26  O1  UNL     1      -1.644  -0.055 -31.100  1.00  0.00    -0.322 OA
HETATM   27  C1  UNL     1      -0.322  -0.545 -30.961  1.00  0.00     0.213 C 
ENDBRANCH  24  26
ENDBRANCH  19  24
BRANCH  22  28
HETATM   28  C7  UNL     1      -7.844   1.432 -32.480  1.00  0.00     0.265 C 
HETATM   29  N1  UNL     1      -8.644   1.972 -31.443  1.00  0.00    -0.057 NA
HETATM   30  O3  UNL     1      -8.248   1.469 -33.693  1.00  0.00    -0.271 OA
ENDBRANCH  22  28
ENDBRANCH  17  18
ENDBRANCH  14  17
ENDBRANCH  12  14
ENDBRANCH  11  12
ENDBRANCH  10  11
ENDBRANCH   9  10
ENDBRANCH   8   9
ENDBRANCH   7   8
ENDBRANCH   1   7
BRANCH   6  31
HETATM   31  C20 UNL     1      -8.753  -2.670 -24.595  1.00  0.00     0.048 C 
BRANCH  31  32
HETATM   32  C21 UNL     1      -8.733  -1.338 -24.760  1.00  0.00     0.007 A 
HETATM   33  C22 UNL     1      -9.780  -0.472 -24.925  1.00  0.00     0.020 A 
HETATM   34  C23 UNL     1      -9.495   0.823 -25.071  1.00  0.00     0.020 A 
HETATM   35  C24 UNL     1      -8.181   1.198 -25.046  1.00  0.00     0.007 A 
HETATM   36  S3  UNL     1      -7.378  -0.305 -24.815  1.00  0.00    -0.090 SA
BRANCH  35  37
HETATM   37  C25 UNL     1      -7.633   2.419 -25.172  1.00  0.00     0.037 C 
BRANCH  37  38
HETATM   38  C26 UNL     1      -7.305   2.941 -26.483  1.00  0.00     0.007 A 
HETATM   39  C27 UNL     1      -7.950   3.835 -27.286  1.00  0.00     0.020 A 
HETATM   40  C28 UNL     1      -7.397   4.140 -28.465  1.00  0.00     0.021 A 
HETATM   41  C29 UNL     1      -6.211   3.527 -28.783  1.00  0.00     0.015 A 
HETATM   42  S2  UNL     1      -5.918   2.547 -27.418  1.00  0.00    -0.090 SA
BRANCH  41  43
HETATM   43  C30 UNL     1      -5.397   3.675 -29.984  1.00  0.00    -0.019 A 
HETATM   44  C31 UNL     1      -5.892   4.321 -31.095  1.00  0.00     0.013 A 
HETATM   45  C32 UNL     1      -5.150   4.475 -32.251  1.00  0.00     0.001 A 
HETATM   46  C33 UNL     1      -3.866   3.977 -32.333  1.00  0.00     0.000 A 
HETATM   47  C34 UNL     1      -3.357   3.327 -31.232  1.00  0.00     0.001 A 
HETATM   48  C35 UNL     1      -4.118   3.179 -30.066  1.00  0.00     0.013 A 
ENDBRANCH  41  43
ENDBRANCH  37  38
ENDBRANCH  35  37
ENDBRANCH  31  32
ENDBRANCH   6  31
TORSDOF 17
ENDMDL
MODEL 5
REMARK VINA RESULT: -7.812490450      3.977      8.414
REMARK  17 active torsions:
REMARK  status: ('A' for Active; 'I' for Inactive)
REMARK    1  A    between atoms: O1_2  and  C2_3 
REMARK    2  A    between atoms: C2_3  and  C3_5 
REMARK    3  A    between atoms: C6_8  and  C7_9 
REMARK    4  A    between atoms: C9_13  and  O4_14 
REMARK    5  A    between atoms: O4_14  and  S1_15 
REMARK    6  A    between atoms: S1_15  and  N2_18 
REMARK    7  A    between atoms: N2_18  and  C10_20 
REMARK    8  A    between atoms: C10_20  and  C11_21 
REMARK    9  A    between atoms: C11_21  and  C12_22 
REMARK   10  A    between atoms: C12_22  and  C13_23 
REMARK   11  A    between atoms: C13_23  and  C14_24 
REMARK   12  A    between atoms: C14_24  and  N3_25 
REMARK   13  A    between atoms: C19_30  and  C20_31 
REMARK   14  A    between atoms: C20_31  and  C21_32 
REMARK   15  A    between atoms: C24_35  and  C25_36 
REMARK   16  A    between atoms: C25_36  and  C26_37 
REMARK   17  A    between atoms: C29_40  and  C30_41 
ROOT
HETATM    1  N3  UNL     1      -8.717   2.110 -31.019  1.00  0.00    -0.357 N 
HETATM    2  C15 UNL     1      -9.874   1.683 -31.542  1.00  0.00     0.091 A 
HETATM    3  C16 UNL     1     -11.059   2.363 -31.419  1.00  0.00     0.017 A 
HETATM    4  C17 UNL     1     -11.072   3.546 -30.724  1.00  0.00     0.004 A 
HETATM    5  C18 UNL     1      -9.895   4.006 -30.176  1.00  0.00     0.029 A 
HETATM    6  C19 UNL     1      -8.727   3.282 -30.329  1.00  0.00     0.035 A 
ENDROOT
BRANCH   1   7
HETATM    7  C14 UNL     1      -7.456   1.405 -31.159  1.00  0.00     0.128 C 
BRANCH   7   8
HETATM    8  C13 UNL     1      -7.448   0.576 -32.437  1.00  0.00     0.020 C 
BRANCH   8   9
HETATM    9  C12 UNL     1      -7.277  -0.901 -32.151  1.00  0.00     0.003 C 
BRANCH   9  10
HETATM   10  C11 UNL     1      -5.862  -1.342 -32.391  1.00  0.00     0.020 C 
BRANCH  10  11
HETATM   11  C10 UNL     1      -5.751  -2.784 -32.758  1.00  0.00     0.134 C 
BRANCH  11  12
HETATM   12  N2  UNL     1      -4.570  -3.406 -32.182  1.00  0.00    -0.297 N 
ATOM     13  H2  UNL     1      -3.634  -3.003 -32.228  1.00  0.00     0.174 HD
BRANCH  12  14
HETATM   14  S1  UNL     1      -4.938  -4.911 -31.405  1.00  0.00     0.362 S 
HETATM   15  O5  UNL     1      -6.252  -5.470 -31.792  1.00  0.00    -0.175 OA
HETATM   16  O6  UNL     1      -3.825  -5.842 -31.746  1.00  0.00    -0.175 OA
BRANCH  14  17
HETATM   17  O4  UNL     1      -4.976  -4.605 -29.712  1.00  0.00    -0.216 OA
BRANCH  17  18
HETATM   18  C9  UNL     1      -5.390  -3.352 -29.285  1.00  0.00     0.108 A 
HETATM   19  C3  UNL     1      -4.495  -2.352 -29.001  1.00  0.00     0.074 A 
HETATM   20  C4  UNL     1      -5.009  -1.123 -28.581  1.00  0.00     0.021 A 
HETATM   21  C5  UNL     1      -6.373  -0.962 -28.470  1.00  0.00     0.018 A 
HETATM   22  C6  UNL     1      -7.266  -1.966 -28.756  1.00  0.00     0.032 A 
HETATM   23  C8  UNL     1      -6.773  -3.188 -29.172  1.00  0.00     0.056 A 
BRANCH  19  24
HETATM   24  C2  UNL     1      -3.064  -2.545 -29.066  1.00  0.00     0.295 C 
HETATM   25  O2  UNL     1      -2.420  -3.017 -28.116  1.00  0.00    -0.259 OA
BRANCH  24  26
HETATM   26  O1  UNL     1      -2.328  -2.209 -30.205  1.00  0.00    -0.322 OA
HETATM   27  C1  UNL     1      -1.275  -3.016 -30.698  1.00  0.00     0.213 C 
ENDBRANCH  24  26
ENDBRANCH  19  24
BRANCH  22  28
HETATM   28  C7  UNL     1      -8.704  -1.746 -28.618  1.00  0.00     0.265 C 
HETATM   29  N1  UNL     1      -9.251  -0.441 -28.547  1.00  0.00    -0.057 NA
HETATM   30  O3  UNL     1      -9.468  -2.770 -28.562  1.00  0.00    -0.271 OA
ENDBRANCH  22  28
ENDBRANCH  17  18
ENDBRANCH  14  17
ENDBRANCH  12  14
ENDBRANCH  11  12
ENDBRANCH  10  11
ENDBRANCH   9  10
ENDBRANCH   8   9
ENDBRANCH   7   8
ENDBRANCH   1   7
BRANCH   6  31
HETATM   31  C20 UNL     1      -7.498   3.765 -29.738  1.00  0.00     0.048 C 
BRANCH  31  32
HETATM   32  C21 UNL     1      -7.128   3.181 -28.588  1.00  0.00     0.007 A 
HETATM   33  C22 UNL     1      -5.871   2.898 -28.128  1.00  0.00     0.020 A 
HETATM   34  C23 UNL     1      -5.766   2.306 -26.937  1.00  0.00     0.020 A 
HETATM   35  C24 UNL     1      -6.917   2.021 -26.258  1.00  0.00     0.007 A 
HETATM   36  S3  UNL     1      -8.128   2.605 -27.332  1.00  0.00    -0.090 SA
BRANCH  35  37
HETATM   37  C25 UNL     1      -7.086   1.433 -25.060  1.00  0.00     0.037 C 
BRANCH  37  38
HETATM   38  C26 UNL     1      -7.699   0.123 -24.969  1.00  0.00     0.007 A 
HETATM   39  C27 UNL     1      -7.162  -1.129 -25.021  1.00  0.00     0.020 A 
HETATM   40  C28 UNL     1      -7.986  -2.175 -24.899  1.00  0.00     0.021 A 
HETATM   41  C29 UNL     1      -9.322  -1.910 -24.728  1.00  0.00     0.015 A 
HETATM   42  S2  UNL     1      -9.371  -0.205 -24.747  1.00  0.00    -0.090 SA
BRANCH  41  43
HETATM   43  C30 UNL     1     -10.429  -2.847 -24.567  1.00  0.00    -0.019 A 
HETATM   44  C31 UNL     1     -10.799  -3.682 -25.597  1.00  0.00     0.013 A 
HETATM   45  C32 UNL     1     -11.845  -4.578 -25.481  1.00  0.00     0.001 A 
HETATM   46  C33 UNL     1     -12.566  -4.667 -24.308  1.00  0.00     0.000 A 
HETATM   47  C34 UNL     1     -12.210  -3.838 -23.269  1.00  0.00     0.001 A 
HETATM   48  C35 UNL     1     -11.147  -2.935 -23.399  1.00  0.00     0.013 A 
ENDBRANCH  41  43
ENDBRANCH  37  38
ENDBRANCH  35  37
ENDBRANCH  31  32
ENDBRANCH   6  31
TORSDOF 17
ENDMDL
