MODEL 1
REMARK VINA RESULT: -8.148255115      0.000      0.000
REMARK  15 active torsions:
REMARK  status: ('A' for Active; 'I' for Inactive)
REMARK    1  A    between atoms: S1_2  and  C2_5 
REMARK    2  A    between atoms: C2_5  and  C3_6 
REMARK    3  A    between atoms: C3_6  and  C4_7 
REMARK    4  A    between atoms: C4_7  and  C5_8 
REMARK    5  A    between atoms: C5_8  and  C6_9 
REMARK    6  A    between atoms: C6_9  and  N1_10 
REMARK       I    between atoms: N1_10  and  C7_12 
REMARK    7  A    between atoms: C7_12  and  C8_14 
REMARK    8  A    between atoms: C8_14  and  C9_15 
REMARK    9  A    between atoms: C8_14  and  N2_22 
REMARK   10  A    between atoms: C9_15  and  C10_16 
REMARK   11  A    between atoms: N2_22  and  S2_24 
REMARK   12  A    between atoms: S2_24  and  C16_27 
REMARK   13  A    between atoms: C20_31  and  C21_32 
REMARK   14  A    between atoms: C25_36  and  C26_37 
REMARK   15  A    between atoms: C31_42  and  S3_43 
ROOT
HETATM    1  S2  UNL     1      -8.085  -0.282 -28.572  1.00  0.00     0.275 S 
HETATM    2  O4  UNL     1      -8.710  -0.570 -29.916  1.00  0.00    -0.199 OA
HETATM    3  O5  UNL     1      -6.837  -1.088 -28.408  1.00  0.00    -0.199 OA
ENDROOT
BRANCH   1   4
HETATM    4  N2  UNL     1      -9.225  -0.818 -27.384  1.00  0.00    -0.300 N 
ATOM      5  H2  UNL     1     -10.222  -0.598 -27.378  1.00  0.00     0.173 HD
BRANCH   4   6
HETATM    6  C8  UNL     1      -8.527  -1.641 -26.387  1.00  0.00     0.189 C 
BRANCH   6   7
HETATM    7  C7  UNL     1      -9.144  -3.006 -26.347  1.00  0.00     0.241 C 
HETATM    8  N1  UNL     1      -9.244  -3.744 -27.529  1.00  0.00    -0.359 N 
ATOM      9  H1  UNL     1      -8.888  -3.337 -28.393  1.00  0.00     0.162 HD
HETATM   10  O3  UNL     1      -9.558  -3.444 -25.256  1.00  0.00    -0.271 OA
BRANCH   8  11
HETATM   11  C6  UNL     1      -9.829  -5.054 -27.571  1.00  0.00     0.122 C 
BRANCH  11  12
HETATM   12  C5  UNL     1      -9.217  -5.959 -28.589  1.00  0.00     0.020 C 
BRANCH  12  13
HETATM   13  C4  UNL     1      -8.703  -5.204 -29.781  1.00  0.00     0.002 C 
BRANCH  13  14
HETATM   14  C3  UNL     1      -7.203  -5.288 -29.942  1.00  0.00     0.015 C 
BRANCH  14  15
HETATM   15  C2  UNL     1      -6.661  -3.908 -30.349  1.00  0.00     0.140 C 
BRANCH  15  16
HETATM   16  S1  UNL     1      -4.895  -3.949 -30.196  1.00  0.00     0.140 S 
HETATM   17  C1  UNL     1      -4.228  -2.754 -31.318  1.00  0.00     0.161 C 
HETATM   18  O1  UNL     1      -4.437  -5.337 -30.590  1.00  0.00    -0.228 OA
HETATM   19  O2  UNL     1      -4.511  -3.694 -28.780  1.00  0.00    -0.228 OA
ENDBRANCH  15  16
ENDBRANCH  14  15
ENDBRANCH  13  14
ENDBRANCH  12  13
ENDBRANCH  11  12
ENDBRANCH   8  11
ENDBRANCH   6   7
BRANCH   6  20
HETATM   20  C9  UNL     1      -8.584  -1.006 -25.045  1.00  0.00     0.074 C 
BRANCH  20  21
HETATM   21  C10 UNL     1      -7.517  -0.012 -24.872  1.00  0.00    -0.056 A 
HETATM   22  C11 UNL     1      -7.795   1.300 -24.493  1.00  0.00     0.007 A 
HETATM   23  C12 UNL     1      -6.761   2.215 -24.303  1.00  0.00     0.001 A 
HETATM   24  C13 UNL     1      -5.458   1.811 -24.496  1.00  0.00     0.000 A 
HETATM   25  C14 UNL     1      -5.154   0.509 -24.874  1.00  0.00     0.001 A 
HETATM   26  C15 UNL     1      -6.206  -0.344 -25.045  1.00  0.00     0.007 A 
ENDBRANCH  20  21
ENDBRANCH   6  20
ENDBRANCH   4   6
ENDBRANCH   1   4
BRANCH   1  27
HETATM   27  C16 UNL     1      -7.786   1.430 -28.405  1.00  0.00     0.149 A 
HETATM   28  C17 UNL     1      -6.531   1.884 -28.039  1.00  0.00     0.044 A 
HETATM   29  C18 UNL     1      -6.295   3.231 -27.893  1.00  0.00     0.005 A 
HETATM   30  C19 UNL     1      -7.361   4.109 -28.127  1.00  0.00     0.030 A 
HETATM   31  C20 UNL     1      -8.605   3.642 -28.492  1.00  0.00     0.043 A 
HETATM   32  N3  UNL     1      -8.750   2.305 -28.613  1.00  0.00    -0.345 N 
ATOM     33  H3  UNL     1      -9.667   1.947 -28.883  1.00  0.00     0.167 HD
BRANCH  31  34
HETATM   34  C21 UNL     1      -9.710   4.553 -28.752  1.00  0.00    -0.009 A 
HETATM   35  C22 UNL     1     -10.656   4.193 -29.707  1.00  0.00     0.014 A 
HETATM   36  C23 UNL     1     -11.723   5.013 -30.000  1.00  0.00     0.002 A 
HETATM   37  C24 UNL     1     -11.908   6.221 -29.367  1.00  0.00     0.012 A 
HETATM   38  C25 UNL     1     -10.983   6.595 -28.418  1.00  0.00    -0.024 A 
HETATM   39  C33 UNL     1      -9.909   5.758 -28.133  1.00  0.00     0.026 A 
BRANCH  38  40
HETATM   40  C26 UNL     1     -11.060   7.860 -27.718  1.00  0.00    -0.004 A 
HETATM   41  C27 UNL     1     -11.563   7.862 -26.399  1.00  0.00     0.014 A 
HETATM   42  C28 UNL     1     -11.712   9.032 -25.690  1.00  0.00     0.001 A 
HETATM   43  C29 UNL     1     -11.354  10.221 -26.302  1.00  0.00     0.002 A 
HETATM   44  C30 UNL     1     -10.862  10.215 -27.589  1.00  0.00     0.024 A 
HETATM   45  C31 UNL     1     -10.707   9.025 -28.319  1.00  0.00     0.070 A 
BRANCH  45  46
HETATM   46  S3  UNL     1     -10.016   9.079 -29.895  1.00  0.00     0.172 S 
HETATM   47  C32 UNL     1      -8.434   8.214 -29.938  1.00  0.00     0.167 C 
HETATM   48  O6  UNL     1      -9.620  10.543 -30.168  1.00  0.00    -0.223 OA
HETATM   49  O7  UNL     1     -10.896   8.703 -31.019  1.00  0.00    -0.223 OA
ENDBRANCH  45  46
ENDBRANCH  38  40
ENDBRANCH  31  34
ENDBRANCH   1  27
TORSDOF 15
ENDMDL
MODEL 2
REMARK VINA RESULT: -8.130509961      2.529      4.422
REMARK  15 active torsions:
REMARK  status: ('A' for Active; 'I' for Inactive)
REMARK    1  A    between atoms: S1_2  and  C2_5 
REMARK    2  A    between atoms: C2_5  and  C3_6 
REMARK    3  A    between atoms: C3_6  and  C4_7 
REMARK    4  A    between atoms: C4_7  and  C5_8 
REMARK    5  A    between atoms: C5_8  and  C6_9 
REMARK    6  A    between atoms: C6_9  and  N1_10 
REMARK       I    between atoms: N1_10  and  C7_12 
REMARK    7  A    between atoms: C7_12  and  C8_14 
REMARK    8  A    between atoms: C8_14  and  C9_15 
REMARK    9  A    between atoms: C8_14  and  N2_22 
REMARK   10  A    between atoms: C9_15  and  C10_16 
REMARK   11  A    between atoms: N2_22  and  S2_24 
REMARK   12  A    between atoms: S2_24  and  C16_27 
REMARK   13  A    between atoms: C20_31  and  C21_32 
REMARK   14  A    between atoms: C25_36  and  C26_37 
REMARK   15  A    between atoms: C31_42  and  S3_43 
ROOT
HETATM    1  S2  UNL     1      -7.426  -1.349 -26.226  1.00  0.00     0.275 S 
HETATM    2  O4  UNL     1      -6.180  -1.703 -27.002  1.00  0.00    -0.199 OA
HETATM    3  O5  UNL     1      -7.567  -2.258 -25.048  1.00  0.00    -0.199 OA
ENDROOT
BRANCH   1   4
HETATM    4  N2  UNL     1      -8.759  -1.646 -27.290  1.00  0.00    -0.300 N 
ATOM      5  H2  UNL     1      -9.129  -0.986 -27.974  1.00  0.00     0.173 HD
BRANCH   4   6
HETATM    6  C8  UNL     1      -9.273  -3.001 -27.048  1.00  0.00     0.189 C 
BRANCH   6   7
HETATM    7  C7  UNL     1      -8.810  -3.913 -28.143  1.00  0.00     0.241 C 
HETATM    8  N1  UNL     1      -7.716  -3.536 -28.926  1.00  0.00    -0.359 N 
ATOM      9  H1  UNL     1      -7.252  -2.650 -28.730  1.00  0.00     0.162 HD
HETATM   10  O3  UNL     1      -9.420  -4.983 -28.329  1.00  0.00    -0.271 OA
BRANCH   8  11
HETATM   11  C6  UNL     1      -7.220  -4.352 -29.998  1.00  0.00     0.122 C 
BRANCH  11  12
HETATM   12  C5  UNL     1      -7.256  -3.685 -31.334  1.00  0.00     0.020 C 
BRANCH  12  13
HETATM   13  C4  UNL     1      -8.651  -3.316 -31.744  1.00  0.00     0.002 C 
BRANCH  13  14
HETATM   14  C3  UNL     1      -8.807  -1.854 -32.091  1.00  0.00     0.015 C 
BRANCH  14  15
HETATM   15  C2  UNL     1      -9.585  -1.149 -30.967  1.00  0.00     0.140 C 
BRANCH  15  16
HETATM   16  S1  UNL     1      -8.532   0.097 -30.274  1.00  0.00     0.140 S 
HETATM   17  C1  UNL     1      -8.193   1.284 -31.542  1.00  0.00     0.161 C 
HETATM   18  O1  UNL     1      -7.249  -0.579 -29.844  1.00  0.00    -0.228 OA
HETATM   19  O2  UNL     1      -9.190   0.697 -29.079  1.00  0.00    -0.228 OA
ENDBRANCH  15  16
ENDBRANCH  14  15
ENDBRANCH  13  14
ENDBRANCH  12  13
ENDBRANCH  11  12
ENDBRANCH   8  11
ENDBRANCH   6   7
BRANCH   6  20
HETATM   20  C9  UNL     1     -10.756  -2.998 -26.968  1.00  0.00     0.074 C 
BRANCH  20  21
HETATM   21  C10 UNL     1     -11.224  -3.276 -25.604  1.00  0.00    -0.056 A 
HETATM   22  C11 UNL     1     -12.025  -4.380 -25.316  1.00  0.00     0.007 A 
HETATM   23  C12 UNL     1     -12.428  -4.640 -24.008  1.00  0.00     0.001 A 
HETATM   24  C13 UNL     1     -12.028  -3.793 -22.997  1.00  0.00     0.000 A 
HETATM   25  C14 UNL     1     -11.229  -2.685 -23.257  1.00  0.00     0.001 A 
HETATM   26  C15 UNL     1     -10.864  -2.480 -24.556  1.00  0.00     0.007 A 
ENDBRANCH  20  21
ENDBRANCH   6  20
ENDBRANCH   4   6
ENDBRANCH   1   4
BRANCH   1  27
HETATM   27  C16 UNL     1      -7.380   0.332 -25.755  1.00  0.00     0.149 A 
HETATM   28  C17 UNL     1      -7.017   0.684 -24.466  1.00  0.00     0.044 A 
HETATM   29  C18 UNL     1      -6.994   2.006 -24.088  1.00  0.00     0.005 A 
HETATM   30  C19 UNL     1      -7.346   2.965 -25.046  1.00  0.00     0.030 A 
HETATM   31  C20 UNL     1      -7.704   2.599 -26.326  1.00  0.00     0.043 A 
HETATM   32  N3  UNL     1      -7.701   1.280 -26.613  1.00  0.00    -0.345 N 
ATOM     33  H3  UNL     1      -7.965   0.997 -27.558  1.00  0.00     0.167 HD
BRANCH  31  34
HETATM   34  C21 UNL     1      -8.055   3.595 -27.328  1.00  0.00    -0.009 A 
HETATM   35  C22 UNL     1      -7.114   3.916 -28.302  1.00  0.00     0.014 A 
HETATM   36  C23 UNL     1      -7.385   4.851 -29.276  1.00  0.00     0.002 A 
HETATM   37  C24 UNL     1      -8.592   5.510 -29.336  1.00  0.00     0.012 A 
HETATM   38  C25 UNL     1      -9.537   5.206 -28.382  1.00  0.00    -0.024 A 
HETATM   39  C33 UNL     1      -9.250   4.261 -27.403  1.00  0.00     0.026 A 
BRANCH  38  40
HETATM   40  C26 UNL     1     -10.825   5.865 -28.330  1.00  0.00    -0.004 A 
HETATM   41  C27 UNL     1     -11.052   6.803 -27.301  1.00  0.00     0.014 A 
HETATM   42  C28 UNL     1     -12.268   7.433 -27.160  1.00  0.00     0.001 A 
HETATM   43  C29 UNL     1     -13.275   7.124 -28.058  1.00  0.00     0.002 A 
HETATM   44  C30 UNL     1     -13.049   6.209 -29.062  1.00  0.00     0.024 A 
HETATM   45  C31 UNL     1     -11.812   5.563 -29.213  1.00  0.00     0.070 A 
BRANCH  45  46
HETATM   46  S3  UNL     1     -11.571   4.485 -30.534  1.00  0.00     0.172 S 
HETATM   47  C32 UNL     1     -10.755   5.319 -31.909  1.00  0.00     0.167 C 
HETATM   48  O6  UNL     1     -12.962   4.149 -31.106  1.00  0.00    -0.223 OA
HETATM   49  O7  UNL     1     -10.958   3.179 -30.222  1.00  0.00    -0.223 OA
ENDBRANCH  45  46
ENDBRANCH  38  40
ENDBRANCH  31  34
ENDBRANCH   1  27
TORSDOF 15
ENDMDL
MODEL 3
REMARK VINA RESULT: -8.073460349      5.179      8.870
REMARK  15 active torsions:
REMARK  status: ('A' for Active; 'I' for Inactive)
REMARK    1  A    between atoms: S1_2  and  C2_5 
REMARK    2  A    between atoms: C2_5  and  C3_6 
REMARK    3  A    between atoms: C3_6  and  C4_7 
REMARK    4  A    between atoms: C4_7  and  C5_8 
REMARK    5  A    between atoms: C5_8  and  C6_9 
REMARK    6  A    between atoms: C6_9  and  N1_10 
REMARK       I    between atoms: N1_10  and  C7_12 
REMARK    7  A    between atoms: C7_12  and  C8_14 
REMARK    8  A    between atoms: C8_14  and  C9_15 
REMARK    9  A    between atoms: C8_14  and  N2_22 
REMARK   10  A    between atoms: C9_15  and  C10_16 
REMARK   11  A    between atoms: N2_22  and  S2_24 
REMARK   12  A    between atoms: S2_24  and  C16_27 
REMARK   13  A    between atoms: C20_31  and  C21_32 
REMARK   14  A    between atoms: C25_36  and  C26_37 
REMARK   15  A    between atoms: C31_42  and  S3_43 
ROOT
HETATM    1  S2  UNL     1      -9.428  -1.222 -28.414  1.00  0.00     0.275 S 
HETATM    2  O4  UNL     1     -10.328  -0.503 -29.391  1.00  0.00    -0.199 OA
HETATM    3  O5  UNL     1      -9.562  -2.700 -28.594  1.00  0.00    -0.199 OA
ENDROOT
BRANCH   1   4
HETATM    4  N2  UNL     1     -10.013  -0.822 -26.834  1.00  0.00    -0.300 N 
ATOM      5  H2  UNL     1     -10.869  -0.306 -26.633  1.00  0.00     0.173 HD
BRANCH   4   6
HETATM    6  C8  UNL     1      -9.077  -1.348 -25.830  1.00  0.00     0.189 C 
BRANCH   6   7
HETATM    7  C7  UNL     1      -9.558  -2.684 -25.352  1.00  0.00     0.241 C 
HETATM    8  N1  UNL     1     -10.826  -3.129 -25.734  1.00  0.00    -0.359 N 
ATOM      9  H1  UNL     1     -11.394  -2.535 -26.336  1.00  0.00     0.162 HD
HETATM   10  O3  UNL     1      -8.812  -3.361 -24.619  1.00  0.00    -0.271 OA
BRANCH   8  11
HETATM   11  C6  UNL     1     -11.358  -4.393 -25.309  1.00  0.00     0.122 C 
BRANCH  11  12
HETATM   12  C5  UNL     1     -11.599  -5.355 -26.426  1.00  0.00     0.020 C 
BRANCH  12  13
HETATM   13  C4  UNL     1     -10.330  -5.722 -27.140  1.00  0.00     0.002 C 
BRANCH  13  14
HETATM   14  C3  UNL     1     -10.319  -7.144 -27.649  1.00  0.00     0.015 C 
BRANCH  14  15
HETATM   15  C2  UNL     1      -9.309  -7.260 -28.803  1.00  0.00     0.140 C 
BRANCH  15  16
HETATM   16  S1  UNL     1      -9.020  -8.983 -29.103  1.00  0.00     0.140 S 
HETATM   17  C1  UNL     1      -8.880  -9.211 -30.852  1.00  0.00     0.161 C 
HETATM   18  O1  UNL     1     -10.218  -9.744 -28.578  1.00  0.00    -0.228 OA
HETATM   19  O2  UNL     1      -7.804  -9.421 -28.362  1.00  0.00    -0.228 OA
ENDBRANCH  15  16
ENDBRANCH  14  15
ENDBRANCH  13  14
ENDBRANCH  12  13
ENDBRANCH  11  12
ENDBRANCH   8  11
ENDBRANCH   6   7
BRANCH   6  20
HETATM   20  C9  UNL     1      -8.942  -0.406 -24.689  1.00  0.00     0.074 C 
BRANCH  20  21
HETATM   21  C10 UNL     1      -7.645   0.282 -24.708  1.00  0.00    -0.056 A 
HETATM   22  C11 UNL     1      -7.546   1.661 -24.529  1.00  0.00     0.007 A 
HETATM   23  C12 UNL     1      -6.300   2.284 -24.517  1.00  0.00     0.001 A 
HETATM   24  C13 UNL     1      -5.163   1.525 -24.686  1.00  0.00     0.000 A 
HETATM   25  C14 UNL     1      -5.234   0.149 -24.866  1.00  0.00     0.001 A 
HETATM   26  C15 UNL     1      -6.480  -0.409 -24.869  1.00  0.00     0.007 A 
ENDBRANCH  20  21
ENDBRANCH   6  20
ENDBRANCH   4   6
ENDBRANCH   1   4
BRANCH   1  27
HETATM   27  C16 UNL     1      -7.779  -0.684 -28.612  1.00  0.00     0.149 A 
HETATM   28  C17 UNL     1      -7.421   0.605 -28.253  1.00  0.00     0.044 A 
HETATM   29  C18 UNL     1      -6.126   1.037 -28.419  1.00  0.00     0.005 A 
HETATM   30  C19 UNL     1      -5.201   0.134 -28.958  1.00  0.00     0.030 A 
HETATM   31  C20 UNL     1      -5.572  -1.146 -29.310  1.00  0.00     0.043 A 
HETATM   32  N3  UNL     1      -6.864  -1.488 -29.113  1.00  0.00    -0.345 N 
ATOM     33  H3  UNL     1      -7.151  -2.434 -29.369  1.00  0.00     0.167 HD
BRANCH  31  34
HETATM   34  C21 UNL     1      -4.609  -2.092 -29.854  1.00  0.00    -0.009 A 
HETATM   35  C22 UNL     1      -5.085  -3.174 -30.589  1.00  0.00     0.014 A 
HETATM   36  C23 UNL     1      -4.224  -4.105 -31.127  1.00  0.00     0.002 A 
HETATM   37  C24 UNL     1      -2.860  -4.012 -30.971  1.00  0.00     0.012 A 
HETATM   38  C25 UNL     1      -2.370  -2.946 -30.248  1.00  0.00    -0.024 A 
HETATM   39  C33 UNL     1      -3.250  -2.015 -29.707  1.00  0.00     0.026 A 
BRANCH  38  40
HETATM   40  C26 UNL     1      -0.956  -2.772 -29.991  1.00  0.00    -0.004 A 
HETATM   41  C27 UNL     1      -0.429  -3.289 -28.788  1.00  0.00     0.014 A 
HETATM   42  C28 UNL     1       0.896  -3.118 -28.454  1.00  0.00     0.001 A 
HETATM   43  C29 UNL     1       1.710  -2.421 -29.329  1.00  0.00     0.002 A 
HETATM   44  C30 UNL     1       1.192  -1.919 -30.503  1.00  0.00     0.024 A 
HETATM   45  C31 UNL     1      -0.158  -2.089 -30.852  1.00  0.00     0.070 A 
BRANCH  45  46
HETATM   46  S3  UNL     1      -0.724  -1.502 -32.368  1.00  0.00     0.172 S 
HETATM   47  C32 UNL     1      -0.833  -2.834 -33.578  1.00  0.00     0.167 C 
HETATM   48  O6  UNL     1       0.380  -0.595 -32.945  1.00  0.00    -0.223 OA
HETATM   49  O7  UNL     1      -1.938  -0.662 -32.343  1.00  0.00    -0.223 OA
ENDBRANCH  45  46
ENDBRANCH  38  40
ENDBRANCH  31  34
ENDBRANCH   1  27
TORSDOF 15
ENDMDL
MODEL 4
REMARK VINA RESULT: -7.962229621      1.883      2.417
REMARK  15 active torsions:
REMARK  status: ('A' for Active; 'I' for Inactive)
REMARK    1  A    between atoms: S1_2  and  C2_5 
REMARK    2  A    between atoms: C2_5  and  C3_6 
REMARK    3  A    between atoms: C3_6  and  C4_7 
REMARK    4  A    between atoms: C4_7  and  C5_8 
REMARK    5  A    between atoms: C5_8  and  C6_9 
REMARK    6  A    between atoms: C6_9  and  N1_10 
REMARK       I    between atoms: N1_10  and  C7_12 
REMARK    7  A    between atoms: C7_12  and  C8_14 
REMARK    8  A    between atoms: C8_14  and  C9_15 
REMARK    9  A    between atoms: C8_14  and  N2_22 
REMARK   10  A    between atoms: C9_15  and  C10_16 
REMARK   11  A    between atoms: N2_22  and  S2_24 
REMARK   12  A    between atoms: S2_24  and  C16_27 
REMARK   13  A    between atoms: C20_31  and  C21_32 
REMARK   14  A    between atoms: C25_36  and  C26_37 
REMARK   15  A    between atoms: C31_42  and  S3_43 
ROOT
HETATM    1  S2  UNL     1      -8.652  -0.315 -28.567  1.00  0.00     0.275 S 
HETATM    2  O4  UNL     1      -9.754  -0.358 -29.599  1.00  0.00    -0.199 OA
HETATM    3  O5  UNL     1      -7.656  -1.395 -28.843  1.00  0.00    -0.199 OA
ENDROOT
BRANCH   1   4
HETATM    4  N2  UNL     1      -9.402  -0.658 -27.045  1.00  0.00    -0.300 N 
ATOM      5  H2  UNL     1     -10.276  -0.252 -26.710  1.00  0.00     0.173 HD
BRANCH   4   6
HETATM    6  C8  UNL     1      -8.576  -1.628 -26.312  1.00  0.00     0.189 C 
BRANCH   6   7
HETATM    7  C7  UNL     1      -9.226  -2.977 -26.367  1.00  0.00     0.241 C 
HETATM    8  N1  UNL     1      -9.134  -3.731 -27.539  1.00  0.00    -0.359 N 
ATOM      9  H1  UNL     1      -8.619  -3.347 -28.331  1.00  0.00     0.162 HD
HETATM   10  O3  UNL     1      -9.837  -3.388 -25.362  1.00  0.00    -0.271 OA
BRANCH   8  11
HETATM   11  C6  UNL     1      -9.736  -5.027 -27.669  1.00  0.00     0.122 C 
BRANCH  11  12
HETATM   12  C5  UNL     1      -9.180  -5.844 -28.789  1.00  0.00     0.020 C 
BRANCH  12  13
HETATM   13  C4  UNL     1      -8.458  -5.002 -29.800  1.00  0.00     0.002 C 
BRANCH  13  14
HETATM   14  C3  UNL     1      -7.001  -5.370 -29.955  1.00  0.00     0.015 C 
BRANCH  14  15
HETATM   15  C2  UNL     1      -6.348  -4.428 -30.981  1.00  0.00     0.140 C 
BRANCH  15  16
HETATM   16  S1  UNL     1      -4.764  -3.946 -30.347  1.00  0.00     0.140 S 
HETATM   17  C1  UNL     1      -4.334  -2.399 -31.090  1.00  0.00     0.161 C 
HETATM   18  O1  UNL     1      -3.768  -5.009 -30.755  1.00  0.00    -0.228 OA
HETATM   19  O2  UNL     1      -4.821  -3.879 -28.860  1.00  0.00    -0.228 OA
ENDBRANCH  15  16
ENDBRANCH  14  15
ENDBRANCH  13  14
ENDBRANCH  12  13
ENDBRANCH  11  12
ENDBRANCH   8  11
ENDBRANCH   6   7
BRANCH   6  20
HETATM   20  C9  UNL     1      -8.385  -1.201 -24.902  1.00  0.00     0.074 C 
BRANCH  20  21
HETATM   21  C10 UNL     1      -7.379  -0.137 -24.792  1.00  0.00    -0.056 A 
HETATM   22  C11 UNL     1      -7.732   1.174 -24.476  1.00  0.00     0.007 A 
HETATM   23  C12 UNL     1      -6.753   2.158 -24.345  1.00  0.00     0.001 A 
HETATM   24  C13 UNL     1      -5.430   1.823 -24.531  1.00  0.00     0.000 A 
HETATM   25  C14 UNL     1      -5.051   0.523 -24.847  1.00  0.00     0.001 A 
HETATM   26  C15 UNL     1      -6.051  -0.399 -24.963  1.00  0.00     0.007 A 
ENDBRANCH  20  21
ENDBRANCH   6  20
ENDBRANCH   4   6
ENDBRANCH   1   4
BRANCH   1  27
HETATM   27  C16 UNL     1      -7.914   1.267 -28.544  1.00  0.00     0.149 A 
HETATM   28  C17 UNL     1      -6.625   1.427 -28.066  1.00  0.00     0.044 A 
HETATM   29  C18 UNL     1      -6.045   2.674 -28.033  1.00  0.00     0.005 A 
HETATM   30  C19 UNL     1      -6.803   3.757 -28.497  1.00  0.00     0.030 A 
HETATM   31  C20 UNL     1      -8.085   3.582 -28.971  1.00  0.00     0.043 A 
HETATM   32  N3  UNL     1      -8.577   2.325 -28.968  1.00  0.00    -0.345 N 
ATOM     33  H3  UNL     1      -9.526   2.184 -29.317  1.00  0.00     0.167 HD
BRANCH  31  34
HETATM   34  C21 UNL     1      -8.868   4.704 -29.469  1.00  0.00    -0.009 A 
HETATM   35  C22 UNL     1      -8.318   5.507 -30.465  1.00  0.00     0.014 A 
HETATM   36  C23 UNL     1      -9.008   6.584 -30.975  1.00  0.00     0.002 A 
HETATM   37  C24 UNL     1     -10.267   6.918 -30.532  1.00  0.00     0.012 A 
HETATM   38  C25 UNL     1     -10.829   6.135 -29.548  1.00  0.00    -0.024 A 
HETATM   39  C33 UNL     1     -10.121   5.052 -29.039  1.00  0.00     0.026 A 
BRANCH  38  40
HETATM   40  C26 UNL     1     -12.132   6.419 -28.983  1.00  0.00    -0.004 A 
HETATM   41  C27 UNL     1     -12.191   7.158 -27.783  1.00  0.00     0.014 A 
HETATM   42  C28 UNL     1     -13.391   7.423 -27.163  1.00  0.00     0.001 A 
HETATM   43  C29 UNL     1     -14.551   6.945 -27.746  1.00  0.00     0.002 A 
HETATM   44  C30 UNL     1     -14.490   6.225 -28.918  1.00  0.00     0.024 A 
HETATM   45  C31 UNL     1     -13.270   5.951 -29.558  1.00  0.00     0.070 A 
BRANCH  45  46
HETATM   46  S3  UNL     1     -13.268   5.110 -31.060  1.00  0.00     0.172 S 
HETATM   47  C32 UNL     1     -13.177   6.260 -32.445  1.00  0.00     0.167 C 
HETATM   48  O6  UNL     1     -14.662   4.473 -31.226  1.00  0.00    -0.223 OA
HETATM   49  O7  UNL     1     -12.315   3.990 -31.193  1.00  0.00    -0.223 OA
ENDBRANCH  45  46
ENDBRANCH  38  40
ENDBRANCH  31  34
ENDBRANCH   1  27
TORSDOF 15
ENDMDL
MODEL 5
REMARK VINA RESULT: -7.960433945      4.367     10.086
REMARK  15 active torsions:
REMARK  status: ('A' for Active; 'I' for Inactive)
REMARK    1  A    between atoms: S1_2  and  C2_5 
REMARK    2  A    between atoms: C2_5  and  C3_6 
REMARK    3  A    between atoms: C3_6  and  C4_7 
REMARK    4  A    between atoms: C4_7  and  C5_8 
REMARK    5  A    between atoms: C5_8  and  C6_9 
REMARK    6  A    between atoms: C6_9  and  N1_10 
REMARK       I    between atoms: N1_10  and  C7_12 
REMARK    7  A    between atoms: C7_12  and  C8_14 
REMARK    8  A    between atoms: C8_14  and  C9_15 
REMARK    9  A    between atoms: C8_14  and  N2_22 
REMARK   10  A    between atoms: C9_15  and  C10_16 
REMARK   11  A    between atoms: N2_22  and  S2_24 
REMARK   12  A    between atoms: S2_24  and  C16_27 
REMARK   13  A    between atoms: C20_31  and  C21_32 
REMARK   14  A    between atoms: C25_36  and  C26_37 
REMARK   15  A    between atoms: C31_42  and  S3_43 
ROOT
HETATM    1  S2  UNL     1      -8.007  -2.223 -28.318  1.00  0.00     0.275 S 
HETATM    2  O4  UNL     1      -8.853  -0.973 -28.267  1.00  0.00    -0.199 OA
HETATM    3  O5  UNL     1      -8.868  -3.428 -28.118  1.00  0.00    -0.199 OA
ENDROOT
BRANCH   1   4
HETATM    4  N2  UNL     1      -6.914  -2.121 -26.978  1.00  0.00    -0.300 N 
ATOM      5  H2  UNL     1      -5.924  -2.366 -27.002  1.00  0.00     0.173 HD
BRANCH   4   6
HETATM    6  C8  UNL     1      -7.643  -1.625 -25.802  1.00  0.00     0.189 C 
BRANCH   6   7
HETATM    7  C7  UNL     1      -6.889  -0.481 -25.196  1.00  0.00     0.241 C 
HETATM    8  N1  UNL     1      -7.596   0.535 -24.548  1.00  0.00    -0.359 N 
ATOM      9  H1  UNL     1      -8.613   0.471 -24.499  1.00  0.00     0.162 HD
HETATM   10  O3  UNL     1      -5.647  -0.465 -25.291  1.00  0.00    -0.271 OA
BRANCH   8  11
HETATM   11  C6  UNL     1      -6.945   1.666 -23.951  1.00  0.00     0.122 C 
BRANCH  11  12
HETATM   12  C5  UNL     1      -6.955   2.892 -24.805  1.00  0.00     0.020 C 
BRANCH  12  13
HETATM   13  C4  UNL     1      -8.153   2.942 -25.708  1.00  0.00     0.002 C 
BRANCH  13  14
HETATM   14  C3  UNL     1      -7.795   3.024 -27.173  1.00  0.00     0.015 C 
BRANCH  14  15
HETATM   15  C2  UNL     1      -6.274   2.859 -27.331  1.00  0.00     0.140 C 
BRANCH  15  16
HETATM   16  S1  UNL     1      -5.979   1.916 -28.803  1.00  0.00     0.140 S 
HETATM   17  C1  UNL     1      -7.491   1.859 -29.721  1.00  0.00     0.161 C 
HETATM   18  O1  UNL     1      -5.581   0.520 -28.377  1.00  0.00    -0.228 OA
HETATM   19  O2  UNL     1      -4.857   2.528 -29.570  1.00  0.00    -0.228 OA
ENDBRANCH  15  16
ENDBRANCH  14  15
ENDBRANCH  13  14
ENDBRANCH  12  13
ENDBRANCH  11  12
ENDBRANCH   8  11
ENDBRANCH   6   7
BRANCH   6  20
HETATM   20  C9  UNL     1      -7.834  -2.708 -24.804  1.00  0.00     0.074 C 
BRANCH  20  21
HETATM   21  C10 UNL     1      -9.253  -2.894 -24.475  1.00  0.00    -0.056 A 
HETATM   22  C11 UNL     1      -9.667  -3.822 -23.520  1.00  0.00     0.007 A 
HETATM   23  C12 UNL     1     -11.018  -3.954 -23.202  1.00  0.00     0.001 A 
HETATM   24  C13 UNL     1     -11.943  -3.160 -23.842  1.00  0.00     0.000 A 
HETATM   25  C14 UNL     1     -11.557  -2.227 -24.798  1.00  0.00     0.001 A 
HETATM   26  C15 UNL     1     -10.222  -2.140 -25.069  1.00  0.00     0.007 A 
ENDBRANCH  20  21
ENDBRANCH   6  20
ENDBRANCH   4   6
ENDBRANCH   1   4
BRANCH   1  27
HETATM   27  C16 UNL     1      -7.126  -2.289 -29.823  1.00  0.00     0.149 A 
HETATM   28  C17 UNL     1      -7.724  -2.812 -30.957  1.00  0.00     0.044 A 
HETATM   29  C18 UNL     1      -7.028  -2.878 -32.142  1.00  0.00     0.005 A 
HETATM   30  C19 UNL     1      -5.711  -2.401 -32.152  1.00  0.00     0.030 A 
HETATM   31  C20 UNL     1      -5.130  -1.882 -31.016  1.00  0.00     0.043 A 
HETATM   32  N3  UNL     1      -5.883  -1.855 -29.895  1.00  0.00    -0.345 N 
ATOM     33  H3  UNL     1      -5.463  -1.472 -29.048  1.00  0.00     0.167 HD
BRANCH  31  34
HETATM   34  C21 UNL     1      -3.767  -1.371 -31.028  1.00  0.00    -0.009 A 
HETATM   35  C22 UNL     1      -3.559  -0.046 -31.403  1.00  0.00     0.014 A 
HETATM   36  C23 UNL     1      -2.293   0.495 -31.437  1.00  0.00     0.002 A 
HETATM   37  C24 UNL     1      -1.178  -0.239 -31.103  1.00  0.00     0.012 A 
HETATM   38  C25 UNL     1      -1.363  -1.551 -30.727  1.00  0.00    -0.024 A 
HETATM   39  C33 UNL     1      -2.646  -2.086 -30.699  1.00  0.00     0.026 A 
BRANCH  38  40
HETATM   40  C26 UNL     1      -0.257  -2.423 -30.391  1.00  0.00    -0.004 A 
HETATM   41  C27 UNL     1       0.117  -2.530 -29.034  1.00  0.00     0.014 A 
HETATM   42  C28 UNL     1       1.189  -3.302 -28.645  1.00  0.00     0.001 A 
HETATM   43  C29 UNL     1       1.900  -3.978 -29.622  1.00  0.00     0.002 A 
HETATM   44  C30 UNL     1       1.530  -3.872 -30.944  1.00  0.00     0.024 A 
HETATM   45  C31 UNL     1       0.438  -3.087 -31.349  1.00  0.00     0.070 A 
BRANCH  45  46
HETATM   46  S3  UNL     1      -0.017  -3.057 -33.009  1.00  0.00     0.172 S 
HETATM   47  C32 UNL     1      -1.479  -4.073 -33.298  1.00  0.00     0.167 C 
HETATM   48  O6  UNL     1       1.083  -3.797 -33.796  1.00  0.00    -0.223 OA
HETATM   49  O7  UNL     1      -0.118  -1.729 -33.646  1.00  0.00    -0.223 OA
ENDBRANCH  45  46
ENDBRANCH  38  40
ENDBRANCH  31  34
ENDBRANCH   1  27
TORSDOF 15
ENDMDL
