MODEL 1
REMARK VINA RESULT: -7.515688162      0.000      0.000
REMARK  16 active torsions:
REMARK  status: ('A' for Active; 'I' for Inactive)
REMARK    1  A    between atoms: C2_2  and  C4_4 
REMARK    2  A    between atoms: C4_4  and  C5_5 
REMARK    3  A    between atoms: C5_5  and  N1_6 
REMARK    4  A    between atoms: C5_5  and  C20_28 
REMARK       I    between atoms: N1_6  and  C6_8 
REMARK    5  A    between atoms: C6_8  and  C7_10 
REMARK    6  A    between atoms: C14_17  and  C15_18 
REMARK    7  A    between atoms: C20_28  and  C21_30 
REMARK    8  A    between atoms: C21_30  and  C22_31 
REMARK    9  A    between atoms: C22_31  and  C23_32 
REMARK   10  A    between atoms: C22_31  and  C28_37 
REMARK   11  A    between atoms: C23_32  and  C24_33 
REMARK       I    between atoms: C28_37  and  N5_39 
REMARK   12  A    between atoms: N5_39  and  C29_41 
REMARK   13  A    between atoms: C29_41  and  C30_42 
REMARK   14  A    between atoms: C29_41  and  O5_50 
REMARK   15  A    between atoms: C30_42  and  C31_43 
REMARK   16  A    between atoms: O5_50  and  C36_51 
ROOT
HETATM    1  C5  UNL     1      -8.300   0.732 -25.360  1.00  0.00     0.154 C 
ENDROOT
BRANCH   1   2
HETATM    2  C4  UNL     1      -7.600   1.433 -24.238  1.00  0.00     0.037 C 
BRANCH   2   3
HETATM    3  C2  UNL     1      -6.174   1.271 -24.031  1.00  0.00    -0.020 C 
HETATM    4  C1  UNL     1      -5.818  -0.223 -24.193  1.00  0.00     0.009 C 
HETATM    5  C3  UNL     1      -5.198   2.024 -24.825  1.00  0.00     0.009 C 
ENDBRANCH   2   3
ENDBRANCH   1   2
BRANCH   1   6
HETATM    6  N1  UNL     1      -8.176   1.466 -26.642  1.00  0.00    -0.348 N 
HETATM    7  C6  UNL     1      -7.362   0.970 -27.658  1.00  0.00     0.241 C 
HETATM    8  O1  UNL     1      -6.750  -0.131 -27.367  1.00  0.00    -0.271 OA
ATOM      9  H1  UNL     1      -8.688   2.337 -26.781  1.00  0.00     0.163 HD
BRANCH   7  10
HETATM   10  C7  UNL     1      -7.104   1.508 -28.987  1.00  0.00     0.183 C 
HETATM   11  C8  UNL     1      -5.696   2.094 -29.081  1.00  0.00     0.016 C 
HETATM   12  C9  UNL     1      -4.882   1.411 -30.158  1.00  0.00     0.012 C 
HETATM   13  C10 UNL     1      -5.916   3.574 -29.384  1.00  0.00     0.032 C 
HETATM   14  C11 UNL     1      -7.334   3.828 -28.872  1.00  0.00     0.093 C 
HETATM   15  C12 UNL     1      -7.983   4.965 -29.583  1.00  0.00     0.022 C 
HETATM   16  N4  UNL     1      -7.957   2.605 -29.293  1.00  0.00    -0.333 N 
HETATM   17  C13 UNL     1      -8.654   5.941 -28.660  1.00  0.00     0.013 C 
HETATM   18  C14 UNL     1      -9.037   4.327 -30.455  1.00  0.00     0.119 C 
HETATM   19  C19 UNL     1      -9.220   3.004 -29.881  1.00  0.00     0.230 C 
HETATM   20  O2  UNL     1     -10.206   2.211 -29.813  1.00  0.00    -0.273 OA
BRANCH  18  21
HETATM   21  C15 UNL     1     -10.255   5.130 -30.552  1.00  0.00    -0.011 A 
HETATM   22  C16 UNL     1     -10.509   6.035 -31.559  1.00  0.00     0.116 A 
HETATM   23  N2  UNL     1     -11.741   6.564 -31.338  1.00  0.00    -0.310 N 
HETATM   24  N3  UNL     1     -12.269   6.026 -30.234  1.00  0.00    -0.308 N 
ATOM     25  H2  UNL     1     -12.195   7.265 -31.926  1.00  0.00     0.186 HD
HETATM   26  C17 UNL     1     -13.564   6.380 -29.719  1.00  0.00     0.177 C 
HETATM   27  C18 UNL     1     -11.368   5.143 -29.741  1.00  0.00     0.119 A 
ENDBRANCH  18  21
ENDBRANCH   7  10
ENDBRANCH   1   6
BRANCH   1  28
HETATM   28  C20 UNL     1      -9.679   0.365 -25.085  1.00  0.00     0.150 C 
HETATM   29  O3  UNL     1     -10.258   0.909 -24.134  1.00  0.00    -0.296 OA
BRANCH  28  30
HETATM   30  C21 UNL     1     -10.473  -0.611 -25.846  1.00  0.00     0.094 C 
BRANCH  30  31
HETATM   31  C22 UNL     1     -10.250  -2.066 -25.472  1.00  0.00     0.085 C 
BRANCH  31  32
HETATM   32  C23 UNL     1     -11.406  -2.724 -24.828  1.00  0.00     0.022 C 
BRANCH  32  33
HETATM   33  C24 UNL     1     -11.175  -3.721 -23.782  1.00  0.00    -0.051 C 
HETATM   34  C25 UNL     1     -11.197  -3.075 -22.371  1.00  0.00     0.014 C 
HETATM   35  C26 UNL     1     -10.039  -4.652 -23.822  1.00  0.00     0.014 C 
HETATM   36  C27 UNL     1     -12.442  -4.620 -23.754  1.00  0.00     0.014 C 
ENDBRANCH  32  33
ENDBRANCH  31  32
BRANCH  31  37
HETATM   37  C28 UNL     1     -10.068  -2.706 -26.840  1.00  0.00     0.224 C 
HETATM   38  O4  UNL     1     -10.779  -3.663 -27.177  1.00  0.00    -0.273 OA
HETATM   39  N5  UNL     1      -9.096  -2.190 -27.697  1.00  0.00    -0.334 N 
ATOM     40  H5  UNL     1      -8.517  -1.399 -27.416  1.00  0.00     0.165 HD
BRANCH  39  41
HETATM   41  C29 UNL     1      -8.926  -2.825 -29.037  1.00  0.00     0.229 C 
BRANCH  41  42
HETATM   42  C30 UNL     1      -8.682  -1.659 -29.957  1.00  0.00     0.110 C 
BRANCH  42  43
HETATM   43  C31 UNL     1      -9.832  -1.225 -30.746  1.00  0.00     0.013 A 
HETATM   44  C32 UNL     1      -9.837  -1.266 -32.109  1.00  0.00     0.025 A 
HETATM   45  C33 UNL     1     -10.927  -0.844 -32.810  1.00  0.00     0.003 A 
HETATM   46  C34 UNL     1     -12.026  -0.374 -32.118  1.00  0.00     0.017 A 
HETATM   47  C35 UNL     1     -11.995  -0.343 -30.731  1.00  0.00     0.088 A 
HETATM   48  N6  UNL     1     -10.917  -0.762 -30.092  1.00  0.00    -0.369 N 
ATOM     49  H6  UNL     1     -10.906  -0.735 -29.072  1.00  0.00     0.165 HD
ENDBRANCH  42  43
ENDBRANCH  41  42
BRANCH  41  50
HETATM   50  O5  UNL     1      -7.863  -3.670 -28.887  1.00  0.00    -0.362 OA
BRANCH  50  51
HETATM   51  C36 UNL     1      -7.768  -4.654 -29.843  1.00  0.00     0.116 C 
HETATM   52  C37 UNL     1      -6.340  -5.109 -29.950  1.00  0.00     0.039 C 
HETATM   53  C38 UNL     1      -8.637  -5.813 -29.348  1.00  0.00     0.039 C 
ENDBRANCH  50  51
ENDBRANCH  41  50
ENDBRANCH  39  41
ENDBRANCH  31  37
ENDBRANCH  30  31
ENDBRANCH  28  30
ENDBRANCH   1  28
TORSDOF 16
ENDMDL
MODEL 2
REMARK VINA RESULT: -7.284580698      1.275      1.819
REMARK  16 active torsions:
REMARK  status: ('A' for Active; 'I' for Inactive)
REMARK    1  A    between atoms: C2_2  and  C4_4 
REMARK    2  A    between atoms: C4_4  and  C5_5 
REMARK    3  A    between atoms: C5_5  and  N1_6 
REMARK    4  A    between atoms: C5_5  and  C20_28 
REMARK       I    between atoms: N1_6  and  C6_8 
REMARK    5  A    between atoms: C6_8  and  C7_10 
REMARK    6  A    between atoms: C14_17  and  C15_18 
REMARK    7  A    between atoms: C20_28  and  C21_30 
REMARK    8  A    between atoms: C21_30  and  C22_31 
REMARK    9  A    between atoms: C22_31  and  C23_32 
REMARK   10  A    between atoms: C22_31  and  C28_37 
REMARK   11  A    between atoms: C23_32  and  C24_33 
REMARK       I    between atoms: C28_37  and  N5_39 
REMARK   12  A    between atoms: N5_39  and  C29_41 
REMARK   13  A    between atoms: C29_41  and  C30_42 
REMARK   14  A    between atoms: C29_41  and  O5_50 
REMARK   15  A    between atoms: C30_42  and  C31_43 
REMARK   16  A    between atoms: O5_50  and  C36_51 
ROOT
HETATM    1  C5  UNL     1      -8.314   0.382 -25.709  1.00  0.00     0.154 C 
ENDROOT
BRANCH   1   2
HETATM    2  C4  UNL     1      -7.897   1.157 -24.499  1.00  0.00     0.037 C 
BRANCH   2   3
HETATM    3  C2  UNL     1      -6.509   1.202 -24.082  1.00  0.00    -0.020 C 
HETATM    4  C1  UNL     1      -5.911  -0.217 -24.203  1.00  0.00     0.009 C 
HETATM    5  C3  UNL     1      -5.552   2.116 -24.716  1.00  0.00     0.009 C 
ENDBRANCH   2   3
ENDBRANCH   1   2
BRANCH   1   6
HETATM    6  N1  UNL     1      -8.231   1.192 -26.948  1.00  0.00    -0.348 N 
HETATM    7  C6  UNL     1      -7.291   0.881 -27.928  1.00  0.00     0.241 C 
HETATM    8  O1  UNL     1      -6.532  -0.126 -27.644  1.00  0.00    -0.271 OA
ATOM      9  H1  UNL     1      -8.865   1.979 -27.084  1.00  0.00     0.163 HD
BRANCH   7  10
HETATM   10  C7  UNL     1      -7.043   1.521 -29.214  1.00  0.00     0.183 C 
HETATM   11  C8  UNL     1      -5.653   2.153 -29.256  1.00  0.00     0.016 C 
HETATM   12  C9  UNL     1      -4.815   1.573 -30.374  1.00  0.00     0.012 C 
HETATM   13  C10 UNL     1      -5.915   3.644 -29.453  1.00  0.00     0.032 C 
HETATM   14  C11 UNL     1      -7.342   3.819 -28.933  1.00  0.00     0.093 C 
HETATM   15  C12 UNL     1      -8.021   4.985 -29.564  1.00  0.00     0.022 C 
HETATM   16  N4  UNL     1      -7.927   2.612 -29.445  1.00  0.00    -0.333 N 
HETATM   17  C13 UNL     1      -8.723   5.872 -28.577  1.00  0.00     0.013 C 
HETATM   18  C14 UNL     1      -9.051   4.382 -30.487  1.00  0.00     0.119 C 
HETATM   19  C19 UNL     1      -9.198   3.016 -30.010  1.00  0.00     0.230 C 
HETATM   20  O2  UNL     1     -10.162   2.193 -30.006  1.00  0.00    -0.273 OA
BRANCH  18  21
HETATM   21  C15 UNL     1     -10.293   5.154 -30.533  1.00  0.00    -0.011 A 
HETATM   22  C16 UNL     1     -10.598   6.072 -31.513  1.00  0.00     0.116 A 
HETATM   23  N2  UNL     1     -11.837   6.564 -31.248  1.00  0.00    -0.310 N 
HETATM   24  N3  UNL     1     -12.318   5.991 -30.140  1.00  0.00    -0.308 N 
ATOM     25  H2  UNL     1     -12.324   7.264 -31.808  1.00  0.00     0.186 HD
HETATM   26  C17 UNL     1     -13.607   6.301 -29.582  1.00  0.00     0.177 C 
HETATM   27  C18 UNL     1     -11.382   5.122 -29.691  1.00  0.00     0.119 A 
ENDBRANCH  18  21
ENDBRANCH   7  10
ENDBRANCH   1   6
BRANCH   1  28
HETATM   28  C20 UNL     1      -9.597  -0.289 -25.593  1.00  0.00     0.150 C 
HETATM   29  O3  UNL     1     -10.367   0.059 -24.686  1.00  0.00    -0.296 OA
BRANCH  28  30
HETATM   30  C21 UNL     1     -10.083  -1.365 -26.470  1.00  0.00     0.094 C 
BRANCH  30  31
HETATM   31  C22 UNL     1      -9.803  -2.777 -25.986  1.00  0.00     0.085 C 
BRANCH  31  32
HETATM   32  C23 UNL     1     -11.001  -3.548 -25.594  1.00  0.00     0.022 C 
BRANCH  32  33
HETATM   33  C24 UNL     1     -11.206  -3.892 -24.186  1.00  0.00    -0.051 C 
HETATM   34  C25 UNL     1     -12.583  -4.573 -23.966  1.00  0.00     0.014 C 
HETATM   35  C26 UNL     1     -11.020  -2.915 -23.105  1.00  0.00     0.014 C 
HETATM   36  C27 UNL     1     -10.212  -5.045 -23.875  1.00  0.00     0.014 C 
ENDBRANCH  32  33
ENDBRANCH  31  32
BRANCH  31  37
HETATM   37  C28 UNL     1      -9.241  -3.422 -27.244  1.00  0.00     0.224 C 
HETATM   38  O4  UNL     1      -9.613  -4.555 -27.580  1.00  0.00    -0.273 OA
HETATM   39  N5  UNL     1      -8.311  -2.712 -28.003  1.00  0.00    -0.334 N 
ATOM     40  H5  UNL     1      -8.012  -1.778 -27.724  1.00  0.00     0.165 HD
BRANCH  39  41
HETATM   41  C29 UNL     1      -7.766  -3.353 -29.235  1.00  0.00     0.229 C 
BRANCH  41  42
HETATM   42  C30 UNL     1      -8.717  -2.917 -30.317  1.00  0.00     0.110 C 
BRANCH  42  43
HETATM   43  C31 UNL     1      -8.185  -1.949 -31.273  1.00  0.00     0.013 A 
HETATM   44  C32 UNL     1      -8.720  -0.704 -31.423  1.00  0.00     0.025 A 
HETATM   45  C33 UNL     1      -8.201   0.168 -32.333  1.00  0.00     0.003 A 
HETATM   46  C34 UNL     1      -7.124  -0.230 -33.101  1.00  0.00     0.017 A 
HETATM   47  C35 UNL     1      -6.599  -1.503 -32.929  1.00  0.00     0.088 A 
HETATM   48  N6  UNL     1      -7.133  -2.316 -32.035  1.00  0.00    -0.369 N 
ATOM     49  H6  UNL     1      -6.739  -3.249 -31.917  1.00  0.00     0.165 HD
ENDBRANCH  42  43
ENDBRANCH  41  42
BRANCH  41  50
HETATM   50  O5  UNL     1      -6.498  -2.858 -29.352  1.00  0.00    -0.362 OA
BRANCH  50  51
HETATM   51  C36 UNL     1      -5.499  -3.797 -29.253  1.00  0.00     0.116 C 
HETATM   52  C37 UNL     1      -5.878  -5.014 -30.048  1.00  0.00     0.039 C 
HETATM   53  C38 UNL     1      -4.250  -3.157 -29.865  1.00  0.00     0.039 C 
ENDBRANCH  50  51
ENDBRANCH  41  50
ENDBRANCH  39  41
ENDBRANCH  31  37
ENDBRANCH  30  31
ENDBRANCH  28  30
ENDBRANCH   1  28
TORSDOF 16
ENDMDL
MODEL 3
REMARK VINA RESULT: -7.259412966      2.373      5.276
REMARK  16 active torsions:
REMARK  status: ('A' for Active; 'I' for Inactive)
REMARK    1  A    between atoms: C2_2  and  C4_4 
REMARK    2  A    between atoms: C4_4  and  C5_5 
REMARK    3  A    between atoms: C5_5  and  N1_6 
REMARK    4  A    between atoms: C5_5  and  C20_28 
REMARK       I    between atoms: N1_6  and  C6_8 
REMARK    5  A    between atoms: C6_8  and  C7_10 
REMARK    6  A    between atoms: C14_17  and  C15_18 
REMARK    7  A    between atoms: C20_28  and  C21_30 
REMARK    8  A    between atoms: C21_30  and  C22_31 
REMARK    9  A    between atoms: C22_31  and  C23_32 
REMARK   10  A    between atoms: C22_31  and  C28_37 
REMARK   11  A    between atoms: C23_32  and  C24_33 
REMARK       I    between atoms: C28_37  and  N5_39 
REMARK   12  A    between atoms: N5_39  and  C29_41 
REMARK   13  A    between atoms: C29_41  and  C30_42 
REMARK   14  A    between atoms: C29_41  and  O5_50 
REMARK   15  A    between atoms: C30_42  and  C31_43 
REMARK   16  A    between atoms: O5_50  and  C36_51 
ROOT
HETATM    1  C5  UNL     1      -9.355  -2.908 -26.132  1.00  0.00     0.154 C 
ENDROOT
BRANCH   1   2
HETATM    2  C4  UNL     1     -10.514  -2.396 -25.336  1.00  0.00     0.037 C 
BRANCH   2   3
HETATM    3  C2  UNL     1     -10.728  -2.824 -23.968  1.00  0.00    -0.020 C 
HETATM    4  C1  UNL     1     -12.144  -3.429 -23.855  1.00  0.00     0.009 C 
HETATM    5  C3  UNL     1      -9.815  -3.767 -23.313  1.00  0.00     0.009 C 
ENDBRANCH   2   3
ENDBRANCH   1   2
BRANCH   1   6
HETATM    6  N1  UNL     1      -8.491  -1.811 -26.631  1.00  0.00    -0.348 N 
HETATM    7  C6  UNL     1      -7.375  -1.409 -25.901  1.00  0.00     0.241 C 
HETATM    8  O1  UNL     1      -7.196  -2.053 -24.795  1.00  0.00    -0.271 OA
ATOM      9  H1  UNL     1      -8.716  -1.349 -27.512  1.00  0.00     0.163 HD
BRANCH   7  10
HETATM   10  C7  UNL     1      -6.390  -0.378 -26.203  1.00  0.00     0.183 C 
HETATM   11  C8  UNL     1      -5.876   0.284 -24.926  1.00  0.00     0.016 C 
HETATM   12  C9  UNL     1      -4.378   0.129 -24.787  1.00  0.00     0.012 C 
HETATM   13  C10 UNL     1      -6.289   1.748 -25.059  1.00  0.00     0.032 C 
HETATM   14  C11 UNL     1      -7.456   1.692 -26.044  1.00  0.00     0.093 C 
HETATM   15  C12 UNL     1      -7.616   2.975 -26.785  1.00  0.00     0.022 C 
HETATM   16  N4  UNL     1      -6.954   0.696 -26.947  1.00  0.00    -0.333 N 
HETATM   17  C13 UNL     1      -9.033   3.468 -26.828  1.00  0.00     0.013 C 
HETATM   18  C14 UNL     1      -7.171   2.666 -28.194  1.00  0.00     0.119 C 
HETATM   19  C19 UNL     1      -7.223   1.215 -28.273  1.00  0.00     0.230 C 
HETATM   20  O2  UNL     1      -7.442   0.400 -29.219  1.00  0.00    -0.273 OA
BRANCH  18  21
HETATM   21  C15 UNL     1      -7.963   3.366 -29.205  1.00  0.00    -0.011 A 
HETATM   22  C16 UNL     1      -7.637   4.597 -29.730  1.00  0.00     0.116 A 
HETATM   23  N2  UNL     1      -8.579   4.913 -30.657  1.00  0.00    -0.310 N 
HETATM   24  N3  UNL     1      -9.481   3.930 -30.734  1.00  0.00    -0.308 N 
ATOM     25  H2  UNL     1      -8.595   5.771 -31.210  1.00  0.00     0.186 HD
HETATM   26  C17 UNL     1     -10.615   3.960 -31.616  1.00  0.00     0.177 C 
HETATM   27  C18 UNL     1      -9.115   2.972 -29.849  1.00  0.00     0.119 A 
ENDBRANCH  18  21
ENDBRANCH   7  10
ENDBRANCH   1   6
BRANCH   1  28
HETATM   28  C20 UNL     1      -9.704  -3.839 -27.191  1.00  0.00     0.150 C 
HETATM   29  O3  UNL     1     -10.513  -4.744 -26.940  1.00  0.00    -0.296 OA
BRANCH  28  30
HETATM   30  C21 UNL     1      -9.179  -3.810 -28.564  1.00  0.00     0.094 C 
BRANCH  30  31
HETATM   31  C22 UNL     1      -8.394  -5.038 -28.989  1.00  0.00     0.085 C 
BRANCH  31  32
HETATM   32  C23 UNL     1      -9.134  -5.978 -29.857  1.00  0.00     0.022 C 
BRANCH  32  33
HETATM   33  C24 UNL     1      -8.997  -7.418 -29.638  1.00  0.00    -0.051 C 
HETATM   34  C25 UNL     1      -9.564  -7.837 -28.256  1.00  0.00     0.014 C 
HETATM   35  C26 UNL     1      -7.720  -8.121 -29.821  1.00  0.00     0.014 C 
HETATM   36  C27 UNL     1      -9.986  -8.100 -30.624  1.00  0.00     0.014 C 
ENDBRANCH  32  33
ENDBRANCH  31  32
BRANCH  31  37
HETATM   37  C28 UNL     1      -7.291  -4.416 -29.831  1.00  0.00     0.224 C 
HETATM   38  O4  UNL     1      -7.571  -3.834 -30.888  1.00  0.00    -0.273 OA
HETATM   39  N5  UNL     1      -5.972  -4.512 -29.386  1.00  0.00    -0.334 N 
ATOM     40  H5  UNL     1      -5.749  -4.988 -28.512  1.00  0.00     0.165 HD
BRANCH  39  41
HETATM   41  C29 UNL     1      -4.898  -3.898 -30.220  1.00  0.00     0.229 C 
BRANCH  41  42
HETATM   42  C30 UNL     1      -4.348  -2.803 -29.346  1.00  0.00     0.110 C 
BRANCH  42  43
HETATM   43  C31 UNL     1      -3.839  -1.629 -30.050  1.00  0.00     0.013 A 
HETATM   44  C32 UNL     1      -2.585  -1.586 -30.585  1.00  0.00     0.025 A 
HETATM   45  C33 UNL     1      -2.145  -0.468 -31.227  1.00  0.00     0.003 A 
HETATM   46  C34 UNL     1      -2.987   0.622 -31.328  1.00  0.00     0.017 A 
HETATM   47  C35 UNL     1      -4.257   0.553 -30.774  1.00  0.00     0.088 A 
HETATM   48  N6  UNL     1      -4.645  -0.551 -30.160  1.00  0.00    -0.369 N 
ATOM     49  H6  UNL     1      -5.581  -0.591 -29.757  1.00  0.00     0.165 HD
ENDBRANCH  42  43
ENDBRANCH  41  42
BRANCH  41  50
HETATM   50  O5  UNL     1      -4.028  -4.921 -30.473  1.00  0.00    -0.362 OA
BRANCH  50  51
HETATM   51  C36 UNL     1      -3.990  -5.336 -31.783  1.00  0.00     0.116 C 
HETATM   52  C37 UNL     1      -4.901  -6.518 -31.959  1.00  0.00     0.039 C 
HETATM   53  C38 UNL     1      -4.510  -4.162 -32.616  1.00  0.00     0.039 C 
ENDBRANCH  50  51
ENDBRANCH  41  50
ENDBRANCH  39  41
ENDBRANCH  31  37
ENDBRANCH  30  31
ENDBRANCH  28  30
ENDBRANCH   1  28
TORSDOF 16
ENDMDL
MODEL 4
REMARK VINA RESULT: -7.233028176      1.980      2.949
REMARK  16 active torsions:
REMARK  status: ('A' for Active; 'I' for Inactive)
REMARK    1  A    between atoms: C2_2  and  C4_4 
REMARK    2  A    between atoms: C4_4  and  C5_5 
REMARK    3  A    between atoms: C5_5  and  N1_6 
REMARK    4  A    between atoms: C5_5  and  C20_28 
REMARK       I    between atoms: N1_6  and  C6_8 
REMARK    5  A    between atoms: C6_8  and  C7_10 
REMARK    6  A    between atoms: C14_17  and  C15_18 
REMARK    7  A    between atoms: C20_28  and  C21_30 
REMARK    8  A    between atoms: C21_30  and  C22_31 
REMARK    9  A    between atoms: C22_31  and  C23_32 
REMARK   10  A    between atoms: C22_31  and  C28_37 
REMARK   11  A    between atoms: C23_32  and  C24_33 
REMARK       I    between atoms: C28_37  and  N5_39 
REMARK   12  A    between atoms: N5_39  and  C29_41 
REMARK   13  A    between atoms: C29_41  and  C30_42 
REMARK   14  A    between atoms: C29_41  and  O5_50 
REMARK   15  A    between atoms: C30_42  and  C31_43 
REMARK   16  A    between atoms: O5_50  and  C36_51 
ROOT
HETATM    1  C5  UNL     1      -6.512  -0.718 -25.495  1.00  0.00     0.154 C 
ENDROOT
BRANCH   1   2
HETATM    2  C4  UNL     1      -6.146   0.279 -24.441  1.00  0.00     0.037 C 
BRANCH   2   3
HETATM    3  C2  UNL     1      -7.087   1.294 -24.014  1.00  0.00    -0.020 C 
HETATM    4  C1  UNL     1      -6.488   2.684 -24.321  1.00  0.00     0.009 C 
HETATM    5  C3  UNL     1      -8.466   1.313 -24.513  1.00  0.00     0.009 C 
ENDBRANCH   2   3
ENDBRANCH   1   2
BRANCH   1   6
HETATM    6  N1  UNL     1      -6.778  -0.075 -26.804  1.00  0.00    -0.348 N 
HETATM    7  C6  UNL     1      -6.114  -0.512 -27.948  1.00  0.00     0.241 C 
HETATM    8  O1  UNL     1      -5.275  -1.475 -27.748  1.00  0.00    -0.271 OA
ATOM      9  H1  UNL     1      -7.450   0.689 -26.868  1.00  0.00     0.163 HD
BRANCH   7  10
HETATM   10  C7  UNL     1      -6.227  -0.044 -29.324  1.00  0.00     0.183 C 
HETATM   11  C8  UNL     1      -4.864   0.362 -29.882  1.00  0.00     0.016 C 
HETATM   12  C9  UNL     1      -4.508  -0.444 -31.112  1.00  0.00     0.012 C 
HETATM   13  C10 UNL     1      -5.005   1.849 -30.195  1.00  0.00     0.032 C 
HETATM   14  C11 UNL     1      -6.155   2.289 -29.289  1.00  0.00     0.093 C 
HETATM   15  C12 UNL     1      -6.865   3.479 -29.835  1.00  0.00     0.022 C 
HETATM   16  N4  UNL     1      -7.007   1.142 -29.420  1.00  0.00    -0.333 N 
HETATM   17  C13 UNL     1      -7.102   4.554 -28.814  1.00  0.00     0.013 C 
HETATM   18  C14 UNL     1      -8.201   2.954 -30.300  1.00  0.00     0.119 C 
HETATM   19  C19 UNL     1      -8.340   1.679 -29.615  1.00  0.00     0.230 C 
HETATM   20  O2  UNL     1      -9.336   1.016 -29.199  1.00  0.00    -0.273 OA
BRANCH  18  21
HETATM   21  C15 UNL     1      -9.294   3.898 -30.068  1.00  0.00    -0.011 A 
HETATM   22  C16 UNL     1      -9.918   4.621 -31.060  1.00  0.00     0.116 A 
HETATM   23  N2  UNL     1     -10.897   5.363 -30.479  1.00  0.00    -0.310 N 
HETATM   24  N3  UNL     1     -10.909   5.134 -29.162  1.00  0.00    -0.308 N 
ATOM     25  H2  UNL     1     -11.525   5.998 -30.972  1.00  0.00     0.186 HD
HETATM   26  C17 UNL     1     -11.823   5.773 -28.254  1.00  0.00     0.177 C 
HETATM   27  C18 UNL     1      -9.931   4.237 -28.895  1.00  0.00     0.119 A 
ENDBRANCH  18  21
ENDBRANCH   7  10
ENDBRANCH   1   6
BRANCH   1  28
HETATM   28  C20 UNL     1      -7.575  -1.638 -25.125  1.00  0.00     0.150 C 
HETATM   29  O3  UNL     1      -7.436  -2.320 -24.099  1.00  0.00    -0.296 OA
BRANCH  28  30
HETATM   30  C21 UNL     1      -8.829  -1.839 -25.865  1.00  0.00     0.094 C 
BRANCH  30  31
HETATM   31  C22 UNL     1      -9.551  -3.145 -25.582  1.00  0.00     0.085 C 
BRANCH  31  32
HETATM   32  C23 UNL     1     -10.910  -2.993 -25.022  1.00  0.00     0.022 C 
BRANCH  32  33
HETATM   33  C24 UNL     1     -11.283  -3.747 -23.824  1.00  0.00    -0.051 C 
HETATM   34  C25 UNL     1     -12.620  -4.508 -24.029  1.00  0.00     0.014 C 
HETATM   35  C26 UNL     1     -11.328  -3.130 -22.492  1.00  0.00     0.014 C 
HETATM   36  C27 UNL     1     -10.256  -4.907 -23.706  1.00  0.00     0.014 C 
ENDBRANCH  32  33
ENDBRANCH  31  32
BRANCH  31  37
HETATM   37  C28 UNL     1      -9.698  -3.719 -26.982  1.00  0.00     0.224 C 
HETATM   38  O4  UNL     1     -10.736  -4.314 -27.303  1.00  0.00    -0.273 OA
HETATM   39  N5  UNL     1      -8.650  -3.555 -27.888  1.00  0.00    -0.334 N 
ATOM     40  H5  UNL     1      -7.800  -3.060 -27.619  1.00  0.00     0.165 HD
BRANCH  39  41
HETATM   41  C29 UNL     1      -8.805  -4.122 -29.259  1.00  0.00     0.229 C 
BRANCH  41  42
HETATM   42  C30 UNL     1      -8.139  -3.104 -30.145  1.00  0.00     0.110 C 
BRANCH  42  43
HETATM   43  C31 UNL     1      -6.841  -3.493 -30.690  1.00  0.00     0.013 A 
HETATM   44  C32 UNL     1      -6.638  -3.682 -32.025  1.00  0.00     0.025 A 
HETATM   45  C33 UNL     1      -5.413  -4.052 -32.493  1.00  0.00     0.003 A 
HETATM   46  C34 UNL     1      -4.381  -4.234 -31.595  1.00  0.00     0.017 A 
HETATM   47  C35 UNL     1      -4.614  -4.037 -30.241  1.00  0.00     0.088 A 
HETATM   48  N6  UNL     1      -5.817  -3.677 -29.830  1.00  0.00    -0.369 N 
ATOM     49  H6  UNL     1      -5.976  -3.534 -28.834  1.00  0.00     0.165 HD
ENDBRANCH  42  43
ENDBRANCH  41  42
BRANCH  41  50
HETATM   50  O5  UNL     1      -8.177  -5.334 -29.206  1.00  0.00    -0.362 OA
BRANCH  50  51
HETATM   51  C36 UNL     1      -8.873  -6.372 -29.780  1.00  0.00     0.116 C 
HETATM   52  C37 UNL     1      -7.974  -7.112 -30.729  1.00  0.00     0.039 C 
HETATM   53  C38 UNL     1      -9.277  -7.300 -28.631  1.00  0.00     0.039 C 
ENDBRANCH  50  51
ENDBRANCH  41  50
ENDBRANCH  39  41
ENDBRANCH  31  37
ENDBRANCH  30  31
ENDBRANCH  28  30
ENDBRANCH   1  28
TORSDOF 16
ENDMDL
MODEL 5
REMARK VINA RESULT: -7.232878669      1.728      3.012
REMARK  16 active torsions:
REMARK  status: ('A' for Active; 'I' for Inactive)
REMARK    1  A    between atoms: C2_2  and  C4_4 
REMARK    2  A    between atoms: C4_4  and  C5_5 
REMARK    3  A    between atoms: C5_5  and  N1_6 
REMARK    4  A    between atoms: C5_5  and  C20_28 
REMARK       I    between atoms: N1_6  and  C6_8 
REMARK    5  A    between atoms: C6_8  and  C7_10 
REMARK    6  A    between atoms: C14_17  and  C15_18 
REMARK    7  A    between atoms: C20_28  and  C21_30 
REMARK    8  A    between atoms: C21_30  and  C22_31 
REMARK    9  A    between atoms: C22_31  and  C23_32 
REMARK   10  A    between atoms: C22_31  and  C28_37 
REMARK   11  A    between atoms: C23_32  and  C24_33 
REMARK       I    between atoms: C28_37  and  N5_39 
REMARK   12  A    between atoms: N5_39  and  C29_41 
REMARK   13  A    between atoms: C29_41  and  C30_42 
REMARK   14  A    between atoms: C29_41  and  O5_50 
REMARK   15  A    between atoms: C30_42  and  C31_43 
REMARK   16  A    between atoms: O5_50  and  C36_51 
ROOT
HETATM    1  C5  UNL     1      -8.265   0.510 -25.627  1.00  0.00     0.154 C 
ENDROOT
BRANCH   1   2
HETATM    2  C4  UNL     1      -7.788   1.351 -24.485  1.00  0.00     0.037 C 
BRANCH   2   3
HETATM    3  C2  UNL     1      -6.398   1.332 -24.073  1.00  0.00    -0.020 C 
HETATM    4  C1  UNL     1      -5.888  -0.125 -24.119  1.00  0.00     0.009 C 
HETATM    5  C3  UNL     1      -5.390   2.151 -24.755  1.00  0.00     0.009 C 
ENDBRANCH   2   3
ENDBRANCH   1   2
BRANCH   1   6
HETATM    6  N1  UNL     1      -8.216   1.240 -26.917  1.00  0.00    -0.348 N 
HETATM    7  C6  UNL     1      -7.247   0.922 -27.866  1.00  0.00     0.241 C 
HETATM    8  O1  UNL     1      -6.432  -0.016 -27.509  1.00  0.00    -0.271 OA
ATOM      9  H1  UNL     1      -8.894   1.976 -27.110  1.00  0.00     0.163 HD
BRANCH   7  10
HETATM   10  C7  UNL     1      -7.023   1.489 -29.190  1.00  0.00     0.183 C 
HETATM   11  C8  UNL     1      -5.627   2.098 -29.299  1.00  0.00     0.016 C 
HETATM   12  C9  UNL     1      -4.824   1.448 -30.404  1.00  0.00     0.012 C 
HETATM   13  C10 UNL     1      -5.874   3.580 -29.570  1.00  0.00     0.032 C 
HETATM   14  C11 UNL     1      -7.286   3.802 -29.026  1.00  0.00     0.093 C 
HETATM   15  C12 UNL     1      -7.965   4.943 -29.701  1.00  0.00     0.022 C 
HETATM   16  N4  UNL     1      -7.898   2.578 -29.458  1.00  0.00    -0.333 N 
HETATM   17  C13 UNL     1      -8.632   5.891 -28.747  1.00  0.00     0.013 C 
HETATM   18  C14 UNL     1      -9.026   4.306 -30.566  1.00  0.00     0.119 C 
HETATM   19  C19 UNL     1      -9.178   2.970 -30.014  1.00  0.00     0.230 C 
HETATM   20  O2  UNL     1     -10.152   2.161 -29.942  1.00  0.00    -0.273 OA
BRANCH  18  21
HETATM   21  C15 UNL     1     -10.258   5.092 -30.624  1.00  0.00    -0.011 A 
HETATM   22  C16 UNL     1     -10.486   6.110 -31.522  1.00  0.00     0.116 A 
HETATM   23  N2  UNL     1     -11.740   6.585 -31.300  1.00  0.00    -0.310 N 
HETATM   24  N3  UNL     1     -12.305   5.904 -30.299  1.00  0.00    -0.308 N 
ATOM     25  H2  UNL     1     -12.182   7.344 -31.819  1.00  0.00     0.186 HD
HETATM   26  C17 UNL     1     -13.632   6.167 -29.809  1.00  0.00     0.177 C 
HETATM   27  C18 UNL     1     -11.408   4.983 -29.874  1.00  0.00     0.119 A 
ENDBRANCH  18  21
ENDBRANCH   7  10
ENDBRANCH   1   6
BRANCH   1  28
HETATM   28  C20 UNL     1      -9.554  -0.127 -25.421  1.00  0.00     0.150 C 
HETATM   29  O3  UNL     1     -10.276   0.284 -24.501  1.00  0.00    -0.296 OA
BRANCH  28  30
HETATM   30  C21 UNL     1     -10.098  -1.236 -26.217  1.00  0.00     0.094 C 
BRANCH  30  31
HETATM   31  C22 UNL     1      -9.294  -2.524 -26.179  1.00  0.00     0.085 C 
BRANCH  31  32
HETATM   32  C23 UNL     1     -10.034  -3.703 -25.682  1.00  0.00     0.022 C 
BRANCH  32  33
HETATM   33  C24 UNL     1     -10.233  -3.872 -24.242  1.00  0.00    -0.051 C 
HETATM   34  C25 UNL     1     -10.641  -5.329 -23.896  1.00  0.00     0.014 C 
HETATM   35  C26 UNL     1     -11.095  -2.976 -23.458  1.00  0.00     0.014 C 
HETATM   36  C27 UNL     1      -8.825  -3.759 -23.595  1.00  0.00     0.014 C 
ENDBRANCH  32  33
ENDBRANCH  31  32
BRANCH  31  37
HETATM   37  C28 UNL     1      -9.016  -2.752 -27.657  1.00  0.00     0.224 C 
HETATM   38  O4  UNL     1      -9.945  -2.716 -28.475  1.00  0.00    -0.273 OA
HETATM   39  N5  UNL     1      -7.704  -2.995 -28.062  1.00  0.00    -0.334 N 
ATOM     40  H5  UNL     1      -6.943  -3.019 -27.384  1.00  0.00     0.165 HD
BRANCH  39  41
HETATM   41  C29 UNL     1      -7.443  -3.218 -29.514  1.00  0.00     0.229 C 
BRANCH  41  42
HETATM   42  C30 UNL     1      -6.463  -2.134 -29.873  1.00  0.00     0.110 C 
BRANCH  42  43
HETATM   43  C31 UNL     1      -5.073  -2.560 -30.015  1.00  0.00     0.013 A 
HETATM   44  C32 UNL     1      -4.084  -2.106 -29.193  1.00  0.00     0.025 A 
HETATM   45  C33 UNL     1      -2.797  -2.522 -29.363  1.00  0.00     0.003 A 
HETATM   46  C34 UNL     1      -2.510  -3.409 -30.382  1.00  0.00     0.017 A 
HETATM   47  C35 UNL     1      -3.535  -3.854 -31.205  1.00  0.00     0.088 A 
HETATM   48  N6  UNL     1      -4.768  -3.427 -31.004  1.00  0.00    -0.369 N 
ATOM     49  H6  UNL     1      -5.513  -3.761 -31.614  1.00  0.00     0.165 HD
ENDBRANCH  42  43
ENDBRANCH  41  42
BRANCH  41  50
HETATM   50  O5  UNL     1      -6.944  -4.488 -29.586  1.00  0.00    -0.362 OA
BRANCH  50  51
HETATM   51  C36 UNL     1      -7.847  -5.442 -29.992  1.00  0.00     0.116 C 
HETATM   52  C37 UNL     1      -8.601  -4.936 -31.190  1.00  0.00     0.039 C 
HETATM   53  C38 UNL     1      -7.022  -6.668 -30.390  1.00  0.00     0.039 C 
ENDBRANCH  50  51
ENDBRANCH  41  50
ENDBRANCH  39  41
ENDBRANCH  31  37
ENDBRANCH  30  31
ENDBRANCH  28  30
ENDBRANCH   1  28
TORSDOF 16
ENDMDL
