MODEL 1
REMARK VINA RESULT: -4.959501935      0.000      0.000
REMARK  15 active torsions:
REMARK  status: ('A' for Active; 'I' for Inactive)
REMARK    1  A    between atoms: C2_2  and  C25_30 
REMARK    2  A    between atoms: C3_3  and  C4_4 
REMARK    3  A    between atoms: C4_4  and  C5_5 
REMARK    4  A    between atoms: C5_5  and  C6_6 
REMARK    5  A    between atoms: C6_6  and  C8_8 
REMARK    6  A    between atoms: C8_8  and  C9_9 
REMARK    7  A    between atoms: C9_9  and  C10_10 
REMARK    8  A    between atoms: C10_10  and  C11_11 
REMARK    9  A    between atoms: C11_11  and  C13_13 
REMARK   10  A    between atoms: C13_13  and  C14_14 
REMARK   11  A    between atoms: C14_14  and  C15_15 
REMARK   12  A    between atoms: C15_15  and  C16_16 
REMARK   13  A    between atoms: C19_19  and  C21_21 
REMARK   14  A    between atoms: C21_21  and  O1_22 
REMARK   15  A    between atoms: C24_27  and  O3_28 
ROOT
HETATM    1  C25 UNL     1      68.609  -1.408  44.786  1.00  0.00     0.157 C 
HETATM    2  C26 UNL     1      69.617  -2.408  44.469  1.00  0.00     0.063 C 
HETATM    3  N1  UNL     1      70.436  -3.193  44.218  1.00  0.00    -0.197 NA
ENDROOT
BRANCH   1   4
HETATM    4  C2  UNL     1      67.255  -2.007  44.937  1.00  0.00    -0.075 C 
HETATM    5  C1  UNL     1      66.099  -1.303  44.355  1.00  0.00     0.044 C 
HETATM    6  C3  UNL     1      67.136  -3.151  45.590  1.00  0.00    -0.023 C 
BRANCH   6   7
HETATM    7  C4  UNL     1      65.847  -3.858  45.812  1.00  0.00     0.028 C 
BRANCH   7   8
HETATM    8  C5  UNL     1      65.336  -3.733  47.201  1.00  0.00     0.008 C 
BRANCH   8   9
HETATM    9  C6  UNL     1      64.651  -2.468  47.560  1.00  0.00    -0.018 C 
HETATM   10  C7  UNL     1      65.327  -1.713  48.650  1.00  0.00     0.010 C 
BRANCH   9  11
HETATM   11  C8  UNL     1      63.198  -2.836  47.921  1.00  0.00     0.004 C 
BRANCH  11  12
HETATM   12  C9  UNL     1      62.234  -1.912  47.299  1.00  0.00     0.005 C 
BRANCH  12  13
HETATM   13  C10 UNL     1      62.724  -1.294  46.030  1.00  0.00     0.034 C 
BRANCH  13  14
HETATM   14  C11 UNL     1      61.994  -1.560  44.791  1.00  0.00    -0.084 C 
HETATM   15  C12 UNL     1      60.670  -0.884  44.575  1.00  0.00     0.043 C 
BRANCH  14  16
HETATM   16  C13 UNL     1      62.500  -2.339  43.821  1.00  0.00     0.002 C 
BRANCH  16  17
HETATM   17  C14 UNL     1      62.617  -3.773  43.777  1.00  0.00    -0.003 C 
BRANCH  17  18
HETATM   18  C15 UNL     1      61.478  -4.659  43.944  1.00  0.00    -0.015 C 
BRANCH  18  19
HETATM   19  C16 UNL     1      61.115  -5.393  45.143  1.00  0.00     0.001 C 
HETATM   20  C17 UNL     1      62.477  -5.534  45.895  1.00  0.00     0.022 C 
HETATM   21  C18 UNL     1      60.309  -4.589  46.120  1.00  0.00     0.035 C 
HETATM   22  C19 UNL     1      59.715  -5.396  47.246  1.00  0.00     0.039 C 
HETATM   23  C20 UNL     1      60.667  -5.713  48.355  1.00  0.00     0.025 C 
HETATM   24  C22 UNL     1      59.009  -6.605  46.737  1.00  0.00     0.139 C 
HETATM   25  O2  UNL     1      58.392  -7.334  47.467  1.00  0.00    -0.297 OA
HETATM   26  C23 UNL     1      59.118  -6.849  45.273  1.00  0.00     0.112 C 
HETATM   27  C24 UNL     1      60.628  -6.798  44.981  1.00  0.00     0.137 C 
BRANCH  22  28
HETATM   28  C21 UNL     1      58.600  -4.532  47.869  1.00  0.00     0.181 C 
BRANCH  28  29
HETATM   29  O1  UNL     1      57.422  -4.658  47.108  1.00  0.00    -0.400 OA
ATOM     30  H1  UNL     1      57.594  -4.409  46.207  1.00  0.00     0.209 HD
ENDBRANCH  28  29
ENDBRANCH  22  28
BRANCH  27  31
HETATM   31  O3  UNL     1      60.826  -7.348  43.749  1.00  0.00    -0.394 OA
ATOM     32  H3  UNL     1      60.782  -8.297  43.713  1.00  0.00     0.210 HD
ENDBRANCH  27  31
ENDBRANCH  18  19
ENDBRANCH  17  18
ENDBRANCH  16  17
ENDBRANCH  14  16
ENDBRANCH  13  14
ENDBRANCH  12  13
ENDBRANCH  11  12
ENDBRANCH   9  11
ENDBRANCH   8   9
ENDBRANCH   7   8
ENDBRANCH   6   7
ENDBRANCH   1   4
TORSDOF 15
ENDMDL
MODEL 2
REMARK VINA RESULT: -4.755211414      1.980      4.375
REMARK  15 active torsions:
REMARK  status: ('A' for Active; 'I' for Inactive)
REMARK    1  A    between atoms: C2_2  and  C25_30 
REMARK    2  A    between atoms: C3_3  and  C4_4 
REMARK    3  A    between atoms: C4_4  and  C5_5 
REMARK    4  A    between atoms: C5_5  and  C6_6 
REMARK    5  A    between atoms: C6_6  and  C8_8 
REMARK    6  A    between atoms: C8_8  and  C9_9 
REMARK    7  A    between atoms: C9_9  and  C10_10 
REMARK    8  A    between atoms: C10_10  and  C11_11 
REMARK    9  A    between atoms: C11_11  and  C13_13 
REMARK   10  A    between atoms: C13_13  and  C14_14 
REMARK   11  A    between atoms: C14_14  and  C15_15 
REMARK   12  A    between atoms: C15_15  and  C16_16 
REMARK   13  A    between atoms: C19_19  and  C21_21 
REMARK   14  A    between atoms: C21_21  and  O1_22 
REMARK   15  A    between atoms: C24_27  and  O3_28 
ROOT
HETATM    1  C25 UNL     1      71.238  -4.525  42.907  1.00  0.00     0.157 C 
HETATM    2  C26 UNL     1      72.676  -4.469  43.122  1.00  0.00     0.063 C 
HETATM    3  N1  UNL     1      73.825  -4.442  43.291  1.00  0.00    -0.197 NA
ENDROOT
BRANCH   1   4
HETATM    4  C2  UNL     1      70.625  -3.169  42.864  1.00  0.00    -0.075 C 
HETATM    5  C1  UNL     1      70.517  -2.481  41.565  1.00  0.00     0.044 C 
HETATM    6  C3  UNL     1      70.199  -2.629  43.993  1.00  0.00    -0.023 C 
BRANCH   6   7
HETATM    7  C4  UNL     1      69.567  -1.287  44.092  1.00  0.00     0.028 C 
BRANCH   7   8
HETATM    8  C5  UNL     1      68.710  -1.124  45.294  1.00  0.00     0.008 C 
BRANCH   8   9
HETATM    9  C6  UNL     1      68.103   0.211  45.518  1.00  0.00    -0.018 C 
HETATM   10  C7  UNL     1      68.633   0.913  46.718  1.00  0.00     0.010 C 
BRANCH   9  11
HETATM   11  C8  UNL     1      66.579  -0.002  45.594  1.00  0.00     0.004 C 
BRANCH  11  12
HETATM   12  C9  UNL     1      66.125  -1.020  44.630  1.00  0.00     0.005 C 
BRANCH  12  13
HETATM   13  C10 UNL     1      65.183  -2.024  45.212  1.00  0.00     0.034 C 
BRANCH  13  14
HETATM   14  C11 UNL     1      65.625  -2.820  46.357  1.00  0.00    -0.084 C 
HETATM   15  C12 UNL     1      66.653  -3.892  46.136  1.00  0.00     0.043 C 
BRANCH  14  16
HETATM   16  C13 UNL     1      65.184  -2.580  47.602  1.00  0.00     0.002 C 
BRANCH  16  17
HETATM   17  C14 UNL     1      63.940  -2.966  48.215  1.00  0.00    -0.003 C 
BRANCH  17  18
HETATM   18  C15 UNL     1      62.649  -2.512  47.727  1.00  0.00    -0.015 C 
BRANCH  18  19
HETATM   19  C16 UNL     1      61.705  -3.274  46.929  1.00  0.00     0.001 C 
HETATM   20  C17 UNL     1      61.213  -2.232  45.875  1.00  0.00     0.022 C 
HETATM   21  C18 UNL     1      62.350  -4.310  46.057  1.00  0.00     0.035 C 
HETATM   22  C19 UNL     1      61.383  -5.271  45.416  1.00  0.00     0.039 C 
HETATM   23  C20 UNL     1      60.689  -4.740  44.202  1.00  0.00     0.025 C 
HETATM   24  C22 UNL     1      60.432  -5.836  46.414  1.00  0.00     0.139 C 
HETATM   25  O2  UNL     1      59.637  -6.688  46.122  1.00  0.00    -0.297 OA
HETATM   26  C23 UNL     1      60.532  -5.277  47.790  1.00  0.00     0.112 C 
HETATM   27  C24 UNL     1      60.454  -3.752  47.598  1.00  0.00     0.137 C 
BRANCH  22  28
HETATM   28  C21 UNL     1      62.210  -6.484  44.944  1.00  0.00     0.181 C 
BRANCH  28  29
HETATM   29  O1  UNL     1      63.445  -6.508  45.620  1.00  0.00    -0.400 OA
ATOM     30  H1  UNL     1      63.710  -5.620  45.834  1.00  0.00     0.209 HD
ENDBRANCH  28  29
ENDBRANCH  22  28
BRANCH  27  31
HETATM   31  O3  UNL     1      60.193  -3.198  48.816  1.00  0.00    -0.394 OA
ATOM     32  H3  UNL     1      59.280  -3.207  49.081  1.00  0.00     0.210 HD
ENDBRANCH  27  31
ENDBRANCH  18  19
ENDBRANCH  17  18
ENDBRANCH  16  17
ENDBRANCH  14  16
ENDBRANCH  13  14
ENDBRANCH  12  13
ENDBRANCH  11  12
ENDBRANCH   9  11
ENDBRANCH   8   9
ENDBRANCH   7   8
ENDBRANCH   6   7
ENDBRANCH   1   4
TORSDOF 15
ENDMDL
MODEL 3
REMARK VINA RESULT: -4.751376100      1.376      2.846
REMARK  15 active torsions:
REMARK  status: ('A' for Active; 'I' for Inactive)
REMARK    1  A    between atoms: C2_2  and  C25_30 
REMARK    2  A    between atoms: C3_3  and  C4_4 
REMARK    3  A    between atoms: C4_4  and  C5_5 
REMARK    4  A    between atoms: C5_5  and  C6_6 
REMARK    5  A    between atoms: C6_6  and  C8_8 
REMARK    6  A    between atoms: C8_8  and  C9_9 
REMARK    7  A    between atoms: C9_9  and  C10_10 
REMARK    8  A    between atoms: C10_10  and  C11_11 
REMARK    9  A    between atoms: C11_11  and  C13_13 
REMARK   10  A    between atoms: C13_13  and  C14_14 
REMARK   11  A    between atoms: C14_14  and  C15_15 
REMARK   12  A    between atoms: C15_15  and  C16_16 
REMARK   13  A    between atoms: C19_19  and  C21_21 
REMARK   14  A    between atoms: C21_21  and  O1_22 
REMARK   15  A    between atoms: C24_27  and  O3_28 
ROOT
HETATM    1  C25 UNL     1      68.029  -2.767  45.216  1.00  0.00     0.157 C 
HETATM    2  C26 UNL     1      69.315  -2.523  44.581  1.00  0.00     0.063 C 
HETATM    3  N1  UNL     1      70.346  -2.346  44.076  1.00  0.00    -0.197 NA
ENDROOT
BRANCH   1   4
HETATM    4  C2  UNL     1      67.152  -1.565  45.184  1.00  0.00    -0.075 C 
HETATM    5  C1  UNL     1      67.558  -0.371  45.945  1.00  0.00     0.044 C 
HETATM    6  C3  UNL     1      66.038  -1.610  44.472  1.00  0.00    -0.023 C 
BRANCH   6   7
HETATM    7  C4  UNL     1      65.075  -0.484  44.352  1.00  0.00     0.028 C 
BRANCH   7   8
HETATM    8  C5  UNL     1      63.663  -0.886  44.576  1.00  0.00     0.008 C 
BRANCH   8   9
HETATM    9  C6  UNL     1      62.860  -0.055  45.504  1.00  0.00    -0.018 C 
HETATM   10  C7  UNL     1      63.681   0.713  46.479  1.00  0.00     0.010 C 
BRANCH   9  11
HETATM   11  C8  UNL     1      61.864  -1.003  46.201  1.00  0.00     0.004 C 
BRANCH  11  12
HETATM   12  C9  UNL     1      62.250  -1.264  47.598  1.00  0.00     0.005 C 
BRANCH  12  13
HETATM   13  C10 UNL     1      62.803  -2.633  47.825  1.00  0.00     0.034 C 
BRANCH  13  14
HETATM   14  C11 UNL     1      64.236  -2.854  47.631  1.00  0.00    -0.084 C 
HETATM   15  C12 UNL     1      65.207  -2.033  48.429  1.00  0.00     0.043 C 
BRANCH  14  16
HETATM   16  C13 UNL     1      64.702  -3.807  46.807  1.00  0.00     0.002 C 
BRANCH  16  17
HETATM   17  C14 UNL     1      63.979  -4.835  46.107  1.00  0.00    -0.003 C 
BRANCH  17  18
HETATM   18  C15 UNL     1      62.983  -4.541  45.090  1.00  0.00    -0.015 C 
BRANCH  18  19
HETATM   19  C16 UNL     1      61.643  -5.092  45.001  1.00  0.00     0.001 C 
HETATM   20  C17 UNL     1      61.837  -6.348  44.093  1.00  0.00     0.022 C 
HETATM   21  C18 UNL     1      61.159  -5.711  46.279  1.00  0.00     0.035 C 
HETATM   22  C19 UNL     1      59.694  -6.061  46.282  1.00  0.00     0.039 C 
HETATM   23  C20 UNL     1      59.357  -7.340  45.583  1.00  0.00     0.025 C 
HETATM   24  C22 UNL     1      58.859  -4.919  45.815  1.00  0.00     0.139 C 
HETATM   25  O2  UNL     1      57.657  -4.964  45.828  1.00  0.00    -0.297 OA
HETATM   26  C23 UNL     1      59.606  -3.725  45.335  1.00  0.00     0.112 C 
HETATM   27  C24 UNL     1      60.600  -4.279  44.299  1.00  0.00     0.137 C 
BRANCH  22  28
HETATM   28  C21 UNL     1      59.289  -6.256  47.757  1.00  0.00     0.181 C 
BRANCH  28  29
HETATM   29  O1  UNL     1      58.229  -7.179  47.840  1.00  0.00    -0.400 OA
ATOM     30  H1  UNL     1      58.345  -7.732  48.604  1.00  0.00     0.209 HD
ENDBRANCH  28  29
ENDBRANCH  22  28
BRANCH  27  31
HETATM   31  O3  UNL     1      61.070  -3.222  43.576  1.00  0.00    -0.394 OA
ATOM     32  H3  UNL     1      61.802  -3.414  43.001  1.00  0.00     0.210 HD
ENDBRANCH  27  31
ENDBRANCH  18  19
ENDBRANCH  17  18
ENDBRANCH  16  17
ENDBRANCH  14  16
ENDBRANCH  13  14
ENDBRANCH  12  13
ENDBRANCH  11  12
ENDBRANCH   9  11
ENDBRANCH   8   9
ENDBRANCH   7   8
ENDBRANCH   6   7
ENDBRANCH   1   4
TORSDOF 15
ENDMDL
MODEL 4
REMARK VINA RESULT: -4.745212210      1.110      2.003
REMARK  15 active torsions:
REMARK  status: ('A' for Active; 'I' for Inactive)
REMARK    1  A    between atoms: C2_2  and  C25_30 
REMARK    2  A    between atoms: C3_3  and  C4_4 
REMARK    3  A    between atoms: C4_4  and  C5_5 
REMARK    4  A    between atoms: C5_5  and  C6_6 
REMARK    5  A    between atoms: C6_6  and  C8_8 
REMARK    6  A    between atoms: C8_8  and  C9_9 
REMARK    7  A    between atoms: C9_9  and  C10_10 
REMARK    8  A    between atoms: C10_10  and  C11_11 
REMARK    9  A    between atoms: C11_11  and  C13_13 
REMARK   10  A    between atoms: C13_13  and  C14_14 
REMARK   11  A    between atoms: C14_14  and  C15_15 
REMARK   12  A    between atoms: C15_15  and  C16_16 
REMARK   13  A    between atoms: C19_19  and  C21_21 
REMARK   14  A    between atoms: C21_21  and  O1_22 
REMARK   15  A    between atoms: C24_27  and  O3_28 
ROOT
HETATM    1  C25 UNL     1      67.006  -3.691  45.594  1.00  0.00     0.157 C 
HETATM    2  C26 UNL     1      68.262  -3.048  45.241  1.00  0.00     0.063 C 
HETATM    3  N1  UNL     1      69.269  -2.548  44.948  1.00  0.00    -0.197 NA
ENDROOT
BRANCH   1   4
HETATM    4  C2  UNL     1      66.126  -2.799  46.396  1.00  0.00    -0.075 C 
HETATM    5  C1  UNL     1      66.198  -1.344  46.172  1.00  0.00     0.044 C 
HETATM    6  C3  UNL     1      65.309  -3.343  47.282  1.00  0.00    -0.023 C 
BRANCH   6   7
HETATM    7  C4  UNL     1      64.377  -2.570  48.146  1.00  0.00     0.028 C 
BRANCH   7   8
HETATM    8  C5  UNL     1      62.955  -2.683  47.732  1.00  0.00     0.008 C 
BRANCH   8   9
HETATM    9  C6  UNL     1      62.100  -1.484  47.908  1.00  0.00    -0.018 C 
HETATM   10  C7  UNL     1      60.660  -1.732  47.628  1.00  0.00     0.010 C 
BRANCH   9  11
HETATM   11  C8  UNL     1      62.689  -0.384  47.003  1.00  0.00     0.004 C 
BRANCH  11  12
HETATM   12  C9  UNL     1      62.091  -0.412  45.657  1.00  0.00     0.005 C 
BRANCH  12  13
HETATM   13  C10 UNL     1      63.072  -0.160  44.557  1.00  0.00     0.034 C 
BRANCH  13  14
HETATM   14  C11 UNL     1      63.504  -1.286  43.729  1.00  0.00    -0.084 C 
HETATM   15  C12 UNL     1      64.337  -1.006  42.512  1.00  0.00     0.043 C 
BRANCH  14  16
HETATM   16  C13 UNL     1      63.228  -2.557  44.059  1.00  0.00     0.002 C 
BRANCH  16  17
HETATM   17  C14 UNL     1      62.207  -3.429  43.540  1.00  0.00    -0.003 C 
BRANCH  17  18
HETATM   18  C15 UNL     1      62.229  -4.869  43.737  1.00  0.00    -0.015 C 
BRANCH  18  19
HETATM   19  C16 UNL     1      61.657  -5.603  44.851  1.00  0.00     0.001 C 
HETATM   20  C17 UNL     1      62.843  -5.689  45.864  1.00  0.00     0.022 C 
HETATM   21  C18 UNL     1      60.644  -4.818  45.633  1.00  0.00     0.035 C 
HETATM   22  C19 UNL     1      59.862  -5.635  46.629  1.00  0.00     0.039 C 
HETATM   23  C20 UNL     1      60.581  -5.907  47.912  1.00  0.00     0.025 C 
HETATM   24  C22 UNL     1      59.313  -6.873  46.009  1.00  0.00     0.139 C 
HETATM   25  O2  UNL     1      58.585  -7.616  46.612  1.00  0.00    -0.297 OA
HETATM   26  C23 UNL     1      59.723  -7.127  44.601  1.00  0.00     0.112 C 
HETATM   27  C24 UNL     1      61.258  -7.026  44.618  1.00  0.00     0.137 C 
BRANCH  22  28
HETATM   28  C21 UNL     1      58.617  -4.805  47.001  1.00  0.00     0.181 C 
BRANCH  28  29
HETATM   29  O1  UNL     1      57.682  -4.856  45.949  1.00  0.00    -0.400 OA
ATOM     30  H1  UNL     1      56.888  -5.286  46.247  1.00  0.00     0.209 HD
ENDBRANCH  28  29
ENDBRANCH  22  28
BRANCH  27  31
HETATM   31  O3  UNL     1      61.718  -7.581  43.460  1.00  0.00    -0.394 OA
ATOM     32  H3  UNL     1      62.469  -7.148  43.071  1.00  0.00     0.210 HD
ENDBRANCH  27  31
ENDBRANCH  18  19
ENDBRANCH  17  18
ENDBRANCH  16  17
ENDBRANCH  14  16
ENDBRANCH  13  14
ENDBRANCH  12  13
ENDBRANCH  11  12
ENDBRANCH   9  11
ENDBRANCH   8   9
ENDBRANCH   7   8
ENDBRANCH   6   7
ENDBRANCH   1   4
TORSDOF 15
ENDMDL
MODEL 5
REMARK VINA RESULT: -4.717496058      1.866      4.187
REMARK  15 active torsions:
REMARK  status: ('A' for Active; 'I' for Inactive)
REMARK    1  A    between atoms: C2_2  and  C25_30 
REMARK    2  A    between atoms: C3_3  and  C4_4 
REMARK    3  A    between atoms: C4_4  and  C5_5 
REMARK    4  A    between atoms: C5_5  and  C6_6 
REMARK    5  A    between atoms: C6_6  and  C8_8 
REMARK    6  A    between atoms: C8_8  and  C9_9 
REMARK    7  A    between atoms: C9_9  and  C10_10 
REMARK    8  A    between atoms: C10_10  and  C11_11 
REMARK    9  A    between atoms: C11_11  and  C13_13 
REMARK   10  A    between atoms: C13_13  and  C14_14 
REMARK   11  A    between atoms: C14_14  and  C15_15 
REMARK   12  A    between atoms: C15_15  and  C16_16 
REMARK   13  A    between atoms: C19_19  and  C21_21 
REMARK   14  A    between atoms: C21_21  and  O1_22 
REMARK   15  A    between atoms: C24_27  and  O3_28 
ROOT
HETATM    1  C25 UNL     1      68.103  -3.486  45.212  1.00  0.00     0.157 C 
HETATM    2  C26 UNL     1      69.037  -2.439  44.826  1.00  0.00     0.063 C 
HETATM    3  N1  UNL     1      69.793  -1.616  44.510  1.00  0.00    -0.197 NA
ENDROOT
BRANCH   1   4
HETATM    4  C2  UNL     1      66.819  -2.932  45.720  1.00  0.00    -0.075 C 
HETATM    5  C1  UNL     1      66.317  -1.670  45.148  1.00  0.00     0.044 C 
HETATM    6  C3  UNL     1      66.173  -3.591  46.666  1.00  0.00    -0.023 C 
BRANCH   6   7
HETATM    7  C4  UNL     1      64.883  -3.152  47.260  1.00  0.00     0.028 C 
BRANCH   7   8
HETATM    8  C5  UNL     1      63.742  -4.042  46.922  1.00  0.00     0.008 C 
BRANCH   8   9
HETATM    9  C6  UNL     1      63.622  -4.483  45.511  1.00  0.00    -0.018 C 
HETATM   10  C7  UNL     1      62.950  -3.490  44.631  1.00  0.00     0.010 C 
BRANCH   9  11
HETATM   11  C8  UNL     1      62.885  -5.837  45.531  1.00  0.00     0.004 C 
BRANCH  11  12
HETATM   12  C9  UNL     1      62.144  -6.069  44.279  1.00  0.00     0.005 C 
BRANCH  12  13
HETATM   13  C10 UNL     1      61.360  -7.341  44.271  1.00  0.00     0.034 C 
BRANCH  13  14
HETATM   14  C11 UNL     1      59.899  -7.266  44.298  1.00  0.00    -0.084 C 
HETATM   15  C12 UNL     1      59.192  -6.568  43.171  1.00  0.00     0.043 C 
BRANCH  14  16
HETATM   16  C13 UNL     1      59.175  -7.853  45.264  1.00  0.00     0.002 C 
BRANCH  16  17
HETATM   17  C14 UNL     1      58.560  -7.263  46.424  1.00  0.00    -0.003 C 
BRANCH  17  18
HETATM   18  C15 UNL     1      59.325  -6.603  47.468  1.00  0.00    -0.015 C 
BRANCH  18  19
HETATM   19  C16 UNL     1      59.381  -5.178  47.737  1.00  0.00     0.001 C 
HETATM   20  C17 UNL     1      60.686  -5.029  48.582  1.00  0.00     0.022 C 
HETATM   21  C18 UNL     1      59.704  -4.349  46.528  1.00  0.00     0.035 C 
HETATM   22  C19 UNL     1      59.522  -2.866  46.727  1.00  0.00     0.039 C 
HETATM   23  C20 UNL     1      60.650  -2.191  47.441  1.00  0.00     0.025 C 
HETATM   24  C22 UNL     1      58.197  -2.555  47.330  1.00  0.00     0.139 C 
HETATM   25  O2  UNL     1      57.821  -1.424  47.487  1.00  0.00    -0.297 OA
HETATM   26  C23 UNL     1      57.373  -3.730  47.723  1.00  0.00     0.112 C 
HETATM   27  C24 UNL     1      58.307  -4.587  48.595  1.00  0.00     0.137 C 
BRANCH  22  28
HETATM   28  C21 UNL     1      59.463  -2.236  45.321  1.00  0.00     0.181 C 
BRANCH  28  29
HETATM   29  O1  UNL     1      59.810  -0.873  45.397  1.00  0.00    -0.400 OA
ATOM     30  H1  UNL     1      60.754  -0.787  45.465  1.00  0.00     0.209 HD
ENDBRANCH  28  29
ENDBRANCH  22  28
BRANCH  27  31
HETATM   31  O3  UNL     1      57.531  -5.487  49.265  1.00  0.00    -0.394 OA
ATOM     32  H3  UNL     1      56.826  -5.113  49.781  1.00  0.00     0.210 HD
ENDBRANCH  27  31
ENDBRANCH  18  19
ENDBRANCH  17  18
ENDBRANCH  16  17
ENDBRANCH  14  16
ENDBRANCH  13  14
ENDBRANCH  12  13
ENDBRANCH  11  12
ENDBRANCH   9  11
ENDBRANCH   8   9
ENDBRANCH   7   8
ENDBRANCH   6   7
ENDBRANCH   1   4
TORSDOF 15
ENDMDL
