MODEL 1
REMARK VINA RESULT: -5.779024812      0.000      0.000
REMARK  12 active torsions:
REMARK  status: ('A' for Active; 'I' for Inactive)
REMARK    1  A    between atoms: C2_2  and  C3_4 
REMARK    2  A    between atoms: C3_4  and  N1_5 
REMARK    3  A    between atoms: N1_5  and  C4_7 
REMARK    4  A    between atoms: C4_7  and  C5_8 
REMARK    5  A    between atoms: C5_8  and  S1_9 
REMARK    6  A    between atoms: S1_9  and  C6_10 
REMARK    7  A    between atoms: C14_18  and  C15_19 
REMARK    8  A    between atoms: C15_19  and  C16_20 
REMARK    9  A    between atoms: C16_20  and  C17_21 
REMARK   10  A    between atoms: C17_21  and  N2_22 
REMARK   11  A    between atoms: N2_22  and  C18_24 
REMARK   12  A    between atoms: C18_24  and  C19_25 
ROOT
HETATM    1  C3  UNL     1      61.281  -4.071  46.327  1.00  0.00     0.086 C 
HETATM    2  C12 UNL     1      61.717  -4.189  47.783  1.00  0.00     0.039 C 
HETATM    3  C13 UNL     1      60.710  -4.970  48.540  1.00  0.00     0.007 C 
HETATM    4  C14 UNL     1      59.567  -5.209  47.617  1.00  0.00    -0.011 C 
HETATM    5  C25 UNL     1      60.085  -4.943  46.226  1.00  0.00     0.043 C 
ENDROOT
BRANCH   1   6
HETATM    6  C2  UNL     1      62.380  -4.639  45.466  1.00  0.00     0.150 C 
HETATM    7  C1  UNL     1      62.817  -6.042  45.616  1.00  0.00     0.093 C 
HETATM    8  O1  UNL     1      62.900  -3.934  44.652  1.00  0.00    -0.296 OA
ENDBRANCH   1   6
BRANCH   1   9
HETATM    9  N1  UNL     1      61.027  -2.690  46.093  1.00  0.00    -0.406 N 
ATOM     10  H1  UNL     1      60.517  -2.380  45.265  1.00  0.00     0.154 HD
BRANCH   9  11
HETATM   11  C4  UNL     1      61.506  -1.759  47.052  1.00  0.00     0.125 C 
BRANCH  11  12
HETATM   12  C5  UNL     1      62.309  -0.702  46.284  1.00  0.00     0.093 C 
BRANCH  12  13
HETATM   13  S1  UNL     1      63.869  -0.294  47.006  1.00  0.00    -0.163 SA
BRANCH  13  14
HETATM   14  C6  UNL     1      65.207  -1.423  46.839  1.00  0.00     0.047 C 
HETATM   15  C7  UNL     1      65.143  -2.635  47.725  1.00  0.00     0.015 C 
HETATM   16  C8  UNL     1      65.508  -3.920  47.088  1.00  0.00     0.001 C 
HETATM   17  C9  UNL     1      66.615  -3.882  46.095  1.00  0.00     0.000 C 
HETATM   18  C10 UNL     1      66.883  -2.516  45.505  1.00  0.00     0.001 C 
HETATM   19  C11 UNL     1      65.489  -1.850  45.417  1.00  0.00     0.015 C 
ENDBRANCH  13  14
ENDBRANCH  12  13
ENDBRANCH  11  12
ENDBRANCH   9  11
ENDBRANCH   1   9
BRANCH   4  20
HETATM   20  C15 UNL     1      59.166  -6.684  47.760  1.00  0.00     0.010 C 
BRANCH  20  21
HETATM   21  C16 UNL     1      57.664  -6.750  48.133  1.00  0.00     0.045 C 
BRANCH  21  22
HETATM   22  C17 UNL     1      57.032  -7.650  47.133  1.00  0.00     0.060 C 
BRANCH  22  23
HETATM   23  N2  UNL     1      57.369  -8.973  47.055  1.00  0.00    -0.382 N 
ATOM     24  H2  UNL     1      57.477  -9.441  47.955  1.00  0.00     0.164 HD
BRANCH  23  25
HETATM   25  C18 UNL     1      57.585  -9.772  45.961  1.00  0.00     0.064 C 
BRANCH  25  26
HETATM   26  C19 UNL     1      58.777 -10.695  46.054  1.00  0.00     0.024 C 
HETATM   27  C20 UNL     1      58.652 -11.755  44.950  1.00  0.00     0.010 C 
HETATM   28  C21 UNL     1      59.208 -13.047  45.489  1.00  0.00     0.001 C 
HETATM   29  C22 UNL     1      58.192 -13.576  46.508  1.00  0.00     0.000 C 
HETATM   30  C23 UNL     1      57.827 -12.512  47.496  1.00  0.00     0.001 C 
HETATM   31  C24 UNL     1      58.818 -11.359  47.399  1.00  0.00     0.010 C 
ENDBRANCH  25  26
ENDBRANCH  23  25
ENDBRANCH  22  23
ENDBRANCH  21  22
ENDBRANCH  20  21
ENDBRANCH   4  20
TORSDOF 12
ENDMDL
MODEL 2
REMARK VINA RESULT: -5.674813333      3.695     10.603
REMARK  12 active torsions:
REMARK  status: ('A' for Active; 'I' for Inactive)
REMARK    1  A    between atoms: C2_2  and  C3_4 
REMARK    2  A    between atoms: C3_4  and  N1_5 
REMARK    3  A    between atoms: N1_5  and  C4_7 
REMARK    4  A    between atoms: C4_7  and  C5_8 
REMARK    5  A    between atoms: C5_8  and  S1_9 
REMARK    6  A    between atoms: S1_9  and  C6_10 
REMARK    7  A    between atoms: C14_18  and  C15_19 
REMARK    8  A    between atoms: C15_19  and  C16_20 
REMARK    9  A    between atoms: C16_20  and  C17_21 
REMARK   10  A    between atoms: C17_21  and  N2_22 
REMARK   11  A    between atoms: N2_22  and  C18_24 
REMARK   12  A    between atoms: C18_24  and  C19_25 
ROOT
HETATM    1  C3  UNL     1      64.787  -2.866  46.147  1.00  0.00     0.086 C 
HETATM    2  C12 UNL     1      65.895  -3.865  46.465  1.00  0.00     0.039 C 
HETATM    3  C13 UNL     1      67.150  -3.439  45.802  1.00  0.00     0.007 C 
HETATM    4  C14 UNL     1      66.809  -2.273  44.941  1.00  0.00    -0.011 C 
HETATM    5  C25 UNL     1      65.474  -1.768  45.425  1.00  0.00     0.043 C 
ENDROOT
BRANCH   1   6
HETATM    6  C2  UNL     1      64.250  -2.338  47.453  1.00  0.00     0.150 C 
HETATM    7  C1  UNL     1      64.897  -2.680  48.736  1.00  0.00     0.093 C 
HETATM    8  O1  UNL     1      63.285  -1.633  47.439  1.00  0.00    -0.296 OA
ENDBRANCH   1   6
BRANCH   1   9
HETATM    9  N1  UNL     1      63.820  -3.569  45.373  1.00  0.00    -0.406 N 
ATOM     10  H1  UNL     1      63.338  -3.118  44.595  1.00  0.00     0.154 HD
BRANCH   9  11
HETATM   11  C4  UNL     1      63.551  -4.919  45.722  1.00  0.00     0.125 C 
BRANCH  11  12
HETATM   12  C5  UNL     1      62.029  -5.096  45.672  1.00  0.00     0.093 C 
BRANCH  12  13
HETATM   13  S1  UNL     1      61.171  -4.509  47.100  1.00  0.00    -0.163 SA
BRANCH  13  14
HETATM   14  C6  UNL     1      59.982  -5.551  47.869  1.00  0.00     0.047 C 
HETATM   15  C7  UNL     1      59.017  -4.860  48.790  1.00  0.00     0.015 C 
HETATM   16  C8  UNL     1      57.604  -5.290  48.684  1.00  0.00     0.001 C 
HETATM   17  C9  UNL     1      57.364  -6.736  48.435  1.00  0.00     0.000 C 
HETATM   18  C10 UNL     1      58.540  -7.476  47.839  1.00  0.00     0.001 C 
HETATM   19  C11 UNL     1      59.222  -6.441  46.912  1.00  0.00     0.015 C 
ENDBRANCH  13  14
ENDBRANCH  12  13
ENDBRANCH  11  12
ENDBRANCH   9  11
ENDBRANCH   1   9
BRANCH   4  20
HETATM   20  C15 UNL     1      67.893  -1.209  45.165  1.00  0.00     0.010 C 
BRANCH  20  21
HETATM   21  C16 UNL     1      67.757  -0.131  44.062  1.00  0.00     0.045 C 
BRANCH  21  22
HETATM   22  C17 UNL     1      69.120   0.428  43.865  1.00  0.00     0.060 C 
BRANCH  22  23
HETATM   23  N2  UNL     1      70.211  -0.387  43.735  1.00  0.00    -0.382 N 
ATOM     24  H2  UNL     1      70.721  -0.559  44.601  1.00  0.00     0.164 HD
BRANCH  23  25
HETATM   25  C18 UNL     1      70.728  -1.009  42.628  1.00  0.00     0.064 C 
BRANCH  25  26
HETATM   26  C19 UNL     1      70.281  -2.436  42.414  1.00  0.00     0.024 C 
HETATM   27  C20 UNL     1      70.518  -3.215  43.715  1.00  0.00     0.010 C 
HETATM   28  C21 UNL     1      70.916  -4.620  43.344  1.00  0.00     0.001 C 
HETATM   29  C22 UNL     1      72.344  -4.544  42.792  1.00  0.00     0.000 C 
HETATM   30  C23 UNL     1      72.451  -3.490  41.734  1.00  0.00     0.001 C 
HETATM   31  C24 UNL     1      71.057  -3.062  41.293  1.00  0.00     0.010 C 
ENDBRANCH  25  26
ENDBRANCH  23  25
ENDBRANCH  22  23
ENDBRANCH  21  22
ENDBRANCH  20  21
ENDBRANCH   4  20
TORSDOF 12
ENDMDL
MODEL 3
REMARK VINA RESULT: -5.664682537      3.439      9.688
REMARK  12 active torsions:
REMARK  status: ('A' for Active; 'I' for Inactive)
REMARK    1  A    between atoms: C2_2  and  C3_4 
REMARK    2  A    between atoms: C3_4  and  N1_5 
REMARK    3  A    between atoms: N1_5  and  C4_7 
REMARK    4  A    between atoms: C4_7  and  C5_8 
REMARK    5  A    between atoms: C5_8  and  S1_9 
REMARK    6  A    between atoms: S1_9  and  C6_10 
REMARK    7  A    between atoms: C14_18  and  C15_19 
REMARK    8  A    between atoms: C15_19  and  C16_20 
REMARK    9  A    between atoms: C16_20  and  C17_21 
REMARK   10  A    between atoms: C17_21  and  N2_22 
REMARK   11  A    between atoms: N2_22  and  C18_24 
REMARK   12  A    between atoms: C18_24  and  C19_25 
ROOT
HETATM    1  C3  UNL     1      63.006  -2.437  46.809  1.00  0.00     0.086 C 
HETATM    2  C12 UNL     1      63.964  -1.342  47.265  1.00  0.00     0.039 C 
HETATM    3  C13 UNL     1      65.288  -1.935  47.568  1.00  0.00     0.007 C 
HETATM    4  C14 UNL     1      65.132  -3.412  47.463  1.00  0.00    -0.011 C 
HETATM    5  C25 UNL     1      63.856  -3.648  46.696  1.00  0.00     0.043 C 
ENDROOT
BRANCH   1   6
HETATM    6  C2  UNL     1      62.493  -2.065  45.441  1.00  0.00     0.150 C 
HETATM    7  C1  UNL     1      63.388  -2.068  44.265  1.00  0.00     0.093 C 
HETATM    8  O1  UNL     1      61.343  -1.765  45.317  1.00  0.00    -0.296 OA
ENDBRANCH   1   6
BRANCH   1   9
HETATM    9  N1  UNL     1      61.987  -2.520  47.799  1.00  0.00    -0.406 N 
ATOM     10  H1  UNL     1      61.618  -1.682  48.249  1.00  0.00     0.154 HD
BRANCH   9  11
HETATM   11  C4  UNL     1      61.500  -3.811  48.138  1.00  0.00     0.125 C 
BRANCH  11  12
HETATM   12  C5  UNL     1      59.974  -3.763  47.997  1.00  0.00     0.093 C 
BRANCH  12  13
HETATM   13  S1  UNL     1      59.335  -4.643  46.605  1.00  0.00    -0.163 SA
BRANCH  13  14
HETATM   14  C6  UNL     1      60.330  -5.881  45.851  1.00  0.00     0.047 C 
HETATM   15  C7  UNL     1      59.604  -7.131  45.441  1.00  0.00     0.015 C 
HETATM   16  C8  UNL     1      59.969  -7.684  44.117  1.00  0.00     0.001 C 
HETATM   17  C9  UNL     1      61.401  -7.589  43.725  1.00  0.00     0.000 C 
HETATM   18  C10 UNL     1      62.187  -6.533  44.469  1.00  0.00     0.001 C 
HETATM   19  C11 UNL     1      61.176  -5.386  44.700  1.00  0.00     0.015 C 
ENDBRANCH  13  14
ENDBRANCH  12  13
ENDBRANCH  11  12
ENDBRANCH   9  11
ENDBRANCH   1   9
BRANCH   4  20
HETATM   20  C15 UNL     1      66.334  -3.941  46.669  1.00  0.00     0.010 C 
BRANCH  20  21
HETATM   21  C16 UNL     1      66.714  -2.890  45.596  1.00  0.00     0.045 C 
BRANCH  21  22
HETATM   22  C17 UNL     1      68.126  -3.170  45.228  1.00  0.00     0.060 C 
BRANCH  22  23
HETATM   23  N2  UNL     1      69.075  -2.186  45.254  1.00  0.00    -0.382 N 
ATOM     24  H2  UNL     1      69.562  -2.085  46.145  1.00  0.00     0.164 HD
BRANCH  23  25
HETATM   25  C18 UNL     1      69.477  -1.313  44.276  1.00  0.00     0.064 C 
BRANCH  25  26
HETATM   26  C19 UNL     1      69.212   0.147  44.556  1.00  0.00     0.024 C 
HETATM   27  C20 UNL     1      68.654   0.270  45.981  1.00  0.00     0.010 C 
HETATM   28  C21 UNL     1      67.649   1.393  45.985  1.00  0.00     0.001 C 
HETATM   29  C22 UNL     1      66.412   0.881  45.237  1.00  0.00     0.000 C 
HETATM   30  C23 UNL     1      66.795   0.298  43.913  1.00  0.00     0.001 C 
HETATM   31  C24 UNL     1      68.225   0.696  43.569  1.00  0.00     0.010 C 
ENDBRANCH  25  26
ENDBRANCH  23  25
ENDBRANCH  22  23
ENDBRANCH  21  22
ENDBRANCH  20  21
ENDBRANCH   4  20
TORSDOF 12
ENDMDL
MODEL 4
REMARK VINA RESULT: -5.573250404      3.615     11.329
REMARK  12 active torsions:
REMARK  status: ('A' for Active; 'I' for Inactive)
REMARK    1  A    between atoms: C2_2  and  C3_4 
REMARK    2  A    between atoms: C3_4  and  N1_5 
REMARK    3  A    between atoms: N1_5  and  C4_7 
REMARK    4  A    between atoms: C4_7  and  C5_8 
REMARK    5  A    between atoms: C5_8  and  S1_9 
REMARK    6  A    between atoms: S1_9  and  C6_10 
REMARK    7  A    between atoms: C14_18  and  C15_19 
REMARK    8  A    between atoms: C15_19  and  C16_20 
REMARK    9  A    between atoms: C16_20  and  C17_21 
REMARK   10  A    between atoms: C17_21  and  N2_22 
REMARK   11  A    between atoms: N2_22  and  C18_24 
REMARK   12  A    between atoms: C18_24  and  C19_25 
ROOT
HETATM    1  C3  UNL     1      64.920  -2.644  46.068  1.00  0.00     0.086 C 
HETATM    2  C12 UNL     1      65.690  -3.872  46.542  1.00  0.00     0.039 C 
HETATM    3  C13 UNL     1      67.065  -3.838  45.989  1.00  0.00     0.007 C 
HETATM    4  C14 UNL     1      67.121  -2.689  45.044  1.00  0.00    -0.011 C 
HETATM    5  C25 UNL     1      65.933  -1.818  45.367  1.00  0.00     0.043 C 
ENDROOT
BRANCH   1   6
HETATM    6  C2  UNL     1      64.435  -1.901  47.288  1.00  0.00     0.150 C 
HETATM    7  C1  UNL     1      65.170  -1.976  48.567  1.00  0.00     0.093 C 
HETATM    8  O1  UNL     1      63.440  -1.244  47.207  1.00  0.00    -0.296 OA
ENDBRANCH   1   6
BRANCH   1   9
HETATM    9  N1  UNL     1      63.869  -3.124  45.236  1.00  0.00    -0.406 N 
ATOM     10  H1  UNL     1      63.503  -2.559  44.469  1.00  0.00     0.154 HD
BRANCH   9  11
HETATM   11  C4  UNL     1      63.349  -4.417  45.509  1.00  0.00     0.125 C 
BRANCH  11  12
HETATM   12  C5  UNL     1      61.824  -4.278  45.578  1.00  0.00     0.093 C 
BRANCH  12  13
HETATM   13  S1  UNL     1      61.144  -4.422  47.203  1.00  0.00    -0.163 SA
BRANCH  13  14
HETATM   14  C6  UNL     1      59.517  -5.060  47.391  1.00  0.00     0.047 C 
HETATM   15  C7  UNL     1      59.332  -6.492  46.973  1.00  0.00     0.015 C 
HETATM   16  C8  UNL     1      58.507  -7.326  47.875  1.00  0.00     0.001 C 
HETATM   17  C9  UNL     1      57.336  -6.665  48.511  1.00  0.00     0.000 C 
HETATM   18  C10 UNL     1      57.417  -5.155  48.560  1.00  0.00     0.001 C 
HETATM   19  C11 UNL     1      58.921  -4.853  48.765  1.00  0.00     0.015 C 
ENDBRANCH  13  14
ENDBRANCH  12  13
ENDBRANCH  11  12
ENDBRANCH   9  11
ENDBRANCH   1   9
BRANCH   4  20
HETATM   20  C15 UNL     1      68.426  -1.931  45.325  1.00  0.00     0.010 C 
BRANCH  20  21
HETATM   21  C16 UNL     1      69.527  -2.486  44.387  1.00  0.00     0.045 C 
BRANCH  21  22
HETATM   22  C17 UNL     1      70.090  -1.309  43.674  1.00  0.00     0.060 C 
BRANCH  22  23
HETATM   23  N2  UNL     1      69.430  -0.111  43.649  1.00  0.00    -0.382 N 
ATOM     24  H2  UNL     1      68.438  -0.174  43.420  1.00  0.00     0.164 HD
BRANCH  23  25
HETATM   25  C18 UNL     1      69.888   1.160  43.880  1.00  0.00     0.064 C 
BRANCH  25  26
HETATM   26  C19 UNL     1      68.830   2.182  44.221  1.00  0.00     0.024 C 
HETATM   27  C20 UNL     1      69.529   3.435  44.766  1.00  0.00     0.010 C 
HETATM   28  C21 UNL     1      68.643   4.029  45.831  1.00  0.00     0.001 C 
HETATM   29  C22 UNL     1      68.731   3.100  47.048  1.00  0.00     0.000 C 
HETATM   30  C23 UNL     1      68.482   1.678  46.651  1.00  0.00     0.001 C 
HETATM   31  C24 UNL     1      67.886   1.632  45.249  1.00  0.00     0.010 C 
ENDBRANCH  25  26
ENDBRANCH  23  25
ENDBRANCH  22  23
ENDBRANCH  21  22
ENDBRANCH  20  21
ENDBRANCH   4  20
TORSDOF 12
ENDMDL
MODEL 5
REMARK VINA RESULT: -5.562601746      4.194     10.239
REMARK  12 active torsions:
REMARK  status: ('A' for Active; 'I' for Inactive)
REMARK    1  A    between atoms: C2_2  and  C3_4 
REMARK    2  A    between atoms: C3_4  and  N1_5 
REMARK    3  A    between atoms: N1_5  and  C4_7 
REMARK    4  A    between atoms: C4_7  and  C5_8 
REMARK    5  A    between atoms: C5_8  and  S1_9 
REMARK    6  A    between atoms: S1_9  and  C6_10 
REMARK    7  A    between atoms: C14_18  and  C15_19 
REMARK    8  A    between atoms: C15_19  and  C16_20 
REMARK    9  A    between atoms: C16_20  and  C17_21 
REMARK   10  A    between atoms: C17_21  and  N2_22 
REMARK   11  A    between atoms: N2_22  and  C18_24 
REMARK   12  A    between atoms: C18_24  and  C19_25 
ROOT
HETATM    1  C3  UNL     1      64.815  -2.782  46.031  1.00  0.00     0.086 C 
HETATM    2  C12 UNL     1      65.790  -3.888  46.421  1.00  0.00     0.039 C 
HETATM    3  C13 UNL     1      67.104  -3.638  45.782  1.00  0.00     0.007 C 
HETATM    4  C14 UNL     1      66.925  -2.477  44.867  1.00  0.00    -0.011 C 
HETATM    5  C25 UNL     1      65.645  -1.801  45.290  1.00  0.00     0.043 C 
ENDROOT
BRANCH   1   6
HETATM    6  C2  UNL     1      64.310  -2.142  47.299  1.00  0.00     0.150 C 
HETATM    7  C1  UNL     1      64.918  -2.459  48.607  1.00  0.00     0.093 C 
HETATM    8  O1  UNL     1      63.402  -1.367  47.233  1.00  0.00    -0.296 OA
ENDBRANCH   1   6
BRANCH   1   9
HETATM    9  N1  UNL     1      63.794  -3.399  45.255  1.00  0.00    -0.406 N 
ATOM     10  H1  UNL     1      63.377  -2.921  44.456  1.00  0.00     0.154 HD
BRANCH   9  11
HETATM   11  C4  UNL     1      63.377  -4.703  45.631  1.00  0.00     0.125 C 
BRANCH  11  12
HETATM   12  C5  UNL     1      61.855  -4.648  45.815  1.00  0.00     0.093 C 
BRANCH  12  13
HETATM   13  S1  UNL     1      61.321  -4.473  47.489  1.00  0.00    -0.163 SA
BRANCH  13  14
HETATM   14  C6  UNL     1      60.014  -5.491  48.077  1.00  0.00     0.047 C 
HETATM   15  C7  UNL     1      58.927  -4.776  48.830  1.00  0.00     0.015 C 
HETATM   16  C8  UNL     1      57.542  -5.190  48.512  1.00  0.00     0.001 C 
HETATM   17  C9  UNL     1      57.323  -6.637  48.246  1.00  0.00     0.000 C 
HETATM   18  C10 UNL     1      58.568  -7.398  47.848  1.00  0.00     0.001 C 
HETATM   19  C11 UNL     1      59.398  -6.384  47.025  1.00  0.00     0.015 C 
ENDBRANCH  13  14
ENDBRANCH  12  13
ENDBRANCH  11  12
ENDBRANCH   9  11
ENDBRANCH   1   9
BRANCH   4  20
HETATM   20  C15 UNL     1      68.119  -1.537  45.085  1.00  0.00     0.010 C 
BRANCH  20  21
HETATM   21  C16 UNL     1      69.423  -2.360  44.940  1.00  0.00     0.045 C 
BRANCH  21  22
HETATM   22  C17 UNL     1      69.884  -2.155  43.542  1.00  0.00     0.060 C 
BRANCH  22  23
HETATM   23  N2  UNL     1      70.652  -3.090  42.904  1.00  0.00    -0.382 N 
ATOM     24  H2  UNL     1      70.550  -3.107  41.889  1.00  0.00     0.164 HD
BRANCH  23  25
HETATM   25  C18 UNL     1      71.537  -4.008  43.409  1.00  0.00     0.064 C 
BRANCH  25  26
HETATM   26  C19 UNL     1      72.244  -4.864  42.384  1.00  0.00     0.024 C 
HETATM   27  C20 UNL     1      71.235  -5.237  41.290  1.00  0.00     0.010 C 
HETATM   28  C21 UNL     1      71.562  -6.630  40.818  1.00  0.00     0.001 C 
HETATM   29  C22 UNL     1      71.136  -7.587  41.937  1.00  0.00     0.000 C 
HETATM   30  C23 UNL     1      71.698  -7.151  43.254  1.00  0.00     0.001 C 
HETATM   31  C24 UNL     1      72.785  -6.107  43.028  1.00  0.00     0.010 C 
ENDBRANCH  25  26
ENDBRANCH  23  25
ENDBRANCH  22  23
ENDBRANCH  21  22
ENDBRANCH  20  21
ENDBRANCH   4  20
TORSDOF 12
ENDMDL
