MODEL 1
REMARK VINA RESULT: -6.455537289      0.000      0.000
REMARK  12 active torsions:
REMARK  status: ('A' for Active; 'I' for Inactive)
REMARK    1  A    between atoms: C2_2  and  C13_21 
REMARK    2  A    between atoms: C3_3  and  C4_4 
REMARK    3  A    between atoms: C4_4  and  C5_5 
REMARK    4  A    between atoms: C4_4  and  C9_13 
REMARK    5  A    between atoms: C5_5  and  C6_6 
REMARK    6  A    between atoms: C6_6  and  O1_7 
REMARK    7  A    between atoms: C6_6  and  C7_9 
REMARK    8  A    between atoms: C7_9  and  C8_10 
REMARK    9  A    between atoms: C13_21  and  C14_22 
REMARK   10  A    between atoms: C14_22  and  C15_23 
REMARK   11  A    between atoms: C15_23  and  C17_25 
REMARK   12  A    between atoms: C20_28  and  C21_29 
ROOT
HETATM    1  C4  UNL     1      68.559  -0.512  44.746  1.00  0.00     0.046 C 
ENDROOT
BRANCH   1   2
HETATM    2  C3  UNL     1      67.287  -0.684  44.053  1.00  0.00    -0.015 C 
HETATM    3  C2  UNL     1      66.172  -1.202  44.580  1.00  0.00    -0.087 C 
HETATM    4  C1  UNL     1      65.004  -1.263  43.638  1.00  0.00     0.043 C 
BRANCH   3   5
HETATM    5  C13 UNL     1      66.049  -1.668  45.973  1.00  0.00     0.034 C 
BRANCH   5   6
HETATM    6  C14 UNL     1      66.002  -3.105  46.229  1.00  0.00     0.009 C 
BRANCH   6   7
HETATM    7  C15 UNL     1      65.183  -3.740  47.264  1.00  0.00    -0.014 C 
HETATM    8  C16 UNL     1      64.914  -2.572  48.297  1.00  0.00     0.010 C 
BRANCH   7   9
HETATM    9  C17 UNL     1      63.775  -4.126  46.888  1.00  0.00    -0.011 C 
HETATM   10  C18 UNL     1      62.711  -3.326  47.601  1.00  0.00     0.005 C 
HETATM   11  C19 UNL     1      61.463  -4.171  47.656  1.00  0.00     0.005 C 
HETATM   12  C20 UNL     1      61.432  -5.296  46.668  1.00  0.00    -0.011 C 
HETATM   13  C24 UNL     1      62.080  -5.006  45.365  1.00  0.00     0.005 C 
HETATM   14  C25 UNL     1      63.435  -4.339  45.481  1.00  0.00     0.005 C 
BRANCH  12  15
HETATM   15  C21 UNL     1      60.019  -5.795  46.434  1.00  0.00    -0.019 C 
HETATM   16  C22 UNL     1      59.368  -6.377  47.644  1.00  0.00     0.010 C 
HETATM   17  C23 UNL     1      60.019  -6.863  45.356  1.00  0.00     0.010 C 
ENDBRANCH  12  15
ENDBRANCH   7   9
ENDBRANCH   6   7
ENDBRANCH   5   6
ENDBRANCH   3   5
ENDBRANCH   1   2
BRANCH   1  18
HETATM   18  C5  UNL     1      69.736  -0.792  43.822  1.00  0.00     0.045 C 
BRANCH  18  19
HETATM   19  C6  UNL     1      69.951  -2.251  43.629  1.00  0.00     0.129 C 
BRANCH  19  20
HETATM   20  O1  UNL     1      70.107  -2.832  44.892  1.00  0.00    -0.395 OA
ATOM     21  H1  UNL     1      69.362  -2.578  45.423  1.00  0.00     0.210 HD
ENDBRANCH  19  20
BRANCH  19  22
HETATM   22  C7  UNL     1      71.090  -2.586  42.736  1.00  0.00     0.144 C 
BRANCH  22  23
HETATM   23  C8  UNL     1      71.900  -3.738  43.088  1.00  0.00     0.175 C 
HETATM   24  O2  UNL     1      73.153  -3.689  42.890  1.00  0.00    -0.648 OA
HETATM   25  O3  UNL     1      71.426  -4.916  43.633  1.00  0.00    -0.648 OA
ENDBRANCH  22  23
ENDBRANCH  19  22
ENDBRANCH  18  19
ENDBRANCH   1  18
BRANCH   1  26
HETATM   26  C9  UNL     1      68.742   0.859  45.302  1.00  0.00    -0.019 A 
HETATM   27  C10 UNL     1      69.210   1.902  44.530  1.00  0.00     0.098 A 
HETATM   28  N1  UNL     1      69.362   3.118  45.067  1.00  0.00    -0.362 N 
HETATM   29  C11 UNL     1      69.087   3.409  46.344  1.00  0.00     0.180 A 
ATOM     30  H1  UNL     1      69.710   3.867  44.468  1.00  0.00     0.166 HD
HETATM   31  N2  UNL     1      68.624   2.382  47.112  1.00  0.00    -0.362 N 
HETATM   32  C12 UNL     1      68.457   1.153  46.613  1.00  0.00     0.098 A 
ATOM     33  H2  UNL     1      68.399   2.556  48.091  1.00  0.00     0.166 HD
ENDBRANCH   1  26
TORSDOF 12
ENDMDL
MODEL 2
REMARK VINA RESULT: -6.424819276      3.123      5.327
REMARK  12 active torsions:
REMARK  status: ('A' for Active; 'I' for Inactive)
REMARK    1  A    between atoms: C2_2  and  C13_21 
REMARK    2  A    between atoms: C3_3  and  C4_4 
REMARK    3  A    between atoms: C4_4  and  C5_5 
REMARK    4  A    between atoms: C4_4  and  C9_13 
REMARK    5  A    between atoms: C5_5  and  C6_6 
REMARK    6  A    between atoms: C6_6  and  O1_7 
REMARK    7  A    between atoms: C6_6  and  C7_9 
REMARK    8  A    between atoms: C7_9  and  C8_10 
REMARK    9  A    between atoms: C13_21  and  C14_22 
REMARK   10  A    between atoms: C14_22  and  C15_23 
REMARK   11  A    between atoms: C15_23  and  C17_25 
REMARK   12  A    between atoms: C20_28  and  C21_29 
ROOT
HETATM    1  C4  UNL     1      69.721   2.862  44.293  1.00  0.00     0.046 C 
ENDROOT
BRANCH   1   2
HETATM    2  C3  UNL     1      68.831   2.299  43.284  1.00  0.00    -0.015 C 
HETATM    3  C2  UNL     1      69.055   1.185  42.577  1.00  0.00    -0.087 C 
HETATM    4  C1  UNL     1      67.968   0.834  41.602  1.00  0.00     0.043 C 
BRANCH   3   5
HETATM    5  C13 UNL     1      70.247   0.331  42.725  1.00  0.00     0.034 C 
BRANCH   5   6
HETATM    6  C14 UNL     1      70.186  -0.802  43.644  1.00  0.00     0.009 C 
BRANCH   6   7
HETATM    7  C15 UNL     1      69.264  -1.933  43.511  1.00  0.00    -0.014 C 
HETATM    8  C16 UNL     1      70.154  -3.186  43.883  1.00  0.00     0.010 C 
BRANCH   7   9
HETATM    9  C17 UNL     1      68.159  -2.045  44.531  1.00  0.00    -0.011 C 
HETATM   10  C18 UNL     1      68.243  -3.288  45.387  1.00  0.00     0.005 C 
HETATM   11  C19 UNL     1      66.849  -3.608  45.865  1.00  0.00     0.005 C 
HETATM   12  C20 UNL     1      65.886  -2.465  45.782  1.00  0.00    -0.011 C 
HETATM   13  C24 UNL     1      66.475  -1.127  46.044  1.00  0.00     0.005 C 
HETATM   14  C25 UNL     1      67.782  -0.873  45.321  1.00  0.00     0.005 C 
BRANCH  12  15
HETATM   15  C21 UNL     1      64.686  -2.678  46.685  1.00  0.00    -0.019 C 
HETATM   16  C22 UNL     1      64.979  -2.510  48.138  1.00  0.00     0.010 C 
HETATM   17  C23 UNL     1      64.131  -4.076  46.488  1.00  0.00     0.010 C 
ENDBRANCH  12  15
ENDBRANCH   7   9
ENDBRANCH   6   7
ENDBRANCH   5   6
ENDBRANCH   3   5
ENDBRANCH   1   2
BRANCH   1  18
HETATM   18  C5  UNL     1      70.539   4.015  43.728  1.00  0.00     0.045 C 
BRANCH  18  19
HETATM   19  C6  UNL     1      71.998   3.807  43.926  1.00  0.00     0.129 C 
BRANCH  19  20
HETATM   20  O1  UNL     1      72.589   5.062  44.110  1.00  0.00    -0.395 OA
ATOM     21  H1  UNL     1      73.404   4.933  44.580  1.00  0.00     0.210 HD
ENDBRANCH  19  20
BRANCH  19  22
HETATM   22  C7  UNL     1      72.660   3.053  42.832  1.00  0.00     0.144 C 
BRANCH  22  23
HETATM   23  C8  UNL     1      73.975   2.498  43.101  1.00  0.00     0.175 C 
HETATM   24  O2  UNL     1      74.607   1.936  42.155  1.00  0.00    -0.648 OA
HETATM   25  O3  UNL     1      74.622   2.523  44.322  1.00  0.00    -0.648 OA
ENDBRANCH  22  23
ENDBRANCH  19  22
ENDBRANCH  18  19
ENDBRANCH   1  18
BRANCH   1  26
HETATM   26  C9  UNL     1      68.999   3.371  45.493  1.00  0.00    -0.019 A 
HETATM   27  C10 UNL     1      67.684   3.040  45.747  1.00  0.00     0.098 A 
HETATM   28  N1  UNL     1      67.070   3.519  46.835  1.00  0.00    -0.362 N 
HETATM   29  C11 UNL     1      67.656   4.326  47.728  1.00  0.00     0.180 A 
ATOM     30  H1  UNL     1      66.097   3.254  46.993  1.00  0.00     0.166 HD
HETATM   31  N2  UNL     1      68.956   4.657  47.482  1.00  0.00    -0.362 N 
HETATM   32  C12 UNL     1      69.605   4.199  46.407  1.00  0.00     0.098 A 
ATOM     33  H2  UNL     1      69.444   5.269  48.135  1.00  0.00     0.166 HD
ENDBRANCH   1  26
TORSDOF 12
ENDMDL
MODEL 3
REMARK VINA RESULT: -6.361802188      1.137      1.647
REMARK  12 active torsions:
REMARK  status: ('A' for Active; 'I' for Inactive)
REMARK    1  A    between atoms: C2_2  and  C13_21 
REMARK    2  A    between atoms: C3_3  and  C4_4 
REMARK    3  A    between atoms: C4_4  and  C5_5 
REMARK    4  A    between atoms: C4_4  and  C9_13 
REMARK    5  A    between atoms: C5_5  and  C6_6 
REMARK    6  A    between atoms: C6_6  and  O1_7 
REMARK    7  A    between atoms: C6_6  and  C7_9 
REMARK    8  A    between atoms: C7_9  and  C8_10 
REMARK    9  A    between atoms: C13_21  and  C14_22 
REMARK   10  A    between atoms: C14_22  and  C15_23 
REMARK   11  A    between atoms: C15_23  and  C17_25 
REMARK   12  A    between atoms: C20_28  and  C21_29 
ROOT
HETATM    1  C4  UNL     1      69.069  -0.915  43.706  1.00  0.00     0.046 C 
ENDROOT
BRANCH   1   2
HETATM    2  C3  UNL     1      67.618  -0.886  43.562  1.00  0.00    -0.015 C 
HETATM    3  C2  UNL     1      66.737  -1.459  44.390  1.00  0.00    -0.087 C 
HETATM    4  C1  UNL     1      65.299  -1.272  44.001  1.00  0.00     0.043 C 
BRANCH   3   5
HETATM    5  C13 UNL     1      67.104  -2.204  45.608  1.00  0.00     0.034 C 
BRANCH   5   6
HETATM    6  C14 UNL     1      66.397  -3.445  45.909  1.00  0.00     0.009 C 
BRANCH   6   7
HETATM    7  C15 UNL     1      65.545  -3.655  47.083  1.00  0.00    -0.014 C 
HETATM    8  C16 UNL     1      65.334  -2.196  47.657  1.00  0.00     0.010 C 
BRANCH   7   9
HETATM    9  C17 UNL     1      64.120  -4.081  46.833  1.00  0.00    -0.011 C 
HETATM   10  C18 UNL     1      63.092  -3.139  47.414  1.00  0.00     0.005 C 
HETATM   11  C19 UNL     1      61.836  -3.935  47.670  1.00  0.00     0.005 C 
HETATM   12  C20 UNL     1      61.757  -5.228  46.919  1.00  0.00    -0.011 C 
HETATM   13  C24 UNL     1      62.362  -5.204  45.563  1.00  0.00     0.005 C 
HETATM   14  C25 UNL     1      63.728  -4.552  45.505  1.00  0.00     0.005 C 
BRANCH  12  15
HETATM   15  C21 UNL     1      60.331  -5.736  46.830  1.00  0.00    -0.019 C 
HETATM   16  C22 UNL     1      59.551  -5.173  45.690  1.00  0.00     0.010 C 
HETATM   17  C23 UNL     1      59.582  -5.402  48.107  1.00  0.00     0.010 C 
ENDBRANCH  12  15
ENDBRANCH   7   9
ENDBRANCH   6   7
ENDBRANCH   5   6
ENDBRANCH   3   5
ENDBRANCH   1   2
BRANCH   1  18
HETATM   18  C5  UNL     1      69.721  -1.711  42.584  1.00  0.00     0.045 C 
BRANCH  18  19
HETATM   19  C6  UNL     1      70.335  -2.970  43.085  1.00  0.00     0.129 C 
BRANCH  19  20
HETATM   20  O1  UNL     1      70.409  -2.886  44.480  1.00  0.00    -0.395 OA
ATOM     21  H1  UNL     1      71.225  -3.287  44.753  1.00  0.00     0.210 HD
ENDBRANCH  19  20
BRANCH  19  22
HETATM   22  C7  UNL     1      71.662  -3.279  42.492  1.00  0.00     0.144 C 
BRANCH  22  23
HETATM   23  C8  UNL     1      72.471  -4.289  43.151  1.00  0.00     0.175 C 
HETATM   24  O2  UNL     1      71.901  -5.327  43.606  1.00  0.00    -0.648 OA
HETATM   25  O3  UNL     1      73.839  -4.227  43.335  1.00  0.00    -0.648 OA
ENDBRANCH  22  23
ENDBRANCH  19  22
ENDBRANCH  18  19
ENDBRANCH   1  18
BRANCH   1  26
HETATM   26  C9  UNL     1      69.685   0.442  43.709  1.00  0.00    -0.019 A 
HETATM   27  C10 UNL     1      70.822   0.727  42.982  1.00  0.00     0.098 A 
HETATM   28  N1  UNL     1      71.346   1.959  43.012  1.00  0.00    -0.362 N 
HETATM   29  C11 UNL     1      70.832   2.971  43.721  1.00  0.00     0.180 A 
ATOM     30  H1  UNL     1      72.187   2.136  42.462  1.00  0.00     0.166 HD
HETATM   31  N2  UNL     1      69.708   2.694  44.441  1.00  0.00    -0.362 N 
HETATM   32  C12 UNL     1      69.153   1.478  44.437  1.00  0.00     0.098 A 
ATOM     33  H2  UNL     1      69.280   3.435  44.997  1.00  0.00     0.166 HD
ENDBRANCH   1  26
TORSDOF 12
ENDMDL
MODEL 4
REMARK VINA RESULT: -6.293284233      1.396      1.792
REMARK  12 active torsions:
REMARK  status: ('A' for Active; 'I' for Inactive)
REMARK    1  A    between atoms: C2_2  and  C13_21 
REMARK    2  A    between atoms: C3_3  and  C4_4 
REMARK    3  A    between atoms: C4_4  and  C5_5 
REMARK    4  A    between atoms: C4_4  and  C9_13 
REMARK    5  A    between atoms: C5_5  and  C6_6 
REMARK    6  A    between atoms: C6_6  and  O1_7 
REMARK    7  A    between atoms: C6_6  and  C7_9 
REMARK    8  A    between atoms: C7_9  and  C8_10 
REMARK    9  A    between atoms: C13_21  and  C14_22 
REMARK   10  A    between atoms: C14_22  and  C15_23 
REMARK   11  A    between atoms: C15_23  and  C17_25 
REMARK   12  A    between atoms: C20_28  and  C21_29 
ROOT
HETATM    1  C4  UNL     1      67.712   0.584  45.222  1.00  0.00     0.046 C 
ENDROOT
BRANCH   1   2
HETATM    2  C3  UNL     1      66.419   0.103  44.749  1.00  0.00    -0.015 C 
HETATM    3  C2  UNL     1      65.923  -1.126  44.938  1.00  0.00    -0.087 C 
HETATM    4  C1  UNL     1      64.565  -1.351  44.340  1.00  0.00     0.043 C 
BRANCH   3   5
HETATM    5  C13 UNL     1      66.611  -2.194  45.686  1.00  0.00     0.034 C 
BRANCH   5   6
HETATM    6  C14 UNL     1      65.919  -3.463  45.888  1.00  0.00     0.009 C 
BRANCH   6   7
HETATM    7  C15 UNL     1      65.244  -3.855  47.128  1.00  0.00    -0.014 C 
HETATM    8  C16 UNL     1      65.123  -2.498  47.932  1.00  0.00     0.010 C 
BRANCH   7   9
HETATM    9  C17 UNL     1      63.796  -4.263  47.024  1.00  0.00    -0.011 C 
HETATM   10  C18 UNL     1      62.826  -3.180  47.434  1.00  0.00     0.005 C 
HETATM   11  C19 UNL     1      61.557  -3.854  47.895  1.00  0.00     0.005 C 
HETATM   12  C20 UNL     1      61.403  -5.269  47.432  1.00  0.00    -0.011 C 
HETATM   13  C24 UNL     1      61.947  -5.551  46.080  1.00  0.00     0.005 C 
HETATM   14  C25 UNL     1      63.331  -4.982  45.838  1.00  0.00     0.005 C 
BRANCH  12  15
HETATM   15  C21 UNL     1      59.958  -5.726  47.503  1.00  0.00    -0.019 C 
HETATM   16  C22 UNL     1      59.267  -5.775  46.182  1.00  0.00     0.010 C 
HETATM   17  C23 UNL     1      59.164  -4.795  48.401  1.00  0.00     0.010 C 
ENDBRANCH  12  15
ENDBRANCH   7   9
ENDBRANCH   6   7
ENDBRANCH   5   6
ENDBRANCH   3   5
ENDBRANCH   1   2
BRANCH   1  18
HETATM   18  C5  UNL     1      68.669   0.829  44.064  1.00  0.00     0.045 C 
BRANCH  18  19
HETATM   19  C6  UNL     1      69.801  -0.137  44.070  1.00  0.00     0.129 C 
BRANCH  19  20
HETATM   20  O1  UNL     1      70.892   0.478  43.444  1.00  0.00    -0.395 OA
ATOM     21  H1  UNL     1      71.498  -0.204  43.182  1.00  0.00     0.210 HD
ENDBRANCH  19  20
BRANCH  19  22
HETATM   22  C7  UNL     1      69.487  -1.447  43.444  1.00  0.00     0.144 C 
BRANCH  22  23
HETATM   23  C8  UNL     1      70.591  -2.364  43.222  1.00  0.00     0.175 C 
HETATM   24  O2  UNL     1      71.310  -2.216  42.187  1.00  0.00    -0.648 OA
HETATM   25  O3  UNL     1      70.943  -3.411  44.052  1.00  0.00    -0.648 OA
ENDBRANCH  22  23
ENDBRANCH  19  22
ENDBRANCH  18  19
ENDBRANCH   1  18
BRANCH   1  26
HETATM   26  C9  UNL     1      67.616   1.852  46.000  1.00  0.00    -0.019 A 
HETATM   27  C10 UNL     1      66.499   2.659  45.943  1.00  0.00     0.098 A 
HETATM   28  N1  UNL     1      66.453   3.791  46.655  1.00  0.00    -0.362 N 
HETATM   29  C11 UNL     1      67.445   4.215  47.447  1.00  0.00     0.180 A 
ATOM     30  H1  UNL     1      65.611   4.364  46.591  1.00  0.00     0.166 HD
HETATM   31  N2  UNL     1      68.551   3.421  47.507  1.00  0.00    -0.362 N 
HETATM   32  C12 UNL     1      68.637   2.282  46.812  1.00  0.00     0.098 A 
ATOM     33  H2  UNL     1      69.333   3.703  48.098  1.00  0.00     0.166 HD
ENDBRANCH   1  26
TORSDOF 12
ENDMDL
MODEL 5
REMARK VINA RESULT: -6.254335846      3.808      8.227
REMARK  12 active torsions:
REMARK  status: ('A' for Active; 'I' for Inactive)
REMARK    1  A    between atoms: C2_2  and  C13_21 
REMARK    2  A    between atoms: C3_3  and  C4_4 
REMARK    3  A    between atoms: C4_4  and  C5_5 
REMARK    4  A    between atoms: C4_4  and  C9_13 
REMARK    5  A    between atoms: C5_5  and  C6_6 
REMARK    6  A    between atoms: C6_6  and  O1_7 
REMARK    7  A    between atoms: C6_6  and  C7_9 
REMARK    8  A    between atoms: C7_9  and  C8_10 
REMARK    9  A    between atoms: C13_21  and  C14_22 
REMARK   10  A    between atoms: C14_22  and  C15_23 
REMARK   11  A    between atoms: C15_23  and  C17_25 
REMARK   12  A    between atoms: C20_28  and  C21_29 
ROOT
HETATM    1  C4  UNL     1      67.675  -0.817  45.341  1.00  0.00     0.046 C 
ENDROOT
BRANCH   1   2
HETATM    2  C3  UNL     1      67.767  -0.731  43.888  1.00  0.00    -0.015 C 
HETATM    3  C2  UNL     1      68.828  -1.074  43.148  1.00  0.00    -0.087 C 
HETATM    4  C1  UNL     1      68.649  -0.881  41.670  1.00  0.00     0.043 C 
BRANCH   3   5
HETATM    5  C13 UNL     1      70.081  -1.623  43.696  1.00  0.00     0.034 C 
BRANCH   5   6
HETATM    6  C14 UNL     1      70.398  -3.026  43.448  1.00  0.00     0.009 C 
BRANCH   6   7
HETATM    7  C15 UNL     1      70.957  -3.545  42.197  1.00  0.00    -0.014 C 
HETATM    8  C16 UNL     1      72.454  -3.033  42.216  1.00  0.00     0.010 C 
BRANCH   7   9
HETATM    9  C17 UNL     1      71.159  -5.036  42.098  1.00  0.00    -0.011 C 
HETATM   10  C18 UNL     1      71.692  -5.492  40.760  1.00  0.00     0.005 C 
HETATM   11  C19 UNL     1      71.256  -6.921  40.557  1.00  0.00     0.005 C 
HETATM   12  C20 UNL     1      70.850  -7.630  41.812  1.00  0.00    -0.011 C 
HETATM   13  C24 UNL     1      71.616  -7.249  43.025  1.00  0.00     0.005 C 
HETATM   14  C25 UNL     1      71.793  -5.755  43.203  1.00  0.00     0.005 C 
BRANCH  12  15
HETATM   15  C21 UNL     1      70.886  -9.136  41.640  1.00  0.00    -0.019 C 
HETATM   16  C22 UNL     1      72.143  -9.650  41.022  1.00  0.00     0.010 C 
HETATM   17  C23 UNL     1      69.729  -9.586  40.767  1.00  0.00     0.010 C 
ENDBRANCH  12  15
ENDBRANCH   7   9
ENDBRANCH   6   7
ENDBRANCH   5   6
ENDBRANCH   3   5
ENDBRANCH   1   2
BRANCH   1  18
HETATM   18  C5  UNL     1      67.145   0.477  45.941  1.00  0.00     0.045 C 
BRANCH  18  19
HETATM   19  C6  UNL     1      68.238   1.450  46.210  1.00  0.00     0.129 C 
BRANCH  19  20
HETATM   20  O1  UNL     1      68.816   1.115  47.439  1.00  0.00    -0.395 OA
ATOM     21  H1  UNL     1      68.913   1.915  47.942  1.00  0.00     0.210 HD
ENDBRANCH  19  20
BRANCH  19  22
HETATM   22  C7  UNL     1      67.809   2.871  46.184  1.00  0.00     0.144 C 
BRANCH  22  23
HETATM   23  C8  UNL     1      68.452   3.782  47.114  1.00  0.00     0.175 C 
HETATM   24  O2  UNL     1      69.699   3.989  47.004  1.00  0.00    -0.648 OA
HETATM   25  O3  UNL     1      67.819   4.464  48.136  1.00  0.00    -0.648 OA
ENDBRANCH  22  23
ENDBRANCH  19  22
ENDBRANCH  18  19
ENDBRANCH   1  18
BRANCH   1  26
HETATM   26  C9  UNL     1      66.790  -1.923  45.807  1.00  0.00    -0.019 A 
HETATM   27  C10 UNL     1      65.607  -1.677  46.472  1.00  0.00     0.098 A 
HETATM   28  N1  UNL     1      64.841  -2.698  46.876  1.00  0.00    -0.362 N 
HETATM   29  C11 UNL     1      65.148  -3.985  46.678  1.00  0.00     0.180 A 
ATOM     30  H1  UNL     1      63.972  -2.481  47.365  1.00  0.00     0.166 HD
HETATM   31  N2  UNL     1      66.317  -4.233  46.020  1.00  0.00    -0.362 N 
HETATM   32  C12 UNL     1      67.110  -3.243  45.600  1.00  0.00     0.098 A 
ATOM     33  H2  UNL     1      66.593  -5.200  45.845  1.00  0.00     0.166 HD
ENDBRANCH   1  26
TORSDOF 12
ENDMDL
