MODEL 1
REMARK VINA RESULT: -5.463121423      0.000      0.000
REMARK  1 active torsions:
REMARK  status: ('A' for Active; 'I' for Inactive)
REMARK    1  A    between atoms: N2_7  and  O2_8 
ROOT
HETATM    1  C1  UNL     1      15.261 -14.966   1.864  1.00  0.00     0.051 C 
HETATM    2  C2  UNL     1      14.801 -15.161   3.290  1.00  0.00     0.112 C 
HETATM    3  C3  UNL     1      15.622 -14.417   4.283  1.00  0.00     0.051 C 
HETATM    4  O1  UNL     1      13.419 -14.759   3.310  1.00  0.00    -0.250 OA
HETATM    5  N1  UNL     1      12.739 -15.851   2.834  1.00  0.00    -0.184 N 
ATOM      6  H1  UNL     1      11.817 -15.799   2.402  1.00  0.00     0.218 HD
HETATM    7  N2  UNL     1      13.377 -16.924   2.990  1.00  0.00    -0.169 N 
HETATM    8  C4  UNL     1      14.619 -16.625   3.627  1.00  0.00     0.104 C 
HETATM    9  C5  UNL     1      15.789 -17.403   3.100  1.00  0.00     0.046 C 
HETATM   10  C6  UNL     1      14.438 -16.758   5.116  1.00  0.00     0.046 C 
ENDROOT
BRANCH   7  11
HETATM   11  O2  UNL     1      12.908 -18.160   2.595  1.00  0.00    -0.270 OA
ATOM     12  H2  UNL     1      13.259 -18.647   1.859  1.00  0.00     0.246 HD
ENDBRANCH   7  11
TORSDOF 1
ENDMDL
MODEL 2
REMARK VINA RESULT: -5.452159214      2.084      2.548
REMARK  1 active torsions:
REMARK  status: ('A' for Active; 'I' for Inactive)
REMARK    1  A    between atoms: N2_7  and  O2_8 
ROOT
HETATM    1  C1  UNL     1      17.075 -15.020   3.898  1.00  0.00     0.051 C 
HETATM    2  C2  UNL     1      15.754 -15.143   3.174  1.00  0.00     0.112 C 
HETATM    3  C3  UNL     1      15.374 -13.914   2.425  1.00  0.00     0.051 C 
HETATM    4  O1  UNL     1      15.888 -16.290   2.316  1.00  0.00    -0.250 OA
HETATM    5  N1  UNL     1      15.653 -17.362   3.139  1.00  0.00    -0.184 N 
ATOM      6  H1  UNL     1      15.996 -18.304   2.952  1.00  0.00     0.218 HD
HETATM    7  N2  UNL     1      14.967 -17.055   4.148  1.00  0.00    -0.169 N 
HETATM    8  C4  UNL     1      14.662 -15.663   4.083  1.00  0.00     0.104 C 
HETATM    9  C5  UNL     1      14.735 -14.951   5.402  1.00  0.00     0.046 C 
HETATM   10  C6  UNL     1      13.336 -15.495   3.389  1.00  0.00     0.046 C 
ENDROOT
BRANCH   7  11
HETATM   11  O2  UNL     1      14.597 -17.956   5.125  1.00  0.00    -0.270 OA
ATOM     12  H2  UNL     1      14.952 -17.954   6.007  1.00  0.00     0.246 HD
ENDBRANCH   7  11
TORSDOF 1
ENDMDL
MODEL 3
REMARK VINA RESULT: -5.278798332      1.600      2.555
REMARK  1 active torsions:
REMARK  status: ('A' for Active; 'I' for Inactive)
REMARK    1  A    between atoms: N2_7  and  O2_8 
ROOT
HETATM    1  C1  UNL     1      14.082 -15.158   5.481  1.00  0.00     0.051 C 
HETATM    2  C2  UNL     1      15.044 -15.163   4.315  1.00  0.00     0.112 C 
HETATM    3  C3  UNL     1      15.808 -13.893   4.173  1.00  0.00     0.051 C 
HETATM    4  O1  UNL     1      15.901 -16.300   4.525  1.00  0.00    -0.250 OA
HETATM    5  N1  UNL     1      15.174 -17.366   4.062  1.00  0.00    -0.184 N 
ATOM      6  H1  UNL     1      15.326 -18.328   4.364  1.00  0.00     0.218 HD
HETATM    7  N2  UNL     1      14.301 -17.027   3.222  1.00  0.00    -0.169 N 
HETATM    8  C4  UNL     1      14.374 -15.615   3.035  1.00  0.00     0.104 C 
HETATM    9  C5  UNL     1      13.041 -14.937   2.909  1.00  0.00     0.046 C 
HETATM   10  C6  UNL     1      15.297 -15.330   1.881  1.00  0.00     0.046 C 
ENDROOT
BRANCH   7  11
HETATM   11  O2  UNL     1      13.442 -17.916   2.609  1.00  0.00    -0.270 OA
ATOM     12  H2  UNL     1      13.225 -18.770   2.963  1.00  0.00     0.246 HD
ENDBRANCH   7  11
TORSDOF 1
ENDMDL
MODEL 4
REMARK VINA RESULT: -4.846522971      1.640      2.800
REMARK  1 active torsions:
REMARK  status: ('A' for Active; 'I' for Inactive)
REMARK    1  A    between atoms: N2_7  and  O2_8 
ROOT
HETATM    1  C1  UNL     1      14.745 -14.331   5.462  1.00  0.00     0.051 C 
HETATM    2  C2  UNL     1      14.747 -15.610   4.657  1.00  0.00     0.112 C 
HETATM    3  C3  UNL     1      14.839 -16.836   5.496  1.00  0.00     0.051 C 
HETATM    4  O1  UNL     1      13.544 -15.573   3.868  1.00  0.00    -0.250 OA
HETATM    5  N1  UNL     1      13.862 -14.779   2.797  1.00  0.00    -0.184 N 
ATOM      6  H1  UNL     1      13.172 -14.273   2.243  1.00  0.00     0.218 HD
HETATM    7  N2  UNL     1      15.100 -14.743   2.572  1.00  0.00    -0.169 N 
HETATM    8  C4  UNL     1      15.760 -15.565   3.534  1.00  0.00     0.104 C 
HETATM    9  C5  UNL     1      17.049 -14.999   4.052  1.00  0.00     0.046 C 
HETATM   10  C6  UNL     1      15.906 -16.949   2.961  1.00  0.00     0.046 C 
ENDROOT
BRANCH   7  11
HETATM   11  O2  UNL     1      15.672 -14.014   1.550  1.00  0.00    -0.270 OA
ATOM     12  H2  UNL     1      16.549 -14.168   1.219  1.00  0.00     0.246 HD
ENDBRANCH   7  11
TORSDOF 1
ENDMDL
MODEL 5
REMARK VINA RESULT: -4.801973019      2.006      2.398
REMARK  1 active torsions:
REMARK  status: ('A' for Active; 'I' for Inactive)
REMARK    1  A    between atoms: N2_7  and  O2_8 
ROOT
HETATM    1  C1  UNL     1      17.589 -14.705   3.794  1.00  0.00     0.051 C 
HETATM    2  C2  UNL     1      16.149 -14.420   3.437  1.00  0.00     0.112 C 
HETATM    3  C3  UNL     1      15.710 -13.045   3.801  1.00  0.00     0.051 C 
HETATM    4  O1  UNL     1      16.042 -14.674   2.024  1.00  0.00    -0.250 OA
HETATM    5  N1  UNL     1      15.902 -16.035   1.932  1.00  0.00    -0.184 N 
ATOM      6  H1  UNL     1      16.142 -16.573   1.100  1.00  0.00     0.218 HD
HETATM    7  N2  UNL     1      15.444 -16.546   2.986  1.00  0.00    -0.169 N 
HETATM    8  C4  UNL     1      15.220 -15.506   3.936  1.00  0.00     0.104 C 
HETATM    9  C5  UNL     1      15.590 -15.863   5.346  1.00  0.00     0.046 C 
HETATM   10  C6  UNL     1      13.800 -15.027   3.797  1.00  0.00     0.046 C 
ENDROOT
BRANCH   7  11
HETATM   11  O2  UNL     1      15.212 -17.897   3.145  1.00  0.00    -0.270 OA
ATOM     12  H2  UNL     1      15.712 -18.454   3.729  1.00  0.00     0.246 HD
ENDBRANCH   7  11
TORSDOF 1
ENDMDL
