MODEL 1
REMARK VINA RESULT: -4.191485706      0.000      0.000
REMARK  1 active torsions:
REMARK  status: ('A' for Active; 'I' for Inactive)
REMARK    1  A    between atoms: N1_4  and  C4_5 
ROOT
HETATM    1  C4  UNL     1      15.725 -15.474   3.649  1.00  0.00     0.142 C 
HETATM    2  N2  UNL     1      16.723 -14.906   4.185  1.00  0.00    -0.350 N 
ATOM      3  H2  UNL     1      17.010 -15.176   5.125  1.00  0.00     0.167 HD
HETATM    4  C5  UNL     1      17.433 -13.918   3.506  1.00  0.00     0.073 C 
HETATM    5  C6  UNL     1      16.580 -13.222   2.466  1.00  0.00     0.127 C 
HETATM    6  S1  UNL     1      15.561 -14.700   2.029  1.00  0.00    -0.089 SA
ENDROOT
BRANCH   1   7
HETATM    7  N1  UNL     1      14.883 -16.485   4.159  1.00  0.00    -0.362 N 
HETATM    8  C3  UNL     1      14.665 -16.842   5.541  1.00  0.00     0.125 C 
HETATM    9  C2  UNL     1      14.893 -18.338   5.476  1.00  0.00     0.021 C 
HETATM   10  C1  UNL     1      14.125 -18.695   4.219  1.00  0.00     0.021 C 
HETATM   11  C7  UNL     1      14.047 -17.393   3.408  1.00  0.00     0.125 C 
ENDBRANCH   1   7
TORSDOF 1
ENDMDL
MODEL 2
REMARK VINA RESULT: -4.140290551      2.178      3.814
REMARK  1 active torsions:
REMARK  status: ('A' for Active; 'I' for Inactive)
REMARK    1  A    between atoms: N1_4  and  C4_5 
ROOT
HETATM    1  C4  UNL     1      13.631 -16.543   3.517  1.00  0.00     0.142 C 
HETATM    2  N2  UNL     1      13.481 -17.686   2.992  1.00  0.00    -0.350 N 
ATOM      3  H2  UNL     1      14.007 -18.480   3.356  1.00  0.00     0.167 HD
HETATM    4  C5  UNL     1      12.606 -17.873   1.923  1.00  0.00     0.073 C 
HETATM    5  C6  UNL     1      12.397 -16.598   1.134  1.00  0.00     0.127 C 
HETATM    6  S1  UNL     1      12.549 -15.450   2.575  1.00  0.00    -0.089 SA
ENDROOT
BRANCH   1   7
HETATM    7  N1  UNL     1      14.455 -16.147   4.592  1.00  0.00    -0.362 N 
HETATM    8  C3  UNL     1      14.951 -16.964   5.675  1.00  0.00     0.125 C 
HETATM    9  C2  UNL     1      14.553 -16.113   6.863  1.00  0.00     0.021 C 
HETATM   10  C1  UNL     1      14.960 -14.734   6.383  1.00  0.00     0.021 C 
HETATM   11  C7  UNL     1      14.987 -14.830   4.851  1.00  0.00     0.125 C 
ENDBRANCH   1   7
TORSDOF 1
ENDMDL
MODEL 3
REMARK VINA RESULT: -4.039664256      1.173      1.322
REMARK  1 active torsions:
REMARK  status: ('A' for Active; 'I' for Inactive)
REMARK    1  A    between atoms: N1_4  and  C4_5 
ROOT
HETATM    1  C4  UNL     1      15.200 -15.312   3.374  1.00  0.00     0.142 C 
HETATM    2  N2  UNL     1      15.423 -15.105   2.144  1.00  0.00    -0.350 N 
ATOM      3  H2  UNL     1      15.127 -15.798   1.457  1.00  0.00     0.167 HD
HETATM    4  C5  UNL     1      16.066 -13.944   1.719  1.00  0.00     0.073 C 
HETATM    5  C6  UNL     1      16.948 -13.358   2.801  1.00  0.00     0.127 C 
HETATM    6  S1  UNL     1      15.886 -13.876   4.221  1.00  0.00    -0.089 SA
ENDROOT
BRANCH   1   7
HETATM    7  N1  UNL     1      14.571 -16.407   4.004  1.00  0.00    -0.362 N 
HETATM    8  C3  UNL     1      14.524 -16.709   5.415  1.00  0.00     0.125 C 
HETATM    9  C2  UNL     1      14.979 -18.154   5.401  1.00  0.00     0.021 C 
HETATM   10  C1  UNL     1      14.179 -18.699   4.235  1.00  0.00     0.021 C 
HETATM   11  C7  UNL     1      13.831 -17.476   3.374  1.00  0.00     0.125 C 
ENDBRANCH   1   7
TORSDOF 1
ENDMDL
MODEL 4
REMARK VINA RESULT: -3.972280845      2.382      4.228
REMARK  1 active torsions:
REMARK  status: ('A' for Active; 'I' for Inactive)
REMARK    1  A    between atoms: N1_4  and  C4_5 
ROOT
HETATM    1  C4  UNL     1      15.212 -15.273   5.062  1.00  0.00     0.142 C 
HETATM    2  N2  UNL     1      14.772 -14.402   5.870  1.00  0.00    -0.350 N 
ATOM      3  H2  UNL     1      14.874 -13.412   5.648  1.00  0.00     0.167 HD
HETATM    4  C5  UNL     1      14.150 -14.779   7.060  1.00  0.00     0.073 C 
HETATM    5  C6  UNL     1      14.605 -16.145   7.527  1.00  0.00     0.127 C 
HETATM    6  S1  UNL     1      14.845 -16.858   5.839  1.00  0.00    -0.089 SA
ENDROOT
BRANCH   1   7
HETATM    7  N1  UNL     1      15.863 -15.103   3.822  1.00  0.00    -0.362 N 
HETATM    8  C3  UNL     1      17.040 -14.317   3.540  1.00  0.00     0.125 C 
HETATM    9  C2  UNL     1      16.551 -13.507   2.357  1.00  0.00     0.021 C 
HETATM   10  C1  UNL     1      15.846 -14.576   1.545  1.00  0.00     0.021 C 
HETATM   11  C7  UNL     1      15.494 -15.682   2.551  1.00  0.00     0.125 C 
ENDBRANCH   1   7
TORSDOF 1
ENDMDL
MODEL 5
REMARK VINA RESULT: -3.969173335      1.402      1.979
REMARK  1 active torsions:
REMARK  status: ('A' for Active; 'I' for Inactive)
REMARK    1  A    between atoms: N1_4  and  C4_5 
ROOT
HETATM    1  C4  UNL     1      15.498 -14.747   3.912  1.00  0.00     0.142 C 
HETATM    2  N2  UNL     1      16.023 -13.599   3.803  1.00  0.00    -0.350 N 
ATOM      3  H2  UNL     1      15.968 -12.946   4.584  1.00  0.00     0.167 HD
HETATM    4  C5  UNL     1      16.673 -13.217   2.631  1.00  0.00     0.073 C 
HETATM    5  C6  UNL     1      16.162 -13.979   1.427  1.00  0.00     0.127 C 
HETATM    6  S1  UNL     1      15.807 -15.553   2.328  1.00  0.00    -0.089 SA
ENDROOT
BRANCH   1   7
HETATM    7  N1  UNL     1      14.805 -15.322   4.997  1.00  0.00    -0.362 N 
HETATM    8  C3  UNL     1      14.291 -14.657   6.172  1.00  0.00     0.125 C 
HETATM    9  C2  UNL     1      14.870 -15.538   7.260  1.00  0.00     0.021 C 
HETATM   10  C1  UNL     1      14.597 -16.917   6.693  1.00  0.00     0.021 C 
HETATM   11  C7  UNL     1      14.452 -16.711   5.178  1.00  0.00     0.125 C 
ENDBRANCH   1   7
TORSDOF 1
ENDMDL
