MODEL 1
REMARK VINA RESULT: -6.207138547      0.000      0.000
REMARK  1 active torsions:
REMARK  status: ('A' for Active; 'I' for Inactive)
REMARK    1  A    between atoms: N1_2  and  C1_4 
ROOT
HETATM    1  C1  UNL     1      14.244 -16.827   3.693  1.00  0.00     0.124 C 
HETATM    2  C2  UNL     1      14.461 -16.722   5.184  1.00  0.00     0.041 C 
HETATM    3  C3  UNL     1      15.635 -15.852   5.493  1.00  0.00     0.033 C 
HETATM    4  C4  UNL     1      15.910 -14.784   4.502  1.00  0.00     0.272 C 
HETATM    5  N2  UNL     1      15.689 -15.136   3.138  1.00  0.00     0.091 N 
HETATM    6  C5  UNL     1      14.376 -14.690   2.649  1.00  0.00     0.275 C 
HETATM    7  C6  UNL     1      13.393 -15.685   3.229  1.00  0.00     0.069 C 
HETATM    8  C7  UNL     1      15.598 -16.602   3.044  1.00  0.00     0.309 C 
ENDROOT
BRANCH   1   9
HETATM    9  N1  UNL     1      13.670 -18.095   3.301  1.00  0.00    -0.143 N 
HETATM   10  O1  UNL     1      12.941 -18.234   2.288  1.00  0.00    -0.536 OA
HETATM   11  O2  UNL     1      13.955 -19.180   4.096  1.00  0.00    -0.536 OA
ENDBRANCH   1   9
TORSDOF 1
ENDMDL
MODEL 2
REMARK VINA RESULT: -6.023187544      1.228      2.393
REMARK  1 active torsions:
REMARK  status: ('A' for Active; 'I' for Inactive)
REMARK    1  A    between atoms: N1_2  and  C1_4 
ROOT
HETATM    1  C1  UNL     1      14.418 -16.574   3.449  1.00  0.00     0.124 C 
HETATM    2  C2  UNL     1      15.643 -16.235   2.633  1.00  0.00     0.041 C 
HETATM    3  C3  UNL     1      16.373 -15.073   3.224  1.00  0.00     0.033 C 
HETATM    4  C4  UNL     1      16.246 -14.927   4.694  1.00  0.00     0.272 C 
HETATM    5  N2  UNL     1      14.968 -15.249   5.237  1.00  0.00     0.091 N 
HETATM    6  C5  UNL     1      14.916 -16.616   5.778  1.00  0.00     0.275 C 
HETATM    7  C6  UNL     1      14.797 -17.506   4.558  1.00  0.00     0.069 C 
HETATM    8  C7  UNL     1      13.990 -15.290   4.138  1.00  0.00     0.309 C 
ENDROOT
BRANCH   1   9
HETATM    9  N1  UNL     1      13.350 -17.129   2.647  1.00  0.00    -0.143 N 
HETATM   10  O1  UNL     1      13.037 -18.344   2.669  1.00  0.00    -0.536 OA
HETATM   11  O2  UNL     1      12.666 -16.258   1.832  1.00  0.00    -0.536 OA
ENDBRANCH   1   9
TORSDOF 1
ENDMDL
MODEL 3
REMARK VINA RESULT: -5.969920862      0.998      2.048
REMARK  1 active torsions:
REMARK  status: ('A' for Active; 'I' for Inactive)
REMARK    1  A    between atoms: N1_2  and  C1_4 
ROOT
HETATM    1  C1  UNL     1      14.573 -16.857   3.853  1.00  0.00     0.124 C 
HETATM    2  C2  UNL     1      15.759 -16.490   2.992  1.00  0.00     0.041 C 
HETATM    3  C3  UNL     1      16.080 -15.037   3.117  1.00  0.00     0.033 C 
HETATM    4  C4  UNL     1      15.738 -14.424   4.423  1.00  0.00     0.272 C 
HETATM    5  N2  UNL     1      14.531 -14.887   5.025  1.00  0.00     0.091 N 
HETATM    6  C5  UNL     1      14.772 -15.927   6.037  1.00  0.00     0.275 C 
HETATM    7  C6  UNL     1      15.043 -17.184   5.238  1.00  0.00     0.069 C 
HETATM    8  C7  UNL     1      13.742 -15.595   4.004  1.00  0.00     0.309 C 
ENDROOT
BRANCH   1   9
HETATM    9  N1  UNL     1      13.796 -17.943   3.298  1.00  0.00    -0.143 N 
HETATM   10  O1  UNL     1      13.101 -17.826   2.259  1.00  0.00    -0.536 OA
HETATM   11  O2  UNL     1      13.840 -19.145   3.964  1.00  0.00    -0.536 OA
ENDBRANCH   1   9
TORSDOF 1
ENDMDL
MODEL 4
REMARK VINA RESULT: -5.875468594      0.965      1.448
REMARK  1 active torsions:
REMARK  status: ('A' for Active; 'I' for Inactive)
REMARK    1  A    between atoms: N1_2  and  C1_4 
ROOT
HETATM    1  C1  UNL     1      14.529 -16.496   3.947  1.00  0.00     0.124 C 
HETATM    2  C2  UNL     1      14.888 -15.650   5.145  1.00  0.00     0.041 C 
HETATM    3  C3  UNL     1      15.736 -14.488   4.743  1.00  0.00     0.033 C 
HETATM    4  C4  UNL     1      15.510 -13.985   3.367  1.00  0.00     0.272 C 
HETATM    5  N2  UNL     1      15.246 -14.982   2.382  1.00  0.00     0.091 N 
HETATM    6  C5  UNL     1      13.808 -15.146   2.121  1.00  0.00     0.275 C 
HETATM    7  C6  UNL     1      13.294 -15.948   3.299  1.00  0.00     0.069 C 
HETATM    8  C7  UNL     1      15.636 -16.292   2.927  1.00  0.00     0.309 C 
ENDROOT
BRANCH   1   9
HETATM    9  N1  UNL     1      14.364 -17.893   4.280  1.00  0.00    -0.143 N 
HETATM   10  O1  UNL     1      14.860 -18.416   5.309  1.00  0.00    -0.536 OA
HETATM   11  O2  UNL     1      13.625 -18.658   3.409  1.00  0.00    -0.536 OA
ENDBRANCH   1   9
TORSDOF 1
ENDMDL
MODEL 5
REMARK VINA RESULT: -5.787530161      0.363      1.036
REMARK  1 active torsions:
REMARK  status: ('A' for Active; 'I' for Inactive)
REMARK    1  A    between atoms: N1_2  and  C1_4 
ROOT
HETATM    1  C1  UNL     1      14.303 -16.585   3.513  1.00  0.00     0.124 C 
HETATM    2  C2  UNL     1      14.446 -16.409   5.006  1.00  0.00     0.041 C 
HETATM    3  C3  UNL     1      15.670 -15.619   5.336  1.00  0.00     0.033 C 
HETATM    4  C4  UNL     1      16.086 -14.637   4.306  1.00  0.00     0.272 C 
HETATM    5  N2  UNL     1      15.912 -15.051   2.953  1.00  0.00     0.091 N 
HETATM    6  C5  UNL     1      14.669 -14.532   2.362  1.00  0.00     0.275 C 
HETATM    7  C6  UNL     1      13.576 -15.408   2.937  1.00  0.00     0.069 C 
HETATM    8  C7  UNL     1      15.705 -16.508   2.934  1.00  0.00     0.309 C 
ENDROOT
BRANCH   1   9
HETATM    9  N1  UNL     1      13.648 -17.824   3.158  1.00  0.00    -0.143 N 
HETATM   10  O1  UNL     1      13.751 -18.874   3.840  1.00  0.00    -0.536 OA
HETATM   11  O2  UNL     1      12.885 -17.820   2.014  1.00  0.00    -0.536 OA
ENDBRANCH   1   9
TORSDOF 1
ENDMDL
