MODEL 1
REMARK VINA RESULT: -3.641376334      0.000      0.000
REMARK  0 active torsions:
REMARK  status: ('A' for Active; 'I' for Inactive)
ROOT
HETATM    1  O1  UNL     1      15.906 -14.267   1.819  1.00  0.00    -0.246 OA
HETATM    2  S1  UNL     1      15.009 -14.489   3.209  1.00  0.00     0.079 S 
HETATM    3  C1  UNL     1      15.958 -15.304   4.463  1.00  0.00     0.131 C 
HETATM    4  C2  UNL     1      15.015 -16.218   5.222  1.00  0.00     0.088 C 
HETATM    5  S2  UNL     1      14.718 -17.753   4.304  1.00  0.00    -0.157 SA
HETATM    6  C3  UNL     1      13.527 -17.355   2.977  1.00  0.00     0.162 C 
HETATM    7  S3  UNL     1      13.313 -15.585   2.796  1.00  0.00    -0.056 SA
ENDROOT
TORSDOF 0
ENDMDL
MODEL 2
REMARK VINA RESULT: -3.604069554      2.435      3.087
REMARK  0 active torsions:
REMARK  status: ('A' for Active; 'I' for Inactive)
ROOT
HETATM    1  O1  UNL     1      14.385 -16.288   6.975  1.00  0.00    -0.246 OA
HETATM    2  S1  UNL     1      15.301 -16.139   5.588  1.00  0.00     0.079 S 
HETATM    3  C1  UNL     1      15.080 -14.549   4.840  1.00  0.00     0.131 C 
HETATM    4  C2  UNL     1      15.132 -14.745   3.337  1.00  0.00     0.088 C 
HETATM    5  S2  UNL     1      13.552 -15.374   2.708  1.00  0.00    -0.157 SA
HETATM    6  C3  UNL     1      13.497 -17.157   3.104  1.00  0.00     0.162 C 
HETATM    7  S3  UNL     1      14.801 -17.618   4.242  1.00  0.00    -0.056 SA
ENDROOT
TORSDOF 0
ENDMDL
MODEL 3
REMARK VINA RESULT: -3.603842486      2.312      3.061
REMARK  0 active torsions:
REMARK  status: ('A' for Active; 'I' for Inactive)
ROOT
HETATM    1  O1  UNL     1      13.540 -17.770   2.657  1.00  0.00    -0.246 OA
HETATM    2  S1  UNL     1      14.922 -17.431   3.529  1.00  0.00     0.079 S 
HETATM    3  C1  UNL     1      14.559 -17.199   5.246  1.00  0.00     0.131 C 
HETATM    4  C2  UNL     1      15.489 -16.119   5.764  1.00  0.00     0.088 C 
HETATM    5  S2  UNL     1      14.889 -14.470   5.308  1.00  0.00    -0.157 SA
HETATM    6  C3  UNL     1      15.312 -14.221   3.548  1.00  0.00     0.162 C 
HETATM    7  S3  UNL     1      15.844 -15.748   2.777  1.00  0.00    -0.056 SA
ENDROOT
TORSDOF 0
ENDMDL
MODEL 4
REMARK VINA RESULT: -3.438154998      1.585      1.801
REMARK  0 active torsions:
REMARK  status: ('A' for Active; 'I' for Inactive)
ROOT
HETATM    1  O1  UNL     1      16.305 -15.893   1.858  1.00  0.00    -0.246 OA
HETATM    2  S1  UNL     1      14.982 -15.471   2.784  1.00  0.00     0.079 S 
HETATM    3  C1  UNL     1      15.448 -14.415   4.126  1.00  0.00     0.131 C 
HETATM    4  C2  UNL     1      14.572 -14.774   5.311  1.00  0.00     0.088 C 
HETATM    5  S2  UNL     1      15.180 -16.268   6.139  1.00  0.00    -0.157 SA
HETATM    6  C3  UNL     1      14.662 -17.690   5.115  1.00  0.00     0.162 C 
HETATM    7  S3  UNL     1      14.054 -17.160   3.515  1.00  0.00    -0.056 SA
ENDROOT
TORSDOF 0
ENDMDL
MODEL 5
REMARK VINA RESULT: -3.392675427      1.751      2.743
REMARK  0 active torsions:
REMARK  status: ('A' for Active; 'I' for Inactive)
ROOT
HETATM    1  O1  UNL     1      12.420 -14.983   2.459  1.00  0.00    -0.246 OA
HETATM    2  S1  UNL     1      13.892 -15.761   2.568  1.00  0.00     0.079 S 
HETATM    3  C1  UNL     1      13.712 -17.385   3.251  1.00  0.00     0.131 C 
HETATM    4  C2  UNL     1      14.935 -17.655   4.106  1.00  0.00     0.088 C 
HETATM    5  S2  UNL     1      14.788 -16.847   5.723  1.00  0.00    -0.157 SA
HETATM    6  C3  UNL     1      15.156 -15.076   5.465  1.00  0.00     0.162 C 
HETATM    7  S3  UNL     1      15.197 -14.661   3.723  1.00  0.00    -0.056 SA
ENDROOT
TORSDOF 0
ENDMDL
