MODEL 1
REMARK VINA RESULT: -6.490536761      0.000      0.000
REMARK  3 active torsions:
REMARK  status: ('A' for Active; 'I' for Inactive)
REMARK    1  A    between atoms: C2_2  and  C4_10 
REMARK    2  A    between atoms: N1_3  and  N2_5 
REMARK       I    between atoms: N2_5  and  C3_7 
REMARK    3  A    between atoms: C4_10  and  C7_13 
ROOT
HETATM    1  C1  UNL     1      13.064  27.923  32.119  1.00  0.00     0.066 C 
HETATM    2  C2  UNL     1      13.554  29.229  31.651  1.00  0.00     0.008 C 
HETATM    3  N1  UNL     1      13.292  30.275  32.325  1.00  0.00    -0.305 N 
ATOM      4  H1  UNL     1      13.649  31.162  31.969  1.00  0.00     0.186 HD
ENDROOT
BRANCH   2   5
HETATM    5  C4  UNL     1      14.339  29.294  30.416  1.00  0.00    -0.001 C 
HETATM    6  C5  UNL     1      14.076  30.624  29.747  1.00  0.00     0.022 C 
HETATM    7  C6  UNL     1      13.817  28.240  29.425  1.00  0.00     0.022 C 
BRANCH   5   8
HETATM    8  C7  UNL     1      15.807  29.038  30.613  1.00  0.00    -0.039 C 
HETATM    9  C8  UNL     1      16.589  29.579  29.436  1.00  0.00     0.015 C 
HETATM   10  C9  UNL     1      16.362  29.634  31.860  1.00  0.00     0.015 C 
HETATM   11  C10 UNL     1      16.089  27.538  30.668  1.00  0.00     0.015 C 
ENDBRANCH   5   8
ENDBRANCH   2   5
BRANCH   3  12
HETATM   12  N2  UNL     1      12.562  30.311  33.499  1.00  0.00    -0.254 N 
HETATM   13  C3  UNL     1      11.903  31.459  33.994  1.00  0.00     0.347 C 
HETATM   14  N3  UNL     1      11.170  31.435  35.202  1.00  0.00    -0.038 NA
HETATM   15  O1  UNL     1      11.941  32.562  33.372  1.00  0.00    -0.249 OA
ATOM     16  H2  UNL     1      12.495  29.451  34.044  1.00  0.00     0.191 HD
ENDBRANCH   3  12
TORSDOF 3
ENDMDL
MODEL 2
REMARK VINA RESULT: -6.434310082      0.071      1.116
REMARK  3 active torsions:
REMARK  status: ('A' for Active; 'I' for Inactive)
REMARK    1  A    between atoms: C2_2  and  C4_10 
REMARK    2  A    between atoms: N1_3  and  N2_5 
REMARK       I    between atoms: N2_5  and  C3_7 
REMARK    3  A    between atoms: C4_10  and  C7_13 
ROOT
HETATM    1  C1  UNL     1      13.022  27.900  32.160  1.00  0.00     0.066 C 
HETATM    2  C2  UNL     1      13.501  29.202  31.671  1.00  0.00     0.008 C 
HETATM    3  N1  UNL     1      13.235  30.256  32.329  1.00  0.00    -0.305 N 
ATOM      4  H1  UNL     1      13.585  31.140  31.959  1.00  0.00     0.186 HD
ENDROOT
BRANCH   2   5
HETATM    5  C4  UNL     1      14.280  29.252  30.432  1.00  0.00    -0.001 C 
HETATM    6  C5  UNL     1      14.044  30.591  29.768  1.00  0.00     0.022 C 
HETATM    7  C6  UNL     1      13.729  28.214  29.440  1.00  0.00     0.022 C 
BRANCH   5   8
HETATM    8  C7  UNL     1      15.743  28.963  30.620  1.00  0.00    -0.039 C 
HETATM    9  C8  UNL     1      16.256  29.670  31.855  1.00  0.00     0.015 C 
HETATM   10  C9  UNL     1      16.061  27.512  30.743  1.00  0.00     0.015 C 
HETATM   11  C10 UNL     1      16.553  29.502  29.443  1.00  0.00     0.015 C 
ENDBRANCH   5   8
ENDBRANCH   2   5
BRANCH   3  12
HETATM   12  N2  UNL     1      12.509  30.306  33.506  1.00  0.00    -0.254 N 
HETATM   13  C3  UNL     1      11.878  31.467  34.006  1.00  0.00     0.347 C 
HETATM   14  N3  UNL     1      11.149  31.456  35.217  1.00  0.00    -0.038 NA
HETATM   15  O1  UNL     1      11.939  32.571  33.387  1.00  0.00    -0.249 OA
ATOM     16  H2  UNL     1      12.424  29.446  34.049  1.00  0.00     0.191 HD
ENDBRANCH   3  12
TORSDOF 3
ENDMDL
MODEL 3
REMARK VINA RESULT: -6.017750492      1.093      1.533
REMARK  3 active torsions:
REMARK  status: ('A' for Active; 'I' for Inactive)
REMARK    1  A    between atoms: C2_2  and  C4_10 
REMARK    2  A    between atoms: N1_3  and  N2_5 
REMARK       I    between atoms: N2_5  and  C3_7 
REMARK    3  A    between atoms: C4_10  and  C7_13 
ROOT
HETATM    1  C1  UNL     1      11.957  28.534  31.079  1.00  0.00     0.066 C 
HETATM    2  C2  UNL     1      13.358  28.701  31.498  1.00  0.00     0.008 C 
HETATM    3  N1  UNL     1      13.625  29.390  32.533  1.00  0.00    -0.305 N 
ATOM      4  H1  UNL     1      14.607  29.483  32.792  1.00  0.00     0.186 HD
ENDROOT
BRANCH   2   5
HETATM    5  C4  UNL     1      14.416  28.064  30.711  1.00  0.00    -0.001 C 
HETATM    6  C5  UNL     1      13.792  27.437  29.484  1.00  0.00     0.022 C 
HETATM    7  C6  UNL     1      15.003  26.885  31.504  1.00  0.00     0.022 C 
BRANCH   5   8
HETATM    8  C7  UNL     1      15.553  28.984  30.363  1.00  0.00    -0.039 C 
HETATM    9  C8  UNL     1      15.068  30.081  29.441  1.00  0.00     0.015 C 
HETATM   10  C9  UNL     1      16.202  29.616  31.545  1.00  0.00     0.015 C 
HETATM   11  C10 UNL     1      16.641  28.228  29.602  1.00  0.00     0.015 C 
ENDBRANCH   5   8
ENDBRANCH   2   5
BRANCH   3  12
HETATM   12  N2  UNL     1      12.695  30.025  33.336  1.00  0.00    -0.254 N 
HETATM   13  C3  UNL     1      12.298  31.373  33.186  1.00  0.00     0.347 C 
HETATM   14  N3  UNL     1      11.341  31.967  34.039  1.00  0.00    -0.038 NA
HETATM   15  O1  UNL     1      12.786  32.107  32.276  1.00  0.00    -0.249 OA
ATOM     16  H2  UNL     1      12.267  29.483  34.087  1.00  0.00     0.191 HD
ENDBRANCH   3  12
TORSDOF 3
ENDMDL
MODEL 4
REMARK VINA RESULT: -5.978010292      1.103      1.768
REMARK  3 active torsions:
REMARK  status: ('A' for Active; 'I' for Inactive)
REMARK    1  A    between atoms: C2_2  and  C4_10 
REMARK    2  A    between atoms: N1_3  and  N2_5 
REMARK       I    between atoms: N2_5  and  C3_7 
REMARK    3  A    between atoms: C4_10  and  C7_13 
ROOT
HETATM    1  C1  UNL     1      11.969  28.501  31.055  1.00  0.00     0.066 C 
HETATM    2  C2  UNL     1      13.369  28.676  31.472  1.00  0.00     0.008 C 
HETATM    3  N1  UNL     1      13.634  29.368  32.506  1.00  0.00    -0.305 N 
ATOM      4  H1  UNL     1      14.616  29.466  32.764  1.00  0.00     0.186 HD
ENDROOT
BRANCH   2   5
HETATM    5  C4  UNL     1      14.430  28.045  30.684  1.00  0.00    -0.001 C 
HETATM    6  C5  UNL     1      13.802  27.364  29.488  1.00  0.00     0.022 C 
HETATM    7  C6  UNL     1      15.063  26.906  31.502  1.00  0.00     0.022 C 
BRANCH   5   8
HETATM    8  C7  UNL     1      15.535  28.983  30.288  1.00  0.00    -0.039 C 
HETATM    9  C8  UNL     1      16.621  28.224  29.557  1.00  0.00     0.015 C 
HETATM   10  C9  UNL     1      15.089  30.112  29.424  1.00  0.00     0.015 C 
HETATM   11  C10 UNL     1      16.191  29.595  31.524  1.00  0.00     0.015 C 
ENDBRANCH   5   8
ENDBRANCH   2   5
BRANCH   3  12
HETATM   12  N2  UNL     1      12.701  29.998  33.309  1.00  0.00    -0.254 N 
HETATM   13  C3  UNL     1      12.305  31.347  33.165  1.00  0.00     0.347 C 
HETATM   14  N3  UNL     1      11.345  31.937  34.018  1.00  0.00    -0.038 NA
HETATM   15  O1  UNL     1      12.795  32.086  32.260  1.00  0.00    -0.249 OA
ATOM     16  H2  UNL     1      12.271  29.453  34.056  1.00  0.00     0.191 HD
ENDBRANCH   3  12
TORSDOF 3
ENDMDL
MODEL 5
REMARK VINA RESULT: -5.864426195      3.844      5.490
REMARK  3 active torsions:
REMARK  status: ('A' for Active; 'I' for Inactive)
REMARK    1  A    between atoms: C2_2  and  C4_10 
REMARK    2  A    between atoms: N1_3  and  N2_5 
REMARK       I    between atoms: N2_5  and  C3_7 
REMARK    3  A    between atoms: C4_10  and  C7_13 
ROOT
HETATM    1  C1  UNL     1      16.960  29.317  31.321  1.00  0.00     0.066 C 
HETATM    2  C2  UNL     1      15.875  29.251  30.330  1.00  0.00     0.008 C 
HETATM    3  N1  UNL     1      16.151  29.331  29.092  1.00  0.00    -0.305 N 
ATOM      4  H1  UNL     1      15.372  29.281  28.435  1.00  0.00     0.186 HD
ENDROOT
BRANCH   2   5
HETATM    5  C4  UNL     1      14.495  29.090  30.796  1.00  0.00    -0.001 C 
HETATM    6  C5  UNL     1      13.578  29.831  29.848  1.00  0.00     0.022 C 
HETATM    7  C6  UNL     1      14.327  29.803  32.148  1.00  0.00     0.022 C 
BRANCH   5   8
HETATM    8  C7  UNL     1      14.079  27.658  30.986  1.00  0.00    -0.039 C 
HETATM    9  C8  UNL     1      13.423  27.139  29.726  1.00  0.00     0.015 C 
HETATM   10  C9  UNL     1      15.201  26.746  31.342  1.00  0.00     0.015 C 
HETATM   11  C10 UNL     1      13.037  27.545  32.097  1.00  0.00     0.015 C 
ENDBRANCH   5   8
ENDBRANCH   2   5
BRANCH   3  12
HETATM   12  N2  UNL     1      17.419  29.482  28.561  1.00  0.00    -0.254 N 
HETATM   13  C3  UNL     1      17.742  30.363  27.504  1.00  0.00     0.347 C 
HETATM   14  N3  UNL     1      19.059  30.475  27.003  1.00  0.00    -0.038 NA
HETATM   15  O1  UNL     1      16.861  31.094  26.960  1.00  0.00    -0.249 OA
ATOM     16  H2  UNL     1      18.171  28.920  28.959  1.00  0.00     0.191 HD
ENDBRANCH   3  12
TORSDOF 3
ENDMDL
