MODEL 1
REMARK VINA RESULT: -6.636080942      0.000      0.000
REMARK  4 active torsions:
REMARK  status: ('A' for Active; 'I' for Inactive)
REMARK    1  A    between atoms: C2_2  and  N1_5 
REMARK    2  A    between atoms: N1_5  and  C5_7 
REMARK    3  A    between atoms: C5_7  and  O1_11 
REMARK    4  A    between atoms: O1_11  and  N3_12 
ROOT
HETATM    1  C5  UNL     1      13.216  30.258  31.074  1.00  0.00     0.237 C 
HETATM    2  N2  UNL     1      12.619  30.693  32.120  1.00  0.00    -0.364 N 
ATOM      3  H21 UNL     1      13.059  31.433  32.667  1.00  0.00     0.159 HD
ATOM      4  H22 UNL     1      11.719  30.293  32.385  1.00  0.00     0.159 HD
ENDROOT
BRANCH   1   5
HETATM    5  N1  UNL     1      12.601  29.227  30.311  1.00  0.00    -0.347 N 
ATOM      6  H1  UNL     1      12.002  29.492  29.529  1.00  0.00     0.163 HD
BRANCH   5   7
HETATM    7  C2  UNL     1      12.786  27.831  30.588  1.00  0.00     0.022 C 
HETATM    8  C1  UNL     1      13.625  27.217  29.492  1.00  0.00     0.037 C 
HETATM    9  C3  UNL     1      11.422  27.159  30.666  1.00  0.00     0.037 C 
HETATM   10  C4  UNL     1      13.484  27.569  31.896  1.00  0.00     0.037 C 
ENDBRANCH   5   7
ENDBRANCH   1   5
BRANCH   1  11
HETATM   11  O1  UNL     1      14.441  30.802  30.713  1.00  0.00    -0.202 OA
BRANCH  11  12
HETATM   12  N3  UNL     1      15.578  30.070  30.544  1.00  0.00    -0.266 N 
HETATM   13  C6  UNL     1      16.144  29.870  29.410  1.00  0.00     0.010 C 
HETATM   14  C7  UNL     1      15.793  30.321  28.050  1.00  0.00     0.054 C 
HETATM   15  C10 UNL     1      17.390  29.063  29.256  1.00  0.00     0.054 C 
HETATM   16  C8  UNL     1      17.147  30.617  27.442  1.00  0.00     0.006 C 
HETATM   17  C9  UNL     1      17.983  29.456  27.928  1.00  0.00     0.006 C 
ATOM     18  H3  UNL     1      16.005  29.654  31.371  1.00  0.00     0.194 HD
ENDBRANCH  11  12
ENDBRANCH   1  11
TORSDOF 4
ENDMDL
MODEL 2
REMARK VINA RESULT: -6.559430214      0.066      1.122
REMARK  4 active torsions:
REMARK  status: ('A' for Active; 'I' for Inactive)
REMARK    1  A    between atoms: C2_2  and  N1_5 
REMARK    2  A    between atoms: N1_5  and  C5_7 
REMARK    3  A    between atoms: C5_7  and  O1_11 
REMARK    4  A    between atoms: O1_11  and  N3_12 
ROOT
HETATM    1  C5  UNL     1      13.163  30.242  31.090  1.00  0.00     0.237 C 
HETATM    2  N2  UNL     1      12.593  30.665  32.155  1.00  0.00    -0.364 N 
ATOM      3  H21 UNL     1      13.045  31.401  32.697  1.00  0.00     0.159 HD
ATOM      4  H22 UNL     1      11.702  30.259  32.440  1.00  0.00     0.159 HD
ENDROOT
BRANCH   1   5
HETATM    5  N1  UNL     1      12.533  29.215  30.333  1.00  0.00    -0.347 N 
ATOM      6  H1  UNL     1      11.896  29.486  29.583  1.00  0.00     0.163 HD
BRANCH   5   7
HETATM    7  C2  UNL     1      12.750  27.818  30.576  1.00  0.00     0.022 C 
HETATM    8  C1  UNL     1      11.420  27.101  30.558  1.00  0.00     0.037 C 
HETATM    9  C3  UNL     1      13.435  27.652  31.925  1.00  0.00     0.037 C 
HETATM   10  C4  UNL     1      13.634  27.163  29.548  1.00  0.00     0.037 C 
ENDBRANCH   5   7
ENDBRANCH   1   5
BRANCH   1  11
HETATM   11  O1  UNL     1      14.377  30.794  30.702  1.00  0.00    -0.202 OA
BRANCH  11  12
HETATM   12  N3  UNL     1      15.525  30.076  30.552  1.00  0.00    -0.266 N 
HETATM   13  C6  UNL     1      16.107  29.873  29.427  1.00  0.00     0.010 C 
HETATM   14  C7  UNL     1      15.764  30.306  28.058  1.00  0.00     0.054 C 
HETATM   15  C10 UNL     1      17.366  29.082  29.294  1.00  0.00     0.054 C 
HETATM   16  C8  UNL     1      17.120  30.615  27.461  1.00  0.00     0.006 C 
HETATM   17  C9  UNL     1      17.967  29.471  27.968  1.00  0.00     0.006 C 
ATOM     18  H3  UNL     1      15.950  29.674  31.388  1.00  0.00     0.194 HD
ENDBRANCH  11  12
ENDBRANCH   1  11
TORSDOF 4
ENDMDL
MODEL 3
REMARK VINA RESULT: -6.333131374      1.393      1.871
REMARK  4 active torsions:
REMARK  status: ('A' for Active; 'I' for Inactive)
REMARK    1  A    between atoms: C2_2  and  N1_5 
REMARK    2  A    between atoms: N1_5  and  C5_7 
REMARK    3  A    between atoms: C5_7  and  O1_11 
REMARK    4  A    between atoms: O1_11  and  N3_12 
ROOT
HETATM    1  C5  UNL     1      13.286  29.720  29.937  1.00  0.00     0.237 C 
HETATM    2  N2  UNL     1      13.664  30.802  30.506  1.00  0.00    -0.364 N 
ATOM      3  H21 UNL     1      14.520  31.254  30.186  1.00  0.00     0.159 HD
ATOM      4  H22 UNL     1      13.104  31.190  31.266  1.00  0.00     0.159 HD
ENDROOT
BRANCH   1   5
HETATM    5  N1  UNL     1      12.091  29.089  30.383  1.00  0.00    -0.347 N 
ATOM      6  H1  UNL     1      11.197  29.454  30.055  1.00  0.00     0.163 HD
BRANCH   5   7
HETATM    7  C2  UNL     1      12.085  27.963  31.273  1.00  0.00     0.022 C 
HETATM    8  C1  UNL     1      11.534  26.761  30.542  1.00  0.00     0.037 C 
HETATM    9  C3  UNL     1      11.227  28.297  32.485  1.00  0.00     0.037 C 
HETATM   10  C4  UNL     1      13.452  27.598  31.785  1.00  0.00     0.037 C 
ENDBRANCH   5   7
ENDBRANCH   1   5
BRANCH   1  11
HETATM   11  O1  UNL     1      14.048  29.192  28.903  1.00  0.00    -0.202 OA
BRANCH  11  12
HETATM   12  N3  UNL     1      14.727  29.949  27.997  1.00  0.00    -0.266 N 
HETATM   13  C6  UNL     1      15.980  30.213  28.073  1.00  0.00     0.010 C 
HETATM   14  C7  UNL     1      17.001  29.823  29.064  1.00  0.00     0.054 C 
HETATM   15  C10 UNL     1      16.697  31.046  27.063  1.00  0.00     0.054 C 
HETATM   16  C8  UNL     1      18.221  29.579  28.201  1.00  0.00     0.006 C 
HETATM   17  C9  UNL     1      18.162  30.727  27.221  1.00  0.00     0.006 C 
ATOM     18  H3  UNL     1      14.206  30.331  27.207  1.00  0.00     0.194 HD
ENDBRANCH  11  12
ENDBRANCH   1  11
TORSDOF 4
ENDMDL
MODEL 4
REMARK VINA RESULT: -6.326352697      1.315      2.050
REMARK  4 active torsions:
REMARK  status: ('A' for Active; 'I' for Inactive)
REMARK    1  A    between atoms: C2_2  and  N1_5 
REMARK    2  A    between atoms: N1_5  and  C5_7 
REMARK    3  A    between atoms: C5_7  and  O1_11 
REMARK    4  A    between atoms: O1_11  and  N3_12 
ROOT
HETATM    1  C5  UNL     1      13.377  30.279  30.717  1.00  0.00     0.237 C 
HETATM    2  N2  UNL     1      12.899  29.739  29.658  1.00  0.00    -0.364 N 
ATOM      3  H21 UNL     1      13.497  29.653  28.836  1.00  0.00     0.159 HD
ATOM      4  H22 UNL     1      11.935  29.408  29.658  1.00  0.00     0.159 HD
ENDROOT
BRANCH   1   5
HETATM    5  N1  UNL     1      12.544  30.399  31.863  1.00  0.00    -0.347 N 
ATOM      6  H1  UNL     1      12.170  31.318  32.099  1.00  0.00     0.163 HD
BRANCH   5   7
HETATM    7  C2  UNL     1      12.204  29.286  32.704  1.00  0.00     0.022 C 
HETATM    8  C1  UNL     1      10.749  28.937  32.496  1.00  0.00     0.037 C 
HETATM    9  C3  UNL     1      12.466  29.667  34.155  1.00  0.00     0.037 C 
HETATM   10  C4  UNL     1      13.014  28.050  32.417  1.00  0.00     0.037 C 
ENDBRANCH   5   7
ENDBRANCH   1   5
BRANCH   1  11
HETATM   11  O1  UNL     1      14.690  30.731  30.718  1.00  0.00    -0.202 OA
BRANCH  11  12
HETATM   12  N3  UNL     1      15.767  29.935  30.464  1.00  0.00    -0.266 N 
HETATM   13  C6  UNL     1      16.320  29.816  29.312  1.00  0.00     0.010 C 
HETATM   14  C7  UNL     1      16.008  30.438  28.011  1.00  0.00     0.054 C 
HETATM   15  C10 UNL     1      17.500  28.937  29.065  1.00  0.00     0.054 C 
HETATM   16  C8  UNL     1      17.383  30.692  27.430  1.00  0.00     0.006 C 
HETATM   17  C9  UNL     1      18.126  29.425  27.783  1.00  0.00     0.006 C 
ATOM     18  H3  UNL     1      16.159  29.401  31.239  1.00  0.00     0.194 HD
ENDBRANCH  11  12
ENDBRANCH   1  11
TORSDOF 4
ENDMDL
MODEL 5
REMARK VINA RESULT: -6.246133090      1.332      1.879
REMARK  4 active torsions:
REMARK  status: ('A' for Active; 'I' for Inactive)
REMARK    1  A    between atoms: C2_2  and  N1_5 
REMARK    2  A    between atoms: N1_5  and  C5_7 
REMARK    3  A    between atoms: C5_7  and  O1_11 
REMARK    4  A    between atoms: O1_11  and  N3_12 
ROOT
HETATM    1  C5  UNL     1      13.033  29.573  30.194  1.00  0.00     0.237 C 
HETATM    2  N2  UNL     1      13.415  30.676  30.719  1.00  0.00    -0.364 N 
ATOM      3  H21 UNL     1      14.237  31.145  30.338  1.00  0.00     0.159 HD
ATOM      4  H22 UNL     1      12.893  31.063  31.505  1.00  0.00     0.159 HD
ENDROOT
BRANCH   1   5
HETATM    5  N1  UNL     1      11.886  28.919  30.726  1.00  0.00    -0.347 N 
ATOM      6  H1  UNL     1      10.988  29.399  30.679  1.00  0.00     0.163 HD
BRANCH   5   7
HETATM    7  C2  UNL     1      11.935  27.616  31.324  1.00  0.00     0.022 C 
HETATM    8  C1  UNL     1      13.316  27.385  31.891  1.00  0.00     0.037 C 
HETATM    9  C3  UNL     1      11.606  26.574  30.264  1.00  0.00     0.037 C 
HETATM   10  C4  UNL     1      10.947  27.435  32.445  1.00  0.00     0.037 C 
ENDBRANCH   5   7
ENDBRANCH   1   5
BRANCH   1  11
HETATM   11  O1  UNL     1      13.744  29.045  29.124  1.00  0.00    -0.202 OA
BRANCH  11  12
HETATM   12  N3  UNL     1      14.401  29.802  28.201  1.00  0.00    -0.266 N 
HETATM   13  C6  UNL     1      15.652  30.079  28.255  1.00  0.00     0.010 C 
HETATM   14  C7  UNL     1      16.693  29.708  29.232  1.00  0.00     0.054 C 
HETATM   15  C10 UNL     1      16.344  30.912  27.227  1.00  0.00     0.054 C 
HETATM   16  C8  UNL     1      17.901  29.469  28.352  1.00  0.00     0.006 C 
HETATM   17  C9  UNL     1      17.814  30.610  27.364  1.00  0.00     0.006 C 
ATOM     18  H3  UNL     1      13.863  30.173  27.417  1.00  0.00     0.194 HD
ENDBRANCH  11  12
ENDBRANCH   1  11
TORSDOF 4
ENDMDL
