MODEL 1
REMARK VINA RESULT: -6.298339275      0.000      0.000
REMARK  2 active torsions:
REMARK  status: ('A' for Active; 'I' for Inactive)
REMARK    1  A    between atoms: O1_2  and  C2_3 
REMARK    2  A    between atoms: C2_3  and  C3_5 
ROOT
HETATM    1  C3  UNL     1      13.593  29.590  32.139  1.00  0.00     0.131 C 
HETATM    2  C4  UNL     1      14.959  30.061  31.763  1.00  0.00     0.020 C 
HETATM    3  C5  UNL     1      15.459  29.255  30.579  1.00  0.00     0.002 C 
HETATM    4  C6  UNL     1      15.253  27.776  30.844  1.00  0.00     0.015 C 
HETATM    5  C7  UNL     1      13.777  27.422  30.846  1.00  0.00    -0.009 C 
HETATM    6  C8  UNL     1      13.353  26.787  29.542  1.00  0.00     0.021 C 
HETATM    7  C9  UNL     1      13.447  26.446  31.954  1.00  0.00     0.021 C 
HETATM    8  C10 UNL     1      13.037  28.690  31.097  1.00  0.00     0.002 C 
HETATM    9  N1  UNL     1      11.976  28.977  30.440  1.00  0.00    -0.404 N 
ATOM     10  H11 UNL     1      11.593  28.359  29.724  1.00  0.00     0.155 HD
ATOM     11  H12 UNL     1      11.469  29.846  30.611  1.00  0.00     0.155 HD
ENDROOT
BRANCH   1  12
HETATM   12  C2  UNL     1      12.624  30.693  32.337  1.00  0.00     0.268 C 
HETATM   13  O2  UNL     1      12.893  31.831  31.899  1.00  0.00    -0.264 OA
BRANCH  12  14
HETATM   14  O1  UNL     1      11.425  30.511  32.994  1.00  0.00    -0.326 OA
HETATM   15  C1  UNL     1      11.293  29.832  34.225  1.00  0.00     0.213 C 
ENDBRANCH  12  14
ENDBRANCH   1  12
TORSDOF 2
ENDMDL
MODEL 2
REMARK VINA RESULT: -6.172930976      1.505      2.574
REMARK  2 active torsions:
REMARK  status: ('A' for Active; 'I' for Inactive)
REMARK    1  A    between atoms: O1_2  and  C2_3 
REMARK    2  A    between atoms: C2_3  and  C3_5 
ROOT
HETATM    1  C3  UNL     1      13.058  29.905  31.044  1.00  0.00     0.131 C 
HETATM    2  C4  UNL     1      12.307  28.614  31.078  1.00  0.00     0.020 C 
HETATM    3  C5  UNL     1      13.244  27.479  30.717  1.00  0.00     0.002 C 
HETATM    4  C6  UNL     1      14.013  27.831  29.459  1.00  0.00     0.015 C 
HETATM    5  C7  UNL     1      14.996  28.960  29.717  1.00  0.00    -0.009 C 
HETATM    6  C8  UNL     1      16.405  28.444  29.894  1.00  0.00     0.021 C 
HETATM    7  C9  UNL     1      15.014  29.946  28.571  1.00  0.00     0.021 C 
HETATM    8  C10 UNL     1      14.519  29.664  30.941  1.00  0.00     0.002 C 
HETATM    9  N1  UNL     1      15.341  30.038  31.850  1.00  0.00    -0.404 N 
ATOM     10  H11 UNL     1      16.345  29.873  31.779  1.00  0.00     0.155 HD
ATOM     11  H12 UNL     1      15.014  30.520  32.688  1.00  0.00     0.155 HD
ENDROOT
BRANCH   1  12
HETATM   12  C2  UNL     1      12.829  30.751  32.237  1.00  0.00     0.268 C 
HETATM   13  O2  UNL     1      12.820  31.995  32.113  1.00  0.00    -0.264 OA
BRANCH  12  14
HETATM   14  O1  UNL     1      12.623  30.218  33.492  1.00  0.00    -0.326 OA
HETATM   15  C1  UNL     1      11.479  30.471  34.279  1.00  0.00     0.213 C 
ENDBRANCH  12  14
ENDBRANCH   1  12
TORSDOF 2
ENDMDL
MODEL 3
REMARK VINA RESULT: -6.102869705      0.985      1.225
REMARK  2 active torsions:
REMARK  status: ('A' for Active; 'I' for Inactive)
REMARK    1  A    between atoms: O1_2  and  C2_3 
REMARK    2  A    between atoms: C2_3  and  C3_5 
ROOT
HETATM    1  C3  UNL     1      14.224  29.298  31.642  1.00  0.00     0.131 C 
HETATM    2  C4  UNL     1      15.665  29.099  31.304  1.00  0.00     0.020 C 
HETATM    3  C5  UNL     1      15.812  27.854  30.450  1.00  0.00     0.002 C 
HETATM    4  C6  UNL     1      15.056  26.704  31.088  1.00  0.00     0.015 C 
HETATM    5  C7  UNL     1      13.556  26.935  31.025  1.00  0.00    -0.009 C 
HETATM    6  C8  UNL     1      12.916  26.145  29.907  1.00  0.00     0.021 C 
HETATM    7  C9  UNL     1      12.882  26.524  32.315  1.00  0.00     0.021 C 
HETATM    8  C10 UNL     1      13.361  28.400  30.834  1.00  0.00     0.002 C 
HETATM    9  N1  UNL     1      12.488  28.848  30.010  1.00  0.00    -0.404 N 
ATOM     10  H11 UNL     1      11.895  28.231  29.454  1.00  0.00     0.155 HD
ATOM     11  H12 UNL     1      12.355  29.851  29.879  1.00  0.00     0.155 HD
ENDROOT
BRANCH   1  12
HETATM   12  C2  UNL     1      13.753  30.684  31.422  1.00  0.00     0.268 C 
HETATM   13  O2  UNL     1      14.187  31.331  30.445  1.00  0.00    -0.264 OA
BRANCH  12  14
HETATM   14  O1  UNL     1      12.845  31.297  32.260  1.00  0.00    -0.326 OA
HETATM   15  C1  UNL     1      12.156  30.633  33.298  1.00  0.00     0.213 C 
ENDBRANCH  12  14
ENDBRANCH   1  12
TORSDOF 2
ENDMDL
MODEL 4
REMARK VINA RESULT: -5.884058605      1.852      3.133
REMARK  2 active torsions:
REMARK  status: ('A' for Active; 'I' for Inactive)
REMARK    1  A    between atoms: O1_2  and  C2_3 
REMARK    2  A    between atoms: C2_3  and  C3_5 
ROOT
HETATM    1  C3  UNL     1      14.706  28.612  31.270  1.00  0.00     0.131 C 
HETATM    2  C4  UNL     1      15.660  27.583  30.760  1.00  0.00     0.020 C 
HETATM    3  C5  UNL     1      14.881  26.380  30.263  1.00  0.00     0.002 C 
HETATM    4  C6  UNL     1      13.861  25.965  31.306  1.00  0.00     0.015 C 
HETATM    5  C7  UNL     1      12.760  27.002  31.436  1.00  0.00    -0.009 C 
HETATM    6  C8  UNL     1      11.509  26.585  30.699  1.00  0.00     0.021 C 
HETATM    7  C9  UNL     1      12.381  27.223  32.884  1.00  0.00     0.021 C 
HETATM    8  C10 UNL     1      13.310  28.275  30.892  1.00  0.00     0.002 C 
HETATM    9  N1  UNL     1      12.604  29.031  30.137  1.00  0.00    -0.404 N 
ATOM     10  H11 UNL     1      11.644  28.800  29.878  1.00  0.00     0.155 HD
ATOM     11  H12 UNL     1      12.981  29.903  29.764  1.00  0.00     0.155 HD
ENDROOT
BRANCH   1  12
HETATM   12  C2  UNL     1      14.987  29.976  30.765  1.00  0.00     0.268 C 
HETATM   13  O2  UNL     1      14.487  30.961  31.350  1.00  0.00    -0.264 OA
BRANCH  12  14
HETATM   14  O1  UNL     1      15.786  30.205  29.664  1.00  0.00    -0.326 OA
HETATM   15  C1  UNL     1      15.292  30.382  28.353  1.00  0.00     0.213 C 
ENDBRANCH  12  14
ENDBRANCH   1  12
TORSDOF 2
ENDMDL
MODEL 5
REMARK VINA RESULT: -5.596656030      3.230      4.915
REMARK  2 active torsions:
REMARK  status: ('A' for Active; 'I' for Inactive)
REMARK    1  A    between atoms: O1_2  and  C2_3 
REMARK    2  A    between atoms: C2_3  and  C3_5 
ROOT
HETATM    1  C3  UNL     1      16.162  29.851  29.434  1.00  0.00     0.131 C 
HETATM    2  C4  UNL     1      16.944  28.778  30.117  1.00  0.00     0.020 C 
HETATM    3  C5  UNL     1      15.988  27.760  30.708  1.00  0.00     0.002 C 
HETATM    4  C6  UNL     1      14.904  28.472  31.493  1.00  0.00     0.015 C 
HETATM    5  C7  UNL     1      13.982  29.249  30.570  1.00  0.00    -0.009 C 
HETATM    6  C8  UNL     1      12.688  28.508  30.321  1.00  0.00     0.021 C 
HETATM    7  C9  UNL     1      13.627  30.598  31.155  1.00  0.00     0.021 C 
HETATM    8  C10 UNL     1      14.734  29.465  29.303  1.00  0.00     0.002 C 
HETATM    9  N1  UNL     1      14.166  29.321  28.164  1.00  0.00    -0.404 N 
ATOM     10  H11 UNL     1      13.185  29.056  28.073  1.00  0.00     0.155 HD
ATOM     11  H12 UNL     1      14.682  29.469  27.296  1.00  0.00     0.155 HD
ENDROOT
BRANCH   1  12
HETATM   12  C2  UNL     1      16.663  30.173  28.078  1.00  0.00     0.268 C 
HETATM   13  O2  UNL     1      16.070  31.034  27.394  1.00  0.00    -0.264 OA
BRANCH  12  14
HETATM   14  O1  UNL     1      17.769  29.554  27.534  1.00  0.00    -0.326 OA
HETATM   15  C1  UNL     1      18.914  30.243  27.077  1.00  0.00     0.213 C 
ENDBRANCH  12  14
ENDBRANCH   1  12
TORSDOF 2
ENDMDL
