MODEL 1
REMARK VINA RESULT: -6.797696284      0.000      0.000
REMARK  2 active torsions:
REMARK  status: ('A' for Active; 'I' for Inactive)
REMARK    1  A    between atoms: C2_2  and  C3_3 
REMARK    2  A    between atoms: N2_6  and  O1_7 
ROOT
HETATM    1  C3  UNL     1      14.540  28.065  29.925  1.00  0.00     0.055 C 
HETATM    2  C4  UNL     1      13.436  28.493  30.870  1.00  0.00     0.140 C 
HETATM    3  N1  UNL     1      13.253  29.888  30.495  1.00  0.00    -0.136 NA
HETATM    4  N2  UNL     1      14.545  30.368  30.303  1.00  0.00    -0.075 NA
HETATM    5  C5  UNL     1      15.278  29.301  29.629  1.00  0.00     0.160 C 
HETATM    6  C6  UNL     1      16.699  29.363  30.034  1.00  0.00     0.059 C 
HETATM    7  C7  UNL     1      17.548  29.049  28.795  1.00  0.00     0.006 C 
HETATM    8  C8  UNL     1      17.414  30.274  27.913  1.00  0.00     0.026 C 
HETATM    9  C9  UNL     1      15.953  30.634  27.868  1.00  0.00     0.170 C 
HETATM   10  O2  UNL     1      15.142  29.569  28.249  1.00  0.00    -0.361 OA
ENDROOT
BRANCH   1  11
HETATM   11  C2  UNL     1      15.353  26.932  30.479  1.00  0.00     0.006 C 
HETATM   12  C1  UNL     1      14.647  26.226  31.614  1.00  0.00     0.006 C 
ENDBRANCH   1  11
BRANCH   4  13
HETATM   13  O1  UNL     1      15.140  30.802  31.406  1.00  0.00    -0.294 OA
ATOM     14  H1  UNL     1      16.089  30.799  31.369  1.00  0.00     0.238 HD
ENDBRANCH   4  13
TORSDOF 2
ENDMDL
MODEL 2
REMARK VINA RESULT: -6.463935456      2.030      4.043
REMARK  2 active torsions:
REMARK  status: ('A' for Active; 'I' for Inactive)
REMARK    1  A    between atoms: C2_2  and  C3_3 
REMARK    2  A    between atoms: N2_6  and  O1_7 
ROOT
HETATM    1  C3  UNL     1      15.064  28.433  31.425  1.00  0.00     0.055 C 
HETATM    2  C4  UNL     1      16.206  29.379  31.123  1.00  0.00     0.140 C 
HETATM    3  N1  UNL     1      15.736  30.613  31.735  1.00  0.00    -0.136 NA
HETATM    4  N2  UNL     1      14.383  30.664  31.415  1.00  0.00    -0.075 NA
HETATM    5  C5  UNL     1      13.883  29.300  31.546  1.00  0.00     0.160 C 
HETATM    6  C6  UNL     1      12.782  29.095  30.579  1.00  0.00     0.059 C 
HETATM    7  C7  UNL     1      11.712  28.240  31.270  1.00  0.00     0.006 C 
HETATM    8  C8  UNL     1      11.075  29.164  32.287  1.00  0.00     0.026 C 
HETATM    9  C9  UNL     1      12.192  29.868  33.012  1.00  0.00     0.170 C 
HETATM   10  O2  UNL     1      13.405  29.202  32.871  1.00  0.00    -0.361 OA
ENDROOT
BRANCH   1  11
HETATM   11  C2  UNL     1      14.963  27.324  30.418  1.00  0.00     0.006 C 
HETATM   12  C1  UNL     1      14.807  25.972  31.076  1.00  0.00     0.006 C 
ENDBRANCH   1  11
BRANCH   4  13
HETATM   13  O1  UNL     1      14.116  31.214  30.238  1.00  0.00    -0.294 OA
ATOM     14  H1  UNL     1      14.869  31.594  29.800  1.00  0.00     0.238 HD
ENDBRANCH   4  13
TORSDOF 2
ENDMDL
MODEL 3
REMARK VINA RESULT: -6.458345041      1.034      1.146
REMARK  2 active torsions:
REMARK  status: ('A' for Active; 'I' for Inactive)
REMARK    1  A    between atoms: C2_2  and  C3_3 
REMARK    2  A    between atoms: N2_6  and  O1_7 
ROOT
HETATM    1  C3  UNL     1      13.759  28.674  30.266  1.00  0.00     0.055 C 
HETATM    2  C4  UNL     1      12.960  29.507  31.246  1.00  0.00     0.140 C 
HETATM    3  N1  UNL     1      13.503  30.837  31.013  1.00  0.00    -0.136 NA
HETATM    4  N2  UNL     1      14.872  30.633  30.873  1.00  0.00    -0.075 NA
HETATM    5  C5  UNL     1      15.022  29.407  30.096  1.00  0.00     0.160 C 
HETATM    6  C6  UNL     1      16.269  28.725  30.509  1.00  0.00     0.059 C 
HETATM    7  C7  UNL     1      16.918  28.142  29.247  1.00  0.00     0.006 C 
HETATM    8  C8  UNL     1      17.446  29.346  28.492  1.00  0.00     0.026 C 
HETATM    9  C9  UNL     1      16.353  30.381  28.480  1.00  0.00     0.170 C 
HETATM   10  O2  UNL     1      15.106  29.825  28.750  1.00  0.00    -0.361 OA
ENDROOT
BRANCH   1  11
HETATM   11  C2  UNL     1      13.884  27.244  30.704  1.00  0.00     0.006 C 
HETATM   12  C1  UNL     1      13.523  26.277  29.600  1.00  0.00     0.006 C 
ENDBRANCH   1  11
BRANCH   4  13
HETATM   13  O1  UNL     1      15.546  30.621  32.015  1.00  0.00    -0.294 OA
ATOM     14  H1  UNL     1      16.448  30.333  31.938  1.00  0.00     0.238 HD
ENDBRANCH   4  13
TORSDOF 2
ENDMDL
MODEL 4
REMARK VINA RESULT: -6.297598037      1.745      3.786
REMARK  2 active torsions:
REMARK  status: ('A' for Active; 'I' for Inactive)
REMARK    1  A    between atoms: C2_2  and  C3_3 
REMARK    2  A    between atoms: N2_6  and  O1_7 
ROOT
HETATM    1  C3  UNL     1      15.784  28.549  31.157  1.00  0.00     0.055 C 
HETATM    2  C4  UNL     1      16.450  29.861  31.512  1.00  0.00     0.140 C 
HETATM    3  N1  UNL     1      15.371  30.566  32.187  1.00  0.00    -0.136 NA
HETATM    4  N2  UNL     1      14.241  30.278  31.429  1.00  0.00    -0.075 NA
HETATM    5  C5  UNL     1      14.354  28.873  31.049  1.00  0.00     0.160 C 
HETATM    6  C6  UNL     1      13.705  28.676  29.735  1.00  0.00     0.059 C 
HETATM    7  C7  UNL     1      12.972  27.329  29.778  1.00  0.00     0.006 C 
HETATM    8  C8  UNL     1      11.784  27.563  30.689  1.00  0.00     0.026 C 
HETATM    9  C9  UNL     1      12.291  28.289  31.907  1.00  0.00     0.170 C 
HETATM   10  O2  UNL     1      13.668  28.158  32.055  1.00  0.00    -0.361 OA
ENDROOT
BRANCH   1  11
HETATM   11  C2  UNL     1      16.403  27.906  29.950  1.00  0.00     0.006 C 
HETATM   12  C1  UNL     1      17.254  28.875  29.162  1.00  0.00     0.006 C 
ENDBRANCH   1  11
BRANCH   4  13
HETATM   13  O1  UNL     1      14.048  31.090  30.398  1.00  0.00    -0.294 OA
ATOM     14  H1  UNL     1      14.502  31.923  30.462  1.00  0.00     0.238 HD
ENDBRANCH   4  13
TORSDOF 2
ENDMDL
MODEL 5
REMARK VINA RESULT: -6.157459180      1.581      3.706
REMARK  2 active torsions:
REMARK  status: ('A' for Active; 'I' for Inactive)
REMARK    1  A    between atoms: C2_2  and  C3_3 
REMARK    2  A    between atoms: N2_6  and  O1_7 
ROOT
HETATM    1  C3  UNL     1      16.057  30.354  28.444  1.00  0.00     0.055 C 
HETATM    2  C4  UNL     1      15.026  30.348  27.336  1.00  0.00     0.140 C 
HETATM    3  N1  UNL     1      13.782  30.332  28.093  1.00  0.00    -0.136 NA
HETATM    4  N2  UNL     1      14.024  29.446  29.137  1.00  0.00    -0.075 NA
HETATM    5  C5  UNL     1      15.390  29.702  29.580  1.00  0.00     0.160 C 
HETATM    6  C6  UNL     1      15.977  28.442  30.086  1.00  0.00     0.059 C 
HETATM    7  C7  UNL     1      16.825  28.788  31.318  1.00  0.00     0.006 C 
HETATM    8  C8  UNL     1      15.818  29.128  32.398  1.00  0.00     0.026 C 
HETATM    9  C9  UNL     1      14.801  30.054  31.785  1.00  0.00     0.170 C 
HETATM   10  O2  UNL     1      15.274  30.650  30.620  1.00  0.00    -0.361 OA
ENDROOT
BRANCH   1  11
HETATM   11  C2  UNL     1      17.360  29.746  28.011  1.00  0.00     0.006 C 
HETATM   12  C1  UNL     1      18.230  30.734  27.268  1.00  0.00     0.006 C 
ENDBRANCH   1  11
BRANCH   4  13
HETATM   13  O1  UNL     1      13.794  28.173  28.842  1.00  0.00    -0.294 OA
ATOM     14  H1  UNL     1      13.162  28.038  28.146  1.00  0.00     0.238 HD
ENDBRANCH   4  13
TORSDOF 2
ENDMDL
