MODEL 1
REMARK VINA RESULT: -6.546984005      0.000      0.000
REMARK  2 active torsions:
REMARK  status: ('A' for Active; 'I' for Inactive)
REMARK    1  A    between atoms: N1_6  and  S1_7 
REMARK    2  A    between atoms: S1_7  and  C6_8 
ROOT
HETATM    1  C1  UNL     1      18.202  29.607  28.636  1.00  0.00     0.010 C 
HETATM    2  C2  UNL     1      16.771  29.301  29.024  1.00  0.00    -0.017 C 
HETATM    3  C3  UNL     1      15.906  30.398  28.457  1.00  0.00     0.005 C 
HETATM    4  C4  UNL     1      14.524  29.832  28.254  1.00  0.00     0.016 C 
HETATM    5  C5  UNL     1      14.059  29.114  29.519  1.00  0.00     0.103 C 
HETATM    6  N1  UNL     1      14.272  29.894  30.702  1.00  0.00    -0.252 NA
HETATM    7  C7  UNL     1      15.614  29.995  31.137  1.00  0.00     0.103 C 
HETATM    8  C8  UNL     1      16.578  29.059  30.474  1.00  0.00     0.019 C 
ENDROOT
BRANCH   6   9
HETATM    9  S1  UNL     1      13.172  29.295  31.951  1.00  0.00    -0.009 SA
BRANCH   9  10
HETATM   10  C6  UNL     1      12.454  30.729  32.780  1.00  0.00     0.163 C 
HETATM   11  N2  UNL     1      11.728  30.543  33.824  1.00  0.00    -0.381 N 
ATOM     12  H22 UNL     1      11.568  29.595  34.166  1.00  0.00     0.157 HD
ATOM     13  H21 UNL     1      11.322  31.353  34.293  1.00  0.00     0.157 HD
HETATM   14  N3  UNL     1      12.676  32.045  32.305  1.00  0.00    -0.074 NA
ENDBRANCH   9  10
ENDBRANCH   6   9
TORSDOF 2
ENDMDL
MODEL 2
REMARK VINA RESULT: -6.366653738      0.770      1.885
REMARK  2 active torsions:
REMARK  status: ('A' for Active; 'I' for Inactive)
REMARK    1  A    between atoms: N1_6  and  S1_7 
REMARK    2  A    between atoms: S1_7  and  C6_8 
ROOT
HETATM    1  C1  UNL     1      17.794  29.836  28.028  1.00  0.00     0.010 C 
HETATM    2  C2  UNL     1      16.784  29.964  29.148  1.00  0.00    -0.017 C 
HETATM    3  C3  UNL     1      17.075  28.873  30.146  1.00  0.00     0.005 C 
HETATM    4  C4  UNL     1      16.571  29.335  31.488  1.00  0.00     0.016 C 
HETATM    5  C5  UNL     1      15.139  29.848  31.365  1.00  0.00     0.103 C 
HETATM    6  N1  UNL     1      14.296  28.952  30.631  1.00  0.00    -0.252 NA
HETATM    7  C7  UNL     1      14.506  28.919  29.233  1.00  0.00     0.103 C 
HETATM    8  C8  UNL     1      15.375  30.009  28.686  1.00  0.00     0.019 C 
ENDROOT
BRANCH   6   9
HETATM    9  S1  UNL     1      12.620  29.295  31.080  1.00  0.00    -0.009 SA
BRANCH   9  10
HETATM   10  C6  UNL     1      12.651  30.411  32.498  1.00  0.00     0.163 C 
HETATM   11  N2  UNL     1      12.636  29.912  33.682  1.00  0.00    -0.381 N 
ATOM     12  H22 UNL     1      12.606  28.899  33.803  1.00  0.00     0.157 HD
ATOM     13  H21 UNL     1      12.654  30.542  34.483  1.00  0.00     0.157 HD
HETATM   14  N3  UNL     1      12.693  31.818  32.330  1.00  0.00    -0.074 NA
ENDBRANCH   9  10
ENDBRANCH   6   9
TORSDOF 2
ENDMDL
MODEL 3
REMARK VINA RESULT: -6.069052031      1.421      1.756
REMARK  2 active torsions:
REMARK  status: ('A' for Active; 'I' for Inactive)
REMARK    1  A    between atoms: N1_6  and  S1_7 
REMARK    2  A    between atoms: S1_7  and  C6_8 
ROOT
HETATM    1  C1  UNL     1      18.963  29.851  27.008  1.00  0.00     0.010 C 
HETATM    2  C2  UNL     1      17.618  29.627  27.665  1.00  0.00    -0.017 C 
HETATM    3  C3  UNL     1      16.834  30.908  27.537  1.00  0.00     0.005 C 
HETATM    4  C4  UNL     1      15.370  30.554  27.573  1.00  0.00     0.016 C 
HETATM    5  C5  UNL     1      15.080  29.635  28.756  1.00  0.00     0.103 C 
HETATM    6  N1  UNL     1      15.660  30.112  29.976  1.00  0.00    -0.252 NA
HETATM    7  C7  UNL     1      17.062  29.969  30.086  1.00  0.00     0.103 C 
HETATM    8  C8  UNL     1      17.704  29.099  29.049  1.00  0.00     0.019 C 
ENDROOT
BRANCH   6   9
HETATM    9  S1  UNL     1      14.773  29.381  31.321  1.00  0.00    -0.009 SA
BRANCH   9  10
HETATM   10  C6  UNL     1      13.131  30.129  31.363  1.00  0.00     0.163 C 
HETATM   11  N2  UNL     1      12.139  29.480  30.864  1.00  0.00    -0.381 N 
ATOM     12  H22 UNL     1      12.294  28.559  30.454  1.00  0.00     0.157 HD
ATOM     13  H21 UNL     1      11.211  29.902  30.888  1.00  0.00     0.157 HD
HETATM   14  N3  UNL     1      12.916  31.408  31.933  1.00  0.00    -0.074 NA
ENDBRANCH   9  10
ENDBRANCH   6   9
TORSDOF 2
ENDMDL
MODEL 4
REMARK VINA RESULT: -6.041516836      0.662      1.103
REMARK  2 active torsions:
REMARK  status: ('A' for Active; 'I' for Inactive)
REMARK    1  A    between atoms: N1_6  and  S1_7 
REMARK    2  A    between atoms: S1_7  and  C6_8 
ROOT
HETATM    1  C1  UNL     1      18.303  29.787  28.564  1.00  0.00     0.010 C 
HETATM    2  C2  UNL     1      16.907  29.321  28.919  1.00  0.00    -0.017 C 
HETATM    3  C3  UNL     1      15.945  30.388  28.463  1.00  0.00     0.005 C 
HETATM    4  C4  UNL     1      14.617  29.726  28.206  1.00  0.00     0.016 C 
HETATM    5  C5  UNL     1      14.226  28.850  29.393  1.00  0.00     0.103 C 
HETATM    6  N1  UNL     1      14.380  29.526  30.647  1.00  0.00    -0.252 NA
HETATM    7  C7  UNL     1      15.712  29.700  31.091  1.00  0.00     0.103 C 
HETATM    8  C8  UNL     1      16.748  28.922  30.339  1.00  0.00     0.019 C 
ENDROOT
BRANCH   6   9
HETATM    9  S1  UNL     1      13.348  28.714  31.832  1.00  0.00    -0.009 SA
BRANCH   9  10
HETATM   10  C6  UNL     1      12.147  29.922  32.430  1.00  0.00     0.163 C 
HETATM   11  N2  UNL     1      12.469  31.166  32.435  1.00  0.00    -0.381 N 
ATOM     12  H22 UNL     1      13.391  31.452  32.105  1.00  0.00     0.157 HD
ATOM     13  H21 UNL     1      11.790  31.849  32.773  1.00  0.00     0.157 HD
HETATM   14  N3  UNL     1      10.866  29.526  32.888  1.00  0.00    -0.074 NA
ENDBRANCH   9  10
ENDBRANCH   6   9
TORSDOF 2
ENDMDL
MODEL 5
REMARK VINA RESULT: -5.971357123      1.596      1.886
REMARK  2 active torsions:
REMARK  status: ('A' for Active; 'I' for Inactive)
REMARK    1  A    between atoms: N1_6  and  S1_7 
REMARK    2  A    between atoms: S1_7  and  C6_8 
ROOT
HETATM    1  C1  UNL     1      18.339  30.064  27.802  1.00  0.00     0.010 C 
HETATM    2  C2  UNL     1      17.005  29.536  28.284  1.00  0.00    -0.017 C 
HETATM    3  C3  UNL     1      15.987  30.629  28.084  1.00  0.00     0.005 C 
HETATM    4  C4  UNL     1      14.638  29.977  27.932  1.00  0.00     0.016 C 
HETATM    5  C5  UNL     1      14.414  28.966  29.053  1.00  0.00     0.103 C 
HETATM    6  N1  UNL     1      14.732  29.499  30.345  1.00  0.00    -0.252 NA
HETATM    7  C7  UNL     1      16.111  29.646  30.624  1.00  0.00     0.103 C 
HETATM    8  C8  UNL     1      17.039  28.976  29.657  1.00  0.00     0.019 C 
ENDROOT
BRANCH   6   9
HETATM    9  S1  UNL     1      13.871  28.539  31.555  1.00  0.00    -0.009 SA
BRANCH   9  10
HETATM   10  C6  UNL     1      12.108  28.636  31.176  1.00  0.00     0.163 C 
HETATM   11  N2  UNL     1      11.424  29.616  31.650  1.00  0.00    -0.381 N 
ATOM     12  H22 UNL     1      11.883  30.318  32.230  1.00  0.00     0.157 HD
ATOM     13  H21 UNL     1      10.429  29.671  31.436  1.00  0.00     0.157 HD
HETATM   14  N3  UNL     1      11.471  27.660  30.370  1.00  0.00    -0.074 NA
ENDBRANCH   9  10
ENDBRANCH   6   9
TORSDOF 2
ENDMDL
