MODEL 1
REMARK VINA RESULT: -6.643986262      0.000      0.000
REMARK  4 active torsions:
REMARK  status: ('A' for Active; 'I' for Inactive)
REMARK    1  A    between atoms: C2_2  and  N1_4 
REMARK    2  A    between atoms: N1_4  and  C4_6 
REMARK    3  A    between atoms: C4_6  and  C5_7 
REMARK    4  A    between atoms: C8_11  and  C9_12 
ROOT
HETATM    1  C5  UNL     1      47.715  48.109 -20.708  1.00  0.00    -0.023 A 
HETATM    2  C6  UNL     1      47.594  48.829 -21.849  1.00  0.00     0.017 A 
HETATM    3  C7  UNL     1      48.359  49.974 -21.954  1.00  0.00     0.051 A 
HETATM    4  S1  UNL     1      49.233  50.060 -20.468  1.00  0.00    -0.101 SA
HETATM    5  C8  UNL     1      48.590  48.596 -19.752  1.00  0.00     0.044 A 
ENDROOT
BRANCH   1   6
HETATM    6  C4  UNL     1      46.886  46.806 -20.586  1.00  0.00     0.154 C 
BRANCH   6   7
HETATM    7  N1  UNL     1      47.280  46.178 -21.875  1.00  0.00    -0.414 N 
ATOM      8  H1  UNL     1      48.253  46.263 -22.170  1.00  0.00     0.153 HD
BRANCH   7   9
HETATM    9  C2  UNL     1      46.424  45.497 -22.687  1.00  0.00     0.068 C 
HETATM   10  C1  UNL     1      47.113  44.177 -23.102  1.00  0.00     0.031 C 
HETATM   11  C3  UNL     1      44.997  45.204 -22.349  1.00  0.00     0.031 C 
ENDBRANCH   7   9
ENDBRANCH   6   7
ENDBRANCH   1   6
BRANCH   5  12
HETATM   12  C9  UNL     1      49.002  48.025 -18.430  1.00  0.00     0.223 C 
HETATM   13 CL1  UNL     1      49.635  46.398 -18.547  1.00  0.00    -0.078 Cl
HETATM   14 CL2  UNL     1      47.569  48.061 -17.355  1.00  0.00    -0.078 Cl
HETATM   15 CL3  UNL     1      50.167  49.119 -17.766  1.00  0.00    -0.078 Cl
ENDBRANCH   5  12
TORSDOF 4
ENDMDL
MODEL 2
REMARK VINA RESULT: -6.621387829      0.120      1.312
REMARK  4 active torsions:
REMARK  status: ('A' for Active; 'I' for Inactive)
REMARK    1  A    between atoms: C2_2  and  N1_4 
REMARK    2  A    between atoms: N1_4  and  C4_6 
REMARK    3  A    between atoms: C4_6  and  C5_7 
REMARK    4  A    between atoms: C8_11  and  C9_12 
ROOT
HETATM    1  C5  UNL     1      47.654  48.152 -20.695  1.00  0.00    -0.023 A 
HETATM    2  C6  UNL     1      47.614  48.863 -21.848  1.00  0.00     0.017 A 
HETATM    3  C7  UNL     1      48.424  49.978 -21.927  1.00  0.00     0.051 A 
HETATM    4  S1  UNL     1      49.229  50.049 -20.401  1.00  0.00    -0.101 SA
HETATM    5  C8  UNL     1      48.500  48.618 -19.703  1.00  0.00     0.044 A 
ENDROOT
BRANCH   1   6
HETATM    6  C4  UNL     1      46.773  46.881 -20.601  1.00  0.00     0.154 C 
BRANCH   6   7
HETATM    7  N1  UNL     1      47.213  46.220 -21.858  1.00  0.00    -0.414 N 
ATOM      8  H1  UNL     1      48.197  46.289 -22.115  1.00  0.00     0.153 HD
BRANCH   7   9
HETATM    9  C2  UNL     1      46.384  45.527 -22.688  1.00  0.00     0.068 C 
HETATM   10  C1  UNL     1      47.102  44.221 -23.094  1.00  0.00     0.031 C 
HETATM   11  C3  UNL     1      44.956  45.208 -22.377  1.00  0.00     0.031 C 
ENDBRANCH   7   9
ENDBRANCH   6   7
ENDBRANCH   1   6
BRANCH   5  12
HETATM   12  C9  UNL     1      48.827  48.048 -18.357  1.00  0.00     0.223 C 
HETATM   13 CL1  UNL     1      47.434  47.910 -17.308  1.00  0.00    -0.078 Cl
HETATM   14 CL2  UNL     1      50.068  49.103 -17.610  1.00  0.00    -0.078 Cl
HETATM   15 CL3  UNL     1      49.568  46.511 -18.644  1.00  0.00    -0.078 Cl
ENDBRANCH   5  12
TORSDOF 4
ENDMDL
MODEL 3
REMARK VINA RESULT: -6.516762702      0.121      1.359
REMARK  4 active torsions:
REMARK  status: ('A' for Active; 'I' for Inactive)
REMARK    1  A    between atoms: C2_2  and  N1_4 
REMARK    2  A    between atoms: N1_4  and  C4_6 
REMARK    3  A    between atoms: C4_6  and  C5_7 
REMARK    4  A    between atoms: C8_11  and  C9_12 
ROOT
HETATM    1  C5  UNL     1      47.681  48.075 -20.692  1.00  0.00    -0.023 A 
HETATM    2  C6  UNL     1      47.564  48.792 -21.835  1.00  0.00     0.017 A 
HETATM    3  C7  UNL     1      48.316  49.946 -21.932  1.00  0.00     0.051 A 
HETATM    4  S1  UNL     1      49.170  50.045 -20.435  1.00  0.00    -0.101 SA
HETATM    5  C8  UNL     1      48.539  48.573 -19.726  1.00  0.00     0.044 A 
ENDROOT
BRANCH   1   6
HETATM    6  C4  UNL     1      46.868  46.761 -20.579  1.00  0.00     0.154 C 
BRANCH   6   7
HETATM    7  N1  UNL     1      47.261  46.151 -21.876  1.00  0.00    -0.414 N 
ATOM      8  H1  UNL     1      48.231  46.251 -22.177  1.00  0.00     0.153 HD
BRANCH   7   9
HETATM    9  C2  UNL     1      46.409  45.466 -22.689  1.00  0.00     0.068 C 
HETATM   10  C1  UNL     1      47.110  44.157 -23.117  1.00  0.00     0.031 C 
HETATM   11  C3  UNL     1      44.987  45.156 -22.347  1.00  0.00     0.031 C 
ENDBRANCH   7   9
ENDBRANCH   6   7
ENDBRANCH   1   6
BRANCH   5  12
HETATM   12  C9  UNL     1      48.942  48.009 -18.399  1.00  0.00     0.223 C 
HETATM   13 CL1  UNL     1      50.102  49.005 -17.549  1.00  0.00    -0.078 Cl
HETATM   14 CL2  UNL     1      49.617  46.375 -18.689  1.00  0.00    -0.078 Cl
HETATM   15 CL3  UNL     1      47.484  47.806 -17.489  1.00  0.00    -0.078 Cl
ENDBRANCH   5  12
TORSDOF 4
ENDMDL
MODEL 4
REMARK VINA RESULT: -6.341864319      2.732      4.314
REMARK  4 active torsions:
REMARK  status: ('A' for Active; 'I' for Inactive)
REMARK    1  A    between atoms: C2_2  and  N1_4 
REMARK    2  A    between atoms: N1_4  and  C4_6 
REMARK    3  A    between atoms: C4_6  and  C5_7 
REMARK    4  A    between atoms: C8_11  and  C9_12 
ROOT
HETATM    1  C5  UNL     1      47.580  47.893 -19.351  1.00  0.00    -0.023 A 
HETATM    2  C6  UNL     1      46.909  47.427 -20.432  1.00  0.00     0.017 A 
HETATM    3  C7  UNL     1      47.095  48.097 -21.625  1.00  0.00     0.051 A 
HETATM    4  S1  UNL     1      48.187  49.380 -21.246  1.00  0.00    -0.101 SA
HETATM    5  C8  UNL     1      48.385  49.003 -19.547  1.00  0.00     0.044 A 
ENDROOT
BRANCH   1   6
HETATM    6  C4  UNL     1      47.406  47.135 -18.012  1.00  0.00     0.154 C 
BRANCH   6   7
HETATM    7  N1  UNL     1      46.299  47.950 -17.445  1.00  0.00    -0.414 N 
ATOM      8  H1  UNL     1      45.542  48.229 -18.070  1.00  0.00     0.153 HD
BRANCH   7   9
HETATM    9  C2  UNL     1      46.231  48.348 -16.144  1.00  0.00     0.068 C 
HETATM   10  C1  UNL     1      45.197  49.493 -16.051  1.00  0.00     0.031 C 
HETATM   11  C3  UNL     1      46.019  47.421 -14.990  1.00  0.00     0.031 C 
ENDBRANCH   7   9
ENDBRANCH   6   7
ENDBRANCH   1   6
BRANCH   5  12
HETATM   12  C9  UNL     1      49.296  49.723 -18.601  1.00  0.00     0.223 C 
HETATM   13 CL1  UNL     1      50.267  48.644 -17.623  1.00  0.00    -0.078 Cl
HETATM   14 CL2  UNL     1      48.279  50.764 -17.557  1.00  0.00    -0.078 Cl
HETATM   15 CL3  UNL     1      50.278  50.769 -19.568  1.00  0.00    -0.078 Cl
ENDBRANCH   5  12
TORSDOF 4
ENDMDL
MODEL 5
REMARK VINA RESULT: -6.254335618      2.997      4.541
REMARK  4 active torsions:
REMARK  status: ('A' for Active; 'I' for Inactive)
REMARK    1  A    between atoms: C2_2  and  N1_4 
REMARK    2  A    between atoms: N1_4  and  C4_6 
REMARK    3  A    between atoms: C4_6  and  C5_7 
REMARK    4  A    between atoms: C8_11  and  C9_12 
ROOT
HETATM    1  C5  UNL     1      47.415  47.867 -19.041  1.00  0.00    -0.023 A 
HETATM    2  C6  UNL     1      46.768  47.312 -20.094  1.00  0.00     0.017 A 
HETATM    3  C7  UNL     1      47.031  47.839 -21.343  1.00  0.00     0.051 A 
HETATM    4  S1  UNL     1      48.162  49.112 -21.056  1.00  0.00    -0.101 SA
HETATM    5  C8  UNL     1      48.274  48.916 -19.319  1.00  0.00     0.044 A 
ENDROOT
BRANCH   1   6
HETATM    6  C4  UNL     1      47.154  47.268 -17.637  1.00  0.00     0.154 C 
BRANCH   6   7
HETATM    7  N1  UNL     1      46.045  48.166 -17.221  1.00  0.00    -0.414 N 
ATOM      8  H1  UNL     1      45.640  48.783 -17.926  1.00  0.00     0.153 HD
BRANCH   7   9
HETATM    9  C2  UNL     1      45.535  48.219 -15.959  1.00  0.00     0.068 C 
HETATM   10  C1  UNL     1      44.032  48.560 -16.068  1.00  0.00     0.031 C 
HETATM   11  C3  UNL     1      45.707  47.141 -14.937  1.00  0.00     0.031 C 
ENDBRANCH   7   9
ENDBRANCH   6   7
ENDBRANCH   1   6
BRANCH   5  12
HETATM   12  C9  UNL     1      49.178  49.699 -18.416  1.00  0.00     0.223 C 
HETATM   13 CL1  UNL     1      48.312  50.651 -17.231  1.00  0.00    -0.078 Cl
HETATM   14 CL2  UNL     1      50.188  50.758 -19.449  1.00  0.00    -0.078 Cl
HETATM   15 CL3  UNL     1      50.236  48.552 -17.669  1.00  0.00    -0.078 Cl
ENDBRANCH   5  12
TORSDOF 4
ENDMDL
