MODEL 1
REMARK VINA RESULT: -7.789127470      0.000      0.000
REMARK  4 active torsions:
REMARK  status: ('A' for Active; 'I' for Inactive)
REMARK    1  A    between atoms: C2_2  and  C3_3 
REMARK    2  A    between atoms: C3_3  and  N1_4 
REMARK    3  A    between atoms: C7_8  and  C8_9 
REMARK    4  A    between atoms: C12_18  and  O1_19 
ROOT
HETATM    1  N1  UNL     1      47.752  49.090 -21.110  1.00  0.00    -0.331 N 
HETATM    2  C4  UNL     1      47.005  48.015 -21.403  1.00  0.00     0.011 A 
HETATM    3  C5  UNL     1      46.458  47.569 -22.735  1.00  0.00     0.068 C 
HETATM    4  C6  UNL     1      46.759  47.303 -20.248  1.00  0.00     0.041 A 
HETATM    5  C7  UNL     1      47.372  47.957 -19.202  1.00  0.00     0.033 A 
HETATM    6  C12 UNL     1      47.975  49.053 -19.768  1.00  0.00     0.154 A 
ENDROOT
BRANCH   5   7
HETATM    7  C8  UNL     1      47.383  47.572 -17.795  1.00  0.00     0.060 A 
HETATM    8  C9  UNL     1      48.352  46.872 -17.109  1.00  0.00     0.120 A 
HETATM    9 CL1  UNL     1      49.827  46.282 -17.833  1.00  0.00    -0.063 Cl
HETATM   10  N2  UNL     1      47.995  46.711 -15.809  1.00  0.00    -0.320 N 
HETATM   11  C10 UNL     1      46.800  47.300 -15.634  1.00  0.00     0.229 A 
ATOM     12  H2  UNL     1      48.538  46.230 -15.092  1.00  0.00     0.169 HD
HETATM   13  F1  UNL     1      46.081  47.374 -14.491  1.00  0.00    -0.183 F 
HETATM   14  C11 UNL     1      46.408  47.837 -16.855  1.00  0.00     0.186 A 
HETATM   15  F2  UNL     1      45.255  48.513 -17.087  1.00  0.00    -0.200 F 
ENDBRANCH   5   7
BRANCH   6  16
HETATM   16  O1  UNL     1      48.702  49.989 -19.089  1.00  0.00    -0.345 OA
ATOM     17  H1  UNL     1      49.322  49.782 -18.400  1.00  0.00     0.219 HD
ENDBRANCH   6  16
BRANCH   1  18
HETATM   18  C3  UNL     1      48.197  50.031 -22.070  1.00  0.00     0.131 C 
BRANCH  18  19
HETATM   19  C2  UNL     1      49.618  50.258 -22.289  1.00  0.00     0.016 C 
HETATM   20  C1  UNL     1      49.953  51.695 -22.593  1.00  0.00     0.006 C 
ENDBRANCH  18  19
ENDBRANCH   1  18
TORSDOF 4
ENDMDL
MODEL 2
REMARK VINA RESULT: -7.597086175      2.721      3.716
REMARK  4 active torsions:
REMARK  status: ('A' for Active; 'I' for Inactive)
REMARK    1  A    between atoms: C2_2  and  C3_3 
REMARK    2  A    between atoms: C3_3  and  N1_4 
REMARK    3  A    between atoms: C7_8  and  C8_9 
REMARK    4  A    between atoms: C12_18  and  O1_19 
ROOT
HETATM    1  N1  UNL     1      47.956  48.678 -18.866  1.00  0.00    -0.331 N 
HETATM    2  C4  UNL     1      47.938  49.770 -18.088  1.00  0.00     0.011 A 
HETATM    3  C5  UNL     1      48.570  51.119 -18.325  1.00  0.00     0.068 C 
HETATM    4  C6  UNL     1      47.225  49.501 -16.940  1.00  0.00     0.041 A 
HETATM    5  C7  UNL     1      46.785  48.197 -17.003  1.00  0.00     0.033 A 
HETATM    6  C12 UNL     1      47.253  47.720 -18.203  1.00  0.00     0.154 A 
ENDROOT
BRANCH   5   7
HETATM    7  C8  UNL     1      45.993  47.475 -16.014  1.00  0.00     0.060 A 
HETATM    8  C9  UNL     1      44.685  47.696 -15.642  1.00  0.00     0.120 A 
HETATM    9 CL1  UNL     1      43.675  48.948 -16.320  1.00  0.00    -0.063 Cl
HETATM   10  N2  UNL     1      44.304  46.810 -14.686  1.00  0.00    -0.320 N 
HETATM   11  C10 UNL     1      45.350  46.009 -14.426  1.00  0.00     0.229 A 
ATOM     12  H2  UNL     1      43.386  46.762 -14.244  1.00  0.00     0.169 HD
HETATM   13  F1  UNL     1      45.403  44.990 -13.539  1.00  0.00    -0.183 F 
HETATM   14  C11 UNL     1      46.404  46.408 -15.240  1.00  0.00     0.186 A 
HETATM   15  F2  UNL     1      47.637  45.843 -15.272  1.00  0.00    -0.200 F 
ENDBRANCH   5   7
BRANCH   6  16
HETATM   16  O1  UNL     1      47.049  46.456 -18.680  1.00  0.00    -0.345 OA
ATOM     17  H1  UNL     1      46.631  46.263 -19.511  1.00  0.00     0.219 HD
ENDBRANCH   6  16
BRANCH   1  18
HETATM   18  C3  UNL     1      48.593  48.614 -20.128  1.00  0.00     0.131 C 
BRANCH  18  19
HETATM   19  C2  UNL     1      47.905  49.048 -21.335  1.00  0.00     0.016 C 
HETATM   20  C1  UNL     1      47.036  47.979 -21.944  1.00  0.00     0.006 C 
ENDBRANCH  18  19
ENDBRANCH   1  18
TORSDOF 4
ENDMDL
MODEL 3
REMARK VINA RESULT: -7.583754978      5.476      8.155
REMARK  4 active torsions:
REMARK  status: ('A' for Active; 'I' for Inactive)
REMARK    1  A    between atoms: C2_2  and  C3_3 
REMARK    2  A    between atoms: C3_3  and  N1_4 
REMARK    3  A    between atoms: C7_8  and  C8_9 
REMARK    4  A    between atoms: C12_18  and  O1_19 
ROOT
HETATM    1  N1  UNL     1      44.427  43.171 -13.808  1.00  0.00    -0.331 N 
HETATM    2  C4  UNL     1      44.188  43.832 -12.666  1.00  0.00     0.011 A 
HETATM    3  C5  UNL     1      43.950  43.285 -11.281  1.00  0.00     0.068 C 
HETATM    4  C6  UNL     1      44.170  45.187 -12.918  1.00  0.00     0.041 A 
HETATM    5  C7  UNL     1      44.404  45.377 -14.262  1.00  0.00     0.033 A 
HETATM    6  C12 UNL     1      44.558  44.115 -14.780  1.00  0.00     0.154 A 
ENDROOT
BRANCH   5   7
HETATM    7  C8  UNL     1      44.476  46.642 -14.984  1.00  0.00     0.060 A 
HETATM    8  C9  UNL     1      45.591  47.276 -15.487  1.00  0.00     0.120 A 
HETATM    9 CL1  UNL     1      47.215  46.651 -15.348  1.00  0.00    -0.063 Cl
HETATM   10  N2  UNL     1      45.245  48.439 -16.096  1.00  0.00    -0.320 N 
HETATM   11  C10 UNL     1      43.912  48.576 -15.998  1.00  0.00     0.229 A 
ATOM     12  H2  UNL     1      45.884  49.093 -16.549  1.00  0.00     0.169 HD
HETATM   13  F1  UNL     1      43.155  49.591 -16.470  1.00  0.00    -0.183 F 
HETATM   14  C11 UNL     1      43.422  47.471 -15.312  1.00  0.00     0.186 A 
HETATM   15  F2  UNL     1      42.119  47.242 -15.011  1.00  0.00    -0.200 F 
ENDBRANCH   5   7
BRANCH   6  16
HETATM   16  O1  UNL     1      44.810  43.828 -16.093  1.00  0.00    -0.345 OA
ATOM     17  H1  UNL     1      44.485  44.345 -16.820  1.00  0.00     0.219 HD
ENDBRANCH   6  16
BRANCH   1  18
HETATM   18  C3  UNL     1      44.523  41.762 -13.904  1.00  0.00     0.131 C 
BRANCH  18  19
HETATM   19  C2  UNL     1      45.747  41.128 -14.372  1.00  0.00     0.016 C 
HETATM   20  C1  UNL     1      45.561  40.336 -15.640  1.00  0.00     0.006 C 
ENDBRANCH  18  19
ENDBRANCH   1  18
TORSDOF 4
ENDMDL
MODEL 4
REMARK VINA RESULT: -7.336247643      5.541      8.538
REMARK  4 active torsions:
REMARK  status: ('A' for Active; 'I' for Inactive)
REMARK    1  A    between atoms: C2_2  and  C3_3 
REMARK    2  A    between atoms: C3_3  and  N1_4 
REMARK    3  A    between atoms: C7_8  and  C8_9 
REMARK    4  A    between atoms: C12_18  and  O1_19 
ROOT
HETATM    1  N1  UNL     1      44.291  43.797 -12.841  1.00  0.00    -0.331 N 
HETATM    2  C4  UNL     1      44.980  43.258 -13.857  1.00  0.00     0.011 A 
HETATM    3  C5  UNL     1      45.476  41.844 -14.028  1.00  0.00     0.068 C 
HETATM    4  C6  UNL     1      45.217  44.225 -14.810  1.00  0.00     0.041 A 
HETATM    5  C7  UNL     1      44.659  45.406 -14.372  1.00  0.00     0.033 A 
HETATM    6  C12 UNL     1      44.096  45.107 -13.157  1.00  0.00     0.154 A 
ENDROOT
BRANCH   5   7
HETATM    7  C8  UNL     1      44.662  46.697 -15.050  1.00  0.00     0.060 A 
HETATM    8  C9  UNL     1      45.744  47.425 -15.496  1.00  0.00     0.120 A 
HETATM    9 CL1  UNL     1      47.403  46.913 -15.323  1.00  0.00    -0.063 Cl
HETATM   10  N2  UNL     1      45.334  48.581 -16.079  1.00  0.00    -0.320 N 
HETATM   11  C10 UNL     1      43.992  48.620 -16.020  1.00  0.00     0.229 A 
ATOM     12  H2  UNL     1      45.938  49.294 -16.489  1.00  0.00     0.169 HD
HETATM   13  F1  UNL     1      43.179  49.594 -16.485  1.00  0.00    -0.183 F 
HETATM   14  C11 UNL     1      43.561  47.460 -15.386  1.00  0.00     0.186 A 
HETATM   15  F2  UNL     1      42.269  47.129 -15.137  1.00  0.00    -0.200 F 
ENDBRANCH   5   7
BRANCH   6  16
HETATM   16  O1  UNL     1      43.428  45.993 -12.359  1.00  0.00    -0.345 OA
ATOM     17  H1  UNL     1      42.742  46.572 -12.668  1.00  0.00     0.219 HD
ENDBRANCH   6  16
BRANCH   1  18
HETATM   18  C3  UNL     1      43.869  43.076 -11.698  1.00  0.00     0.131 C 
BRANCH  18  19
HETATM   19  C2  UNL     1      44.346  43.435 -10.370  1.00  0.00     0.016 C 
HETATM   20  C1  UNL     1      43.262  43.964  -9.468  1.00  0.00     0.006 C 
ENDBRANCH  18  19
ENDBRANCH   1  18
TORSDOF 4
ENDMDL
MODEL 5
REMARK VINA RESULT: -7.332466739      2.331      3.369
REMARK  4 active torsions:
REMARK  status: ('A' for Active; 'I' for Inactive)
REMARK    1  A    between atoms: C2_2  and  C3_3 
REMARK    2  A    between atoms: C3_3  and  N1_4 
REMARK    3  A    between atoms: C7_8  and  C8_9 
REMARK    4  A    between atoms: C12_18  and  O1_19 
ROOT
HETATM    1  N1  UNL     1      47.938  48.731 -18.817  1.00  0.00    -0.331 N 
HETATM    2  C4  UNL     1      47.939  49.838 -18.060  1.00  0.00     0.011 A 
HETATM    3  C5  UNL     1      48.701  51.124 -18.255  1.00  0.00     0.068 C 
HETATM    4  C6  UNL     1      47.100  49.653 -16.982  1.00  0.00     0.041 A 
HETATM    5  C7  UNL     1      46.561  48.388 -17.069  1.00  0.00     0.033 A 
HETATM    6  C12 UNL     1      47.097  47.848 -18.211  1.00  0.00     0.154 A 
ENDROOT
BRANCH   5   7
HETATM    7  C8  UNL     1      45.621  47.756 -16.150  1.00  0.00     0.060 A 
HETATM    8  C9  UNL     1      45.841  46.691 -15.303  1.00  0.00     0.120 A 
HETATM    9 CL1  UNL     1      47.365  45.852 -15.164  1.00  0.00    -0.063 Cl
HETATM   10  N2  UNL     1      44.714  46.395 -14.606  1.00  0.00    -0.320 N 
HETATM   11  C10 UNL     1      43.755  47.256 -14.986  1.00  0.00     0.229 A 
ATOM     12  H2  UNL     1      44.613  45.651 -13.915  1.00  0.00     0.169 HD
HETATM   13  F1  UNL     1      42.481  47.315 -14.540  1.00  0.00    -0.183 F 
HETATM   14  C11 UNL     1      44.302  48.105 -15.942  1.00  0.00     0.186 A 
HETATM   15  F2  UNL     1      43.647  49.114 -16.569  1.00  0.00    -0.200 F 
ENDBRANCH   5   7
BRANCH   6  16
HETATM   16  O1  UNL     1      46.834  46.595 -18.687  1.00  0.00    -0.345 OA
ATOM     17  H1  UNL     1      46.722  46.389 -19.607  1.00  0.00     0.219 HD
ENDBRANCH   6  16
BRANCH   1  18
HETATM   18  C3  UNL     1      48.684  48.586 -20.011  1.00  0.00     0.131 C 
BRANCH  18  19
HETATM   19  C2  UNL     1      48.165  49.078 -21.279  1.00  0.00     0.016 C 
HETATM   20  C1  UNL     1      47.165  48.149 -21.916  1.00  0.00     0.006 C 
ENDBRANCH  18  19
ENDBRANCH   1  18
TORSDOF 4
ENDMDL
