MODEL 1
REMARK VINA RESULT: -6.999532574      0.000      0.000
REMARK  5 active torsions:
REMARK  status: ('A' for Active; 'I' for Inactive)
REMARK    1  A    between atoms: C2_2  and  C3_3 
REMARK    2  A    between atoms: C3_3  and  C4_4 
REMARK    3  A    between atoms: C4_4  and  C5_5 
REMARK    4  A    between atoms: C8_9  and  C9_10 
REMARK    5  A    between atoms: C11_13  and  O1_14 
ROOT
HETATM    1  C9  UNL     1      45.542  47.157 -15.150  1.00  0.00    -0.045 C 
HETATM    2  C10 UNL     1      44.858  46.422 -14.459  1.00  0.00     0.010 C 
HETATM    3 CL2  UNL     1      43.885  45.399 -13.456  1.00  0.00    -0.023 Cl
ENDROOT
BRANCH   1   4
HETATM    4  C8  UNL     1      46.353  48.037 -15.949  1.00  0.00     0.075 A 
HETATM    5  C7  UNL     1      45.832  49.211 -16.391  1.00  0.00     0.056 A 
HETATM    6  C6  UNL     1      46.615  50.053 -17.158  1.00  0.00     0.034 A 
HETATM    7 CL1  UNL     1      44.174  49.683 -16.004  1.00  0.00    -0.083 Cl
HETATM    8  C5  UNL     1      47.911  49.711 -17.476  1.00  0.00    -0.032 A 
HETATM    9  C12 UNL     1      48.422  48.513 -17.018  1.00  0.00     0.075 A 
HETATM   10  C11 UNL     1      47.656  47.658 -16.249  1.00  0.00     0.108 A 
HETATM   11 CL3  UNL     1      50.059  48.004 -17.376  1.00  0.00    -0.081 Cl
BRANCH   8  12
HETATM   12  C4  UNL     1      48.745  50.617 -18.299  1.00  0.00     0.040 C 
BRANCH  12  13
HETATM   13  C3  UNL     1      48.528  50.320 -19.752  1.00  0.00     0.004 C 
BRANCH  13  14
HETATM   14  C2  UNL     1      49.725  50.774 -20.574  1.00  0.00    -0.004 C 
HETATM   15  C1  UNL     1      49.334  50.754 -22.022  1.00  0.00     0.005 C 
ENDBRANCH  13  14
ENDBRANCH  12  13
ENDBRANCH   8  12
BRANCH  10  16
HETATM   16  O1  UNL     1      48.165  46.451 -15.786  1.00  0.00    -0.357 OA
ATOM     17  H1  UNL     1      49.027  46.157 -16.053  1.00  0.00     0.217 HD
ENDBRANCH  10  16
ENDBRANCH   1   4
TORSDOF 5
ENDMDL
MODEL 2
REMARK VINA RESULT: -6.682168994      2.966      4.576
REMARK  5 active torsions:
REMARK  status: ('A' for Active; 'I' for Inactive)
REMARK    1  A    between atoms: C2_2  and  C3_3 
REMARK    2  A    between atoms: C3_3  and  C4_4 
REMARK    3  A    between atoms: C4_4  and  C5_5 
REMARK    4  A    between atoms: C8_9  and  C9_10 
REMARK    5  A    between atoms: C11_13  and  O1_14 
ROOT
HETATM    1  C9  UNL     1      44.295  44.559 -13.100  1.00  0.00    -0.045 C 
HETATM    2  C10 UNL     1      43.919  43.779 -12.243  1.00  0.00     0.010 C 
HETATM    3 CL2  UNL     1      43.406  42.681 -11.006  1.00  0.00    -0.023 Cl
ENDROOT
BRANCH   1   4
HETATM    4  C8  UNL     1      44.756  45.484 -14.102  1.00  0.00     0.075 A 
HETATM    5  C7  UNL     1      45.997  45.333 -14.631  1.00  0.00     0.056 A 
HETATM    6  C6  UNL     1      46.436  46.223 -15.593  1.00  0.00     0.034 A 
HETATM    7 CL1  UNL     1      47.063  44.022 -14.114  1.00  0.00    -0.083 Cl
HETATM    8  C5  UNL     1      45.627  47.256 -16.016  1.00  0.00    -0.032 A 
HETATM    9  C12 UNL     1      44.368  47.392 -15.466  1.00  0.00     0.075 A 
HETATM   10  C11 UNL     1      43.911  46.512 -14.503  1.00  0.00     0.108 A 
HETATM   11 CL3  UNL     1      43.278  48.675 -15.947  1.00  0.00    -0.081 Cl
BRANCH   8  12
HETATM   12  C4  UNL     1      46.103  48.207 -17.047  1.00  0.00     0.040 C 
BRANCH  12  13
HETATM   13  C3  UNL     1      46.794  49.361 -16.387  1.00  0.00     0.004 C 
BRANCH  13  14
HETATM   14  C2  UNL     1      47.811  49.984 -17.330  1.00  0.00    -0.004 C 
HETATM   15  C1  UNL     1      49.100  49.226 -17.197  1.00  0.00     0.005 C 
ENDBRANCH  13  14
ENDBRANCH  12  13
ENDBRANCH   8  12
BRANCH  10  16
HETATM   16  O1  UNL     1      42.646  46.644 -13.946  1.00  0.00    -0.357 OA
ATOM     17  H1  UNL     1      41.923  46.980 -14.463  1.00  0.00     0.217 HD
ENDBRANCH  10  16
ENDBRANCH   1   4
TORSDOF 5
ENDMDL
MODEL 3
REMARK VINA RESULT: -6.673377438      2.583      3.472
REMARK  5 active torsions:
REMARK  status: ('A' for Active; 'I' for Inactive)
REMARK    1  A    between atoms: C2_2  and  C3_3 
REMARK    2  A    between atoms: C3_3  and  C4_4 
REMARK    3  A    between atoms: C4_4  and  C5_5 
REMARK    4  A    between atoms: C8_9  and  C9_10 
REMARK    5  A    between atoms: C11_13  and  O1_14 
ROOT
HETATM    1  C9  UNL     1      46.928  47.372 -17.339  1.00  0.00    -0.045 C 
HETATM    2  C10 UNL     1      46.567  46.863 -16.292  1.00  0.00     0.010 C 
HETATM    3 CL2  UNL     1      46.026  46.147 -14.811  1.00  0.00    -0.023 Cl
ENDROOT
BRANCH   1   4
HETATM    4  C8  UNL     1      47.336  47.981 -18.577  1.00  0.00     0.075 A 
HETATM    5  C7  UNL     1      47.955  49.189 -18.557  1.00  0.00     0.056 A 
HETATM    6  C6  UNL     1      48.345  49.770 -19.749  1.00  0.00     0.034 A 
HETATM    7 CL1  UNL     1      48.273  50.033 -17.037  1.00  0.00    -0.083 Cl
HETATM    8  C5  UNL     1      48.110  49.136 -20.949  1.00  0.00    -0.032 A 
HETATM    9  C12 UNL     1      47.479  47.909 -20.949  1.00  0.00     0.075 A 
HETATM   10  C11 UNL     1      47.082  47.310 -19.768  1.00  0.00     0.108 A 
HETATM   11 CL3  UNL     1      47.144  47.036 -22.430  1.00  0.00    -0.081 Cl
BRANCH   8  12
HETATM   12  C4  UNL     1      48.530  49.765 -22.223  1.00  0.00     0.040 C 
BRANCH  12  13
HETATM   13  C3  UNL     1      49.902  50.348 -22.069  1.00  0.00     0.004 C 
BRANCH  13  14
HETATM   14  C2  UNL     1      49.935  51.777 -22.587  1.00  0.00    -0.004 C 
HETATM   15  C1  UNL     1      48.532  52.311 -22.585  1.00  0.00     0.005 C 
ENDBRANCH  13  14
ENDBRANCH  12  13
ENDBRANCH   8  12
BRANCH  10  16
HETATM   16  O1  UNL     1      46.446  46.076 -19.762  1.00  0.00    -0.357 OA
ATOM     17  H1  UNL     1      45.697  45.922 -19.199  1.00  0.00     0.217 HD
ENDBRANCH  10  16
ENDBRANCH   1   4
TORSDOF 5
ENDMDL
MODEL 4
REMARK VINA RESULT: -6.614026361      2.417      6.831
REMARK  5 active torsions:
REMARK  status: ('A' for Active; 'I' for Inactive)
REMARK    1  A    between atoms: C2_2  and  C3_3 
REMARK    2  A    between atoms: C3_3  and  C4_4 
REMARK    3  A    between atoms: C4_4  and  C5_5 
REMARK    4  A    between atoms: C8_9  and  C9_10 
REMARK    5  A    between atoms: C11_13  and  O1_14 
ROOT
HETATM    1  C9  UNL     1      46.636  48.731 -16.576  1.00  0.00    -0.045 C 
HETATM    2  C10 UNL     1      47.266  49.597 -17.159  1.00  0.00     0.010 C 
HETATM    3 CL2  UNL     1      48.175  50.805 -18.003  1.00  0.00    -0.023 Cl
ENDROOT
BRANCH   1   4
HETATM    4  C8  UNL     1      45.906  47.695 -15.894  1.00  0.00     0.075 A 
HETATM    5  C7  UNL     1      44.581  47.860 -15.648  1.00  0.00     0.056 A 
HETATM    6  C6  UNL     1      43.885  46.862 -14.993  1.00  0.00     0.034 A 
HETATM    7 CL1  UNL     1      43.730  49.325 -16.150  1.00  0.00    -0.083 Cl
HETATM    8  C5  UNL     1      44.522  45.710 -14.590  1.00  0.00    -0.032 A 
HETATM    9  C12 UNL     1      45.870  45.560 -14.849  1.00  0.00     0.075 A 
HETATM   10  C11 UNL     1      46.584  46.546 -15.503  1.00  0.00     0.108 A 
HETATM   11 CL3  UNL     1      46.755  44.127 -14.371  1.00  0.00    -0.081 Cl
BRANCH   8  12
HETATM   12  C4  UNL     1      43.770  44.643 -13.888  1.00  0.00     0.040 C 
BRANCH  12  13
HETATM   13  C3  UNL     1      43.878  44.843 -12.407  1.00  0.00     0.004 C 
BRANCH  13  14
HETATM   14  C2  UNL     1      44.241  43.537 -11.718  1.00  0.00    -0.004 C 
HETATM   15  C1  UNL     1      44.154  42.432 -12.729  1.00  0.00     0.005 C 
ENDBRANCH  13  14
ENDBRANCH  12  13
ENDBRANCH   8  12
BRANCH  10  16
HETATM   16  O1  UNL     1      47.940  46.402 -15.766  1.00  0.00    -0.357 OA
ATOM     17  H1  UNL     1      48.584  46.869 -15.247  1.00  0.00     0.217 HD
ENDBRANCH  10  16
ENDBRANCH   1   4
TORSDOF 5
ENDMDL
MODEL 5
REMARK VINA RESULT: -6.453529820      2.691      7.194
REMARK  5 active torsions:
REMARK  status: ('A' for Active; 'I' for Inactive)
REMARK    1  A    between atoms: C2_2  and  C3_3 
REMARK    2  A    between atoms: C3_3  and  C4_4 
REMARK    3  A    between atoms: C4_4  and  C5_5 
REMARK    4  A    between atoms: C8_9  and  C9_10 
REMARK    5  A    between atoms: C11_13  and  O1_14 
ROOT
HETATM    1  C9  UNL     1      46.740  48.879 -16.733  1.00  0.00    -0.045 C 
HETATM    2  C10 UNL     1      47.381  49.747 -17.300  1.00  0.00     0.010 C 
HETATM    3 CL2  UNL     1      48.294  50.962 -18.129  1.00  0.00    -0.023 Cl
ENDROOT
BRANCH   1   4
HETATM    4  C8  UNL     1      45.991  47.839 -16.077  1.00  0.00     0.075 A 
HETATM    5  C7  UNL     1      46.599  46.663 -15.778  1.00  0.00     0.056 A 
HETATM    6  C6  UNL     1      45.876  45.668 -15.148  1.00  0.00     0.034 A 
HETATM    7 CL1  UNL     1      48.297  46.379 -16.177  1.00  0.00    -0.083 Cl
HETATM    8  C5  UNL     1      44.551  45.861 -14.824  1.00  0.00    -0.032 A 
HETATM    9  C12 UNL     1      43.950  47.063 -15.137  1.00  0.00     0.075 A 
HETATM   10  C11 UNL     1      44.656  48.071 -15.766  1.00  0.00     0.108 A 
HETATM   11 CL3  UNL     1      42.271  47.390 -14.760  1.00  0.00    -0.081 Cl
BRANCH   8  12
HETATM   12  C4  UNL     1      43.781  44.790 -14.149  1.00  0.00     0.040 C 
BRANCH  12  13
HETATM   13  C3  UNL     1      44.096  44.790 -12.684  1.00  0.00     0.004 C 
BRANCH  13  14
HETATM   14  C2  UNL     1      44.096  43.371 -12.138  1.00  0.00    -0.004 C 
HETATM   15  C1  UNL     1      44.532  42.445 -13.236  1.00  0.00     0.005 C 
ENDBRANCH  13  14
ENDBRANCH  12  13
ENDBRANCH   8  12
BRANCH  10  16
HETATM   16  O1  UNL     1      44.058  49.284 -16.084  1.00  0.00    -0.357 OA
ATOM     17  H1  UNL     1      43.168  49.310 -16.414  1.00  0.00     0.217 HD
ENDBRANCH  10  16
ENDBRANCH   1   4
TORSDOF 5
ENDMDL
