MODEL 1
REMARK VINA RESULT: -7.093569199      0.000      0.000
REMARK  3 active torsions:
REMARK  status: ('A' for Active; 'I' for Inactive)
REMARK    1  A    between atoms: N2_9  and  C5_10 
REMARK    2  A    between atoms: C5_10  and  C6_11 
REMARK    3  A    between atoms: C6_11  and  C7_12 
ROOT
HETATM    1  F1  UNL     1      46.703  49.429 -15.434  1.00  0.00    -0.204 F 
HETATM    2  C1  UNL     1      47.116  49.271 -16.722  1.00  0.00     0.140 A 
HETATM    3  C2  UNL     1      47.746  50.287 -17.412  1.00  0.00     0.075 A 
HETATM    4  C3  UNL     1      48.152  50.114 -18.698  1.00  0.00     0.064 A 
HETATM    5  N1  UNL     1      48.778  50.872 -19.639  1.00  0.00    -0.331 N 
ATOM      6  H1  UNL     1      49.090  51.835 -19.514  1.00  0.00     0.168 HD
HETATM    7  C4  UNL     1      48.918  50.142 -20.761  1.00  0.00     0.179 A 
HETATM    8  S1  UNL     1      49.604  50.599 -22.170  1.00  0.00    -0.040 SA
HETATM    9  N2  UNL     1      48.391  48.920 -20.565  1.00  0.00    -0.322 N 
HETATM   10  C8  UNL     1      47.918  48.886 -19.306  1.00  0.00     0.065 A 
HETATM   11  C9  UNL     1      47.285  47.859 -18.619  1.00  0.00     0.059 A 
HETATM   12  C10 UNL     1      46.875  48.039 -17.315  1.00  0.00     0.074 A 
HETATM   13 CL2  UNL     1      46.079  46.745 -16.455  1.00  0.00    -0.081 Cl
ENDROOT
BRANCH   9  14
HETATM   14  C5  UNL     1      48.334  47.836 -21.509  1.00  0.00     0.133 C 
BRANCH  14  15
HETATM   15  C6  UNL     1      47.043  47.841 -22.318  1.00  0.00     0.035 C 
BRANCH  15  16
HETATM   16  C7  UNL     1      46.301  46.556 -21.924  1.00  0.00     0.116 C 
HETATM   17 CL1  UNL     1      46.833  45.199 -22.942  1.00  0.00    -0.130 Cl
ENDBRANCH  15  16
ENDBRANCH  14  15
ENDBRANCH   9  14
TORSDOF 3
ENDMDL
MODEL 2
REMARK VINA RESULT: -7.083121085      2.814      5.071
REMARK  3 active torsions:
REMARK  status: ('A' for Active; 'I' for Inactive)
REMARK    1  A    between atoms: N2_9  and  C5_10 
REMARK    2  A    between atoms: C5_10  and  C6_11 
REMARK    3  A    between atoms: C6_11  and  C7_12 
ROOT
HETATM    1  F1  UNL     1      46.679  47.113 -23.685  1.00  0.00    -0.204 F 
HETATM    2  C1  UNL     1      46.904  47.371 -22.368  1.00  0.00     0.140 A 
HETATM    3  C2  UNL     1      47.523  48.531 -21.951  1.00  0.00     0.075 A 
HETATM    4  C3  UNL     1      47.740  48.774 -20.630  1.00  0.00     0.064 A 
HETATM    5  N1  UNL     1      48.300  49.774 -19.896  1.00  0.00    -0.331 N 
ATOM      6  H1  UNL     1      48.708  50.630 -20.273  1.00  0.00     0.168 HD
HETATM    7  C4  UNL     1      48.227  49.448 -18.592  1.00  0.00     0.179 A 
HETATM    8  S1  UNL     1      48.757  50.316 -17.315  1.00  0.00    -0.040 SA
HETATM    9  N2  UNL     1      47.628  48.251 -18.467  1.00  0.00    -0.322 N 
HETATM   10  C8  UNL     1      47.323  47.824 -19.706  1.00  0.00     0.065 A 
HETATM   11  C9  UNL     1      46.700  46.654 -20.117  1.00  0.00     0.059 A 
HETATM   12  C10 UNL     1      46.481  46.412 -21.457  1.00  0.00     0.074 A 
HETATM   13 CL2  UNL     1      45.697  44.939 -21.970  1.00  0.00    -0.081 Cl
ENDROOT
BRANCH   9  14
HETATM   14  C5  UNL     1      47.353  47.540 -17.247  1.00  0.00     0.133 C 
BRANCH  14  15
HETATM   15  C6  UNL     1      46.024  47.950 -16.623  1.00  0.00     0.035 C 
BRANCH  15  16
HETATM   16  C7  UNL     1      46.221  47.827 -15.106  1.00  0.00     0.116 C 
HETATM   17 CL1  UNL     1      45.274  46.463 -14.470  1.00  0.00    -0.130 Cl
ENDBRANCH  15  16
ENDBRANCH  14  15
ENDBRANCH   9  14
TORSDOF 3
ENDMDL
MODEL 3
REMARK VINA RESULT: -6.694803245      2.896      4.550
REMARK  3 active torsions:
REMARK  status: ('A' for Active; 'I' for Inactive)
REMARK    1  A    between atoms: N2_9  and  C5_10 
REMARK    2  A    between atoms: C5_10  and  C6_11 
REMARK    3  A    between atoms: C6_11  and  C7_12 
ROOT
HETATM    1  F1  UNL     1      46.713  46.346 -23.685  1.00  0.00    -0.204 F 
HETATM    2  C1  UNL     1      46.996  47.017 -22.536  1.00  0.00     0.140 A 
HETATM    3  C2  UNL     1      47.712  48.196 -22.541  1.00  0.00     0.075 A 
HETATM    4  C3  UNL     1      47.987  48.855 -21.383  1.00  0.00     0.064 A 
HETATM    5  N1  UNL     1      48.643  49.996 -21.037  1.00  0.00    -0.331 N 
ATOM      6  H1  UNL     1      49.102  50.637 -21.684  1.00  0.00     0.168 HD
HETATM    7  C4  UNL     1      48.585  50.140 -19.700  1.00  0.00     0.179 A 
HETATM    8  S1  UNL     1      49.218  51.343 -18.797  1.00  0.00    -0.040 SA
HETATM    9  N2  UNL     1      47.903  49.108 -19.171  1.00  0.00    -0.322 N 
HETATM   10  C8  UNL     1      47.529  48.312 -20.189  1.00  0.00     0.065 A 
HETATM   11  C9  UNL     1      46.808  47.126 -20.175  1.00  0.00     0.059 A 
HETATM   12  C10 UNL     1      46.531  46.462 -21.351  1.00  0.00     0.074 A 
HETATM   13 CL2  UNL     1      45.624  44.970 -21.328  1.00  0.00    -0.081 Cl
ENDROOT
BRANCH   9  14
HETATM   14  C5  UNL     1      47.613  48.879 -17.781  1.00  0.00     0.133 C 
BRANCH  14  15
HETATM   15  C6  UNL     1      48.820  48.345 -17.018  1.00  0.00     0.035 C 
BRANCH  15  16
HETATM   16  C7  UNL     1      48.729  46.816 -17.113  1.00  0.00     0.116 C 
HETATM   17 CL1  UNL     1      49.800  46.212 -18.397  1.00  0.00    -0.130 Cl
ENDBRANCH  15  16
ENDBRANCH  14  15
ENDBRANCH   9  14
TORSDOF 3
ENDMDL
MODEL 4
REMARK VINA RESULT: -6.563490432      3.301      4.820
REMARK  3 active torsions:
REMARK  status: ('A' for Active; 'I' for Inactive)
REMARK    1  A    between atoms: N2_9  and  C5_10 
REMARK    2  A    between atoms: C5_10  and  C6_11 
REMARK    3  A    between atoms: C6_11  and  C7_12 
ROOT
HETATM    1  F1  UNL     1      45.678  45.206 -21.915  1.00  0.00    -0.204 F 
HETATM    2  C1  UNL     1      46.351  46.227 -21.317  1.00  0.00     0.140 A 
HETATM    3  C2  UNL     1      46.842  46.120 -20.033  1.00  0.00     0.075 A 
HETATM    4  C3  UNL     1      47.511  47.150 -19.450  1.00  0.00     0.064 A 
HETATM    5  N1  UNL     1      48.107  47.376 -18.247  1.00  0.00    -0.331 N 
ATOM      6  H1  UNL     1      48.156  46.712 -17.474  1.00  0.00     0.168 HD
HETATM    7  C4  UNL     1      48.622  48.620 -18.246  1.00  0.00     0.179 A 
HETATM    8  S1  UNL     1      49.434  49.363 -17.040  1.00  0.00    -0.040 SA
HETATM    9  N2  UNL     1      48.370  49.206 -19.430  1.00  0.00    -0.322 N 
HETATM   10  C8  UNL     1      47.691  48.319 -20.179  1.00  0.00     0.065 A 
HETATM   11  C9  UNL     1      47.199  48.436 -21.471  1.00  0.00     0.059 A 
HETATM   12  C10 UNL     1      46.521  47.389 -22.059  1.00  0.00     0.074 A 
HETATM   13 CL2  UNL     1      45.904  47.540 -23.685  1.00  0.00    -0.081 Cl
ENDROOT
BRANCH   9  14
HETATM   14  C5  UNL     1      48.747  50.532 -19.840  1.00  0.00     0.133 C 
BRANCH  14  15
HETATM   15  C6  UNL     1      50.128  50.569 -20.483  1.00  0.00     0.035 C 
BRANCH  15  16
HETATM   16  C7  UNL     1      49.887  50.869 -21.969  1.00  0.00     0.116 C 
HETATM   17 CL1  UNL     1      48.323  51.684 -22.189  1.00  0.00    -0.130 Cl
ENDBRANCH  15  16
ENDBRANCH  14  15
ENDBRANCH   9  14
TORSDOF 3
ENDMDL
MODEL 5
REMARK VINA RESULT: -6.549307999      1.089      1.153
REMARK  3 active torsions:
REMARK  status: ('A' for Active; 'I' for Inactive)
REMARK    1  A    between atoms: N2_9  and  C5_10 
REMARK    2  A    between atoms: C5_10  and  C6_11 
REMARK    3  A    between atoms: C6_11  and  C7_12 
ROOT
HETATM    1  F1  UNL     1      46.278  48.439 -14.749  1.00  0.00    -0.204 F 
HETATM    2  C1  UNL     1      46.714  48.409 -16.038  1.00  0.00     0.140 A 
HETATM    3  C2  UNL     1      47.261  49.520 -16.645  1.00  0.00     0.075 A 
HETATM    4  C3  UNL     1      47.692  49.474 -17.935  1.00  0.00     0.064 A 
HETATM    5  N1  UNL     1      48.260  50.347 -18.811  1.00  0.00    -0.331 N 
ATOM      6  H1  UNL     1      48.488  51.322 -18.613  1.00  0.00     0.168 HD
HETATM    7  C4  UNL     1      48.471  49.713 -19.979  1.00  0.00     0.179 A 
HETATM    8  S1  UNL     1      49.128  50.326 -21.342  1.00  0.00    -0.040 SA
HETATM    9  N2  UNL     1      48.049  48.440 -19.876  1.00  0.00    -0.322 N 
HETATM   10  C8  UNL     1      47.569  48.277 -18.630  1.00  0.00     0.065 A 
HETATM   11  C9  UNL     1      47.020  47.155 -18.027  1.00  0.00     0.059 A 
HETATM   12  C10 UNL     1      46.585  47.206 -16.719  1.00  0.00     0.074 A 
HETATM   13 CL2  UNL     1      45.894  45.791 -15.964  1.00  0.00    -0.081 Cl
ENDROOT
BRANCH   9  14
HETATM   14  C5  UNL     1      48.092  47.425 -20.895  1.00  0.00     0.133 C 
BRANCH  14  15
HETATM   15  C6  UNL     1      46.858  47.447 -21.787  1.00  0.00     0.035 C 
BRANCH  15  16
HETATM   16  C7  UNL     1      46.157  46.100 -21.560  1.00  0.00     0.116 C 
HETATM   17 CL1  UNL     1      44.602  46.060 -22.421  1.00  0.00    -0.130 Cl
ENDBRANCH  15  16
ENDBRANCH  14  15
ENDBRANCH   9  14
TORSDOF 3
ENDMDL
