MODEL 1
REMARK VINA RESULT: -7.794072747      0.000      0.000
REMARK  5 active torsions:
REMARK  status: ('A' for Active; 'I' for Inactive)
REMARK    1  A    between atoms: C2_2  and  C3_3 
REMARK    2  A    between atoms: C3_3  and  N1_4 
REMARK    3  A    between atoms: N1_4  and  C4_6 
REMARK    4  A    between atoms: C4_6  and  N2_8 
REMARK    5  A    between atoms: N2_8  and  C5_10 
ROOT
HETATM    1  C5  UNL     1      48.725  48.990 -17.616  1.00  0.00     0.052 A 
HETATM    2  C6  UNL     1      48.721  50.266 -17.116  1.00  0.00     0.080 A 
HETATM    3  S2  UNL     1      49.018  51.240 -18.490  1.00  0.00    -0.103 SA
HETATM    4  C7  UNL     1      49.140  50.015 -19.665  1.00  0.00    -0.004 A 
HETATM    5  C8  UNL     1      48.945  48.865 -18.945  1.00  0.00     0.013 A 
HETATM    6  C9  UNL     1      49.033  47.543 -19.639  1.00  0.00    -0.018 C 
HETATM    7  C10 UNL     1      49.730  46.598 -18.991  1.00  0.00     0.196 C 
HETATM    8  F1  UNL     1      49.825  45.395 -19.591  1.00  0.00    -0.219 F 
HETATM    9  C11 UNL     1      48.471  47.146 -20.968  1.00  0.00     0.042 C 
HETATM   10  C12 UNL     1      47.811  48.357 -21.585  1.00  0.00     0.005 C 
HETATM   11  C13 UNL     1      48.745  49.388 -22.076  1.00  0.00     0.005 C 
HETATM   12  C14 UNL     1      49.400  50.286 -21.119  1.00  0.00     0.047 C 
ENDROOT
BRANCH   1  13
HETATM   13  N2  UNL     1      48.402  47.889 -16.785  1.00  0.00    -0.332 N 
ATOM     14  H2  UNL     1      49.184  47.290 -16.520  1.00  0.00     0.168 HD
BRANCH  13  15
HETATM   15  C4  UNL     1      47.169  47.521 -16.288  1.00  0.00     0.172 C 
HETATM   16  S1  UNL     1      46.892  46.254 -15.339  1.00  0.00    -0.041 SA
BRANCH  15  17
HETATM   17  N1  UNL     1      46.025  48.325 -16.705  1.00  0.00    -0.364 N 
ATOM     18  H1  UNL     1      45.777  48.372 -17.693  1.00  0.00     0.162 HD
BRANCH  17  19
HETATM   19  C3  UNL     1      45.239  49.050 -15.745  1.00  0.00     0.148 C 
BRANCH  19  20
HETATM   20  C2  UNL     1      43.770  48.914 -15.946  1.00  0.00    -0.018 C 
HETATM   21  C1  UNL     1      43.075  47.940 -15.384  1.00  0.00     0.008 C 
ENDBRANCH  19  20
ENDBRANCH  17  19
ENDBRANCH  15  17
ENDBRANCH  13  15
ENDBRANCH   1  13
TORSDOF 5
ENDMDL
MODEL 2
REMARK VINA RESULT: -7.642158163      2.111      2.948
REMARK  5 active torsions:
REMARK  status: ('A' for Active; 'I' for Inactive)
REMARK    1  A    between atoms: C2_2  and  C3_3 
REMARK    2  A    between atoms: C3_3  and  N1_4 
REMARK    3  A    between atoms: N1_4  and  C4_6 
REMARK    4  A    between atoms: C4_6  and  N2_8 
REMARK    5  A    between atoms: N2_8  and  C5_10 
ROOT
HETATM    1  C5  UNL     1      48.214  47.832 -19.166  1.00  0.00     0.052 A 
HETATM    2  C6  UNL     1      47.616  46.904 -19.977  1.00  0.00     0.080 A 
HETATM    3  S2  UNL     1      47.593  47.661 -21.510  1.00  0.00    -0.103 SA
HETATM    4  C7  UNL     1      48.339  49.133 -21.094  1.00  0.00    -0.004 A 
HETATM    5  C8  UNL     1      48.587  48.993 -19.752  1.00  0.00     0.013 A 
HETATM    6  C9  UNL     1      49.204  50.130 -19.000  1.00  0.00    -0.018 C 
HETATM    7  C10 UNL     1      48.646  50.402 -17.811  1.00  0.00     0.196 C 
HETATM    8  F1  UNL     1      49.181  51.420 -17.108  1.00  0.00    -0.219 F 
HETATM    9  C11 UNL     1      50.338  51.016 -19.409  1.00  0.00     0.042 C 
HETATM   10  C12 UNL     1      50.767  50.624 -20.804  1.00  0.00     0.005 C 
HETATM   11  C13 UNL     1      49.829  51.013 -21.872  1.00  0.00     0.005 C 
HETATM   12  C14 UNL     1      48.602  50.236 -22.078  1.00  0.00     0.047 C 
ENDROOT
BRANCH   1  13
HETATM   13  N2  UNL     1      48.513  47.525 -17.816  1.00  0.00    -0.332 N 
ATOM     14  H2  UNL     1      49.502  47.404 -17.598  1.00  0.00     0.168 HD
BRANCH  13  15
HETATM   15  C4  UNL     1      47.642  47.367 -16.758  1.00  0.00     0.172 C 
HETATM   16  S1  UNL     1      47.935  46.501 -15.436  1.00  0.00    -0.041 SA
BRANCH  15  17
HETATM   17  N1  UNL     1      46.333  48.000 -16.883  1.00  0.00    -0.364 N 
ATOM     18  H1  UNL     1      45.770  47.830 -17.716  1.00  0.00     0.162 HD
BRANCH  17  19
HETATM   19  C3  UNL     1      45.824  48.860 -15.851  1.00  0.00     0.148 C 
BRANCH  19  20
HETATM   20  C2  UNL     1      44.383  49.198 -16.008  1.00  0.00    -0.018 C 
HETATM   21  C1  UNL     1      43.424  48.354 -15.666  1.00  0.00     0.008 C 
ENDBRANCH  19  20
ENDBRANCH  17  19
ENDBRANCH  15  17
ENDBRANCH  13  15
ENDBRANCH   1  13
TORSDOF 5
ENDMDL
MODEL 3
REMARK VINA RESULT: -7.160059320      2.502      6.614
REMARK  5 active torsions:
REMARK  status: ('A' for Active; 'I' for Inactive)
REMARK    1  A    between atoms: C2_2  and  C3_3 
REMARK    2  A    between atoms: C3_3  and  N1_4 
REMARK    3  A    between atoms: N1_4  and  C4_6 
REMARK    4  A    between atoms: C4_6  and  N2_8 
REMARK    5  A    between atoms: N2_8  and  C5_10 
ROOT
HETATM    1  C5  UNL     1      46.859  47.355 -16.324  1.00  0.00     0.052 A 
HETATM    2  C6  UNL     1      47.876  46.473 -16.066  1.00  0.00     0.080 A 
HETATM    3  S2  UNL     1      47.324  45.608 -14.697  1.00  0.00    -0.103 SA
HETATM    4  C7  UNL     1      45.822  46.379 -14.481  1.00  0.00    -0.004 A 
HETATM    5  C8  UNL     1      45.792  47.303 -15.494  1.00  0.00     0.013 A 
HETATM    6  C9  UNL     1      44.623  48.230 -15.603  1.00  0.00    -0.018 C 
HETATM    7  C10 UNL     1      44.929  49.514 -15.841  1.00  0.00     0.196 C 
HETATM    8  F1  UNL     1      43.895  50.374 -15.948  1.00  0.00    -0.219 F 
HETATM    9  C11 UNL     1      43.167  47.920 -15.457  1.00  0.00     0.042 C 
HETATM   10  C12 UNL     1      43.026  46.459 -15.098  1.00  0.00     0.005 C 
HETATM   11  C13 UNL     1      43.431  46.118 -13.721  1.00  0.00     0.005 C 
HETATM   12  C14 UNL     1      44.857  46.019 -13.389  1.00  0.00     0.047 C 
ENDROOT
BRANCH   1  13
HETATM   13  N2  UNL     1      46.899  48.188 -17.469  1.00  0.00    -0.332 N 
ATOM     14  H2  UNL     1      45.996  48.409 -17.888  1.00  0.00     0.168 HD
BRANCH  13  15
HETATM   15  C4  UNL     1      48.000  48.739 -18.091  1.00  0.00     0.172 C 
HETATM   16  S1  UNL     1      48.817  50.021 -17.567  1.00  0.00    -0.041 SA
BRANCH  15  17
HETATM   17  N1  UNL     1      48.417  48.133 -19.351  1.00  0.00    -0.364 N 
ATOM     18  H1  UNL     1      49.377  47.803 -19.456  1.00  0.00     0.162 HD
BRANCH  17  19
HETATM   19  C3  UNL     1      47.498  47.992 -20.446  1.00  0.00     0.148 C 
BRANCH  19  20
HETATM   20  C2  UNL     1      47.919  48.712 -21.679  1.00  0.00    -0.018 C 
HETATM   21  C1  UNL     1      48.746  49.743 -21.640  1.00  0.00     0.008 C 
ENDBRANCH  19  20
ENDBRANCH  17  19
ENDBRANCH  15  17
ENDBRANCH  13  15
ENDBRANCH   1  13
TORSDOF 5
ENDMDL
MODEL 4
REMARK VINA RESULT: -7.123761746      2.599      6.412
REMARK  5 active torsions:
REMARK  status: ('A' for Active; 'I' for Inactive)
REMARK    1  A    between atoms: C2_2  and  C3_3 
REMARK    2  A    between atoms: C3_3  and  N1_4 
REMARK    3  A    between atoms: N1_4  and  C4_6 
REMARK    4  A    between atoms: C4_6  and  N2_8 
REMARK    5  A    between atoms: N2_8  and  C5_10 
ROOT
HETATM    1  C5  UNL     1      47.023  46.870 -15.833  1.00  0.00     0.052 A 
HETATM    2  C6  UNL     1      47.505  45.657 -15.412  1.00  0.00     0.080 A 
HETATM    3  S2  UNL     1      46.274  45.069 -14.381  1.00  0.00    -0.103 SA
HETATM    4  C7  UNL     1      45.179  46.366 -14.504  1.00  0.00    -0.004 A 
HETATM    5  C8  UNL     1      45.811  47.235 -15.355  1.00  0.00     0.013 A 
HETATM    6  C9  UNL     1      45.167  48.546 -15.673  1.00  0.00    -0.018 C 
HETATM    7  C10 UNL     1      45.985  49.610 -15.647  1.00  0.00     0.196 C 
HETATM    8  F1  UNL     1      45.433  50.807 -15.932  1.00  0.00    -0.219 F 
HETATM    9  C11 UNL     1      43.733  48.832 -15.989  1.00  0.00     0.042 C 
HETATM   10  C12 UNL     1      42.956  47.540 -15.877  1.00  0.00     0.005 C 
HETATM   11  C13 UNL     1      42.754  47.059 -14.498  1.00  0.00     0.005 C 
HETATM   12  C14 UNL     1      43.859  46.406 -13.789  1.00  0.00     0.047 C 
ENDROOT
BRANCH   1  13
HETATM   13  N2  UNL     1      47.726  47.628 -16.802  1.00  0.00    -0.332 N 
ATOM     14  H2  UNL     1      48.026  48.556 -16.505  1.00  0.00     0.168 HD
BRANCH  13  15
HETATM   15  C4  UNL     1      48.057  47.274 -18.093  1.00  0.00     0.172 C 
HETATM   16  S1  UNL     1      49.434  46.576 -18.540  1.00  0.00    -0.041 SA
BRANCH  15  17
HETATM   17  N1  UNL     1      47.094  47.614 -19.136  1.00  0.00    -0.364 N 
ATOM     18  H1  UNL     1      46.366  48.301 -18.943  1.00  0.00     0.162 HD
BRANCH  17  19
HETATM   19  C3  UNL     1      47.156  46.995 -20.431  1.00  0.00     0.148 C 
BRANCH  19  20
HETATM   20  C2  UNL     1      47.417  47.953 -21.542  1.00  0.00    -0.018 C 
HETATM   21  C1  UNL     1      48.231  48.984 -21.400  1.00  0.00     0.008 C 
ENDBRANCH  19  20
ENDBRANCH  17  19
ENDBRANCH  15  17
ENDBRANCH  13  15
ENDBRANCH   1  13
TORSDOF 5
ENDMDL
MODEL 5
REMARK VINA RESULT: -7.115364088      2.817      6.476
REMARK  5 active torsions:
REMARK  status: ('A' for Active; 'I' for Inactive)
REMARK    1  A    between atoms: C2_2  and  C3_3 
REMARK    2  A    between atoms: C3_3  and  N1_4 
REMARK    3  A    between atoms: N1_4  and  C4_6 
REMARK    4  A    between atoms: C4_6  and  N2_8 
REMARK    5  A    between atoms: N2_8  and  C5_10 
ROOT
HETATM    1  C5  UNL     1      46.844  46.759 -15.996  1.00  0.00     0.052 A 
HETATM    2  C6  UNL     1      47.428  45.590 -15.581  1.00  0.00     0.080 A 
HETATM    3  S2  UNL     1      46.363  45.012 -14.374  1.00  0.00    -0.103 SA
HETATM    4  C7  UNL     1      45.205  46.258 -14.420  1.00  0.00    -0.004 A 
HETATM    5  C8  UNL     1      45.686  47.103 -15.386  1.00  0.00     0.013 A 
HETATM    6  C9  UNL     1      44.950  48.370 -15.683  1.00  0.00    -0.018 C 
HETATM    7  C10 UNL     1      45.717  49.464 -15.813  1.00  0.00     0.196 C 
HETATM    8  F1  UNL     1      45.081  50.622 -16.083  1.00  0.00    -0.219 F 
HETATM    9  C11 UNL     1      43.476  48.584 -15.828  1.00  0.00     0.042 C 
HETATM   10  C12 UNL     1      42.778  47.272 -15.555  1.00  0.00     0.005 C 
HETATM   11  C13 UNL     1      42.771  46.858 -14.139  1.00  0.00     0.005 C 
HETATM   12  C14 UNL     1      43.984  46.287 -13.545  1.00  0.00     0.047 C 
ENDROOT
BRANCH   1  13
HETATM   13  N2  UNL     1      47.385  47.489 -17.082  1.00  0.00    -0.332 N 
ATOM     14  H2  UNL     1      46.707  47.952 -17.687  1.00  0.00     0.168 HD
BRANCH  13  15
HETATM   15  C4  UNL     1      48.710  47.658 -17.428  1.00  0.00     0.172 C 
HETATM   16  S1  UNL     1      49.557  46.666 -18.368  1.00  0.00    -0.041 SA
BRANCH  15  17
HETATM   17  N1  UNL     1      49.402  48.804 -16.847  1.00  0.00    -0.364 N 
ATOM     18  H1  UNL     1      50.187  48.649 -16.215  1.00  0.00     0.162 HD
BRANCH  17  19
HETATM   19  C3  UNL     1      48.995  50.148 -17.151  1.00  0.00     0.148 C 
BRANCH  19  20
HETATM   20  C2  UNL     1      49.016  50.466 -18.606  1.00  0.00    -0.018 C 
HETATM   21  C1  UNL     1      50.145  50.691 -19.256  1.00  0.00     0.008 C 
ENDBRANCH  19  20
ENDBRANCH  17  19
ENDBRANCH  15  17
ENDBRANCH  13  15
ENDBRANCH   1  13
TORSDOF 5
ENDMDL
