MODEL 1
REMARK VINA RESULT: -8.481886563      0.000      0.000
REMARK  5 active torsions:
REMARK  status: ('A' for Active; 'I' for Inactive)
REMARK    1  A    between atoms: C3_3  and  C4_4 
REMARK    2  A    between atoms: C4_4  and  O1_6 
REMARK    3  A    between atoms: C4_4  and  C6_8 
REMARK    4  A    between atoms: C6_8  and  C7_9 
REMARK    5  A    between atoms: C8_12  and  C9_13 
ROOT
HETATM    1  C1  UNL     1      49.399  51.554 -22.076  1.00  0.00     0.112 C 
HETATM    2  C2  UNL     1      49.145  50.215 -21.524  1.00  0.00    -0.108 C 
HETATM    3  C3  UNL     1      48.939  49.119 -21.062  1.00  0.00    -0.069 C 
ENDROOT
BRANCH   3   4
HETATM    4  C4  UNL     1      48.693  47.770 -20.496  1.00  0.00     0.122 C 
HETATM    5  C5  UNL     1      47.169  47.597 -20.418  1.00  0.00     0.061 C 
BRANCH   4   6
HETATM    6  O1  UNL     1      49.152  46.792 -21.346  1.00  0.00    -0.378 OA
ATOM      7  H1  UNL     1      48.519  46.087 -21.422  1.00  0.00     0.211 HD
ENDBRANCH   4   6
BRANCH   4   8
HETATM    8  C6  UNL     1      49.248  47.672 -19.114  1.00  0.00     0.110 C 
BRANCH   8   9
HETATM    9  C7  UNL     1      48.314  48.038 -18.036  1.00  0.00     0.044 A 
HETATM   10  N1  UNL     1      47.433  47.178 -17.448  1.00  0.00    -0.336 N 
HETATM   11  C8  UNL     1      46.738  47.837 -16.517  1.00  0.00     0.175 A 
ATOM     12  H1  UNL     1      47.323  46.192 -17.681  1.00  0.00     0.168 HD
HETATM   13  O2  UNL     1      47.164  49.051 -16.521  1.00  0.00    -0.294 OA
HETATM   14  C15 UNL     1      48.110  49.249 -17.405  1.00  0.00     0.074 A 
HETATM   15  C16 UNL     1      48.829  50.506 -17.690  1.00  0.00     0.079 C 
BRANCH  11  16
HETATM   16  C9  UNL     1      45.692  47.216 -15.679  1.00  0.00     0.090 A 
HETATM   17  N2  UNL     1      45.781  46.074 -14.992  1.00  0.00    -0.361 N 
HETATM   18  C10 UNL     1      44.615  45.855 -14.359  1.00  0.00     0.095 A 
ATOM     19  H2  UNL     1      46.600  45.467 -14.954  1.00  0.00     0.165 HD
HETATM   20  C11 UNL     1      43.756  46.884 -14.648  1.00  0.00    -0.038 A 
HETATM   21  C12 UNL     1      42.355  47.094 -14.187  1.00  0.00     0.050 C 
HETATM   22  C13 UNL     1      44.439  47.740 -15.481  1.00  0.00    -0.024 A 
HETATM   23  C14 UNL     1      43.929  49.020 -16.077  1.00  0.00     0.051 C 
ENDBRANCH  11  16
ENDBRANCH   8   9
ENDBRANCH   4   8
ENDBRANCH   3   4
TORSDOF 5
ENDMDL
MODEL 2
REMARK VINA RESULT: -8.428858208      1.415      2.235
REMARK  5 active torsions:
REMARK  status: ('A' for Active; 'I' for Inactive)
REMARK    1  A    between atoms: C3_3  and  C4_4 
REMARK    2  A    between atoms: C4_4  and  O1_6 
REMARK    3  A    between atoms: C4_4  and  C6_8 
REMARK    4  A    between atoms: C6_8  and  C7_9 
REMARK    5  A    between atoms: C8_12  and  C9_13 
ROOT
HETATM    1  C1  UNL     1      44.932  46.124 -22.078  1.00  0.00     0.112 C 
HETATM    2  C2  UNL     1      46.209  46.658 -21.584  1.00  0.00    -0.108 C 
HETATM    3  C3  UNL     1      47.254  47.106 -21.179  1.00  0.00    -0.069 C 
ENDROOT
BRANCH   3   4
HETATM    4  C4  UNL     1      48.541  47.657 -20.687  1.00  0.00     0.122 C 
HETATM    5  C5  UNL     1      49.268  46.507 -19.974  1.00  0.00     0.061 C 
BRANCH   4   6
HETATM    6  O1  UNL     1      49.345  48.033 -21.737  1.00  0.00    -0.378 OA
ATOM      7  H1  UNL     1      49.082  47.593 -22.537  1.00  0.00     0.211 HD
ENDBRANCH   4   6
BRANCH   4   8
HETATM    8  C6  UNL     1      48.301  48.746 -19.696  1.00  0.00     0.110 C 
BRANCH   8   9
HETATM    9  C7  UNL     1      48.079  48.297 -18.312  1.00  0.00     0.044 A 
HETATM   10  N1  UNL     1      46.910  47.766 -17.847  1.00  0.00    -0.336 N 
HETATM   11  C8  UNL     1      47.050  47.473 -16.552  1.00  0.00     0.175 A 
ATOM     12  H1  UNL     1      46.066  47.619 -18.399  1.00  0.00     0.168 HD
HETATM   13  O2  UNL     1      48.250  47.802 -16.221  1.00  0.00    -0.294 OA
HETATM   14  C15 UNL     1      48.928  48.303 -17.223  1.00  0.00     0.074 A 
HETATM   15  C16 UNL     1      50.323  48.786 -17.217  1.00  0.00     0.079 C 
BRANCH  11  16
HETATM   16  C9  UNL     1      45.982  46.881 -15.722  1.00  0.00     0.090 A 
HETATM   17  N2  UNL     1      46.019  45.717 -15.068  1.00  0.00    -0.361 N 
HETATM   18  C10 UNL     1      44.849  45.538 -14.431  1.00  0.00     0.095 A 
ATOM     19  H2  UNL     1      46.807  45.069 -15.055  1.00  0.00     0.165 HD
HETATM   20  C11 UNL     1      44.039  46.616 -14.683  1.00  0.00    -0.038 A 
HETATM   21  C12 UNL     1      42.655  46.882 -14.203  1.00  0.00     0.050 C 
HETATM   22  C13 UNL     1      44.758  47.460 -15.498  1.00  0.00    -0.024 A 
HETATM   23  C14 UNL     1      44.308  48.781 -16.053  1.00  0.00     0.051 C 
ENDBRANCH  11  16
ENDBRANCH   8   9
ENDBRANCH   4   8
ENDBRANCH   3   4
TORSDOF 5
ENDMDL
MODEL 3
REMARK VINA RESULT: -8.404425588      1.850      2.816
REMARK  5 active torsions:
REMARK  status: ('A' for Active; 'I' for Inactive)
REMARK    1  A    between atoms: C3_3  and  C4_4 
REMARK    2  A    between atoms: C4_4  and  O1_6 
REMARK    3  A    between atoms: C4_4  and  C6_8 
REMARK    4  A    between atoms: C6_8  and  C7_9 
REMARK    5  A    between atoms: C8_12  and  C9_13 
ROOT
HETATM    1  C1  UNL     1      47.657  48.057 -22.004  1.00  0.00     0.112 C 
HETATM    2  C2  UNL     1      48.290  48.904 -20.982  1.00  0.00    -0.108 C 
HETATM    3  C3  UNL     1      48.806  49.594 -20.137  1.00  0.00    -0.069 C 
ENDROOT
BRANCH   3   4
HETATM    4  C4  UNL     1      49.435  50.446 -19.098  1.00  0.00     0.122 C 
HETATM    5  C5  UNL     1      50.752  50.965 -19.692  1.00  0.00     0.061 C 
BRANCH   4   6
HETATM    6  O1  UNL     1      48.662  51.554 -18.840  1.00  0.00    -0.378 OA
ATOM      7  H1  UNL     1      48.181  51.448 -18.028  1.00  0.00     0.211 HD
ENDBRANCH   4   6
BRANCH   4   8
HETATM    8  C6  UNL     1      49.754  49.641 -17.882  1.00  0.00     0.110 C 
BRANCH   8   9
HETATM    9  C7  UNL     1      48.695  48.716 -17.448  1.00  0.00     0.044 A 
HETATM   10  N1  UNL     1      47.490  49.102 -16.935  1.00  0.00    -0.336 N 
HETATM   11  C8  UNL     1      46.773  48.015 -16.641  1.00  0.00     0.175 A 
ATOM     12  H1  UNL     1      47.186  50.066 -16.798  1.00  0.00     0.168 HD
HETATM   13  O2  UNL     1      47.494  46.996 -16.955  1.00  0.00    -0.294 OA
HETATM   14  C15 UNL     1      48.659  47.336 -17.445  1.00  0.00     0.074 A 
HETATM   15  C16 UNL     1      49.738  46.442 -17.910  1.00  0.00     0.079 C 
BRANCH  11  16
HETATM   16  C9  UNL     1      45.414  48.056 -16.065  1.00  0.00     0.090 A 
HETATM   17  N2  UNL     1      44.521  49.044 -16.176  1.00  0.00    -0.361 N 
HETATM   18  C10 UNL     1      43.405  48.698 -15.510  1.00  0.00     0.095 A 
ATOM     19  H2  UNL     1      44.663  49.918 -16.682  1.00  0.00     0.165 HD
HETATM   20  C11 UNL     1      43.588  47.456 -14.958  1.00  0.00    -0.038 A 
HETATM   21  C12 UNL     1      42.646  46.648 -14.134  1.00  0.00     0.050 C 
HETATM   22  C13 UNL     1      44.856  47.056 -15.310  1.00  0.00    -0.024 A 
HETATM   23  C14 UNL     1      45.529  45.763 -14.949  1.00  0.00     0.051 C 
ENDBRANCH  11  16
ENDBRANCH   8   9
ENDBRANCH   4   8
ENDBRANCH   3   4
TORSDOF 5
ENDMDL
MODEL 4
REMARK VINA RESULT: -8.303270479      1.007      1.417
REMARK  5 active torsions:
REMARK  status: ('A' for Active; 'I' for Inactive)
REMARK    1  A    between atoms: C3_3  and  C4_4 
REMARK    2  A    between atoms: C4_4  and  O1_6 
REMARK    3  A    between atoms: C4_4  and  C6_8 
REMARK    4  A    between atoms: C6_8  and  C7_9 
REMARK    5  A    between atoms: C8_12  and  C9_13 
ROOT
HETATM    1  C1  UNL     1      49.597  51.379 -22.078  1.00  0.00     0.112 C 
HETATM    2  C2  UNL     1      49.264  50.076 -21.484  1.00  0.00    -0.108 C 
HETATM    3  C3  UNL     1      48.984  49.005 -21.004  1.00  0.00    -0.069 C 
ENDROOT
BRANCH   3   4
HETATM    4  C4  UNL     1      48.636  47.691 -20.409  1.00  0.00     0.122 C 
HETATM    5  C5  UNL     1      47.106  47.573 -20.467  1.00  0.00     0.061 C 
BRANCH   4   6
HETATM    6  O1  UNL     1      49.133  46.662 -21.174  1.00  0.00    -0.378 OA
ATOM      7  H1  UNL     1      49.148  45.851 -20.680  1.00  0.00     0.211 HD
ENDBRANCH   4   6
BRANCH   4   8
HETATM    8  C6  UNL     1      49.058  47.634 -18.979  1.00  0.00     0.110 C 
BRANCH   8   9
HETATM    9  C7  UNL     1      48.097  48.203 -18.019  1.00  0.00     0.044 A 
HETATM   10  N1  UNL     1      47.015  47.539 -17.518  1.00  0.00    -0.336 N 
HETATM   11  C8  UNL     1      46.357  48.346 -16.683  1.00  0.00     0.175 A 
ATOM     12  H1  UNL     1      46.752  46.580 -17.746  1.00  0.00     0.168 HD
HETATM   13  O2  UNL     1      46.997  49.463 -16.661  1.00  0.00    -0.294 OA
HETATM   14  C15 UNL     1      48.052  49.454 -17.436  1.00  0.00     0.074 A 
HETATM   15  C16 UNL     1      49.016  50.549 -17.661  1.00  0.00     0.079 C 
BRANCH  11  16
HETATM   16  C9  UNL     1      45.132  47.957 -15.957  1.00  0.00     0.090 A 
HETATM   17  N2  UNL     1      43.942  48.561 -16.000  1.00  0.00    -0.361 N 
HETATM   18  C10 UNL     1      43.089  47.900 -15.198  1.00  0.00     0.095 A 
ATOM     19  H2  UNL     1      43.717  49.389 -16.552  1.00  0.00     0.165 HD
HETATM   20  C11 UNL     1      43.749  46.844 -14.625  1.00  0.00    -0.038 A 
HETATM   21  C12 UNL     1      43.237  45.824 -13.669  1.00  0.00     0.050 C 
HETATM   22  C13 UNL     1      45.038  46.884 -15.106  1.00  0.00    -0.024 A 
HETATM   23  C14 UNL     1      46.155  45.936 -14.777  1.00  0.00     0.051 C 
ENDBRANCH  11  16
ENDBRANCH   8   9
ENDBRANCH   4   8
ENDBRANCH   3   4
TORSDOF 5
ENDMDL
MODEL 5
REMARK VINA RESULT: -8.139418544      2.265      3.883
REMARK  5 active torsions:
REMARK  status: ('A' for Active; 'I' for Inactive)
REMARK    1  A    between atoms: C3_3  and  C4_4 
REMARK    2  A    between atoms: C4_4  and  O1_6 
REMARK    3  A    between atoms: C4_4  and  C6_8 
REMARK    4  A    between atoms: C6_8  and  C7_9 
REMARK    5  A    between atoms: C8_12  and  C9_13 
ROOT
HETATM    1  C1  UNL     1      50.244  51.007 -19.313  1.00  0.00     0.112 C 
HETATM    2  C2  UNL     1      49.439  49.994 -18.615  1.00  0.00    -0.108 C 
HETATM    3  C3  UNL     1      48.784  49.162 -18.036  1.00  0.00    -0.069 C 
ENDROOT
BRANCH   3   4
HETATM    4  C4  UNL     1      47.982  48.135 -17.327  1.00  0.00     0.122 C 
HETATM    5  C5  UNL     1      47.207  47.361 -18.404  1.00  0.00     0.061 C 
BRANCH   4   6
HETATM    6  O1  UNL     1      48.799  47.221 -16.705  1.00  0.00    -0.378 OA
ATOM      7  H1  UNL     1      48.872  47.409 -15.777  1.00  0.00     0.211 HD
ENDBRANCH   4   6
BRANCH   4   8
HETATM    8  C6  UNL     1      46.996  48.779 -16.411  1.00  0.00     0.110 C 
BRANCH   8   9
HETATM    9  C7  UNL     1      46.027  47.862 -15.788  1.00  0.00     0.044 A 
HETATM   10  N1  UNL     1      46.337  46.633 -15.283  1.00  0.00    -0.336 N 
HETATM   11  C8  UNL     1      45.228  46.067 -14.801  1.00  0.00     0.175 A 
ATOM     12  H1  UNL     1      47.267  46.213 -15.276  1.00  0.00     0.168 HD
HETATM   13  O2  UNL     1      44.268  46.904 -14.994  1.00  0.00    -0.294 OA
HETATM   14  C15 UNL     1      44.669  48.003 -15.580  1.00  0.00     0.074 A 
HETATM   15  C16 UNL     1      43.854  49.175 -15.956  1.00  0.00     0.079 C 
BRANCH  11  16
HETATM   16  C9  UNL     1      45.191  44.730 -14.177  1.00  0.00     0.090 A 
HETATM   17  N2  UNL     1      45.423  44.430 -12.896  1.00  0.00    -0.361 N 
HETATM   18  C10 UNL     1      45.291  43.102 -12.729  1.00  0.00     0.095 A 
ATOM     19  H2  UNL     1      45.661  45.100 -12.164  1.00  0.00     0.165 HD
HETATM   20  C11 UNL     1      44.966  42.535 -13.935  1.00  0.00    -0.038 A 
HETATM   21  C12 UNL     1      44.717  41.104 -14.262  1.00  0.00     0.050 C 
HETATM   22  C13 UNL     1      44.904  43.565 -14.845  1.00  0.00    -0.024 A 
HETATM   23  C14 UNL     1      44.583  43.461 -16.308  1.00  0.00     0.051 C 
ENDBRANCH  11  16
ENDBRANCH   8   9
ENDBRANCH   4   8
ENDBRANCH   3   4
TORSDOF 5
ENDMDL
