MODEL 1
REMARK VINA RESULT: -8.600800002      0.000      0.000
REMARK  4 active torsions:
REMARK  status: ('A' for Active; 'I' for Inactive)
REMARK    1  A    between atoms: C3_3  and  C4_4 
REMARK    2  A    between atoms: C7_11  and  N3_12 
REMARK    3  A    between atoms: N3_12  and  C8_14 
REMARK    4  A    between atoms: C11_17  and  C12_18 
ROOT
HETATM    1  N3  UNL     1      49.429  48.258 -16.671  1.00  0.00    -0.340 N 
ATOM      2  H3  UNL     1      50.353  48.233 -16.242  1.00  0.00     0.167 HD
ENDROOT
BRANCH   1   3
HETATM    3  C7  UNL     1      49.227  48.847 -17.814  1.00  0.00     0.128 A 
HETATM    4  C2  UNL     1      49.038  48.220 -19.057  1.00  0.00     0.012 A 
HETATM    5  C1  UNL     1      49.050  46.746 -19.199  1.00  0.00     0.055 C 
HETATM    6  C3  UNL     1      48.787  49.165 -19.989  1.00  0.00     0.059 A 
HETATM    7  N1  UNL     1      48.823  50.379 -19.311  1.00  0.00    -0.298 N 
HETATM    8  N2  UNL     1      49.092  50.124 -18.027  1.00  0.00    -0.285 N 
ATOM      9  H1  UNL     1      48.671  51.301 -19.721  1.00  0.00     0.187 HD
ATOM     10  H2  UNL     1      49.180  50.840 -17.305  1.00  0.00     0.188 HD
BRANCH   6  11
HETATM   11  C4  UNL     1      48.622  49.082 -21.455  1.00  0.00    -0.059 C 
HETATM   12  C5  UNL     1      48.946  50.522 -21.983  1.00  0.00     0.045 C 
HETATM   13  C6  UNL     1      47.548  48.405 -22.078  1.00  0.00     0.045 C 
ENDBRANCH   6  11
ENDBRANCH   1   3
BRANCH   1  14
HETATM   14  C8  UNL     1      48.278  47.634 -16.031  1.00  0.00     0.049 A 
HETATM   15  C9  UNL     1      47.129  48.421 -15.925  1.00  0.00     0.033 A 
HETATM   16  C10 UNL     1      46.022  47.892 -15.320  1.00  0.00     0.027 A 
HETATM   17  C11 UNL     1      46.040  46.578 -14.812  1.00  0.00     0.016 A 
HETATM   18  N4  UNL     1      47.136  45.849 -14.929  1.00  0.00    -0.367 N 
HETATM   19  C16 UNL     1      48.272  46.373 -15.544  1.00  0.00     0.117 A 
ATOM     20  H4  UNL     1      47.151  44.895 -14.566  1.00  0.00     0.165 HD
BRANCH  17  21
HETATM   21  C12 UNL     1      44.823  46.145 -14.167  1.00  0.00     0.069 C 
HETATM   22  C13 UNL     1      43.506  46.666 -14.820  1.00  0.00     0.016 C 
HETATM   23  C14 UNL     1      42.875  45.419 -14.212  1.00  0.00     0.039 C 
HETATM   24  C15 UNL     1      44.272  44.774 -14.397  1.00  0.00     0.180 C 
HETATM   25  F1  UNL     1      44.320  44.346 -15.708  1.00  0.00    -0.249 F 
ENDBRANCH  17  21
ENDBRANCH   1  14
TORSDOF 4
ENDMDL
MODEL 2
REMARK VINA RESULT: -8.534573103      2.668      7.396
REMARK  4 active torsions:
REMARK  status: ('A' for Active; 'I' for Inactive)
REMARK    1  A    between atoms: C3_3  and  C4_4 
REMARK    2  A    between atoms: C7_11  and  N3_12 
REMARK    3  A    between atoms: N3_12  and  C8_14 
REMARK    4  A    between atoms: C11_17  and  C12_18 
ROOT
HETATM    1  N3  UNL     1      46.405  48.783 -15.639  1.00  0.00    -0.340 N 
ATOM      2  H3  UNL     1      46.110  49.599 -15.103  1.00  0.00     0.167 HD
ENDROOT
BRANCH   1   3
HETATM    3  C7  UNL     1      46.067  47.578 -15.280  1.00  0.00     0.128 A 
HETATM    4  C2  UNL     1      44.766  47.050 -15.241  1.00  0.00     0.012 A 
HETATM    5  C1  UNL     1      43.584  47.855 -15.625  1.00  0.00     0.055 C 
HETATM    6  C3  UNL     1      44.833  45.748 -14.887  1.00  0.00     0.059 A 
HETATM    7  N1  UNL     1      46.185  45.478 -14.708  1.00  0.00    -0.298 N 
HETATM    8  N2  UNL     1      46.865  46.603 -14.951  1.00  0.00    -0.285 N 
ATOM      9  H1  UNL     1      46.588  44.580 -14.438  1.00  0.00     0.187 HD
ATOM     10  H2  UNL     1      47.879  46.687 -14.888  1.00  0.00     0.188 HD
BRANCH   6  11
HETATM   11  C4  UNL     1      43.782  44.753 -14.593  1.00  0.00    -0.059 C 
HETATM   12  C5  UNL     1      43.762  44.630 -13.031  1.00  0.00     0.045 C 
HETATM   13  C6  UNL     1      43.622  43.553 -15.325  1.00  0.00     0.045 C 
ENDBRANCH   6  11
ENDBRANCH   1   3
BRANCH   1  14
HETATM   14  C8  UNL     1      47.221  48.916 -16.837  1.00  0.00     0.049 A 
HETATM   15  C9  UNL     1      48.113  49.990 -16.860  1.00  0.00     0.033 A 
HETATM   16  C10 UNL     1      48.896  50.173 -17.968  1.00  0.00     0.027 A 
HETATM   17  C11 UNL     1      48.804  49.294 -19.065  1.00  0.00     0.016 A 
HETATM   18  N4  UNL     1      47.958  48.280 -19.019  1.00  0.00    -0.367 N 
HETATM   19  C16 UNL     1      47.155  48.079 -17.897  1.00  0.00     0.117 A 
ATOM     20  H4  UNL     1      47.892  47.638 -19.810  1.00  0.00     0.165 HD
BRANCH  17  21
HETATM   21  C12 UNL     1      49.656  49.609 -20.187  1.00  0.00     0.069 C 
HETATM   22  C13 UNL     1      49.037  49.324 -21.590  1.00  0.00     0.016 C 
HETATM   23  C14 UNL     1      49.988  50.411 -22.077  1.00  0.00     0.039 C 
HETATM   24  C15 UNL     1      49.821  51.018 -20.661  1.00  0.00     0.180 C 
HETATM   25  F1  UNL     1      48.653  51.752 -20.700  1.00  0.00    -0.249 F 
ENDBRANCH  17  21
ENDBRANCH   1  14
TORSDOF 4
ENDMDL
MODEL 3
REMARK VINA RESULT: -8.425436418      2.425      7.025
REMARK  4 active torsions:
REMARK  status: ('A' for Active; 'I' for Inactive)
REMARK    1  A    between atoms: C3_3  and  C4_4 
REMARK    2  A    between atoms: C7_11  and  N3_12 
REMARK    3  A    between atoms: N3_12  and  C8_14 
REMARK    4  A    between atoms: C11_17  and  C12_18 
ROOT
HETATM    1  N3  UNL     1      48.540  46.989 -15.633  1.00  0.00    -0.340 N 
ATOM      2  H3  UNL     1      49.297  46.845 -14.965  1.00  0.00     0.167 HD
ENDROOT
BRANCH   1   3
HETATM    3  C7  UNL     1      47.313  46.665 -15.346  1.00  0.00     0.128 A 
HETATM    4  C2  UNL     1      46.215  47.538 -15.256  1.00  0.00     0.012 A 
HETATM    5  C1  UNL     1      46.353  48.993 -15.490  1.00  0.00     0.055 C 
HETATM    6  C3  UNL     1      45.101  46.815 -15.010  1.00  0.00     0.059 A 
HETATM    7  N1  UNL     1      45.520  45.490 -14.950  1.00  0.00    -0.298 N 
HETATM    8  N2  UNL     1      46.841  45.467 -15.153  1.00  0.00    -0.285 N 
ATOM      9  H1  UNL     1      44.924  44.679 -14.781  1.00  0.00     0.187 HD
ATOM     10  H2  UNL     1      47.407  44.619 -15.156  1.00  0.00     0.188 HD
BRANCH   6  11
HETATM   11  C4  UNL     1      43.710  47.219 -14.721  1.00  0.00    -0.059 C 
HETATM   12  C5  UNL     1      42.998  45.910 -14.235  1.00  0.00     0.045 C 
HETATM   13  C6  UNL     1      42.959  48.074 -15.562  1.00  0.00     0.045 C 
ENDBRANCH   6  11
ENDBRANCH   1   3
BRANCH   1  14
HETATM   14  C8  UNL     1      48.787  47.567 -16.947  1.00  0.00     0.049 A 
HETATM   15  C9  UNL     1      49.675  48.643 -16.992  1.00  0.00     0.033 A 
HETATM   16  C10 UNL     1      49.934  49.234 -18.199  1.00  0.00     0.027 A 
HETATM   17  C11 UNL     1      49.315  48.765 -19.374  1.00  0.00     0.016 A 
HETATM   18  N4  UNL     1      48.482  47.741 -19.310  1.00  0.00    -0.367 N 
HETATM   19  C16 UNL     1      48.210  47.127 -18.088  1.00  0.00     0.117 A 
ATOM     20  H4  UNL     1      48.036  47.397 -20.161  1.00  0.00     0.165 HD
BRANCH  17  21
HETATM   21  C12 UNL     1      49.641  49.491 -20.579  1.00  0.00     0.069 C 
HETATM   22  C13 UNL     1      48.487  49.595 -21.623  1.00  0.00     0.016 C 
HETATM   23  C14 UNL     1      49.199  50.864 -22.078  1.00  0.00     0.039 C 
HETATM   24  C15 UNL     1      49.657  50.986 -20.602  1.00  0.00     0.180 C 
HETATM   25  F1  UNL     1      48.610  51.583 -19.930  1.00  0.00    -0.249 F 
ENDBRANCH  17  21
ENDBRANCH   1  14
TORSDOF 4
ENDMDL
MODEL 4
REMARK VINA RESULT: -8.420277233      0.626      1.045
REMARK  4 active torsions:
REMARK  status: ('A' for Active; 'I' for Inactive)
REMARK    1  A    between atoms: C3_3  and  C4_4 
REMARK    2  A    between atoms: C7_11  and  N3_12 
REMARK    3  A    between atoms: N3_12  and  C8_14 
REMARK    4  A    between atoms: C11_17  and  C12_18 
ROOT
HETATM    1  N3  UNL     1      49.388  48.254 -16.680  1.00  0.00    -0.340 N 
ATOM      2  H3  UNL     1      50.305  48.133 -16.251  1.00  0.00     0.167 HD
ENDROOT
BRANCH   1   3
HETATM    3  C7  UNL     1      49.252  48.841 -17.833  1.00  0.00     0.128 A 
HETATM    4  C2  UNL     1      48.975  48.219 -19.062  1.00  0.00     0.012 A 
HETATM    5  C1  UNL     1      48.802  46.752 -19.174  1.00  0.00     0.055 C 
HETATM    6  C3  UNL     1      48.837  49.169 -20.012  1.00  0.00     0.059 A 
HETATM    7  N1  UNL     1      49.031  50.382 -19.360  1.00  0.00    -0.298 N 
HETATM    8  N2  UNL     1      49.276  50.121 -18.072  1.00  0.00    -0.285 N 
ATOM      9  H1  UNL     1      48.992  51.307 -19.788  1.00  0.00     0.187 HD
ATOM     10  H2  UNL     1      49.460  50.834 -17.366  1.00  0.00     0.188 HD
BRANCH   6  11
HETATM   11  C4  UNL     1      48.650  49.078 -21.475  1.00  0.00    -0.059 C 
HETATM   12  C5  UNL     1      49.018  50.500 -22.022  1.00  0.00     0.045 C 
HETATM   13  C6  UNL     1      47.544  48.434 -22.078  1.00  0.00     0.045 C 
ENDBRANCH   6  11
ENDBRANCH   1   3
BRANCH   1  14
HETATM   14  C8  UNL     1      48.176  47.777 -16.028  1.00  0.00     0.049 A 
HETATM   15  C9  UNL     1      48.243  46.506 -15.454  1.00  0.00     0.033 A 
HETATM   16  C10 UNL     1      47.129  46.000 -14.840  1.00  0.00     0.027 A 
HETATM   17  C11 UNL     1      45.936  46.749 -14.789  1.00  0.00     0.016 A 
HETATM   18  N4  UNL     1      45.897  47.953 -15.333  1.00  0.00    -0.367 N 
HETATM   19  C16 UNL     1      47.024  48.482 -15.960  1.00  0.00     0.117 A 
ATOM     20  H4  UNL     1      45.036  48.499 -15.293  1.00  0.00     0.165 HD
BRANCH  17  21
HETATM   21  C12 UNL     1      44.821  46.096 -14.145  1.00  0.00     0.069 C 
HETATM   22  C13 UNL     1      43.414  46.504 -14.682  1.00  0.00     0.016 C 
HETATM   23  C14 UNL     1      42.980  45.129 -14.187  1.00  0.00     0.039 C 
HETATM   24  C15 UNL     1      44.435  44.695 -14.498  1.00  0.00     0.180 C 
HETATM   25  F1  UNL     1      44.465  44.413 -15.848  1.00  0.00    -0.249 F 
ENDBRANCH  17  21
ENDBRANCH   1  14
TORSDOF 4
ENDMDL
MODEL 5
REMARK VINA RESULT: -8.415575172      2.531      7.346
REMARK  4 active torsions:
REMARK  status: ('A' for Active; 'I' for Inactive)
REMARK    1  A    between atoms: C3_3  and  C4_4 
REMARK    2  A    between atoms: C7_11  and  N3_12 
REMARK    3  A    between atoms: N3_12  and  C8_14 
REMARK    4  A    between atoms: C11_17  and  C12_18 
ROOT
HETATM    1  N3  UNL     1      46.362  48.771 -15.402  1.00  0.00    -0.340 N 
ATOM      2  H3  UNL     1      46.055  49.527 -14.790  1.00  0.00     0.167 HD
ENDROOT
BRANCH   1   3
HETATM    3  C7  UNL     1      46.049  47.531 -15.157  1.00  0.00     0.128 A 
HETATM    4  C2  UNL     1      44.758  46.977 -15.160  1.00  0.00     0.012 A 
HETATM    5  C1  UNL     1      43.558  47.792 -15.457  1.00  0.00     0.055 C 
HETATM    6  C3  UNL     1      44.852  45.650 -14.931  1.00  0.00     0.059 A 
HETATM    7  N1  UNL     1      46.211  45.389 -14.787  1.00  0.00    -0.298 N 
HETATM    8  N2  UNL     1      46.867  46.545 -14.927  1.00  0.00    -0.285 N 
ATOM      9  H1  UNL     1      46.632  44.478 -14.607  1.00  0.00     0.187 HD
ATOM     10  H2  UNL     1      47.880  46.641 -14.863  1.00  0.00     0.188 HD
BRANCH   6  11
HETATM   11  C4  UNL     1      43.822  44.611 -14.726  1.00  0.00    -0.059 C 
HETATM   12  C5  UNL     1      43.730  44.428 -13.172  1.00  0.00     0.045 C 
HETATM   13  C6  UNL     1      43.738  43.435 -15.509  1.00  0.00     0.045 C 
ENDBRANCH   6  11
ENDBRANCH   1   3
BRANCH   1  14
HETATM   14  C8  UNL     1      47.168  49.032 -16.586  1.00  0.00     0.049 A 
HETATM   15  C9  UNL     1      47.149  48.048 -17.576  1.00  0.00     0.033 A 
HETATM   16  C10 UNL     1      47.899  48.233 -18.705  1.00  0.00     0.027 A 
HETATM   17  C11 UNL     1      48.677  49.397 -18.866  1.00  0.00     0.016 A 
HETATM   18  N4  UNL     1      48.675  50.320 -17.920  1.00  0.00    -0.367 N 
HETATM   19  C16 UNL     1      47.915  50.145 -16.765  1.00  0.00     0.117 A 
ATOM     20  H4  UNL     1      49.234  51.166 -18.036  1.00  0.00     0.165 HD
BRANCH  17  21
HETATM   21  C12 UNL     1      49.451  49.463 -20.084  1.00  0.00     0.069 C 
HETATM   22  C13 UNL     1      48.663  49.123 -21.387  1.00  0.00     0.016 C 
HETATM   23  C14 UNL     1      49.701  50.001 -22.077  1.00  0.00     0.039 C 
HETATM   24  C15 UNL     1      49.758  50.774 -20.735  1.00  0.00     0.180 C 
HETATM   25  F1  UNL     1      48.703  51.662 -20.766  1.00  0.00    -0.249 F 
ENDBRANCH  17  21
ENDBRANCH   1  14
TORSDOF 4
ENDMDL
