MODEL 1
REMARK VINA RESULT: -6.891508361      0.000      0.000
REMARK  11 active torsions:
REMARK  status: ('A' for Active; 'I' for Inactive)
REMARK    1  A    between atoms: C2_2  and  C3_4 
REMARK    2  A    between atoms: C3_4  and  C4_5 
REMARK    3  A    between atoms: C4_5  and  C5_6 
REMARK    4  A    between atoms: C5_6  and  C6_7 
REMARK    5  A    between atoms: C8_11  and  C9_12 
REMARK    6  A    between atoms: C9_12  and  N2_13 
REMARK       I    between atoms: N2_13  and  C10_14 
REMARK    7  A    between atoms: C10_14  and  C11_16 
REMARK    8  A    between atoms: C12_17  and  C13_18 
REMARK    9  A    between atoms: C13_18  and  C14_19 
REMARK   10  A    between atoms: C14_19  and  C15_20 
REMARK   11  A    between atoms: C15_20  and  N3_21 
ROOT
HETATM    1  C9  UNL     1     -32.199  10.927 -17.184  1.00  0.00     0.166 C 
ENDROOT
BRANCH   1   2
HETATM    2  C8  UNL     1     -33.304  11.187 -18.125  1.00  0.00     0.057 A 
HETATM    3  C5  UNL     1     -33.271  12.175 -19.185  1.00  0.00     0.051 A 
HETATM    4  C7  UNL     1     -33.039  10.654 -19.545  1.00  0.00     0.032 A 
BRANCH   3   5
HETATM    5  C4  UNL     1     -34.611  12.599 -19.855  1.00  0.00     0.048 C 
BRANCH   5   6
HETATM    6  C3  UNL     1     -35.171  13.559 -19.165  1.00  0.00    -0.007 C 
BRANCH   6   7
HETATM    7  C2  UNL     1     -35.202  14.942 -19.559  1.00  0.00    -0.003 C 
HETATM    8  C1  UNL     1     -36.063  15.227 -20.615  1.00  0.00     0.031 C 
HETATM    9 BR1  UNL     1     -34.159  16.262 -18.754  1.00  0.00    -0.052 Br
ENDBRANCH   6   7
ENDBRANCH   5   6
ENDBRANCH   3   5
BRANCH   3  10
HETATM   10  C6  UNL     1     -32.191  13.017 -19.652  1.00  0.00     0.240 C 
HETATM   11  N1  UNL     1     -31.880  13.237 -21.038  1.00  0.00    -0.061 NA
HETATM   12  O1  UNL     1     -31.389  13.676 -18.876  1.00  0.00    -0.276 OA
ENDBRANCH   3  10
ENDBRANCH   1   2
BRANCH   1  13
HETATM   13  N2  UNL     1     -31.614  11.823 -16.305  1.00  0.00    -0.376 NA
HETATM   14  C10 UNL     1     -31.064  12.665 -15.477  1.00  0.00     0.370 C 
HETATM   15  O2  UNL     1     -30.433  13.774 -15.664  1.00  0.00    -0.241 OA
BRANCH  14  16
HETATM   16  C11 UNL     1     -31.090  12.427 -13.981  1.00  0.00     0.010 C 
HETATM   17  C12 UNL     1     -31.033  12.270 -12.798  1.00  0.00    -0.095 C 
BRANCH  17  18
HETATM   18  C13 UNL     1     -30.856  12.105 -11.363  1.00  0.00     0.097 C 
BRANCH  18  19
HETATM   19  C14 UNL     1     -29.456  12.466 -10.928  1.00  0.00     0.048 C 
BRANCH  19  20
HETATM   20  C15 UNL     1     -29.318  13.972 -11.032  1.00  0.00     0.311 C 
BRANCH  20  21
HETATM   21  N3  UNL     1     -28.106  14.420 -11.648  1.00  0.00     0.005 N 
HETATM   22  C16 UNL     1     -28.114  15.867 -11.725  1.00  0.00     0.355 C 
HETATM   23  C17 UNL     1     -26.919  14.006 -10.977  1.00  0.00     0.355 C 
HETATM   24  O3  UNL     1     -28.044  13.997 -12.946  1.00  0.00    -0.065 OA
ENDBRANCH  20  21
ENDBRANCH  19  20
ENDBRANCH  18  19
ENDBRANCH  17  18
ENDBRANCH  14  16
ENDBRANCH   1  13
TORSDOF 11
ENDMDL
MODEL 2
REMARK VINA RESULT: -6.807734970      2.744      4.789
REMARK  11 active torsions:
REMARK  status: ('A' for Active; 'I' for Inactive)
REMARK    1  A    between atoms: C2_2  and  C3_4 
REMARK    2  A    between atoms: C3_4  and  C4_5 
REMARK    3  A    between atoms: C4_5  and  C5_6 
REMARK    4  A    between atoms: C5_6  and  C6_7 
REMARK    5  A    between atoms: C8_11  and  C9_12 
REMARK    6  A    between atoms: C9_12  and  N2_13 
REMARK       I    between atoms: N2_13  and  C10_14 
REMARK    7  A    between atoms: C10_14  and  C11_16 
REMARK    8  A    between atoms: C12_17  and  C13_18 
REMARK    9  A    between atoms: C13_18  and  C14_19 
REMARK   10  A    between atoms: C14_19  and  C15_20 
REMARK   11  A    between atoms: C15_20  and  N3_21 
ROOT
HETATM    1  C9  UNL     1     -35.787  13.911 -19.284  1.00  0.00     0.166 C 
ENDROOT
BRANCH   1   2
HETATM    2  C8  UNL     1     -36.020  15.143 -20.058  1.00  0.00     0.057 A 
HETATM    3  C5  UNL     1     -35.343  16.404 -19.829  1.00  0.00     0.051 A 
HETATM    4  C7  UNL     1     -34.874  15.486 -21.027  1.00  0.00     0.032 A 
BRANCH   3   5
HETATM    5  C4  UNL     1     -35.938  17.699 -20.456  1.00  0.00     0.048 C 
BRANCH   5   6
HETATM    6  C3  UNL     1     -37.238  17.707 -20.316  1.00  0.00    -0.007 C 
BRANCH   6   7
HETATM    7  C2  UNL     1     -38.180  17.734 -21.403  1.00  0.00    -0.003 C 
HETATM    8  C1  UNL     1     -39.406  18.315 -21.095  1.00  0.00     0.031 C 
HETATM    9 BR1  UNL     1     -37.821  17.026 -23.091  1.00  0.00    -0.052 Br
ENDBRANCH   6   7
ENDBRANCH   5   6
ENDBRANCH   3   5
BRANCH   3  10
HETATM   10  C6  UNL     1     -34.253  16.737 -18.937  1.00  0.00     0.240 C 
HETATM   11  N1  UNL     1     -33.487  17.949 -19.017  1.00  0.00    -0.061 NA
HETATM   12  O1  UNL     1     -33.853  15.986 -17.960  1.00  0.00    -0.276 OA
ENDBRANCH   3  10
ENDBRANCH   1   2
BRANCH   1  13
HETATM   13  N2  UNL     1     -34.671  13.091 -19.323  1.00  0.00    -0.376 NA
HETATM   14  C10 UNL     1     -33.622  12.320 -19.359  1.00  0.00     0.370 C 
HETATM   15  O2  UNL     1     -32.798  12.025 -20.307  1.00  0.00    -0.241 OA
BRANCH  14  16
HETATM   16  C11 UNL     1     -33.164  11.558 -18.132  1.00  0.00     0.010 C 
HETATM   17  C12 UNL     1     -32.830  11.022 -17.118  1.00  0.00    -0.095 C 
BRANCH  17  18
HETATM   18  C13 UNL     1     -32.447  10.464 -15.830  1.00  0.00     0.097 C 
BRANCH  18  19
HETATM   19  C14 UNL     1     -31.447  11.340 -15.116  1.00  0.00     0.048 C 
BRANCH  19  20
HETATM   20  C15 UNL     1     -31.872  11.432 -13.665  1.00  0.00     0.311 C 
BRANCH  20  21
HETATM   21  N3  UNL     1     -31.341  12.556 -12.956  1.00  0.00     0.005 N 
HETATM   22  C16 UNL     1     -30.650  12.093 -11.769  1.00  0.00     0.355 C 
HETATM   23  C17 UNL     1     -30.446  13.361 -13.720  1.00  0.00     0.355 C 
HETATM   24  O3  UNL     1     -32.351  13.349 -12.490  1.00  0.00    -0.065 OA
ENDBRANCH  20  21
ENDBRANCH  19  20
ENDBRANCH  18  19
ENDBRANCH  17  18
ENDBRANCH  14  16
ENDBRANCH   1  13
TORSDOF 11
ENDMDL
MODEL 3
REMARK VINA RESULT: -6.736533111      2.492      3.576
REMARK  11 active torsions:
REMARK  status: ('A' for Active; 'I' for Inactive)
REMARK    1  A    between atoms: C2_2  and  C3_4 
REMARK    2  A    between atoms: C3_4  and  C4_5 
REMARK    3  A    between atoms: C4_5  and  C5_6 
REMARK    4  A    between atoms: C5_6  and  C6_7 
REMARK    5  A    between atoms: C8_11  and  C9_12 
REMARK    6  A    between atoms: C9_12  and  N2_13 
REMARK       I    between atoms: N2_13  and  C10_14 
REMARK    7  A    between atoms: C10_14  and  C11_16 
REMARK    8  A    between atoms: C12_17  and  C13_18 
REMARK    9  A    between atoms: C13_18  and  C14_19 
REMARK   10  A    between atoms: C14_19  and  C15_20 
REMARK   11  A    between atoms: C15_20  and  N3_21 
ROOT
HETATM    1  C9  UNL     1     -30.980  12.919 -20.151  1.00  0.00     0.166 C 
ENDROOT
BRANCH   1   2
HETATM    2  C8  UNL     1     -31.581  14.214 -19.783  1.00  0.00     0.057 A 
HETATM    3  C5  UNL     1     -33.002  14.454 -19.638  1.00  0.00     0.051 A 
HETATM    4  C7  UNL     1     -32.121  14.253 -18.342  1.00  0.00     0.032 A 
BRANCH   3   5
HETATM    5  C4  UNL     1     -33.515  15.924 -19.613  1.00  0.00     0.048 C 
BRANCH   5   6
HETATM    6  C3  UNL     1     -33.648  16.372 -20.835  1.00  0.00    -0.007 C 
BRANCH   6   7
HETATM    7  C2  UNL     1     -34.856  16.939 -21.374  1.00  0.00    -0.003 C 
HETATM    8  C1  UNL     1     -34.778  17.303 -22.715  1.00  0.00     0.031 C 
HETATM    9 BR1  UNL     1     -36.404  17.202 -20.369  1.00  0.00    -0.052 Br
ENDBRANCH   6   7
ENDBRANCH   5   6
ENDBRANCH   3   5
BRANCH   3  10
HETATM   10  C6  UNL     1     -34.120  13.536 -19.685  1.00  0.00     0.240 C 
HETATM   11  N1  UNL     1     -35.409  13.803 -19.109  1.00  0.00    -0.061 NA
HETATM   12  O1  UNL     1     -34.090  12.376 -20.262  1.00  0.00    -0.276 OA
ENDBRANCH   3  10
ENDBRANCH   1   2
BRANCH   1  13
HETATM   13  N2  UNL     1     -30.857  11.792 -19.356  1.00  0.00    -0.376 NA
HETATM   14  C10 UNL     1     -30.741  10.732 -18.607  1.00  0.00     0.370 C 
HETATM   15  O2  UNL     1     -30.331   9.536 -18.859  1.00  0.00    -0.241 OA
BRANCH  14  16
HETATM   16  C11 UNL     1     -31.127  10.760 -17.142  1.00  0.00     0.010 C 
HETATM   17  C12 UNL     1     -31.426  10.698 -15.987  1.00  0.00    -0.095 C 
BRANCH  17  18
HETATM   18  C13 UNL     1     -31.797  10.512 -14.592  1.00  0.00     0.097 C 
BRANCH  18  19
HETATM   19  C14 UNL     1     -31.584  11.769 -13.785  1.00  0.00     0.048 C 
BRANCH  19  20
HETATM   20  C15 UNL     1     -31.110  11.354 -12.407  1.00  0.00     0.311 C 
BRANCH  20  21
HETATM   21  N3  UNL     1     -30.692  12.434 -11.567  1.00  0.00     0.005 N 
HETATM   22  C16 UNL     1     -29.868  13.348 -12.333  1.00  0.00     0.355 C 
HETATM   23  C17 UNL     1     -31.764  13.169 -10.981  1.00  0.00     0.355 C 
HETATM   24  O3  UNL     1     -29.879  11.978 -10.568  1.00  0.00    -0.065 OA
ENDBRANCH  20  21
ENDBRANCH  19  20
ENDBRANCH  18  19
ENDBRANCH  17  18
ENDBRANCH  14  16
ENDBRANCH   1  13
TORSDOF 11
ENDMDL
MODEL 4
REMARK VINA RESULT: -6.731908053      2.066      3.006
REMARK  11 active torsions:
REMARK  status: ('A' for Active; 'I' for Inactive)
REMARK    1  A    between atoms: C2_2  and  C3_4 
REMARK    2  A    between atoms: C3_4  and  C4_5 
REMARK    3  A    between atoms: C4_5  and  C5_6 
REMARK    4  A    between atoms: C5_6  and  C6_7 
REMARK    5  A    between atoms: C8_11  and  C9_12 
REMARK    6  A    between atoms: C9_12  and  N2_13 
REMARK       I    between atoms: N2_13  and  C10_14 
REMARK    7  A    between atoms: C10_14  and  C11_16 
REMARK    8  A    between atoms: C12_17  and  C13_18 
REMARK    9  A    between atoms: C13_18  and  C14_19 
REMARK   10  A    between atoms: C14_19  and  C15_20 
REMARK   11  A    between atoms: C15_20  and  N3_21 
ROOT
HETATM    1  C9  UNL     1     -32.894  11.499 -19.575  1.00  0.00     0.166 C 
ENDROOT
BRANCH   1   2
HETATM    2  C8  UNL     1     -32.852  12.924 -19.949  1.00  0.00     0.057 A 
HETATM    3  C5  UNL     1     -32.090  13.940 -19.250  1.00  0.00     0.051 A 
HETATM    4  C7  UNL     1     -31.525  13.348 -20.603  1.00  0.00     0.032 A 
BRANCH   3   5
HETATM    5  C4  UNL     1     -32.421  15.438 -19.514  1.00  0.00     0.048 C 
BRANCH   5   6
HETATM    6  C3  UNL     1     -33.462  15.797 -18.810  1.00  0.00    -0.007 C 
BRANCH   6   7
HETATM    7  C2  UNL     1     -34.760  16.091 -19.356  1.00  0.00    -0.003 C 
HETATM    8  C1  UNL     1     -35.713  15.096 -19.157  1.00  0.00     0.031 C 
HETATM    9 BR1  UNL     1     -35.152  17.659 -20.286  1.00  0.00    -0.052 Br
ENDBRANCH   6   7
ENDBRANCH   5   6
ENDBRANCH   3   5
BRANCH   3  10
HETATM   10  C6  UNL     1     -31.141  13.822 -18.165  1.00  0.00     0.240 C 
HETATM   11  N1  UNL     1     -29.718  13.727 -18.343  1.00  0.00    -0.061 NA
HETATM   12  O1  UNL     1     -31.463  13.800 -16.910  1.00  0.00    -0.276 OA
ENDBRANCH   3  10
ENDBRANCH   1   2
BRANCH   1  13
HETATM   13  N2  UNL     1     -32.080  10.843 -18.666  1.00  0.00    -0.376 NA
HETATM   14  C10 UNL     1     -31.315  10.227 -17.810  1.00  0.00     0.370 C 
HETATM   15  O2  UNL     1     -30.317   9.425 -17.965  1.00  0.00    -0.241 OA
BRANCH  14  16
HETATM   16  C11 UNL     1     -31.520  10.384 -16.318  1.00  0.00     0.010 C 
HETATM   17  C12 UNL     1     -31.608  10.549 -15.138  1.00  0.00    -0.095 C 
BRANCH  17  18
HETATM   18  C13 UNL     1     -31.611  10.786 -13.702  1.00  0.00     0.097 C 
BRANCH  18  19
HETATM   19  C14 UNL     1     -31.792  12.249 -13.378  1.00  0.00     0.048 C 
BRANCH  19  20
HETATM   20  C15 UNL     1     -30.493  12.749 -12.777  1.00  0.00     0.311 C 
BRANCH  20  21
HETATM   21  N3  UNL     1     -30.539  12.986 -11.366  1.00  0.00     0.005 N 
HETATM   22  C16 UNL     1     -29.668  14.096 -11.037  1.00  0.00     0.355 C 
HETATM   23  C17 UNL     1     -31.843  13.263 -10.861  1.00  0.00     0.355 C 
HETATM   24  O3  UNL     1     -30.025  11.919 -10.685  1.00  0.00    -0.065 OA
ENDBRANCH  20  21
ENDBRANCH  19  20
ENDBRANCH  18  19
ENDBRANCH  17  18
ENDBRANCH  14  16
ENDBRANCH   1  13
TORSDOF 11
ENDMDL
MODEL 5
REMARK VINA RESULT: -6.711498949      2.709      8.184
REMARK  11 active torsions:
REMARK  status: ('A' for Active; 'I' for Inactive)
REMARK    1  A    between atoms: C2_2  and  C3_4 
REMARK    2  A    between atoms: C3_4  and  C4_5 
REMARK    3  A    between atoms: C4_5  and  C5_6 
REMARK    4  A    between atoms: C5_6  and  C6_7 
REMARK    5  A    between atoms: C8_11  and  C9_12 
REMARK    6  A    between atoms: C9_12  and  N2_13 
REMARK       I    between atoms: N2_13  and  C10_14 
REMARK    7  A    between atoms: C10_14  and  C11_16 
REMARK    8  A    between atoms: C12_17  and  C13_18 
REMARK    9  A    between atoms: C13_18  and  C14_19 
REMARK   10  A    between atoms: C14_19  and  C15_20 
REMARK   11  A    between atoms: C15_20  and  N3_21 
ROOT
HETATM    1  C9  UNL     1     -31.132  10.876 -12.573  1.00  0.00     0.166 C 
ENDROOT
BRANCH   1   2
HETATM    2  C8  UNL     1     -30.913  12.031 -11.683  1.00  0.00     0.057 A 
HETATM    3  C5  UNL     1     -30.358  13.303 -12.100  1.00  0.00     0.051 A 
HETATM    4  C7  UNL     1     -31.921  13.174 -11.901  1.00  0.00     0.032 A 
BRANCH   3   5
HETATM    5  C4  UNL     1     -29.842  14.288 -11.012  1.00  0.00     0.048 C 
BRANCH   5   6
HETATM    6  C3  UNL     1     -28.639  13.945 -10.633  1.00  0.00    -0.007 C 
BRANCH   6   7
HETATM    7  C2  UNL     1     -27.427  14.586 -11.071  1.00  0.00    -0.003 C 
HETATM    8  C1  UNL     1     -26.257  13.930 -10.701  1.00  0.00     0.031 C 
HETATM    9 BR1  UNL     1     -27.400  16.183 -12.034  1.00  0.00    -0.052 Br
ENDBRANCH   6   7
ENDBRANCH   5   6
ENDBRANCH   3   5
BRANCH   3  10
HETATM   10  C6  UNL     1     -30.015  13.791 -13.419  1.00  0.00     0.240 C 
HETATM   11  N1  UNL     1     -30.845  14.671 -14.195  1.00  0.00    -0.061 NA
HETATM   12  O1  UNL     1     -28.918  13.501 -14.044  1.00  0.00    -0.276 OA
ENDBRANCH   3  10
ENDBRANCH   1   2
BRANCH   1  13
HETATM   13  N2  UNL     1     -31.516  10.901 -13.904  1.00  0.00    -0.376 NA
HETATM   14  C10 UNL     1     -31.876  10.924 -15.156  1.00  0.00     0.370 C 
HETATM   15  O2  UNL     1     -32.883  10.410 -15.775  1.00  0.00    -0.241 OA
BRANCH  14  16
HETATM   16  C11 UNL     1     -31.051  11.652 -16.197  1.00  0.00     0.010 C 
HETATM   17  C12 UNL     1     -30.450  12.291 -17.007  1.00  0.00    -0.095 C 
BRANCH  17  18
HETATM   18  C13 UNL     1     -29.798  13.148 -17.987  1.00  0.00     0.097 C 
BRANCH  18  19
HETATM   19  C14 UNL     1     -30.786  13.718 -18.976  1.00  0.00     0.048 C 
BRANCH  19  20
HETATM   20  C15 UNL     1     -31.407  12.557 -19.724  1.00  0.00     0.311 C 
BRANCH  20  21
HETATM   21  N3  UNL     1     -32.837  12.579 -19.784  1.00  0.00     0.005 N 
HETATM   22  C16 UNL     1     -33.347  11.238 -19.576  1.00  0.00     0.355 C 
HETATM   23  C17 UNL     1     -33.449  13.452 -18.837  1.00  0.00     0.355 C 
HETATM   24  O3  UNL     1     -33.259  12.929 -21.036  1.00  0.00    -0.065 OA
ENDBRANCH  20  21
ENDBRANCH  19  20
ENDBRANCH  18  19
ENDBRANCH  17  18
ENDBRANCH  14  16
ENDBRANCH   1  13
TORSDOF 11
ENDMDL
