MODEL 1
REMARK VINA RESULT: -6.211701989      0.000      0.000
REMARK  10 active torsions:
REMARK  status: ('A' for Active; 'I' for Inactive)
REMARK    1  A    between atoms: C2_2  and  C3_3 
REMARK    2  A    between atoms: C3_3  and  C4_4 
REMARK    3  A    between atoms: C4_4  and  C5_5 
REMARK    4  A    between atoms: C5_5  and  N1_6 
REMARK       I    between atoms: N1_6  and  C6_8 
REMARK    5  A    between atoms: C6_8  and  C7_10 
REMARK    6  A    between atoms: C9_12  and  C10_13 
REMARK       I    between atoms: C10_13  and  N2_15 
REMARK    7  A    between atoms: N3_19  and  C13_20 
REMARK    8  A    between atoms: C13_20  and  N4_22 
REMARK    9  A    between atoms: N4_22  and  C14_24 
REMARK   10  A    between atoms: C14_24  and  C15_25 
ROOT
HETATM    1  C7  UNL     1     -33.225  12.488 -19.544  1.00  0.00     0.182 C 
HETATM    2  C8  UNL     1     -34.343  13.348 -18.990  1.00  0.00     0.070 C 
HETATM    3  C9  UNL     1     -33.371  14.445 -19.177  1.00  0.00     0.182 C 
HETATM    4  N3  UNL     1     -32.299  13.465 -19.131  1.00  0.00    -0.331 N 
ENDROOT
BRANCH   1   5
HETATM    5  C6  UNL     1     -33.289  11.188 -18.799  1.00  0.00     0.244 C 
HETATM    6  N1  UNL     1     -33.169  11.228 -17.415  1.00  0.00    -0.339 N 
ATOM      7  H1  UNL     1     -33.069  12.180 -17.064  1.00  0.00     0.167 HD
HETATM    8  O1  UNL     1     -33.444  10.159 -19.446  1.00  0.00    -0.271 OA
BRANCH   6   9
HETATM    9  C5  UNL     1     -33.152  10.276 -16.379  1.00  0.00     0.064 C 
BRANCH   9  10
HETATM   10  C4  UNL     1     -32.025  10.295 -15.452  1.00  0.00     0.048 C 
BRANCH  10  11
HETATM   11  C3  UNL     1     -31.893  11.370 -14.469  1.00  0.00     0.031 C 
BRANCH  11  12
HETATM   12  C2  UNL     1     -31.456  10.894 -13.146  1.00  0.00    -0.037 C 
HETATM   13  C1  UNL     1     -31.091  11.657 -12.146  1.00  0.00     0.007 C 
ENDBRANCH  11  12
ENDBRANCH  10  11
ENDBRANCH   9  10
ENDBRANCH   6   9
ENDBRANCH   1   5
BRANCH   4  14
HETATM   14  C13 UNL     1     -30.917  13.680 -18.802  1.00  0.00     0.171 C 
HETATM   15  S1  UNL     1     -30.363  13.481 -17.254  1.00  0.00    -0.041 SA
BRANCH  14  16
HETATM   16  N4  UNL     1     -29.933  14.059 -19.753  1.00  0.00    -0.366 N 
ATOM     17  H4  UNL     1     -30.150  14.865 -20.339  1.00  0.00     0.161 HD
BRANCH  16  18
HETATM   18  C14 UNL     1     -28.678  13.429 -19.973  1.00  0.00     0.133 C 
BRANCH  18  19
HETATM   19  C15 UNL     1     -27.463  14.180 -19.574  1.00  0.00     0.104 C 
HETATM   20 BR1  UNL     1     -26.387  13.260 -18.276  1.00  0.00    -0.095 Br
ENDBRANCH  18  19
ENDBRANCH  16  18
ENDBRANCH  14  16
ENDBRANCH   4  14
BRANCH   3  21
HETATM   21  C10 UNL     1     -33.505  15.072 -20.530  1.00  0.00     0.244 C 
HETATM   22  O2  UNL     1     -32.502  15.626 -21.040  1.00  0.00    -0.271 OA
HETATM   23  N2  UNL     1     -34.716  15.069 -21.261  1.00  0.00    -0.339 N 
HETATM   24  C11 UNL     1     -35.573  16.036 -21.208  1.00  0.00     0.059 C 
ATOM     25  H2  UNL     1     -34.922  14.268 -21.857  1.00  0.00     0.167 HD
HETATM   26  C12 UNL     1     -35.336  17.222 -20.366  1.00  0.00     0.055 C 
ENDBRANCH   3  21
TORSDOF 10
ENDMDL
MODEL 2
REMARK VINA RESULT: -6.017247365      2.172      2.590
REMARK  10 active torsions:
REMARK  status: ('A' for Active; 'I' for Inactive)
REMARK    1  A    between atoms: C2_2  and  C3_3 
REMARK    2  A    between atoms: C3_3  and  C4_4 
REMARK    3  A    between atoms: C4_4  and  C5_5 
REMARK    4  A    between atoms: C5_5  and  N1_6 
REMARK       I    between atoms: N1_6  and  C6_8 
REMARK    5  A    between atoms: C6_8  and  C7_10 
REMARK    6  A    between atoms: C9_12  and  C10_13 
REMARK       I    between atoms: C10_13  and  N2_15 
REMARK    7  A    between atoms: N3_19  and  C13_20 
REMARK    8  A    between atoms: C13_20  and  N4_22 
REMARK    9  A    between atoms: N4_22  and  C14_24 
REMARK   10  A    between atoms: C14_24  and  C15_25 
ROOT
HETATM    1  C7  UNL     1     -31.284  11.476 -18.313  1.00  0.00     0.182 C 
HETATM    2  C8  UNL     1     -32.127  12.659 -17.885  1.00  0.00     0.070 C 
HETATM    3  C9  UNL     1     -31.197  13.424 -18.742  1.00  0.00     0.182 C 
HETATM    4  N3  UNL     1     -30.221  12.358 -18.583  1.00  0.00    -0.331 N 
ENDROOT
BRANCH   1   5
HETATM    5  C6  UNL     1     -31.192  10.574 -17.120  1.00  0.00     0.244 C 
HETATM    6  N1  UNL     1     -31.740  11.023 -15.924  1.00  0.00    -0.339 N 
ATOM      7  H1  UNL     1     -32.173  11.942 -16.020  1.00  0.00     0.167 HD
HETATM    8  O1  UNL     1     -30.640   9.488 -17.257  1.00  0.00    -0.271 OA
BRANCH   6   9
HETATM    9  C5  UNL     1     -31.846  10.522 -14.614  1.00  0.00     0.064 C 
BRANCH   9  10
HETATM   10  C4  UNL     1     -31.374  11.364 -13.520  1.00  0.00     0.048 C 
BRANCH  10  11
HETATM   11  C3  UNL     1     -31.919  12.709 -13.333  1.00  0.00     0.031 C 
BRANCH  11  12
HETATM   12  C2  UNL     1     -31.917  13.145 -11.927  1.00  0.00    -0.037 C 
HETATM   13  C1  UNL     1     -31.479  12.442 -10.913  1.00  0.00     0.007 C 
ENDBRANCH  11  12
ENDBRANCH  10  11
ENDBRANCH   9  10
ENDBRANCH   6   9
ENDBRANCH   1   5
BRANCH   4  14
HETATM   14  C13 UNL     1     -28.794  12.436 -18.738  1.00  0.00     0.171 C 
HETATM   15  S1  UNL     1     -27.793  12.519 -17.422  1.00  0.00    -0.041 SA
BRANCH  14  16
HETATM   16  N4  UNL     1     -28.140  12.434 -19.998  1.00  0.00    -0.366 N 
ATOM     17  H4  UNL     1     -28.197  11.573 -20.542  1.00  0.00     0.161 HD
BRANCH  16  18
HETATM   18  C14 UNL     1     -27.414  13.509 -20.579  1.00  0.00     0.133 C 
BRANCH  18  19
HETATM   19  C15 UNL     1     -27.057  13.389 -22.014  1.00  0.00     0.104 C 
HETATM   20 BR1  UNL     1     -25.955  14.828 -22.650  1.00  0.00    -0.095 Br
ENDBRANCH  18  19
ENDBRANCH  16  18
ENDBRANCH  14  16
ENDBRANCH   4  14
BRANCH   3  21
HETATM   21  C10 UNL     1     -31.702  13.522 -20.149  1.00  0.00     0.244 C 
HETATM   22  O2  UNL     1     -30.885  13.400 -21.092  1.00  0.00    -0.271 OA
HETATM   23  N2  UNL     1     -33.063  13.746 -20.462  1.00  0.00    -0.339 N 
HETATM   24  C11 UNL     1     -33.553  14.925 -20.665  1.00  0.00     0.059 C 
ATOM     25  H2  UNL     1     -33.686  12.941 -20.530  1.00  0.00     0.167 HD
HETATM   26  C12 UNL     1     -32.709  16.129 -20.580  1.00  0.00     0.055 C 
ENDBRANCH   3  21
TORSDOF 10
ENDMDL
MODEL 3
REMARK VINA RESULT: -5.922621109      2.795      5.137
REMARK  10 active torsions:
REMARK  status: ('A' for Active; 'I' for Inactive)
REMARK    1  A    between atoms: C2_2  and  C3_3 
REMARK    2  A    between atoms: C3_3  and  C4_4 
REMARK    3  A    between atoms: C4_4  and  C5_5 
REMARK    4  A    between atoms: C5_5  and  N1_6 
REMARK       I    between atoms: N1_6  and  C6_8 
REMARK    5  A    between atoms: C6_8  and  C7_10 
REMARK    6  A    between atoms: C9_12  and  C10_13 
REMARK       I    between atoms: C10_13  and  N2_15 
REMARK    7  A    between atoms: N3_19  and  C13_20 
REMARK    8  A    between atoms: C13_20  and  N4_22 
REMARK    9  A    between atoms: N4_22  and  C14_24 
REMARK   10  A    between atoms: C14_24  and  C15_25 
ROOT
HETATM    1  C7  UNL     1     -30.720  12.337 -16.993  1.00  0.00     0.182 C 
HETATM    2  C8  UNL     1     -29.469  11.682 -17.541  1.00  0.00     0.070 C 
HETATM    3  C9  UNL     1     -29.999  12.136 -18.843  1.00  0.00     0.182 C 
HETATM    4  N3  UNL     1     -31.327  12.183 -18.253  1.00  0.00    -0.331 N 
ENDROOT
BRANCH   1   5
HETATM    5  C6  UNL     1     -31.179  11.475 -15.856  1.00  0.00     0.244 C 
HETATM    6  N1  UNL     1     -31.249  12.051 -14.593  1.00  0.00    -0.339 N 
ATOM      7  H1  UNL     1     -30.987  13.036 -14.604  1.00  0.00     0.167 HD
HETATM    8  O1  UNL     1     -31.470  10.309 -16.096  1.00  0.00    -0.271 OA
BRANCH   6   9
HETATM    9  C5  UNL     1     -31.593  11.608 -13.302  1.00  0.00     0.064 C 
BRANCH   9  10
HETATM   10  C4  UNL     1     -31.788  12.615 -12.264  1.00  0.00     0.048 C 
BRANCH  10  11
HETATM   11  C3  UNL     1     -31.075  12.513 -10.991  1.00  0.00     0.031 C 
BRANCH  11  12
HETATM   12  C2  UNL     1     -29.684  12.991 -11.067  1.00  0.00    -0.037 C 
HETATM   13  C1  UNL     1     -29.262  14.169 -10.679  1.00  0.00     0.007 C 
ENDBRANCH  11  12
ENDBRANCH  10  11
ENDBRANCH   9  10
ENDBRANCH   6   9
ENDBRANCH   1   5
BRANCH   4  14
HETATM   14  C13 UNL     1     -32.596  12.118 -18.924  1.00  0.00     0.171 C 
HETATM   15  S1  UNL     1     -33.295  10.664 -19.295  1.00  0.00    -0.041 SA
BRANCH  14  16
HETATM   16  N4  UNL     1     -33.343  13.264 -19.303  1.00  0.00    -0.366 N 
ATOM     17  H4  UNL     1     -32.809  14.089 -19.575  1.00  0.00     0.161 HD
BRANCH  16  18
HETATM   18  C14 UNL     1     -34.760  13.380 -19.341  1.00  0.00     0.133 C 
BRANCH  18  19
HETATM   19  C15 UNL     1     -35.331  14.747 -19.271  1.00  0.00     0.104 C 
HETATM   20 BR1  UNL     1     -34.060  16.079 -18.722  1.00  0.00    -0.095 Br
ENDBRANCH  18  19
ENDBRANCH  16  18
ENDBRANCH  14  16
ENDBRANCH   4  14
BRANCH   3  21
HETATM   21  C10 UNL     1     -29.491  13.498 -19.199  1.00  0.00     0.244 C 
HETATM   22  O2  UNL     1     -30.283  14.321 -19.716  1.00  0.00    -0.271 OA
HETATM   23  N2  UNL     1     -28.153  13.900 -18.979  1.00  0.00    -0.339 N 
HETATM   24  C11 UNL     1     -27.229  13.797 -19.878  1.00  0.00     0.059 C 
ATOM     25  H2  UNL     1     -27.905  14.289 -18.069  1.00  0.00     0.167 HD
HETATM   26  C12 UNL     1     -27.520  13.243 -21.212  1.00  0.00     0.055 C 
ENDBRANCH   3  21
TORSDOF 10
ENDMDL
MODEL 4
REMARK VINA RESULT: -5.902622374      2.364      3.093
REMARK  10 active torsions:
REMARK  status: ('A' for Active; 'I' for Inactive)
REMARK    1  A    between atoms: C2_2  and  C3_3 
REMARK    2  A    between atoms: C3_3  and  C4_4 
REMARK    3  A    between atoms: C4_4  and  C5_5 
REMARK    4  A    between atoms: C5_5  and  N1_6 
REMARK       I    between atoms: N1_6  and  C6_8 
REMARK    5  A    between atoms: C6_8  and  C7_10 
REMARK    6  A    between atoms: C9_12  and  C10_13 
REMARK       I    between atoms: C10_13  and  N2_15 
REMARK    7  A    between atoms: N3_19  and  C13_20 
REMARK    8  A    between atoms: C13_20  and  N4_22 
REMARK    9  A    between atoms: N4_22  and  C14_24 
REMARK   10  A    between atoms: C14_24  and  C15_25 
ROOT
HETATM    1  C7  UNL     1     -34.576  13.646 -20.246  1.00  0.00     0.182 C 
HETATM    2  C8  UNL     1     -35.955  13.956 -19.699  1.00  0.00     0.070 C 
HETATM    3  C9  UNL     1     -35.625  15.339 -20.103  1.00  0.00     0.182 C 
HETATM    4  N3  UNL     1     -34.215  14.990 -20.038  1.00  0.00    -0.331 N 
ENDROOT
BRANCH   1   5
HETATM    5  C6  UNL     1     -33.999  12.592 -19.349  1.00  0.00     0.244 C 
HETATM    6  N1  UNL     1     -33.478  11.449 -19.945  1.00  0.00    -0.339 N 
ATOM      7  H1  UNL     1     -33.539  11.483 -20.962  1.00  0.00     0.167 HD
HETATM    8  O1  UNL     1     -34.014  12.791 -18.140  1.00  0.00    -0.271 OA
BRANCH   6   9
HETATM    9  C5  UNL     1     -32.886  10.257 -19.489  1.00  0.00     0.064 C 
BRANCH   9  10
HETATM   10  C4  UNL     1     -31.440  10.244 -19.292  1.00  0.00     0.048 C 
BRANCH  10  11
HETATM   11  C3  UNL     1     -30.875   9.909 -17.985  1.00  0.00     0.031 C 
BRANCH  11  12
HETATM   12  C2  UNL     1     -31.427  10.724 -16.889  1.00  0.00    -0.037 C 
HETATM   13  C1  UNL     1     -31.973  10.257 -15.794  1.00  0.00     0.007 C 
ENDBRANCH  11  12
ENDBRANCH  10  11
ENDBRANCH   9  10
ENDBRANCH   6   9
ENDBRANCH   1   5
BRANCH   4  14
HETATM   14  C13 UNL     1     -33.093  15.872 -19.863  1.00  0.00     0.171 C 
HETATM   15  S1  UNL     1     -33.270  17.350 -19.139  1.00  0.00    -0.041 SA
BRANCH  14  16
HETATM   16  N4  UNL     1     -31.772  15.552 -20.273  1.00  0.00    -0.366 N 
ATOM     17  H4  UNL     1     -31.236  16.299 -20.713  1.00  0.00     0.161 HD
BRANCH  16  18
HETATM   18  C14 UNL     1     -31.121  14.296 -20.132  1.00  0.00     0.133 C 
BRANCH  18  19
HETATM   19  C15 UNL     1     -30.676  13.911 -18.770  1.00  0.00     0.104 C 
HETATM   20 BR1  UNL     1     -28.897  13.188 -18.723  1.00  0.00    -0.095 Br
ENDBRANCH  18  19
ENDBRANCH  16  18
ENDBRANCH  14  16
ENDBRANCH   4  14
BRANCH   3  21
HETATM   21  C10 UNL     1     -36.072  15.624 -21.503  1.00  0.00     0.244 C 
HETATM   22  O2  UNL     1     -35.276  16.196 -22.285  1.00  0.00    -0.271 OA
HETATM   23  N2  UNL     1     -37.355  15.275 -21.986  1.00  0.00    -0.339 N 
HETATM   24  C11 UNL     1     -38.360  16.089 -21.963  1.00  0.00     0.059 C 
ATOM     25  H2  UNL     1     -37.494  14.340 -22.369  1.00  0.00     0.167 HD
HETATM   26  C12 UNL     1     -38.228  17.453 -21.423  1.00  0.00     0.055 C 
ENDBRANCH   3  21
TORSDOF 10
ENDMDL
MODEL 5
REMARK VINA RESULT: -5.870669542      2.696      3.580
REMARK  10 active torsions:
REMARK  status: ('A' for Active; 'I' for Inactive)
REMARK    1  A    between atoms: C2_2  and  C3_3 
REMARK    2  A    between atoms: C3_3  and  C4_4 
REMARK    3  A    between atoms: C4_4  and  C5_5 
REMARK    4  A    between atoms: C5_5  and  N1_6 
REMARK       I    between atoms: N1_6  and  C6_8 
REMARK    5  A    between atoms: C6_8  and  C7_10 
REMARK    6  A    between atoms: C9_12  and  C10_13 
REMARK       I    between atoms: C10_13  and  N2_15 
REMARK    7  A    between atoms: N3_19  and  C13_20 
REMARK    8  A    between atoms: C13_20  and  N4_22 
REMARK    9  A    between atoms: N4_22  and  C14_24 
REMARK   10  A    between atoms: C14_24  and  C15_25 
ROOT
HETATM    1  C7  UNL     1     -32.319  14.626 -18.650  1.00  0.00     0.182 C 
HETATM    2  C8  UNL     1     -31.708  15.322 -19.849  1.00  0.00     0.070 C 
HETATM    3  C9  UNL     1     -33.076  15.220 -20.400  1.00  0.00     0.182 C 
HETATM    4  N3  UNL     1     -33.329  14.117 -19.488  1.00  0.00    -0.331 N 
ENDROOT
BRANCH   1   5
HETATM    5  C6  UNL     1     -31.269  13.691 -18.129  1.00  0.00     0.244 C 
HETATM    6  N1  UNL     1     -31.449  13.159 -16.858  1.00  0.00    -0.339 N 
ATOM      7  H1  UNL     1     -32.321  13.470 -16.430  1.00  0.00     0.167 HD
HETATM    8  O1  UNL     1     -30.308  13.444 -18.848  1.00  0.00    -0.271 OA
BRANCH   6   9
HETATM    9  C5  UNL     1     -30.723  12.297 -16.016  1.00  0.00     0.064 C 
BRANCH   9  10
HETATM   10  C4  UNL     1     -31.429  11.165 -15.424  1.00  0.00     0.048 C 
BRANCH  10  11
HETATM   11  C3  UNL     1     -31.799  11.183 -14.009  1.00  0.00     0.031 C 
BRANCH  11  12
HETATM   12  C2  UNL     1     -31.309  12.374 -13.297  1.00  0.00    -0.037 C 
HETATM   13  C1  UNL     1     -32.015  13.119 -12.483  1.00  0.00     0.007 C 
ENDBRANCH  11  12
ENDBRANCH  10  11
ENDBRANCH   9  10
ENDBRANCH   6   9
ENDBRANCH   1   5
BRANCH   4  14
HETATM   14  C13 UNL     1     -34.312  13.076 -19.612  1.00  0.00     0.171 C 
HETATM   15  S1  UNL     1     -35.926  13.394 -19.422  1.00  0.00    -0.041 SA
BRANCH  14  16
HETATM   16  N4  UNL     1     -33.992  11.726 -19.914  1.00  0.00    -0.366 N 
ATOM     17  H4  UNL     1     -34.329  11.364 -20.806  1.00  0.00     0.161 HD
BRANCH  16  18
HETATM   18  C14 UNL     1     -33.250  10.827 -19.100  1.00  0.00     0.133 C 
BRANCH  18  19
HETATM   19  C15 UNL     1     -32.292   9.925 -19.785  1.00  0.00     0.104 C 
HETATM   20 BR1  UNL     1     -30.577   9.838 -18.926  1.00  0.00    -0.095 Br
ENDBRANCH  18  19
ENDBRANCH  16  18
ENDBRANCH  14  16
ENDBRANCH   4  14
BRANCH   3  21
HETATM   21  C10 UNL     1     -33.894  16.429 -20.064  1.00  0.00     0.244 C 
HETATM   22  O2  UNL     1     -35.024  16.557 -20.592  1.00  0.00    -0.271 OA
HETATM   23  N2  UNL     1     -33.448  17.436 -19.177  1.00  0.00    -0.339 N 
HETATM   24  C11 UNL     1     -32.831  18.501 -19.573  1.00  0.00     0.059 C 
ATOM     25  H2  UNL     1     -33.621  17.316 -18.178  1.00  0.00     0.167 HD
HETATM   26  C12 UNL     1     -32.549  18.734 -21.000  1.00  0.00     0.055 C 
ENDBRANCH   3  21
TORSDOF 10
ENDMDL
