MODEL 1
REMARK VINA RESULT: -6.085761044      0.000      0.000
REMARK  9 active torsions:
REMARK  status: ('A' for Active; 'I' for Inactive)
REMARK    1  A    between atoms: C3_3  and  C4_4 
REMARK       I    between atoms: C4_4  and  N1_6 
REMARK    2  A    between atoms: N1_6  and  C5_8 
REMARK    3  A    between atoms: C5_8  and  C6_9 
REMARK    4  A    between atoms: C6_9  and  C8_11 
REMARK    5  A    between atoms: C6_9  and  N4_21 
REMARK    6  A    between atoms: C8_11  and  N2_12 
REMARK       I    between atoms: N2_12  and  C9_14 
REMARK    7  A    between atoms: C9_14  and  C10_16 
REMARK    8  A    between atoms: C10_16  and  N3_17 
REMARK       I    between atoms: N4_21  and  C14_23 
REMARK    9  A    between atoms: C14_23  and  C15_25 
ROOT
HETATM    1  C1  UNL     1     -31.396  11.459 -12.521  1.00  0.00     0.112 C 
HETATM    2  C2  UNL     1     -31.502  11.251 -13.965  1.00  0.00    -0.101 C 
HETATM    3  C3  UNL     1     -31.603  11.070 -15.154  1.00  0.00    -0.006 C 
ENDROOT
BRANCH   3   4
HETATM    4  C4  UNL     1     -31.710  10.875 -16.593  1.00  0.00     0.296 C 
HETATM    5  O1  UNL     1     -31.081   9.943 -17.132  1.00  0.00    -0.258 OA
HETATM    6  N1  UNL     1     -32.519  11.733 -17.378  1.00  0.00    -0.348 N 
ATOM      7  H1  UNL     1     -33.034  12.495 -16.938  1.00  0.00     0.163 HD
BRANCH   6   8
HETATM    8  C5  UNL     1     -32.611  11.525 -18.786  1.00  0.00     0.156 C 
BRANCH   8   9
HETATM    9  C6  UNL     1     -32.277  12.913 -19.459  1.00  0.00     0.061 C 
HETATM   10  C7  UNL     1     -32.967  13.029 -20.768  1.00  0.00     0.042 C 
BRANCH   9  11
HETATM   11  C8  UNL     1     -32.663  13.885 -18.417  1.00  0.00     0.154 C 
BRANCH  11  12
HETATM   12  N2  UNL     1     -32.527  15.256 -18.768  1.00  0.00    -0.357 N 
HETATM   13  C9  UNL     1     -33.671  16.146 -18.739  1.00  0.00     0.243 C 
HETATM   14  O2  UNL     1     -34.783  15.713 -18.407  1.00  0.00    -0.272 OA
ATOM     15  H2  UNL     1     -31.614  15.618 -19.043  1.00  0.00     0.162 HD
BRANCH  13  16
HETATM   16  C10 UNL     1     -33.495  17.552 -19.107  1.00  0.00     0.338 C 
BRANCH  16  17
HETATM   17  N3  UNL     1     -34.029  17.788 -20.423  1.00  0.00    -0.070 N 
HETATM   18  C11 UNL     1     -33.531  19.081 -20.873  1.00  0.00     0.272 C 
HETATM   19  C12 UNL     1     -33.632  16.727 -21.300  1.00  0.00     0.272 C 
HETATM   20  C13 UNL     1     -35.495  17.846 -20.377  1.00  0.00     0.272 C 
ENDBRANCH  16  17
ENDBRANCH  13  16
ENDBRANCH  11  12
ENDBRANCH   9  11
BRANCH   9  21
HETATM   21  N4  UNL     1     -30.850  12.773 -19.694  1.00  0.00    -0.348 N 
HETATM   22  C14 UNL     1     -29.764  13.074 -18.907  1.00  0.00     0.228 C 
HETATM   23  O3  UNL     1     -29.778  13.563 -17.780  1.00  0.00    -0.273 OA
ATOM     24  H4  UNL     1     -30.612  12.381 -20.605  1.00  0.00     0.163 HD
BRANCH  22  25
HETATM   25  C15 UNL     1     -28.376  12.789 -19.446  1.00  0.00     0.187 C 
HETATM   26 BR1  UNL     1     -27.325  14.387 -19.592  1.00  0.00    -0.087 Br
ENDBRANCH  22  25
ENDBRANCH   9  21
ENDBRANCH   8   9
ENDBRANCH   6   8
ENDBRANCH   3   4
TORSDOF 9
ENDMDL
MODEL 2
REMARK VINA RESULT: -5.972965731      1.546      2.051
REMARK  9 active torsions:
REMARK  status: ('A' for Active; 'I' for Inactive)
REMARK    1  A    between atoms: C3_3  and  C4_4 
REMARK       I    between atoms: C4_4  and  N1_6 
REMARK    2  A    between atoms: N1_6  and  C5_8 
REMARK    3  A    between atoms: C5_8  and  C6_9 
REMARK    4  A    between atoms: C6_9  and  C8_11 
REMARK    5  A    between atoms: C6_9  and  N4_21 
REMARK    6  A    between atoms: C8_11  and  N2_12 
REMARK       I    between atoms: N2_12  and  C9_14 
REMARK    7  A    between atoms: C9_14  and  C10_16 
REMARK    8  A    between atoms: C10_16  and  N3_17 
REMARK       I    between atoms: N4_21  and  C14_23 
REMARK    9  A    between atoms: C14_23  and  C15_25 
ROOT
HETATM    1  C1  UNL     1     -32.048  13.308 -11.709  1.00  0.00     0.112 C 
HETATM    2  C2  UNL     1     -31.879  12.496 -12.915  1.00  0.00    -0.101 C 
HETATM    3  C3  UNL     1     -31.751  11.835 -13.916  1.00  0.00    -0.006 C 
ENDROOT
BRANCH   3   4
HETATM    4  C4  UNL     1     -31.571  11.030 -15.117  1.00  0.00     0.296 C 
HETATM    5  O1  UNL     1     -31.871   9.821 -15.093  1.00  0.00    -0.258 OA
HETATM    6  N1  UNL     1     -31.061  11.613 -16.303  1.00  0.00    -0.348 N 
ATOM      7  H1  UNL     1     -30.816  12.602 -16.323  1.00  0.00     0.163 HD
BRANCH   6   8
HETATM    8  C5  UNL     1     -30.892  10.809 -17.469  1.00  0.00     0.156 C 
BRANCH   8   9
HETATM    9  C6  UNL     1     -31.451  11.658 -18.676  1.00  0.00     0.061 C 
HETATM   10  C7  UNL     1     -32.263  10.802 -19.576  1.00  0.00     0.042 C 
BRANCH   9  11
HETATM   11  C8  UNL     1     -32.154  12.766 -18.000  1.00  0.00     0.154 C 
BRANCH  11  12
HETATM   12  N2  UNL     1     -33.242  13.338 -18.716  1.00  0.00    -0.357 N 
HETATM   13  C9  UNL     1     -33.015  14.361 -19.716  1.00  0.00     0.243 C 
HETATM   14  O2  UNL     1     -31.862  14.748 -19.956  1.00  0.00    -0.272 OA
ATOM     15  H2  UNL     1     -34.193  13.024 -18.522  1.00  0.00     0.162 HD
BRANCH  13  16
HETATM   16  C10 UNL     1     -34.158  14.929 -20.434  1.00  0.00     0.338 C 
BRANCH  16  17
HETATM   17  N3  UNL     1     -34.634  16.105 -19.753  1.00  0.00    -0.070 N 
HETATM   18  C11 UNL     1     -34.713  17.179 -20.733  1.00  0.00     0.272 C 
HETATM   19  C12 UNL     1     -35.907  15.832 -19.154  1.00  0.00     0.272 C 
HETATM   20  C13 UNL     1     -33.688  16.504 -18.702  1.00  0.00     0.272 C 
ENDBRANCH  16  17
ENDBRANCH  13  16
ENDBRANCH  11  12
ENDBRANCH   9  11
BRANCH   9  21
HETATM   21  N4  UNL     1     -30.219  12.017 -19.358  1.00  0.00    -0.348 N 
HETATM   22  C14 UNL     1     -29.194  12.861 -19.005  1.00  0.00     0.228 C 
HETATM   23  O3  UNL     1     -29.109  13.535 -17.980  1.00  0.00    -0.273 OA
ATOM     24  H4  UNL     1     -30.093  11.559 -20.262  1.00  0.00     0.163 HD
BRANCH  22  25
HETATM   25  C15 UNL     1     -28.016  13.009 -19.948  1.00  0.00     0.187 C 
HETATM   26 BR1  UNL     1     -26.526  13.868 -19.099  1.00  0.00    -0.087 Br
ENDBRANCH  22  25
ENDBRANCH   9  21
ENDBRANCH   8   9
ENDBRANCH   6   8
ENDBRANCH   3   4
TORSDOF 9
ENDMDL
MODEL 3
REMARK VINA RESULT: -5.928006351      2.234      3.062
REMARK  9 active torsions:
REMARK  status: ('A' for Active; 'I' for Inactive)
REMARK    1  A    between atoms: C3_3  and  C4_4 
REMARK       I    between atoms: C4_4  and  N1_6 
REMARK    2  A    between atoms: N1_6  and  C5_8 
REMARK    3  A    between atoms: C5_8  and  C6_9 
REMARK    4  A    between atoms: C6_9  and  C8_11 
REMARK    5  A    between atoms: C6_9  and  N4_21 
REMARK    6  A    between atoms: C8_11  and  N2_12 
REMARK       I    between atoms: N2_12  and  C9_14 
REMARK    7  A    between atoms: C9_14  and  C10_16 
REMARK    8  A    between atoms: C10_16  and  N3_17 
REMARK       I    between atoms: N4_21  and  C14_23 
REMARK    9  A    between atoms: C14_23  and  C15_25 
ROOT
HETATM    1  C1  UNL     1     -31.329  12.034 -10.922  1.00  0.00     0.112 C 
HETATM    2  C2  UNL     1     -31.247  12.480 -12.314  1.00  0.00    -0.101 C 
HETATM    3  C3  UNL     1     -31.192  12.839 -13.464  1.00  0.00    -0.006 C 
ENDROOT
BRANCH   3   4
HETATM    4  C4  UNL     1     -31.111  13.293 -14.846  1.00  0.00     0.296 C 
HETATM    5  O1  UNL     1     -30.813  14.480 -15.082  1.00  0.00    -0.258 OA
HETATM    6  N1  UNL     1     -31.367  12.399 -15.914  1.00  0.00    -0.348 N 
ATOM      7  H1  UNL     1     -31.610  11.428 -15.721  1.00  0.00     0.163 HD
BRANCH   6   8
HETATM    8  C5  UNL     1     -31.283  12.863 -17.259  1.00  0.00     0.156 C 
BRANCH   8   9
HETATM    9  C6  UNL     1     -30.754  11.646 -18.114  1.00  0.00     0.061 C 
HETATM   10  C7  UNL     1     -30.472  10.484 -17.236  1.00  0.00     0.042 C 
BRANCH   9  11
HETATM   11  C8  UNL     1     -31.814  11.472 -19.127  1.00  0.00     0.154 C 
BRANCH  11  12
HETATM   12  N2  UNL     1     -33.022  12.183 -18.888  1.00  0.00    -0.357 N 
HETATM   13  C9  UNL     1     -33.650  12.952 -19.944  1.00  0.00     0.243 C 
HETATM   14  O2  UNL     1     -33.135  12.996 -21.069  1.00  0.00    -0.272 OA
ATOM     15  H2  UNL     1     -33.451  12.151 -17.963  1.00  0.00     0.162 HD
BRANCH  13  16
HETATM   16  C10 UNL     1     -34.894  13.673 -19.662  1.00  0.00     0.338 C 
BRANCH  16  17
HETATM   17  N3  UNL     1     -34.634  15.086 -19.568  1.00  0.00    -0.070 N 
HETATM   18  C11 UNL     1     -35.873  15.734 -19.159  1.00  0.00     0.272 C 
HETATM   19  C12 UNL     1     -33.574  15.318 -18.632  1.00  0.00     0.272 C 
HETATM   20  C13 UNL     1     -34.241  15.622 -20.877  1.00  0.00     0.272 C 
ENDBRANCH  16  17
ENDBRANCH  13  16
ENDBRANCH  11  12
ENDBRANCH   9  11
BRANCH   9  21
HETATM   21  N4  UNL     1     -29.494  12.177 -18.606  1.00  0.00    -0.348 N 
HETATM   22  C14 UNL     1     -28.380  12.638 -17.946  1.00  0.00     0.228 C 
HETATM   23  O3  UNL     1     -28.215  12.708 -16.730  1.00  0.00    -0.273 OA
ATOM     24  H4  UNL     1     -29.424  12.214 -19.623  1.00  0.00     0.163 HD
BRANCH  22  25
HETATM   25  C15 UNL     1     -27.199  13.120 -18.765  1.00  0.00     0.187 C 
HETATM   26 BR1  UNL     1     -25.576  13.123 -17.742  1.00  0.00    -0.087 Br
ENDBRANCH  22  25
ENDBRANCH   9  21
ENDBRANCH   8   9
ENDBRANCH   6   8
ENDBRANCH   3   4
TORSDOF 9
ENDMDL
MODEL 4
REMARK VINA RESULT: -5.871717576      2.249      3.249
REMARK  9 active torsions:
REMARK  status: ('A' for Active; 'I' for Inactive)
REMARK    1  A    between atoms: C3_3  and  C4_4 
REMARK       I    between atoms: C4_4  and  N1_6 
REMARK    2  A    between atoms: N1_6  and  C5_8 
REMARK    3  A    between atoms: C5_8  and  C6_9 
REMARK    4  A    between atoms: C6_9  and  C8_11 
REMARK    5  A    between atoms: C6_9  and  N4_21 
REMARK    6  A    between atoms: C8_11  and  N2_12 
REMARK       I    between atoms: N2_12  and  C9_14 
REMARK    7  A    between atoms: C9_14  and  C10_16 
REMARK    8  A    between atoms: C10_16  and  N3_17 
REMARK       I    between atoms: N4_21  and  C14_23 
REMARK    9  A    between atoms: C14_23  and  C15_25 
ROOT
HETATM    1  C1  UNL     1     -31.478  12.062 -10.967  1.00  0.00     0.112 C 
HETATM    2  C2  UNL     1     -31.298  12.497 -12.353  1.00  0.00    -0.101 C 
HETATM    3  C3  UNL     1     -31.144  12.842 -13.498  1.00  0.00    -0.006 C 
ENDROOT
BRANCH   3   4
HETATM    4  C4  UNL     1     -30.977  13.278 -14.878  1.00  0.00     0.296 C 
HETATM    5  O1  UNL     1     -30.857  14.493 -15.125  1.00  0.00    -0.258 OA
HETATM    6  N1  UNL     1     -30.950  12.332 -15.933  1.00  0.00    -0.348 N 
ATOM      7  H1  UNL     1     -31.048  11.338 -15.731  1.00  0.00     0.163 HD
BRANCH   6   8
HETATM    8  C5  UNL     1     -30.786  12.778 -17.277  1.00  0.00     0.156 C 
BRANCH   8   9
HETATM    9  C6  UNL     1     -30.137  11.575 -18.066  1.00  0.00     0.061 C 
HETATM   10  C7  UNL     1     -29.918  10.422 -17.157  1.00  0.00     0.042 C 
BRANCH   9  11
HETATM   11  C8  UNL     1     -31.078  11.369 -19.184  1.00  0.00     0.154 C 
BRANCH  11  12
HETATM   12  N2  UNL     1     -31.611  12.550 -19.770  1.00  0.00    -0.357 N 
HETATM   13  C9  UNL     1     -33.010  12.628 -20.139  1.00  0.00     0.243 C 
HETATM   14  O2  UNL     1     -33.757  11.658 -19.947  1.00  0.00    -0.272 OA
ATOM     15  H2  UNL     1     -31.002  13.352 -19.931  1.00  0.00     0.162 HD
BRANCH  13  16
HETATM   16  C10 UNL     1     -33.526  13.860 -20.741  1.00  0.00     0.338 C 
BRANCH  16  17
HETATM   17  N3  UNL     1     -34.220  14.640 -19.749  1.00  0.00    -0.070 N 
HETATM   18  C11 UNL     1     -34.608  15.898 -20.371  1.00  0.00     0.272 C 
HETATM   19  C12 UNL     1     -35.354  13.908 -19.268  1.00  0.00     0.272 C 
HETATM   20  C13 UNL     1     -33.330  14.937 -18.618  1.00  0.00     0.272 C 
ENDBRANCH  16  17
ENDBRANCH  13  16
ENDBRANCH  11  12
ENDBRANCH   9  11
BRANCH   9  21
HETATM   21  N4  UNL     1     -28.847  12.139 -18.423  1.00  0.00    -0.348 N 
HETATM   22  C14 UNL     1     -27.801  12.586 -17.651  1.00  0.00     0.228 C 
HETATM   23  O3  UNL     1     -27.744  12.609 -16.424  1.00  0.00    -0.273 OA
ATOM     24  H4  UNL     1     -28.689  12.218 -19.429  1.00  0.00     0.163 HD
BRANCH  22  25
HETATM   25  C15 UNL     1     -26.560  13.114 -18.343  1.00  0.00     0.187 C 
HETATM   26 BR1  UNL     1     -26.989  14.437 -19.664  1.00  0.00    -0.087 Br
ENDBRANCH  22  25
ENDBRANCH   9  21
ENDBRANCH   8   9
ENDBRANCH   6   8
ENDBRANCH   3   4
TORSDOF 9
ENDMDL
MODEL 5
REMARK VINA RESULT: -5.856670116      3.419      4.696
REMARK  9 active torsions:
REMARK  status: ('A' for Active; 'I' for Inactive)
REMARK    1  A    between atoms: C3_3  and  C4_4 
REMARK       I    between atoms: C4_4  and  N1_6 
REMARK    2  A    between atoms: N1_6  and  C5_8 
REMARK    3  A    between atoms: C5_8  and  C6_9 
REMARK    4  A    between atoms: C6_9  and  C8_11 
REMARK    5  A    between atoms: C6_9  and  N4_21 
REMARK    6  A    between atoms: C8_11  and  N2_12 
REMARK       I    between atoms: N2_12  and  C9_14 
REMARK    7  A    between atoms: C9_14  and  C10_16 
REMARK    8  A    between atoms: C10_16  and  N3_17 
REMARK       I    between atoms: N4_21  and  C14_23 
REMARK    9  A    between atoms: C14_23  and  C15_25 
ROOT
HETATM    1  C1  UNL     1     -31.911  10.401 -15.028  1.00  0.00     0.112 C 
HETATM    2  C2  UNL     1     -32.369  10.873 -16.336  1.00  0.00    -0.101 C 
HETATM    3  C3  UNL     1     -32.744  11.248 -17.419  1.00  0.00    -0.006 C 
ENDROOT
BRANCH   3   4
HETATM    4  C4  UNL     1     -33.210  11.720 -18.716  1.00  0.00     0.296 C 
HETATM    5  O1  UNL     1     -33.613  10.895 -19.558  1.00  0.00    -0.258 OA
HETATM    6  N1  UNL     1     -33.208  13.104 -19.021  1.00  0.00    -0.348 N 
ATOM      7  H1  UNL     1     -32.878  13.779 -18.332  1.00  0.00     0.163 HD
BRANCH   6   8
HETATM    8  C5  UNL     1     -33.668  13.546 -20.296  1.00  0.00     0.156 C 
BRANCH   8   9
HETATM    9  C6  UNL     1     -34.780  14.631 -20.012  1.00  0.00     0.061 C 
HETATM   10  C7  UNL     1     -35.944  14.008 -19.336  1.00  0.00     0.042 C 
BRANCH   9  11
HETATM   11  C8  UNL     1     -34.045  15.663 -19.254  1.00  0.00     0.154 C 
BRANCH  11  12
HETATM   12  N2  UNL     1     -33.077  16.400 -19.990  1.00  0.00    -0.357 N 
HETATM   13  C9  UNL     1     -32.861  17.809 -19.727  1.00  0.00     0.243 C 
HETATM   14  O2  UNL     1     -33.524  18.384 -18.853  1.00  0.00    -0.272 OA
ATOM     15  H2  UNL     1     -32.528  15.932 -20.711  1.00  0.00     0.162 HD
BRANCH  13  16
HETATM   16  C10 UNL     1     -31.855  18.537 -20.504  1.00  0.00     0.338 C 
BRANCH  16  17
HETATM   17  N3  UNL     1     -32.495  19.305 -21.541  1.00  0.00    -0.070 N 
HETATM   18  C11 UNL     1     -33.177  20.422 -20.903  1.00  0.00     0.272 C 
HETATM   19  C12 UNL     1     -31.514  19.746 -22.488  1.00  0.00     0.272 C 
HETATM   20  C13 UNL     1     -33.497  18.487 -22.238  1.00  0.00     0.272 C 
ENDBRANCH  16  17
ENDBRANCH  13  16
ENDBRANCH  11  12
ENDBRANCH   9  11
BRANCH   9  21
HETATM   21  N4  UNL     1     -35.164  14.996 -21.365  1.00  0.00    -0.348 N 
HETATM   22  C14 UNL     1     -36.086  15.900 -21.838  1.00  0.00     0.228 C 
HETATM   23  O3  UNL     1     -36.825  16.622 -21.172  1.00  0.00    -0.273 OA
ATOM     24  H4  UNL     1     -34.660  14.491 -22.094  1.00  0.00     0.163 HD
BRANCH  22  25
HETATM   25  C15 UNL     1     -36.241  16.061 -23.337  1.00  0.00     0.187 C 
HETATM   26 BR1  UNL     1     -37.636  17.302 -23.779  1.00  0.00    -0.087 Br
ENDBRANCH  22  25
ENDBRANCH   9  21
ENDBRANCH   8   9
ENDBRANCH   6   8
ENDBRANCH   3   4
TORSDOF 9
ENDMDL
