MODEL 1
REMARK VINA RESULT: -6.693822644      0.000      0.000
REMARK  9 active torsions:
REMARK  status: ('A' for Active; 'I' for Inactive)
REMARK    1  A    between atoms: C2_2  and  N1_4 
REMARK       I    between atoms: N1_4  and  C4_6 
REMARK    2  A    between atoms: C4_6  and  C5_8 
REMARK    3  A    between atoms: C6_9  and  N2_10 
REMARK       I    between atoms: N2_10  and  C7_12 
REMARK    4  A    between atoms: C7_12  and  C8_14 
REMARK    5  A    between atoms: C8_14  and  N3_15 
REMARK       I    between atoms: N4_19  and  C12_20 
REMARK    6  A    between atoms: C12_20  and  C13_22 
REMARK    7  A    between atoms: C13_22  and  C14_23 
REMARK    8  A    between atoms: C14_23  and  C15_24 
REMARK    9  A    between atoms: C15_24  and  C16_25 
ROOT
HETATM    1  N3  UNL     1     -34.071  14.264 -18.922  1.00  0.00    -0.374 NA
HETATM    2  C9  UNL     1     -33.732  15.370 -18.916  1.00  0.00     0.012 C 
HETATM    3  C10 UNL     1     -33.317  16.783 -18.916  1.00  0.00     0.140 C 
ENDROOT
BRANCH   1   4
HETATM    4  C8  UNL     1     -34.482  12.924 -18.922  1.00  0.00     0.267 C 
BRANCH   4   5
HETATM    5  C7  UNL     1     -33.322  11.999 -18.840  1.00  0.00     0.271 C 
HETATM    6  N2  UNL     1     -32.789  11.702 -17.564  1.00  0.00    -0.347 N 
ATOM      7  H2  UNL     1     -33.186  12.110 -16.718  1.00  0.00     0.163 HD
HETATM    8  O2  UNL     1     -32.852  11.508 -19.903  1.00  0.00    -0.266 OA
BRANCH   6   9
HETATM    9  C6  UNL     1     -31.668  10.804 -17.502  1.00  0.00     0.135 C 
HETATM   10  C5  UNL     1     -30.358  11.360 -17.101  1.00  0.00     0.203 C 
HETATM   11  N4  UNL     1     -30.909  11.591 -15.811  1.00  0.00    -0.335 N 
HETATM   12  C11 UNL     1     -31.586  10.276 -16.045  1.00  0.00     0.154 C 
HETATM   13  C12 UNL     1     -31.009  12.451 -14.715  1.00  0.00     0.220 C 
HETATM   14  O3  UNL     1     -30.446  13.571 -14.663  1.00  0.00    -0.273 OA
BRANCH  10  15
HETATM   15  C4  UNL     1     -29.715  12.425 -17.867  1.00  0.00     0.247 C 
HETATM   16  N1  UNL     1     -28.472  12.196 -18.468  1.00  0.00    -0.330 N 
ATOM     17  H1  UNL     1     -28.082  11.263 -18.336  1.00  0.00     0.168 HD
HETATM   18  O1  UNL     1     -30.247  13.559 -18.014  1.00  0.00    -0.271 OA
BRANCH  16  19
HETATM   19  C2  UNL     1     -27.696  13.078 -19.225  1.00  0.00    -0.001 C 
HETATM   20  C1  UNL     1     -26.740  13.840 -18.766  1.00  0.00     0.037 C 
HETATM   21  C3  UNL     1     -27.950  13.201 -20.730  1.00  0.00     0.067 C 
ENDBRANCH  16  19
ENDBRANCH  10  15
BRANCH  13  22
HETATM   22  C13 UNL     1     -31.811  12.076 -13.518  1.00  0.00     0.103 C 
BRANCH  22  23
HETATM   23  C14 UNL     1     -31.869  13.148 -12.483  1.00  0.00     0.010 C 
BRANCH  23  24
HETATM   24  C15 UNL     1     -31.489  12.693 -11.101  1.00  0.00     0.011 C 
BRANCH  24  25
HETATM   25  C16 UNL     1     -29.971  12.453 -11.086  1.00  0.00     0.085 C 
HETATM   26 BR1  UNL     1     -29.082  14.139 -10.813  1.00  0.00    -0.097 Br
ENDBRANCH  24  25
ENDBRANCH  23  24
ENDBRANCH  22  23
ENDBRANCH  13  22
ENDBRANCH   6   9
ENDBRANCH   4   5
ENDBRANCH   1   4
TORSDOF 9
ENDMDL
MODEL 2
REMARK VINA RESULT: -6.604569241      1.973      2.640
REMARK  9 active torsions:
REMARK  status: ('A' for Active; 'I' for Inactive)
REMARK    1  A    between atoms: C2_2  and  N1_4 
REMARK       I    between atoms: N1_4  and  C4_6 
REMARK    2  A    between atoms: C4_6  and  C5_8 
REMARK    3  A    between atoms: C6_9  and  N2_10 
REMARK       I    between atoms: N2_10  and  C7_12 
REMARK    4  A    between atoms: C7_12  and  C8_14 
REMARK    5  A    between atoms: C8_14  and  N3_15 
REMARK       I    between atoms: N4_19  and  C12_20 
REMARK    6  A    between atoms: C12_20  and  C13_22 
REMARK    7  A    between atoms: C13_22  and  C14_23 
REMARK    8  A    between atoms: C14_23  and  C15_24 
REMARK    9  A    between atoms: C15_24  and  C16_25 
ROOT
HETATM    1  N3  UNL     1     -35.552  16.200 -19.440  1.00  0.00    -0.374 NA
HETATM    2  C9  UNL     1     -36.403  16.777 -19.971  1.00  0.00     0.012 C 
HETATM    3  C10 UNL     1     -37.496  17.510 -20.631  1.00  0.00     0.140 C 
ENDROOT
BRANCH   1   4
HETATM    4  C8  UNL     1     -34.518  15.507 -18.797  1.00  0.00     0.267 C 
BRANCH   4   5
HETATM    5  C7  UNL     1     -34.072  14.333 -19.592  1.00  0.00     0.271 C 
HETATM    6  N2  UNL     1     -33.569  13.206 -18.900  1.00  0.00    -0.347 N 
ATOM      7  H2  UNL     1     -33.511  13.194 -17.882  1.00  0.00     0.163 HD
HETATM    8  O2  UNL     1     -34.155  14.377 -20.850  1.00  0.00    -0.266 OA
BRANCH   6   9
HETATM    9  C6  UNL     1     -33.143  12.079 -19.684  1.00  0.00     0.135 C 
HETATM   10  C5  UNL     1     -31.728  11.663 -19.586  1.00  0.00     0.203 C 
HETATM   11  N4  UNL     1     -31.984  11.290 -18.238  1.00  0.00    -0.335 N 
HETATM   12  C11 UNL     1     -33.294  10.819 -18.790  1.00  0.00     0.154 C 
HETATM   13  C12 UNL     1     -31.526  11.270 -16.919  1.00  0.00     0.220 C 
HETATM   14  O3  UNL     1     -30.431  11.765 -16.561  1.00  0.00    -0.273 OA
BRANCH  10  15
HETATM   15  C4  UNL     1     -30.640  12.572 -19.941  1.00  0.00     0.247 C 
HETATM   16  N1  UNL     1     -29.338  12.299 -19.509  1.00  0.00    -0.330 N 
ATOM     17  H1  UNL     1     -29.222  11.447 -18.960  1.00  0.00     0.168 HD
HETATM   18  O1  UNL     1     -30.832  13.607 -20.636  1.00  0.00    -0.271 OA
BRANCH  16  19
HETATM   19  C2  UNL     1     -28.174  13.041 -19.732  1.00  0.00    -0.001 C 
HETATM   20  C1  UNL     1     -27.443  13.609 -18.811  1.00  0.00     0.037 C 
HETATM   21  C3  UNL     1     -27.669  13.236 -21.165  1.00  0.00     0.067 C 
ENDBRANCH  16  19
ENDBRANCH  10  15
BRANCH  13  22
HETATM   22  C13 UNL     1     -32.336  10.646 -15.836  1.00  0.00     0.103 C 
BRANCH  22  23
HETATM   23  C14 UNL     1     -31.638  10.608 -14.519  1.00  0.00     0.010 C 
BRANCH  23  24
HETATM   24  C15 UNL     1     -31.959  11.768 -13.617  1.00  0.00     0.011 C 
BRANCH  24  25
HETATM   25  C16 UNL     1     -31.218  11.550 -12.288  1.00  0.00     0.085 C 
HETATM   26 BR1  UNL     1     -31.658  12.993 -11.093  1.00  0.00    -0.097 Br
ENDBRANCH  24  25
ENDBRANCH  23  24
ENDBRANCH  22  23
ENDBRANCH  13  22
ENDBRANCH   6   9
ENDBRANCH   4   5
ENDBRANCH   1   4
TORSDOF 9
ENDMDL
MODEL 3
REMARK VINA RESULT: -6.530056871      1.725      2.555
REMARK  9 active torsions:
REMARK  status: ('A' for Active; 'I' for Inactive)
REMARK    1  A    between atoms: C2_2  and  N1_4 
REMARK       I    between atoms: N1_4  and  C4_6 
REMARK    2  A    between atoms: C4_6  and  C5_8 
REMARK    3  A    between atoms: C6_9  and  N2_10 
REMARK       I    between atoms: N2_10  and  C7_12 
REMARK    4  A    between atoms: C7_12  and  C8_14 
REMARK    5  A    between atoms: C8_14  and  N3_15 
REMARK       I    between atoms: N4_19  and  C12_20 
REMARK    6  A    between atoms: C12_20  and  C13_22 
REMARK    7  A    between atoms: C13_22  and  C14_23 
REMARK    8  A    between atoms: C14_23  and  C15_24 
REMARK    9  A    between atoms: C15_24  and  C16_25 
ROOT
HETATM    1  N3  UNL     1     -34.039  16.676 -19.057  1.00  0.00    -0.374 NA
HETATM    2  C9  UNL     1     -33.444  17.642 -19.285  1.00  0.00     0.012 C 
HETATM    3  C10 UNL     1     -32.677  18.862 -19.587  1.00  0.00     0.140 C 
ENDROOT
BRANCH   1   4
HETATM    4  C8  UNL     1     -34.765  15.509 -18.783  1.00  0.00     0.267 C 
BRANCH   4   5
HETATM    5  C7  UNL     1     -34.289  14.366 -19.606  1.00  0.00     0.271 C 
HETATM    6  N2  UNL     1     -33.718  13.254 -18.943  1.00  0.00    -0.347 N 
ATOM      7  H2  UNL     1     -33.632  13.232 -17.927  1.00  0.00     0.163 HD
HETATM    8  O2  UNL     1     -34.407  14.421 -20.860  1.00  0.00    -0.266 OA
BRANCH   6   9
HETATM    9  C6  UNL     1     -33.264  12.157 -19.753  1.00  0.00     0.135 C 
HETATM   10  C5  UNL     1     -31.837  11.778 -19.668  1.00  0.00     0.203 C 
HETATM   11  N4  UNL     1     -32.079  11.369 -18.328  1.00  0.00    -0.335 N 
HETATM   12  C11 UNL     1     -33.377  10.874 -18.887  1.00  0.00     0.154 C 
HETATM   13  C12 UNL     1     -31.616  11.332 -17.011  1.00  0.00     0.220 C 
HETATM   14  O3  UNL     1     -30.533  11.849 -16.646  1.00  0.00    -0.273 OA
BRANCH  10  15
HETATM   15  C4  UNL     1     -30.776  12.725 -20.005  1.00  0.00     0.247 C 
HETATM   16  N1  UNL     1     -29.449  12.428 -19.676  1.00  0.00    -0.330 N 
ATOM     17  H1  UNL     1     -29.298  11.533 -19.210  1.00  0.00     0.168 HD
HETATM   18  O1  UNL     1     -31.013  13.814 -20.596  1.00  0.00    -0.271 OA
BRANCH  16  19
HETATM   19  C2  UNL     1     -28.304  13.197 -19.900  1.00  0.00    -0.001 C 
HETATM   20  C1  UNL     1     -27.706  13.952 -19.018  1.00  0.00     0.037 C 
HETATM   21  C3  UNL     1     -27.654  13.191 -21.287  1.00  0.00     0.067 C 
ENDBRANCH  16  19
ENDBRANCH  10  15
BRANCH  13  22
HETATM   22  C13 UNL     1     -32.404  10.661 -15.941  1.00  0.00     0.103 C 
BRANCH  22  23
HETATM   23  C14 UNL     1     -31.677  10.561 -14.642  1.00  0.00     0.010 C 
BRANCH  23  24
HETATM   24  C15 UNL     1     -31.920  11.715 -13.709  1.00  0.00     0.011 C 
BRANCH  24  25
HETATM   25  C16 UNL     1     -31.183  11.419 -12.393  1.00  0.00     0.085 C 
HETATM   26 BR1  UNL     1     -31.586  12.815 -11.132  1.00  0.00    -0.097 Br
ENDBRANCH  24  25
ENDBRANCH  23  24
ENDBRANCH  22  23
ENDBRANCH  13  22
ENDBRANCH   6   9
ENDBRANCH   4   5
ENDBRANCH   1   4
TORSDOF 9
ENDMDL
MODEL 4
REMARK VINA RESULT: -6.375612503      1.633      1.836
REMARK  9 active torsions:
REMARK  status: ('A' for Active; 'I' for Inactive)
REMARK    1  A    between atoms: C2_2  and  N1_4 
REMARK       I    between atoms: N1_4  and  C4_6 
REMARK    2  A    between atoms: C4_6  and  C5_8 
REMARK    3  A    between atoms: C6_9  and  N2_10 
REMARK       I    between atoms: N2_10  and  C7_12 
REMARK    4  A    between atoms: C7_12  and  C8_14 
REMARK    5  A    between atoms: C8_14  and  N3_15 
REMARK       I    between atoms: N4_19  and  C12_20 
REMARK    6  A    between atoms: C12_20  and  C13_22 
REMARK    7  A    between atoms: C13_22  and  C14_23 
REMARK    8  A    between atoms: C14_23  and  C15_24 
REMARK    9  A    between atoms: C15_24  and  C16_25 
ROOT
HETATM    1  N3  UNL     1     -35.402  14.875 -20.205  1.00  0.00    -0.374 NA
HETATM    2  C9  UNL     1     -36.191  15.099 -21.023  1.00  0.00     0.012 C 
HETATM    3  C10 UNL     1     -37.181  15.382 -22.075  1.00  0.00     0.140 C 
ENDROOT
BRANCH   1   4
HETATM    4  C8  UNL     1     -34.450  14.599 -19.215  1.00  0.00     0.267 C 
BRANCH   4   5
HETATM    5  C7  UNL     1     -33.601  13.437 -19.584  1.00  0.00     0.271 C 
HETATM    6  N2  UNL     1     -32.963  12.715 -18.548  1.00  0.00    -0.347 N 
ATOM      7  H2  UNL     1     -33.079  12.981 -17.571  1.00  0.00     0.163 HD
HETATM    8  O2  UNL     1     -33.475  13.131 -20.802  1.00  0.00    -0.266 OA
BRANCH   6   9
HETATM    9  C6  UNL     1     -32.145  11.594 -18.923  1.00  0.00     0.135 C 
HETATM   10  C5  UNL     1     -30.709  11.638 -18.576  1.00  0.00     0.203 C 
HETATM   11  N4  UNL     1     -31.090  11.569 -17.208  1.00  0.00    -0.335 N 
HETATM   12  C11 UNL     1     -32.129  10.618 -17.716  1.00  0.00     0.154 C 
HETATM   13  C12 UNL     1     -30.871  12.020 -15.905  1.00  0.00     0.220 C 
HETATM   14  O3  UNL     1     -30.008  12.882 -15.609  1.00  0.00    -0.273 OA
BRANCH  10  15
HETATM   15  C4  UNL     1     -29.835  12.696 -19.081  1.00  0.00     0.247 C 
HETATM   16  N1  UNL     1     -28.499  12.410 -19.380  1.00  0.00    -0.330 N 
ATOM     17  H1  UNL     1     -28.209  11.443 -19.231  1.00  0.00     0.168 HD
HETATM   18  O1  UNL     1     -30.247  13.874 -19.263  1.00  0.00    -0.271 OA
BRANCH  16  19
HETATM   19  C2  UNL     1     -27.511  13.274 -19.858  1.00  0.00    -0.001 C 
HETATM   20  C1  UNL     1     -26.725  14.015 -19.124  1.00  0.00     0.037 C 
HETATM   21  C3  UNL     1     -27.289  13.402 -21.368  1.00  0.00     0.067 C 
ENDBRANCH  16  19
ENDBRANCH  10  15
BRANCH  13  22
HETATM   22  C13 UNL     1     -31.672  11.492 -14.766  1.00  0.00     0.103 C 
BRANCH  22  23
HETATM   23  C14 UNL     1     -31.552  12.311 -13.525  1.00  0.00     0.010 C 
BRANCH  23  24
HETATM   24  C15 UNL     1     -31.196  11.521 -12.297  1.00  0.00     0.011 C 
BRANCH  24  25
HETATM   25  C16 UNL     1     -31.213  12.483 -11.098  1.00  0.00     0.085 C 
HETATM   26 BR1  UNL     1     -29.651  13.604 -11.184  1.00  0.00    -0.097 Br
ENDBRANCH  24  25
ENDBRANCH  23  24
ENDBRANCH  22  23
ENDBRANCH  13  22
ENDBRANCH   6   9
ENDBRANCH   4   5
ENDBRANCH   1   4
TORSDOF 9
ENDMDL
MODEL 5
REMARK VINA RESULT: -6.270347918      0.936      1.016
REMARK  9 active torsions:
REMARK  status: ('A' for Active; 'I' for Inactive)
REMARK    1  A    between atoms: C2_2  and  N1_4 
REMARK       I    between atoms: N1_4  and  C4_6 
REMARK    2  A    between atoms: C4_6  and  C5_8 
REMARK    3  A    between atoms: C6_9  and  N2_10 
REMARK       I    between atoms: N2_10  and  C7_12 
REMARK    4  A    between atoms: C7_12  and  C8_14 
REMARK    5  A    between atoms: C8_14  and  N3_15 
REMARK       I    between atoms: N4_19  and  C12_20 
REMARK    6  A    between atoms: C12_20  and  C13_22 
REMARK    7  A    between atoms: C13_22  and  C14_23 
REMARK    8  A    between atoms: C14_23  and  C15_24 
REMARK    9  A    between atoms: C15_24  and  C16_25 
ROOT
HETATM    1  N3  UNL     1     -34.084  15.094 -19.271  1.00  0.00    -0.374 NA
HETATM    2  C9  UNL     1     -33.633  16.156 -19.361  1.00  0.00     0.012 C 
HETATM    3  C10 UNL     1     -33.076  17.515 -19.472  1.00  0.00     0.140 C 
ENDROOT
BRANCH   1   4
HETATM    4  C8  UNL     1     -34.626  13.807 -19.156  1.00  0.00     0.267 C 
BRANCH   4   5
HETATM    5  C7  UNL     1     -33.605  12.760 -19.421  1.00  0.00     0.271 C 
HETATM    6  N2  UNL     1     -32.931  12.186 -18.318  1.00  0.00    -0.347 N 
ATOM      7  H2  UNL     1     -33.135  12.480 -17.362  1.00  0.00     0.163 HD
HETATM    8  O2  UNL     1     -33.373  12.416 -20.612  1.00  0.00    -0.266 OA
BRANCH   6   9
HETATM    9  C6  UNL     1     -31.947  11.174 -18.590  1.00  0.00     0.135 C 
HETATM   10  C5  UNL     1     -30.540  11.465 -18.242  1.00  0.00     0.203 C 
HETATM   11  N4  UNL     1     -30.930  11.454 -16.875  1.00  0.00    -0.335 N 
HETATM   12  C11 UNL     1     -31.805  10.317 -17.305  1.00  0.00     0.154 C 
HETATM   13  C12 UNL     1     -30.804  12.041 -15.615  1.00  0.00     0.220 C 
HETATM   14  O3  UNL     1     -30.087  13.045 -15.390  1.00  0.00    -0.273 OA
BRANCH  10  15
HETATM   15  C4  UNL     1     -29.827  12.596 -18.832  1.00  0.00     0.247 C 
HETATM   16  N1  UNL     1     -28.533  12.418 -19.333  1.00  0.00    -0.330 N 
ATOM     17  H1  UNL     1     -28.157  11.472 -19.261  1.00  0.00     0.168 HD
HETATM   18  O1  UNL     1     -30.342  13.745 -18.911  1.00  0.00    -0.271 OA
BRANCH  16  19
HETATM   19  C2  UNL     1     -27.689  13.365 -19.919  1.00  0.00    -0.001 C 
HETATM   20  C1  UNL     1     -27.042  14.306 -19.286  1.00  0.00     0.037 C 
HETATM   21  C3  UNL     1     -27.469  13.341 -21.435  1.00  0.00     0.067 C 
ENDBRANCH  16  19
ENDBRANCH  10  15
BRANCH  13  22
HETATM   22  C13 UNL     1     -31.537  11.495 -14.439  1.00  0.00     0.103 C 
BRANCH  22  23
HETATM   23  C14 UNL     1     -31.576  12.431 -13.277  1.00  0.00     0.010 C 
BRANCH  23  24
HETATM   24  C15 UNL     1     -31.191  11.803 -11.967  1.00  0.00     0.011 C 
BRANCH  24  25
HETATM   25  C16 UNL     1     -31.121  12.920 -10.913  1.00  0.00     0.085 C 
HETATM   26 BR1  UNL     1     -29.401  13.775 -11.033  1.00  0.00    -0.097 Br
ENDBRANCH  24  25
ENDBRANCH  23  24
ENDBRANCH  22  23
ENDBRANCH  13  22
ENDBRANCH   6   9
ENDBRANCH   4   5
ENDBRANCH   1   4
TORSDOF 9
ENDMDL
