MODEL 1
REMARK VINA RESULT: -7.347790618      0.000      0.000
REMARK  6 active torsions:
REMARK  status: ('A' for Active; 'I' for Inactive)
REMARK    1  A    between atoms: C3_3  and  N1_4 
REMARK    2  A    between atoms: C6_7  and  C7_8 
REMARK    3  A    between atoms: C7_8  and  C8_9 
REMARK    4  A    between atoms: C7_8  and  N2_12 
REMARK    5  A    between atoms: C8_9  and  O1_10 
REMARK    6  A    between atoms: C14_20  and  N3_21 
ROOT
HETATM    1  C1  UNL     1     -23.504   9.607  -8.679  1.00  0.00     0.054 C 
HETATM    2  C2  UNL     1     -24.533  10.508  -8.076  1.00  0.00     0.010 A 
HETATM    3  C3  UNL     1     -25.489  11.171  -8.816  1.00  0.00     0.068 A 
HETATM    4  C13 UNL     1     -26.326  12.044  -8.110  1.00  0.00     0.105 A 
HETATM    5 CL1  UNL     1     -27.587  12.885  -8.945  1.00  0.00    -0.078 Cl
HETATM    6  C14 UNL     1     -26.222  12.251  -6.746  1.00  0.00     0.130 A 
HETATM    7  N5  UNL     1     -25.270  11.571  -6.098  1.00  0.00    -0.327 N 
ATOM      8  H5  UNL     1     -25.178  11.709  -5.091  1.00  0.00     0.169 HD
HETATM    9  C20 UNL     1     -24.436  10.722  -6.696  1.00  0.00     0.108 A 
HETATM   10  N6  UNL     1     -23.519  10.075  -6.030  1.00  0.00    -0.385 N 
ATOM     11  H61 UNL     1     -23.448  10.230  -5.024  1.00  0.00     0.157 HD
ATOM     12  H62 UNL     1     -22.881   9.425  -6.487  1.00  0.00     0.157 HD
ENDROOT
BRANCH   3  13
HETATM   13  N1  UNL     1     -25.709  10.917 -10.198  1.00  0.00    -0.348 N 
HETATM   14  C4  UNL     1     -26.376   9.674 -10.623  1.00  0.00     0.126 C 
HETATM   15  C5  UNL     1     -27.245  10.113 -11.850  1.00  0.00     0.027 C 
HETATM   16  C6  UNL     1     -26.322  10.243 -13.038  1.00  0.00     0.016 C 
HETATM   17  C11 UNL     1     -25.056  10.835 -12.531  1.00  0.00     0.066 C 
HETATM   18  C12 UNL     1     -25.239  11.732 -11.294  1.00  0.00     0.272 C 
HETATM   19  F1  UNL     1     -23.947  12.166 -10.997  1.00  0.00    -0.227 F 
BRANCH  16  20
HETATM   20  C7  UNL     1     -26.936  10.905 -14.208  1.00  0.00     0.106 C 
BRANCH  20  21
HETATM   21  C8  UNL     1     -26.874  10.043 -15.478  1.00  0.00     0.189 C 
BRANCH  21  22
HETATM   22  O1  UNL     1     -25.669  10.362 -16.156  1.00  0.00    -0.399 OA
ATOM     23  H1  UNL     1     -24.972  10.371 -15.512  1.00  0.00     0.209 HD
ENDBRANCH  21  22
ENDBRANCH  20  21
BRANCH  20  24
HETATM   24  N2  UNL     1     -28.275  11.354 -14.108  1.00  0.00    -0.414 N 
HETATM   25  C9  UNL     1     -29.253  10.801 -14.975  1.00  0.00     0.143 C 
HETATM   26  C10 UNL     1     -28.398  12.795 -13.975  1.00  0.00     0.143 C 
ENDBRANCH  20  24
ENDBRANCH  16  20
ENDBRANCH   3  13
BRANCH   6  27
HETATM   27  N3  UNL     1     -27.103  13.163  -6.135  1.00  0.00    -0.353 N 
HETATM   28  C15 UNL     1     -28.323  13.229  -5.360  1.00  0.00     0.114 C 
HETATM   29  C16 UNL     1     -27.953  13.346  -3.916  1.00  0.00     0.257 C 
HETATM   30  C19 UNL     1     -28.569  14.605  -5.986  1.00  0.00     0.054 C 
HETATM   31  N4  UNL     1     -27.377  14.650  -3.631  1.00  0.00    -0.071 N 
HETATM   32  C17 UNL     1     -26.513  15.063  -4.696  1.00  0.00     0.257 C 
ATOM     33  H42 UNL     1     -28.095  15.347  -3.434  1.00  0.00     0.277 HD
ATOM     34  H41 UNL     1     -26.899  14.664  -2.730  1.00  0.00     0.277 HD
HETATM   35  C18 UNL     1     -27.056  14.632  -6.055  1.00  0.00     0.114 C 
ENDBRANCH   6  27
TORSDOF 6
ENDMDL
MODEL 2
REMARK VINA RESULT: -7.295717168      2.048      2.646
REMARK  6 active torsions:
REMARK  status: ('A' for Active; 'I' for Inactive)
REMARK    1  A    between atoms: C3_3  and  N1_4 
REMARK    2  A    between atoms: C6_7  and  C7_8 
REMARK    3  A    between atoms: C7_8  and  C8_9 
REMARK    4  A    between atoms: C7_8  and  N2_12 
REMARK    5  A    between atoms: C8_9  and  O1_10 
REMARK    6  A    between atoms: C14_20  and  N3_21 
ROOT
HETATM    1  C1  UNL     1     -23.593   9.882 -11.282  1.00  0.00     0.054 C 
HETATM    2  C2  UNL     1     -24.579  10.505 -10.347  1.00  0.00     0.010 A 
HETATM    3  C3  UNL     1     -25.820  10.957 -10.742  1.00  0.00     0.068 A 
HETATM    4  C13 UNL     1     -26.591  11.593  -9.761  1.00  0.00     0.105 A 
HETATM    5 CL1  UNL     1     -28.182  12.152 -10.150  1.00  0.00    -0.078 Cl
HETATM    6  C14 UNL     1     -26.157  11.774  -8.460  1.00  0.00     0.130 A 
HETATM    7  N5  UNL     1     -24.941  11.306  -8.153  1.00  0.00    -0.327 N 
ATOM      8  H5  UNL     1     -24.604  11.429  -7.198  1.00  0.00     0.169 HD
HETATM    9  C20 UNL     1     -24.148  10.690  -9.027  1.00  0.00     0.108 A 
HETATM   10  N6  UNL     1     -22.968  10.247  -8.691  1.00  0.00    -0.385 N 
ATOM     11  H61 UNL     1     -22.654  10.381  -7.730  1.00  0.00     0.157 HD
ATOM     12  H62 UNL     1     -22.361   9.774  -9.360  1.00  0.00     0.157 HD
ENDROOT
BRANCH   3  13
HETATM   13  N1  UNL     1     -26.358  10.705 -12.035  1.00  0.00    -0.348 N 
HETATM   14  C4  UNL     1     -26.360  11.770 -13.053  1.00  0.00     0.126 C 
HETATM   15  C5  UNL     1     -26.082  11.010 -14.394  1.00  0.00     0.027 C 
HETATM   16  C6  UNL     1     -27.372  10.348 -14.816  1.00  0.00     0.016 C 
HETATM   17  C11 UNL     1     -28.020   9.846 -13.576  1.00  0.00     0.066 C 
HETATM   18  C12 UNL     1     -27.028   9.496 -12.453  1.00  0.00     0.272 C 
HETATM   19  F1  UNL     1     -27.842   9.060 -11.406  1.00  0.00    -0.227 F 
BRANCH  16  20
HETATM   20  C7  UNL     1     -27.217   9.374 -15.917  1.00  0.00     0.106 C 
BRANCH  20  21
HETATM   21  C8  UNL     1     -28.058   8.106 -15.712  1.00  0.00     0.189 C 
BRANCH  21  22
HETATM   22  O1  UNL     1     -27.185   6.991 -15.803  1.00  0.00    -0.399 OA
ATOM     23  H1  UNL     1     -27.439   6.371 -15.130  1.00  0.00     0.209 HD
ENDBRANCH  21  22
ENDBRANCH  20  21
BRANCH  20  24
HETATM   24  N2  UNL     1     -27.477   9.802 -17.241  1.00  0.00    -0.414 N 
HETATM   25  C9  UNL     1     -26.400  10.265 -18.040  1.00  0.00     0.143 C 
HETATM   26  C10 UNL     1     -28.660  10.637 -17.362  1.00  0.00     0.143 C 
ENDBRANCH  20  24
ENDBRANCH  16  20
ENDBRANCH   3  13
BRANCH   6  27
HETATM   27  N3  UNL     1     -27.003  12.441  -7.554  1.00  0.00    -0.353 N 
HETATM   28  C15 UNL     1     -27.992  12.201  -6.526  1.00  0.00     0.114 C 
HETATM   29  C16 UNL     1     -27.309  12.261  -5.198  1.00  0.00     0.257 C 
HETATM   30  C19 UNL     1     -28.610  13.552  -6.897  1.00  0.00     0.054 C 
HETATM   31  N4  UNL     1     -26.908  13.622  -4.880  1.00  0.00    -0.071 N 
HETATM   32  C17 UNL     1     -26.410  14.286  -6.048  1.00  0.00     0.257 C 
ATOM     33  H42 UNL     1     -27.663  14.147  -4.440  1.00  0.00     0.277 HD
ATOM     34  H41 UNL     1     -26.236  13.650  -4.114  1.00  0.00     0.277 HD
HETATM   35  C18 UNL     1     -27.186  13.878  -7.297  1.00  0.00     0.114 C 
ENDBRANCH   6  27
TORSDOF 6
ENDMDL
MODEL 3
REMARK VINA RESULT: -7.261631432      1.629      2.112
REMARK  6 active torsions:
REMARK  status: ('A' for Active; 'I' for Inactive)
REMARK    1  A    between atoms: C3_3  and  N1_4 
REMARK    2  A    between atoms: C6_7  and  C7_8 
REMARK    3  A    between atoms: C7_8  and  C8_9 
REMARK    4  A    between atoms: C7_8  and  N2_12 
REMARK    5  A    between atoms: C8_9  and  O1_10 
REMARK    6  A    between atoms: C14_20  and  N3_21 
ROOT
HETATM    1  C1  UNL     1     -23.895   9.597 -10.107  1.00  0.00     0.054 C 
HETATM    2  C2  UNL     1     -24.837  10.443  -9.311  1.00  0.00     0.010 A 
HETATM    3  C3  UNL     1     -25.892  11.133  -9.866  1.00  0.00     0.068 A 
HETATM    4  C13 UNL     1     -26.628  11.948  -8.996  1.00  0.00     0.105 A 
HETATM    5 CL1  UNL     1     -28.000  12.818  -9.591  1.00  0.00    -0.078 Cl
HETATM    6  C14 UNL     1     -26.333  12.073  -7.649  1.00  0.00     0.130 A 
HETATM    7  N5  UNL     1     -25.294  11.370  -7.186  1.00  0.00    -0.327 N 
ATOM      8  H5  UNL     1     -25.063  11.448  -6.195  1.00  0.00     0.169 HD
HETATM    9  C20 UNL     1     -24.547  10.573  -7.947  1.00  0.00     0.108 A 
HETATM   10  N6  UNL     1     -23.541   9.902  -7.458  1.00  0.00    -0.385 N 
ATOM     11  H61 UNL     1     -23.329   9.996  -6.465  1.00  0.00     0.157 HD
ATOM     12  H62 UNL     1     -22.968   9.291  -8.041  1.00  0.00     0.157 HD
ENDROOT
BRANCH   3  13
HETATM   13  N1  UNL     1     -26.303  10.961 -11.217  1.00  0.00    -0.348 N 
HETATM   14  C4  UNL     1     -26.117  12.053 -12.189  1.00  0.00     0.126 C 
HETATM   15  C5  UNL     1     -25.751  11.313 -13.520  1.00  0.00     0.027 C 
HETATM   16  C6  UNL     1     -27.031  10.763 -14.101  1.00  0.00     0.016 C 
HETATM   17  C11 UNL     1     -27.845  10.276 -12.957  1.00  0.00     0.066 C 
HETATM   18  C12 UNL     1     -27.009   9.819 -11.748  1.00  0.00     0.272 C 
HETATM   19  F1  UNL     1     -27.962   9.415 -10.812  1.00  0.00    -0.227 F 
BRANCH  16  20
HETATM   20  C7  UNL     1     -26.828   9.813 -15.216  1.00  0.00     0.106 C 
BRANCH  20  21
HETATM   21  C8  UNL     1     -27.632   8.516 -15.044  1.00  0.00     0.189 C 
BRANCH  21  22
HETATM   22  O1  UNL     1     -26.714   7.434 -15.072  1.00  0.00    -0.399 OA
ATOM     23  H1  UNL     1     -26.884   6.894 -14.310  1.00  0.00     0.209 HD
ENDBRANCH  21  22
ENDBRANCH  20  21
BRANCH  20  24
HETATM   24  N2  UNL     1     -27.081  10.254 -16.537  1.00  0.00    -0.414 N 
HETATM   25  C9  UNL     1     -28.348   9.994 -17.120  1.00  0.00     0.143 C 
HETATM   26  C10 UNL     1     -25.983  10.004 -17.455  1.00  0.00     0.143 C 
ENDBRANCH  20  24
ENDBRANCH  16  20
ENDBRANCH   3  13
BRANCH   6  27
HETATM   27  N3  UNL     1     -27.126  12.932  -6.864  1.00  0.00    -0.353 N 
HETATM   28  C15 UNL     1     -28.309  12.952  -6.031  1.00  0.00     0.114 C 
HETATM   29  C16 UNL     1     -27.879  12.818  -4.606  1.00  0.00     0.257 C 
HETATM   30  C19 UNL     1     -28.483  14.421  -6.427  1.00  0.00     0.054 C 
HETATM   31  N4  UNL     1     -27.203  14.023  -4.152  1.00  0.00    -0.071 N 
HETATM   32  C17 UNL     1     -26.353  14.544  -5.182  1.00  0.00     0.257 C 
ATOM     33  H42 UNL     1     -27.864  14.725  -3.817  1.00  0.00     0.277 HD
ATOM     34  H41 UNL     1     -26.693  13.867  -3.283  1.00  0.00     0.277 HD
HETATM   35  C18 UNL     1     -26.975  14.364  -6.564  1.00  0.00     0.114 C 
ENDBRANCH   6  27
TORSDOF 6
ENDMDL
MODEL 4
REMARK VINA RESULT: -7.255773423      2.282      2.777
REMARK  6 active torsions:
REMARK  status: ('A' for Active; 'I' for Inactive)
REMARK    1  A    between atoms: C3_3  and  N1_4 
REMARK    2  A    between atoms: C6_7  and  C7_8 
REMARK    3  A    between atoms: C7_8  and  C8_9 
REMARK    4  A    between atoms: C7_8  and  N2_12 
REMARK    5  A    between atoms: C8_9  and  O1_10 
REMARK    6  A    between atoms: C14_20  and  N3_21 
ROOT
HETATM    1  C1  UNL     1     -23.705   9.109  -8.287  1.00  0.00     0.054 C 
HETATM    2  C2  UNL     1     -24.661  10.137  -7.774  1.00  0.00     0.010 A 
HETATM    3  C3  UNL     1     -25.758  10.576  -8.484  1.00  0.00     0.068 A 
HETATM    4  C13 UNL     1     -26.506  11.605  -7.899  1.00  0.00     0.105 A 
HETATM    5 CL1  UNL     1     -27.927  12.191  -8.693  1.00  0.00    -0.078 Cl
HETATM    6  C14 UNL     1     -26.185  12.170  -6.677  1.00  0.00     0.130 A 
HETATM    7  N5  UNL     1     -25.107  11.689  -6.048  1.00  0.00    -0.327 N 
ATOM      8  H5  UNL     1     -24.855  12.091  -5.145  1.00  0.00     0.169 HD
HETATM    9  C20 UNL     1     -24.345  10.712  -6.537  1.00  0.00     0.108 A 
HETATM   10  N6  UNL     1     -23.300  10.268  -5.894  1.00  0.00    -0.385 N 
ATOM     11  H61 UNL     1     -23.069  10.686  -4.993  1.00  0.00     0.157 HD
ATOM     12  H62 UNL     1     -22.717   9.520  -6.268  1.00  0.00     0.157 HD
ENDROOT
BRANCH   3  13
HETATM   13  N1  UNL     1     -26.193   9.962  -9.691  1.00  0.00    -0.348 N 
HETATM   14  C4  UNL     1     -25.829  10.551 -10.992  1.00  0.00     0.126 C 
HETATM   15  C5  UNL     1     -25.593   9.308 -11.915  1.00  0.00     0.027 C 
HETATM   16  C6  UNL     1     -26.948   8.781 -12.323  1.00  0.00     0.016 C 
HETATM   17  C11 UNL     1     -27.830   8.906 -11.133  1.00  0.00     0.066 C 
HETATM   18  C12 UNL     1     -27.081   8.827  -9.792  1.00  0.00     0.272 C 
HETATM   19  F1  UNL     1     -28.087   8.969  -8.834  1.00  0.00    -0.227 F 
BRANCH  16  20
HETATM   20  C7  UNL     1     -26.908   7.456 -12.977  1.00  0.00     0.106 C 
BRANCH  20  21
HETATM   21  C8  UNL     1     -27.836   6.433 -12.304  1.00  0.00     0.189 C 
BRANCH  21  22
HETATM   22  O1  UNL     1     -27.025   5.555 -11.540  1.00  0.00    -0.399 OA
ATOM     23  H1  UNL     1     -27.599   5.057 -10.970  1.00  0.00     0.209 HD
ENDBRANCH  21  22
ENDBRANCH  20  21
BRANCH  20  24
HETATM   24  N2  UNL     1     -27.183   7.375 -14.363  1.00  0.00    -0.414 N 
HETATM   25  C9  UNL     1     -27.387   8.573 -15.095  1.00  0.00     0.143 C 
HETATM   26  C10 UNL     1     -28.142   6.340 -14.708  1.00  0.00     0.143 C 
ENDBRANCH  20  24
ENDBRANCH  16  20
ENDBRANCH   3  13
BRANCH   6  27
HETATM   27  N3  UNL     1     -26.994  13.211  -6.183  1.00  0.00    -0.353 N 
HETATM   28  C15 UNL     1     -28.165  13.462  -5.372  1.00  0.00     0.114 C 
HETATM   29  C16 UNL     1     -27.712  13.795  -3.987  1.00  0.00     0.257 C 
HETATM   30  C19 UNL     1     -28.391  14.726  -6.206  1.00  0.00     0.054 C 
HETATM   31  N4  UNL     1     -27.069  15.099  -3.951  1.00  0.00    -0.071 N 
HETATM   32  C17 UNL     1     -26.250  15.290  -5.111  1.00  0.00     0.257 C 
ATOM     33  H42 UNL     1     -27.747  15.853  -3.838  1.00  0.00     0.277 HD
ATOM     34  H41 UNL     1     -26.542  15.238  -3.089  1.00  0.00     0.277 HD
HETATM   35  C18 UNL     1     -26.884  14.669  -6.351  1.00  0.00     0.114 C 
ENDBRANCH   6  27
TORSDOF 6
ENDMDL
MODEL 5
REMARK VINA RESULT: -7.244753036      3.235      4.336
REMARK  6 active torsions:
REMARK  status: ('A' for Active; 'I' for Inactive)
REMARK    1  A    between atoms: C3_3  and  N1_4 
REMARK    2  A    between atoms: C6_7  and  C7_8 
REMARK    3  A    between atoms: C7_8  and  C8_9 
REMARK    4  A    between atoms: C7_8  and  N2_12 
REMARK    5  A    between atoms: C8_9  and  O1_10 
REMARK    6  A    between atoms: C14_20  and  N3_21 
ROOT
HETATM    1  C1  UNL     1     -27.822  11.736 -12.697  1.00  0.00     0.054 C 
HETATM    2  C2  UNL     1     -27.605  11.876 -11.225  1.00  0.00     0.010 A 
HETATM    3  C3  UNL     1     -27.680  10.821 -10.342  1.00  0.00     0.068 A 
HETATM    4  C13 UNL     1     -27.537  11.134  -8.985  1.00  0.00     0.105 A 
HETATM    5 CL1  UNL     1     -27.569   9.869  -7.805  1.00  0.00    -0.078 Cl
HETATM    6  C14 UNL     1     -27.331  12.423  -8.526  1.00  0.00     0.130 A 
HETATM    7  N5  UNL     1     -27.269  13.393  -9.444  1.00  0.00    -0.327 N 
ATOM      8  H5  UNL     1     -27.116  14.351  -9.125  1.00  0.00     0.169 HD
HETATM    9  C20 UNL     1     -27.395  13.178 -10.753  1.00  0.00     0.108 A 
HETATM   10  N6  UNL     1     -27.327  14.150 -11.619  1.00  0.00    -0.385 N 
ATOM     11  H61 UNL     1     -27.174  15.098 -11.275  1.00  0.00     0.157 HD
ATOM     12  H62 UNL     1     -27.424  13.986 -12.621  1.00  0.00     0.157 HD
ENDROOT
BRANCH   3  13
HETATM   13  N1  UNL     1     -27.784   9.466 -10.765  1.00  0.00    -0.348 N 
HETATM   14  C4  UNL     1     -29.090   8.785 -10.742  1.00  0.00     0.126 C 
HETATM   15  C5  UNL     1     -29.060   7.868 -12.011  1.00  0.00     0.027 C 
HETATM   16  C6  UNL     1     -28.215   6.661 -11.679  1.00  0.00     0.016 C 
HETATM   17  C11 UNL     1     -27.080   7.149 -10.853  1.00  0.00     0.066 C 
HETATM   18  C12 UNL     1     -26.684   8.608 -11.138  1.00  0.00     0.272 C 
HETATM   19  F1  UNL     1     -25.623   8.848 -10.263  1.00  0.00    -0.227 F 
BRANCH  16  20
HETATM   20  C7  UNL     1     -27.866   5.829 -12.851  1.00  0.00     0.106 C 
BRANCH  20  21
HETATM   21  C8  UNL     1     -28.478   4.422 -12.783  1.00  0.00     0.189 C 
BRANCH  21  22
HETATM   22  O1  UNL     1     -27.810   3.712 -11.753  1.00  0.00    -0.399 OA
ATOM     23  H1  UNL     1     -27.167   3.147 -12.165  1.00  0.00     0.209 HD
ENDBRANCH  21  22
ENDBRANCH  20  21
BRANCH  20  24
HETATM   24  N2  UNL     1     -28.165   6.321 -14.144  1.00  0.00    -0.414 N 
HETATM   25  C9  UNL     1     -28.609   5.414 -15.140  1.00  0.00     0.143 C 
HETATM   26  C10 UNL     1     -27.184   7.267 -14.649  1.00  0.00     0.143 C 
ENDBRANCH  20  24
ENDBRANCH  16  20
ENDBRANCH   3  13
BRANCH   6  27
HETATM   27  N3  UNL     1     -27.215  12.633  -7.139  1.00  0.00    -0.353 N 
HETATM   28  C15 UNL     1     -26.258  12.600  -6.054  1.00  0.00     0.114 C 
HETATM   29  C16 UNL     1     -25.760  13.991  -5.827  1.00  0.00     0.257 C 
HETATM   30  C19 UNL     1     -27.427  12.266  -5.121  1.00  0.00     0.054 C 
HETATM   31  N4  UNL     1     -26.800  14.828  -5.251  1.00  0.00    -0.071 N 
HETATM   32  C17 UNL     1     -28.070  14.538  -5.847  1.00  0.00     0.257 C 
ATOM     33  H42 UNL     1     -26.832  14.745  -4.234  1.00  0.00     0.277 HD
ATOM     34  H41 UNL     1     -26.568  15.819  -5.317  1.00  0.00     0.277 HD
HETATM   35  C18 UNL     1     -28.219  13.049  -6.147  1.00  0.00     0.114 C 
ENDBRANCH   6  27
TORSDOF 6
ENDMDL
