MODEL 1
REMARK VINA RESULT: -8.526152904      0.000      0.000
REMARK  6 active torsions:
REMARK  status: ('A' for Active; 'I' for Inactive)
REMARK    1  A    between atoms: N1_1  and  C1_4 
REMARK    2  A    between atoms: C2_7  and  N3_8 
REMARK    3  A    between atoms: N4_11  and  C5_12 
REMARK    4  A    between atoms: C5_12  and  C6_13 
REMARK    5  A    between atoms: C6_13  and  N5_14 
REMARK       I    between atoms: N5_14  and  C7_16 
REMARK    6  A    between atoms: C7_16  and  C8_18 
ROOT
HETATM    1  C1  UNL     1     -24.524  11.016  -9.516  1.00  0.00     0.127 A 
HETATM    2  N2  UNL     1     -24.801  11.366  -8.250  1.00  0.00    -0.176 N 
ATOM      3  H2  UNL     1     -24.179  11.040  -7.510  1.00  0.00     0.186 HD
HETATM    4  C2  UNL     1     -25.869  12.134  -7.904  1.00  0.00     0.682 A 
HETATM    5  N6  UNL     1     -26.672  12.549  -8.898  1.00  0.00    -0.191 N 
ATOM      6  H6  UNL     1     -27.483  13.125  -8.674  1.00  0.00     0.184 HD
HETATM    7  C14 UNL     1     -26.432  12.221 -10.197  1.00  0.00     0.065 A 
HETATM    8  C15 UNL     1     -27.266  12.665 -11.225  1.00  0.00     0.056 A 
HETATM    9  C16 UNL     1     -26.980  12.313 -12.530  1.00  0.00     0.058 A 
HETATM   10 CL1  UNL     1     -27.990  12.842 -13.863  1.00  0.00    -0.082 Cl
HETATM   11  C17 UNL     1     -25.893  11.536 -12.850  1.00  0.00     0.056 A 
HETATM   12 CL2  UNL     1     -25.517  11.094 -14.500  1.00  0.00    -0.083 Cl
HETATM   13  C18 UNL     1     -25.053  11.083 -11.853  1.00  0.00     0.043 A 
HETATM   14  C19 UNL     1     -25.353  11.446 -10.542  1.00  0.00     0.037 A 
ENDROOT
BRANCH   4  15
HETATM   15  N3  UNL     1     -26.108  12.504  -6.570  1.00  0.00    -0.208 N 
HETATM   16  C3  UNL     1     -27.177  11.902  -5.831  1.00  0.00     0.186 C 
HETATM   17  C4  UNL     1     -27.874  12.857  -4.929  1.00  0.00     0.083 C 
HETATM   18  N4  UNL     1     -27.463  14.199  -4.912  1.00  0.00    -0.369 N 
HETATM   19  C12 UNL     1     -26.282  14.618  -5.541  1.00  0.00     0.083 C 
HETATM   20  C13 UNL     1     -25.330  13.502  -5.896  1.00  0.00     0.186 C 
BRANCH  18  21
HETATM   21  C5  UNL     1     -27.622  14.769  -3.586  1.00  0.00     0.146 C 
BRANCH  21  22
HETATM   22  C6  UNL     1     -26.767  16.008  -3.486  1.00  0.00     0.143 C 
BRANCH  22  23
HETATM   23  N5  UNL     1     -27.582  17.216  -3.363  1.00  0.00    -0.359 N 
HETATM   24  C7  UNL     1     -26.915  18.431  -3.004  1.00  0.00     0.221 C 
HETATM   25  O1  UNL     1     -25.675  18.445  -2.809  1.00  0.00    -0.273 OA
ATOM     26  H5  UNL     1     -28.588  17.194  -3.528  1.00  0.00     0.162 HD
BRANCH  24  27
HETATM   27  C8  UNL     1     -27.627  19.711  -2.841  1.00  0.00     0.078 C 
HETATM   28  C9  UNL     1     -28.282  19.866  -1.465  1.00  0.00     0.014 C 
HETATM   29  C10 UNL     1     -27.861  21.318  -1.505  1.00  0.00     0.002 C 
HETATM   30  C11 UNL     1     -26.850  20.940  -2.573  1.00  0.00     0.014 C 
ENDBRANCH  24  27
ENDBRANCH  22  23
ENDBRANCH  21  22
ENDBRANCH  18  21
ENDBRANCH   4  15
BRANCH   1  31
HETATM   31  N1  UNL     1     -23.513  10.286  -9.837  1.00  0.00    -0.384 N 
ATOM     32  H12 UNL     1     -23.461   9.952 -10.799  1.00  0.00     0.157 HD
ATOM     33  H11 UNL     1     -22.778  10.033  -9.177  1.00  0.00     0.157 HD
ENDBRANCH   1  31
TORSDOF 6
ENDMDL
MODEL 2
REMARK VINA RESULT: -8.493914518      1.689      2.331
REMARK  6 active torsions:
REMARK  status: ('A' for Active; 'I' for Inactive)
REMARK    1  A    between atoms: N1_1  and  C1_4 
REMARK    2  A    between atoms: C2_7  and  N3_8 
REMARK    3  A    between atoms: N4_11  and  C5_12 
REMARK    4  A    between atoms: C5_12  and  C6_13 
REMARK    5  A    between atoms: C6_13  and  N5_14 
REMARK       I    between atoms: N5_14  and  C7_16 
REMARK    6  A    between atoms: C7_16  and  C8_18 
ROOT
HETATM    1  C1  UNL     1     -24.630  10.694  -7.248  1.00  0.00     0.127 A 
HETATM    2  N2  UNL     1     -25.061  11.785  -6.597  1.00  0.00    -0.176 N 
ATOM      3  H2  UNL     1     -24.715  11.954  -5.652  1.00  0.00     0.186 HD
HETATM    4  C2  UNL     1     -25.937  12.678  -7.132  1.00  0.00     0.682 A 
HETATM    5  N6  UNL     1     -26.378  12.431  -8.377  1.00  0.00    -0.191 N 
ATOM      6  H6  UNL     1     -27.037  13.079  -8.808  1.00  0.00     0.184 HD
HETATM    7  C14 UNL     1     -25.969  11.338  -9.078  1.00  0.00     0.065 A 
HETATM    8  C15 UNL     1     -26.425  11.095 -10.375  1.00  0.00     0.056 A 
HETATM    9  C16 UNL     1     -25.978   9.977 -11.052  1.00  0.00     0.058 A 
HETATM   10 CL1  UNL     1     -26.514   9.619 -12.683  1.00  0.00    -0.082 Cl
HETATM   11  C17 UNL     1     -25.092   9.092 -10.486  1.00  0.00     0.056 A 
HETATM   12 CL2  UNL     1     -24.512   7.679 -11.339  1.00  0.00    -0.083 Cl
HETATM   13  C18 UNL     1     -24.627   9.309  -9.205  1.00  0.00     0.043 A 
HETATM   14  C19 UNL     1     -25.085  10.440  -8.535  1.00  0.00     0.037 A 
ENDROOT
BRANCH   4  15
HETATM   15  N3  UNL     1     -26.341  13.824  -6.429  1.00  0.00    -0.208 N 
HETATM   16  C3  UNL     1     -25.387  14.598  -5.692  1.00  0.00     0.186 C 
HETATM   17  C4  UNL     1     -25.927  15.125  -4.410  1.00  0.00     0.083 C 
HETATM   18  N4  UNL     1     -27.243  14.802  -4.044  1.00  0.00    -0.369 N 
HETATM   19  C12 UNL     1     -28.133  14.197  -4.941  1.00  0.00     0.083 C 
HETATM   20  C13 UNL     1     -27.707  14.262  -6.388  1.00  0.00     0.186 C 
BRANCH  18  21
HETATM   21  C5  UNL     1     -27.853  15.894  -3.304  1.00  0.00     0.146 C 
BRANCH  21  22
HETATM   22  C6  UNL     1     -26.877  17.045  -3.250  1.00  0.00     0.143 C 
BRANCH  22  23
HETATM   23  N5  UNL     1     -27.499  18.252  -2.707  1.00  0.00    -0.359 N 
HETATM   24  C7  UNL     1     -26.809  19.493  -2.894  1.00  0.00     0.221 C 
HETATM   25  O1  UNL     1     -25.716  19.528  -3.508  1.00  0.00    -0.273 OA
ATOM     26  H5  UNL     1     -28.390  18.211  -2.214  1.00  0.00     0.162 HD
BRANCH  24  27
HETATM   27  C8  UNL     1     -27.329  20.775  -2.387  1.00  0.00     0.078 C 
HETATM   28  C9  UNL     1     -28.287  21.467  -3.362  1.00  0.00     0.014 C 
HETATM   29  C10 UNL     1     -29.112  21.867  -2.158  1.00  0.00     0.002 C 
HETATM   30  C11 UNL     1     -28.411  20.767  -1.380  1.00  0.00     0.014 C 
ENDBRANCH  24  27
ENDBRANCH  22  23
ENDBRANCH  21  22
ENDBRANCH  18  21
ENDBRANCH   4  15
BRANCH   1  31
HETATM   31  N1  UNL     1     -23.803   9.852  -6.735  1.00  0.00    -0.384 N 
ATOM     32  H12 UNL     1     -24.098   9.356  -5.894  1.00  0.00     0.157 HD
ATOM     33  H11 UNL     1     -22.881   9.667  -7.130  1.00  0.00     0.157 HD
ENDBRANCH   1  31
TORSDOF 6
ENDMDL
MODEL 3
REMARK VINA RESULT: -8.416115342      0.895      1.030
REMARK  6 active torsions:
REMARK  status: ('A' for Active; 'I' for Inactive)
REMARK    1  A    between atoms: N1_1  and  C1_4 
REMARK    2  A    between atoms: C2_7  and  N3_8 
REMARK    3  A    between atoms: N4_11  and  C5_12 
REMARK    4  A    between atoms: C5_12  and  C6_13 
REMARK    5  A    between atoms: C6_13  and  N5_14 
REMARK       I    between atoms: N5_14  and  C7_16 
REMARK    6  A    between atoms: C7_16  and  C8_18 
ROOT
HETATM    1  C1  UNL     1     -24.826  11.466  -9.140  1.00  0.00     0.127 A 
HETATM    2  N2  UNL     1     -25.157  11.861  -7.901  1.00  0.00    -0.176 N 
ATOM      3  H2  UNL     1     -24.540  11.603  -7.130  1.00  0.00     0.186 HD
HETATM    4  C2  UNL     1     -26.271  12.588  -7.620  1.00  0.00     0.682 A 
HETATM    5  N6  UNL     1     -27.066  12.913  -8.654  1.00  0.00    -0.191 N 
ATOM      6  H6  UNL     1     -27.911  13.456  -8.479  1.00  0.00     0.184 HD
HETATM    7  C14 UNL     1     -26.774  12.536  -9.929  1.00  0.00     0.065 A 
HETATM    8  C15 UNL     1     -27.600  12.887 -10.998  1.00  0.00     0.056 A 
HETATM    9  C16 UNL     1     -27.260  12.488 -12.276  1.00  0.00     0.058 A 
HETATM   10 CL1  UNL     1     -28.258  12.900 -13.659  1.00  0.00    -0.082 Cl
HETATM   11  C17 UNL     1     -26.127  11.754 -12.531  1.00  0.00     0.056 A 
HETATM   12 CL2  UNL     1     -25.682  11.255 -14.147  1.00  0.00    -0.083 Cl
HETATM   13  C18 UNL     1     -25.293  11.394 -11.491  1.00  0.00     0.043 A 
HETATM   14  C19 UNL     1     -25.647  11.803 -10.208  1.00  0.00     0.037 A 
ENDROOT
BRANCH   4  15
HETATM   15  N3  UNL     1     -26.566  13.008  -6.313  1.00  0.00    -0.208 N 
HETATM   16  C3  UNL     1     -27.906  12.934  -5.812  1.00  0.00     0.186 C 
HETATM   17  C4  UNL     1     -28.271  14.087  -4.947  1.00  0.00     0.083 C 
HETATM   18  N4  UNL     1     -27.329  15.107  -4.741  1.00  0.00    -0.369 N 
HETATM   19  C12 UNL     1     -25.990  14.966  -5.132  1.00  0.00     0.083 C 
HETATM   20  C13 UNL     1     -25.570  13.548  -5.434  1.00  0.00     0.186 C 
BRANCH  18  21
HETATM   21  C5  UNL     1     -27.465  15.670  -3.408  1.00  0.00     0.146 C 
BRANCH  21  22
HETATM   22  C6  UNL     1     -26.689  16.963  -3.348  1.00  0.00     0.143 C 
BRANCH  22  23
HETATM   23  N5  UNL     1     -27.552  18.094  -3.011  1.00  0.00    -0.359 N 
HETATM   24  C7  UNL     1     -26.954  19.394  -2.968  1.00  0.00     0.221 C 
HETATM   25  O1  UNL     1     -25.733  19.543  -3.219  1.00  0.00    -0.273 OA
ATOM     26  H5  UNL     1     -28.544  17.961  -2.814  1.00  0.00     0.162 HD
BRANCH  24  27
HETATM   27  C8  UNL     1     -27.716  20.609  -2.633  1.00  0.00     0.078 C 
HETATM   28  C9  UNL     1     -26.824  21.809  -2.300  1.00  0.00     0.014 C 
HETATM   29  C10 UNL     1     -27.819  22.668  -3.048  1.00  0.00     0.002 C 
HETATM   30  C11 UNL     1     -28.323  21.404  -3.722  1.00  0.00     0.014 C 
ENDBRANCH  24  27
ENDBRANCH  22  23
ENDBRANCH  21  22
ENDBRANCH  18  21
ENDBRANCH   4  15
BRANCH   1  31
HETATM   31  N1  UNL     1     -23.771  10.775  -9.399  1.00  0.00    -0.384 N 
ATOM     32  H12 UNL     1     -23.019  10.791  -8.711  1.00  0.00     0.157 HD
ATOM     33  H11 UNL     1     -23.661  10.226 -10.251  1.00  0.00     0.157 HD
ENDBRANCH   1  31
TORSDOF 6
ENDMDL
MODEL 4
REMARK VINA RESULT: -8.081886044      1.686      2.109
REMARK  6 active torsions:
REMARK  status: ('A' for Active; 'I' for Inactive)
REMARK    1  A    between atoms: N1_1  and  C1_4 
REMARK    2  A    between atoms: C2_7  and  N3_8 
REMARK    3  A    between atoms: N4_11  and  C5_12 
REMARK    4  A    between atoms: C5_12  and  C6_13 
REMARK    5  A    between atoms: C6_13  and  N5_14 
REMARK       I    between atoms: N5_14  and  C7_16 
REMARK    6  A    between atoms: C7_16  and  C8_18 
ROOT
HETATM    1  C1  UNL     1     -25.160  11.274  -8.030  1.00  0.00     0.127 A 
HETATM    2  N2  UNL     1     -25.407  12.293  -7.193  1.00  0.00    -0.176 N 
ATOM      3  H2  UNL     1     -24.768  12.445  -6.413  1.00  0.00     0.186 HD
HETATM    4  C2  UNL     1     -26.466  13.135  -7.333  1.00  0.00     0.682 A 
HETATM    5  N6  UNL     1     -27.293  12.911  -8.369  1.00  0.00    -0.191 N 
ATOM      6  H6  UNL     1     -28.098  13.522  -8.503  1.00  0.00     0.184 HD
HETATM    7  C14 UNL     1     -27.083  11.891  -9.245  1.00  0.00     0.065 A 
HETATM    8  C15 UNL     1     -27.941  11.673 -10.325  1.00  0.00     0.056 A 
HETATM    9  C16 UNL     1     -27.685  10.629 -11.193  1.00  0.00     0.058 A 
HETATM   10 CL1  UNL     1     -28.726  10.305 -12.567  1.00  0.00    -0.082 Cl
HETATM   11  C17 UNL     1     -26.607   9.794 -11.027  1.00  0.00     0.056 A 
HETATM   12 CL2  UNL     1     -26.269   8.477 -12.127  1.00  0.00    -0.083 Cl
HETATM   13  C18 UNL     1     -25.744   9.988  -9.968  1.00  0.00     0.043 A 
HETATM   14  C19 UNL     1     -26.012  11.045  -9.101  1.00  0.00     0.037 A 
ENDROOT
BRANCH   4  15
HETATM   15  N3  UNL     1     -26.674  14.209  -6.453  1.00  0.00    -0.208 N 
HETATM   16  C3  UNL     1     -25.564  14.848  -5.812  1.00  0.00     0.186 C 
HETATM   17  C4  UNL     1     -25.850  15.246  -4.408  1.00  0.00     0.083 C 
HETATM   18  N4  UNL     1     -27.105  14.944  -3.858  1.00  0.00    -0.369 N 
HETATM   19  C12 UNL     1     -28.168  14.487  -4.650  1.00  0.00     0.083 C 
HETATM   20  C13 UNL     1     -27.983  14.700  -6.133  1.00  0.00     0.186 C 
BRANCH  18  21
HETATM   21  C5  UNL     1     -27.513  15.969  -2.913  1.00  0.00     0.146 C 
BRANCH  21  22
HETATM   22  C6  UNL     1     -26.813  17.258  -3.267  1.00  0.00     0.143 C 
BRANCH  22  23
HETATM   23  N5  UNL     1     -27.634  18.423  -2.944  1.00  0.00    -0.359 N 
HETATM   24  C7  UNL     1     -26.985  19.698  -2.892  1.00  0.00     0.221 C 
HETATM   25  O1  UNL     1     -25.756  19.797  -3.124  1.00  0.00    -0.273 OA
ATOM     26  H5  UNL     1     -28.634  18.331  -2.761  1.00  0.00     0.162 HD
BRANCH  24  27
HETATM   27  C8  UNL     1     -27.703  20.944  -2.569  1.00  0.00     0.078 C 
HETATM   28  C9  UNL     1     -26.777  22.157  -2.437  1.00  0.00     0.014 C 
HETATM   29  C10 UNL     1     -27.850  22.965  -3.132  1.00  0.00     0.002 C 
HETATM   30  C11 UNL     1     -28.430  21.657  -3.641  1.00  0.00     0.014 C 
ENDBRANCH  24  27
ENDBRANCH  22  23
ENDBRANCH  21  22
ENDBRANCH  18  21
ENDBRANCH   4  15
BRANCH   1  31
HETATM   31  N1  UNL     1     -24.157  10.479  -7.891  1.00  0.00    -0.384 N 
ATOM     32  H12 UNL     1     -23.447  10.485  -8.623  1.00  0.00     0.157 HD
ATOM     33  H11 UNL     1     -24.048   9.855  -7.092  1.00  0.00     0.157 HD
ENDBRANCH   1  31
TORSDOF 6
ENDMDL
MODEL 5
REMARK VINA RESULT: -8.026464904      4.697      9.374
REMARK  6 active torsions:
REMARK  status: ('A' for Active; 'I' for Inactive)
REMARK    1  A    between atoms: N1_1  and  C1_4 
REMARK    2  A    between atoms: C2_7  and  N3_8 
REMARK    3  A    between atoms: N4_11  and  C5_12 
REMARK    4  A    between atoms: C5_12  and  C6_13 
REMARK    5  A    between atoms: C6_13  and  N5_14 
REMARK       I    between atoms: N5_14  and  C7_16 
REMARK    6  A    between atoms: C7_16  and  C8_18 
ROOT
HETATM    1  C1  UNL     1     -27.861  12.439  -4.196  1.00  0.00     0.127 A 
HETATM    2  N2  UNL     1     -27.425  11.517  -5.068  1.00  0.00    -0.176 N 
ATOM      3  H2  UNL     1     -27.759  10.558  -4.966  1.00  0.00     0.186 HD
HETATM    4  C2  UNL     1     -26.563  11.796  -6.082  1.00  0.00     0.682 A 
HETATM    5  N6  UNL     1     -26.139  13.066  -6.193  1.00  0.00    -0.191 N 
ATOM      6  H6  UNL     1     -25.489  13.309  -6.941  1.00  0.00     0.184 HD
HETATM    7  C14 UNL     1     -26.552  14.037  -5.333  1.00  0.00     0.065 A 
HETATM    8  C15 UNL     1     -26.115  15.356  -5.462  1.00  0.00     0.056 A 
HETATM    9  C16 UNL     1     -26.566  16.310  -4.571  1.00  0.00     0.058 A 
HETATM   10 CL1  UNL     1     -26.053  17.984  -4.684  1.00  0.00    -0.082 Cl
HETATM   11  C17 UNL     1     -27.438  16.000  -3.556  1.00  0.00     0.056 A 
HETATM   12 CL2  UNL     1     -28.024  17.203  -2.430  1.00  0.00    -0.083 Cl
HETATM   13  C18 UNL     1     -27.886  14.703  -3.406  1.00  0.00     0.043 A 
HETATM   14  C19 UNL     1     -27.423  13.752  -4.312  1.00  0.00     0.037 A 
ENDROOT
BRANCH   4  15
HETATM   15  N3  UNL     1     -26.154  10.808  -6.993  1.00  0.00    -0.208 N 
HETATM   16  C3  UNL     1     -24.794  10.359  -7.014  1.00  0.00     0.186 C 
HETATM   17  C4  UNL     1     -24.289  10.089  -8.387  1.00  0.00     0.083 C 
HETATM   18  N4  UNL     1     -25.137  10.321  -9.481  1.00  0.00    -0.369 N 
HETATM   19  C12 UNL     1     -26.505  10.579  -9.314  1.00  0.00     0.083 C 
HETATM   20  C13 UNL     1     -27.048  10.225  -7.950  1.00  0.00     0.186 C 
BRANCH  18  21
HETATM   21  C5  UNL     1     -24.874   9.369 -10.546  1.00  0.00     0.146 C 
BRANCH  21  22
HETATM   22  C6  UNL     1     -24.153  10.082 -11.664  1.00  0.00     0.143 C 
BRANCH  22  23
HETATM   23  N5  UNL     1     -24.912  11.233 -12.148  1.00  0.00    -0.359 N 
HETATM   24  C7  UNL     1     -25.835  11.014 -13.220  1.00  0.00     0.221 C 
HETATM   25  O1  UNL     1     -25.980   9.869 -13.713  1.00  0.00    -0.273 OA
ATOM     26  H5  UNL     1     -24.790  12.158 -11.736  1.00  0.00     0.162 HD
BRANCH  24  27
HETATM   27  C8  UNL     1     -26.651  12.095 -13.800  1.00  0.00     0.078 C 
HETATM   28  C9  UNL     1     -27.949  11.594 -14.442  1.00  0.00     0.014 C 
HETATM   29  C10 UNL     1     -28.623  12.824 -13.876  1.00  0.00     0.002 C 
HETATM   30  C11 UNL     1     -27.462  12.947 -12.904  1.00  0.00     0.014 C 
ENDBRANCH  24  27
ENDBRANCH  22  23
ENDBRANCH  21  22
ENDBRANCH  18  21
ENDBRANCH   4  15
BRANCH   1  31
HETATM   31  N1  UNL     1     -28.675  12.169  -3.236  1.00  0.00    -0.384 N 
ATOM     32  H12 UNL     1     -28.279  11.789  -2.377  1.00  0.00     0.157 HD
ATOM     33  H11 UNL     1     -29.682  12.316  -3.304  1.00  0.00     0.157 HD
ENDBRANCH   1  31
TORSDOF 6
ENDMDL
