MODEL 1
REMARK VINA RESULT: -8.440178131      0.000      0.000
REMARK  8 active torsions:
REMARK  status: ('A' for Active; 'I' for Inactive)
REMARK    1  A    between atoms: O1_1  and  C1_3 
REMARK    2  A    between atoms: C1_3  and  C2_4 
REMARK    3  A    between atoms: C2_4  and  N1_5 
REMARK    4  A    between atoms: C5_8  and  C6_9 
REMARK    5  A    between atoms: C8_11  and  N2_12 
REMARK    6  A    between atoms: N2_12  and  C9_13 
REMARK    7  A    between atoms: C10_16  and  N4_17 
REMARK    8  A    between atoms: N4_17  and  C11_19 
ROOT
HETATM    1  C6  UNL     1     -27.076   9.256 -12.520  1.00  0.00     0.016 A 
HETATM    2  C7  UNL     1     -26.855   9.424 -11.184  1.00  0.00     0.073 A 
HETATM    3  C8  UNL     1     -26.051  10.480 -10.763  1.00  0.00     0.151 A 
HETATM    4  C18 UNL     1     -25.524  11.301 -11.767  1.00  0.00     0.172 A 
HETATM    5  F2  UNL     1     -24.722  12.362 -11.402  1.00  0.00    -0.201 F 
HETATM    6  C19 UNL     1     -25.770  11.097 -13.081  1.00  0.00     0.134 A 
HETATM    7  N6  UNL     1     -26.549  10.070 -13.447  1.00  0.00    -0.366 N 
ATOM      8  H6  UNL     1     -26.741   9.906 -14.435  1.00  0.00     0.165 HD
ENDROOT
BRANCH   3   9
HETATM    9  N2  UNL     1     -25.813  10.695  -9.621  1.00  0.00    -0.380 NA
BRANCH   9  10
HETATM   10  C9  UNL     1     -25.525  11.032  -8.378  1.00  0.00     0.234 A 
HETATM   11  N3  UNL     1     -25.803  12.317  -7.953  1.00  0.00    -0.161 N 
HETATM   12  C10 UNL     1     -25.544  12.735  -6.715  1.00  0.00     0.680 A 
ATOM     13  H3  UNL     1     -26.222  12.972  -8.613  1.00  0.00     0.187 HD
HETATM   14  N5  UNL     1     -24.998  11.887  -5.842  1.00  0.00    -0.199 N 
HETATM   15  C16 UNL     1     -24.695  10.610  -6.178  1.00  0.00     0.153 A 
ATOM     16  H5  UNL     1     -24.802  12.210  -4.894  1.00  0.00     0.183 HD
HETATM   17  C17 UNL     1     -24.947  10.155  -7.438  1.00  0.00     0.190 A 
HETATM   18  F1  UNL     1     -24.686   8.905  -7.870  1.00  0.00    -0.199 F 
BRANCH  12  19
HETATM   19  N4  UNL     1     -25.827  13.967  -6.360  1.00  0.00    -0.221 N 
ATOM     20  H4  UNL     1     -25.724  14.734  -7.024  1.00  0.00     0.178 HD
BRANCH  19  21
HETATM   21  C11 UNL     1     -26.293  14.220  -4.998  1.00  0.00     0.099 C 
HETATM   22  C12 UNL     1     -27.719  13.792  -4.818  1.00  0.00     0.026 C 
HETATM   23  C13 UNL     1     -28.455  14.986  -4.211  1.00  0.00     0.002 C 
HETATM   24  C14 UNL     1     -27.353  15.872  -3.694  1.00  0.00     0.002 C 
HETATM   25  C15 UNL     1     -26.259  15.701  -4.714  1.00  0.00     0.026 C 
ENDBRANCH  19  21
ENDBRANCH  12  19
ENDBRANCH   9  10
ENDBRANCH   3   9
BRANCH   1  26
HETATM   26  C5  UNL     1     -27.941   8.123 -12.946  1.00  0.00     0.038 C 
HETATM   27  C4  UNL     1     -28.321   7.332 -11.738  1.00  0.00     0.030 C 
HETATM   28  C3  UNL     1     -29.254   6.182 -12.165  1.00  0.00     0.122 C 
HETATM   29  N1  UNL     1     -28.638   5.494 -13.218  1.00  0.00    -0.391 N 
HETATM   30  C21 UNL     1     -28.309   6.229 -14.394  1.00  0.00     0.122 C 
HETATM   31  C20 UNL     1     -27.248   7.261 -13.985  1.00  0.00     0.030 C 
BRANCH  29  32
HETATM   32  C2  UNL     1     -28.432   4.119 -13.206  1.00  0.00     0.084 C 
BRANCH  32  33
HETATM   33  C1  UNL     1     -28.510   3.507 -14.574  1.00  0.00     0.208 C 
BRANCH  33  34
HETATM   34  O1  UNL     1     -27.666   2.451 -14.736  1.00  0.00    -0.396 OA
ATOM     35  H1  UNL     1     -28.067   1.617 -14.519  1.00  0.00     0.209 HD
ENDBRANCH  33  34
ENDBRANCH  32  33
ENDBRANCH  29  32
ENDBRANCH   1  26
TORSDOF 8
ENDMDL
MODEL 2
REMARK VINA RESULT: -8.122930160      5.083     10.423
REMARK  8 active torsions:
REMARK  status: ('A' for Active; 'I' for Inactive)
REMARK    1  A    between atoms: O1_1  and  C1_3 
REMARK    2  A    between atoms: C1_3  and  C2_4 
REMARK    3  A    between atoms: C2_4  and  N1_5 
REMARK    4  A    between atoms: C5_8  and  C6_9 
REMARK    5  A    between atoms: C8_11  and  N2_12 
REMARK    6  A    between atoms: N2_12  and  C9_13 
REMARK    7  A    between atoms: C10_16  and  N4_17 
REMARK    8  A    between atoms: N4_17  and  C11_19 
ROOT
HETATM    1  C6  UNL     1     -27.370  14.475  -5.341  1.00  0.00     0.016 A 
HETATM    2  C7  UNL     1     -26.437  13.517  -5.616  1.00  0.00     0.073 A 
HETATM    3  C8  UNL     1     -26.651  12.661  -6.695  1.00  0.00     0.151 A 
HETATM    4  C18 UNL     1     -27.830  12.859  -7.423  1.00  0.00     0.172 A 
HETATM    5  F2  UNL     1     -28.089  12.038  -8.501  1.00  0.00    -0.201 F 
HETATM    6  C19 UNL     1     -28.727  13.823  -7.112  1.00  0.00     0.134 A 
HETATM    7  N6  UNL     1     -28.487  14.626  -6.068  1.00  0.00    -0.366 N 
ATOM      8  H6  UNL     1     -29.156  15.356  -5.825  1.00  0.00     0.165 HD
ENDROOT
BRANCH   3   9
HETATM    9  N2  UNL     1     -25.889  11.805  -7.001  1.00  0.00    -0.380 NA
BRANCH   9  10
HETATM   10  C9  UNL     1     -24.982  10.926  -7.383  1.00  0.00     0.234 A 
HETATM   11  N3  UNL     1     -24.463  11.015  -8.661  1.00  0.00    -0.161 N 
HETATM   12  C10 UNL     1     -23.544  10.169  -9.123  1.00  0.00     0.680 A 
ATOM     13  H3  UNL     1     -24.797  11.759  -9.275  1.00  0.00     0.187 HD
HETATM   14  N5  UNL     1     -23.099   9.194  -8.329  1.00  0.00    -0.199 N 
HETATM   15  C16 UNL     1     -23.555   9.038  -7.062  1.00  0.00     0.153 A 
ATOM     16  H5  UNL     1     -22.395   8.548  -8.685  1.00  0.00     0.183 HD
HETATM   17  C17 UNL     1     -24.497   9.888  -6.564  1.00  0.00     0.190 A 
HETATM   18  F1  UNL     1     -25.013   9.819  -5.320  1.00  0.00    -0.199 F 
BRANCH  12  19
HETATM   19  N4  UNL     1     -23.083  10.296 -10.345  1.00  0.00    -0.221 N 
ATOM     20  H4  UNL     1     -22.154  10.685 -10.510  1.00  0.00     0.178 HD
BRANCH  19  21
HETATM   21  C11 UNL     1     -23.921   9.872 -11.464  1.00  0.00     0.099 C 
HETATM   22  C12 UNL     1     -24.681  11.024 -12.049  1.00  0.00     0.026 C 
HETATM   23  C13 UNL     1     -26.145  10.592 -12.104  1.00  0.00     0.002 C 
HETATM   24  C14 UNL     1     -26.093   9.096 -11.946  1.00  0.00     0.002 C 
HETATM   25  C15 UNL     1     -24.955   8.886 -10.983  1.00  0.00     0.026 C 
ENDBRANCH  19  21
ENDBRANCH  12  19
ENDBRANCH   9  10
ENDBRANCH   3   9
BRANCH   1  26
HETATM   26  C5  UNL     1     -27.118  15.379  -4.187  1.00  0.00     0.038 C 
HETATM   27  C4  UNL     1     -28.427  15.731  -3.561  1.00  0.00     0.030 C 
HETATM   28  C3  UNL     1     -28.173  16.632  -2.338  1.00  0.00     0.122 C 
HETATM   29  N1  UNL     1     -27.348  17.689  -2.743  1.00  0.00    -0.391 N 
HETATM   30  C21 UNL     1     -26.077  17.368  -3.303  1.00  0.00     0.122 C 
HETATM   31  C20 UNL     1     -26.352  16.617  -4.614  1.00  0.00     0.030 C 
BRANCH  29  32
HETATM   32  C2  UNL     1     -27.669  19.025  -2.530  1.00  0.00     0.084 C 
BRANCH  32  33
HETATM   33  C1  UNL     1     -26.580  19.962  -2.962  1.00  0.00     0.208 C 
BRANCH  33  34
HETATM   34  O1  UNL     1     -26.792  21.247  -2.566  1.00  0.00    -0.396 OA
ATOM     35  H1  UNL     1     -26.173  21.542  -1.909  1.00  0.00     0.209 HD
ENDBRANCH  33  34
ENDBRANCH  32  33
ENDBRANCH  29  32
ENDBRANCH   1  26
TORSDOF 8
ENDMDL
MODEL 3
REMARK VINA RESULT: -8.020911656      4.145     10.248
REMARK  8 active torsions:
REMARK  status: ('A' for Active; 'I' for Inactive)
REMARK    1  A    between atoms: O1_1  and  C1_3 
REMARK    2  A    between atoms: C1_3  and  C2_4 
REMARK    3  A    between atoms: C2_4  and  N1_5 
REMARK    4  A    between atoms: C5_8  and  C6_9 
REMARK    5  A    between atoms: C8_11  and  N2_12 
REMARK    6  A    between atoms: N2_12  and  C9_13 
REMARK    7  A    between atoms: C10_16  and  N4_17 
REMARK    8  A    between atoms: N4_17  and  C11_19 
ROOT
HETATM    1  C6  UNL     1     -25.547  12.158  -6.328  1.00  0.00     0.016 A 
HETATM    2  C7  UNL     1     -25.867  11.450  -7.450  1.00  0.00     0.073 A 
HETATM    3  C8  UNL     1     -25.183  10.265  -7.714  1.00  0.00     0.151 A 
HETATM    4  C18 UNL     1     -24.202   9.891  -6.788  1.00  0.00     0.172 A 
HETATM    5  F2  UNL     1     -23.497   8.726  -7.003  1.00  0.00    -0.201 F 
HETATM    6  C19 UNL     1     -23.918  10.627  -5.688  1.00  0.00     0.134 A 
HETATM    7  N6  UNL     1     -24.598  11.760  -5.468  1.00  0.00    -0.366 N 
ATOM      8  H6  UNL     1     -24.392  12.322  -4.642  1.00  0.00     0.165 HD
ENDROOT
BRANCH   3   9
HETATM    9  N2  UNL     1     -25.402   9.591  -8.665  1.00  0.00    -0.380 NA
BRANCH   9  10
HETATM   10  C9  UNL     1     -25.547   8.810  -9.719  1.00  0.00     0.234 A 
HETATM   11  N3  UNL     1     -26.653   7.984  -9.791  1.00  0.00    -0.161 N 
HETATM   12  C10 UNL     1     -26.872   7.168 -10.821  1.00  0.00     0.680 A 
ATOM     13  H3  UNL     1     -27.326   7.999  -9.025  1.00  0.00     0.187 HD
HETATM   14  N5  UNL     1     -25.999   7.141 -11.829  1.00  0.00    -0.199 N 
HETATM   15  C16 UNL     1     -24.891   7.920 -11.836  1.00  0.00     0.153 A 
ATOM     16  H5  UNL     1     -26.171   6.516 -12.616  1.00  0.00     0.183 HD
HETATM   17  C17 UNL     1     -24.639   8.763 -10.795  1.00  0.00     0.190 A 
HETATM   18  F1  UNL     1     -23.569   9.579 -10.708  1.00  0.00    -0.199 F 
BRANCH  12  19
HETATM   19  N4  UNL     1     -27.938   6.402 -10.842  1.00  0.00    -0.221 N 
ATOM     20  H4  UNL     1     -28.456   6.212  -9.984  1.00  0.00     0.178 HD
BRANCH  19  21
HETATM   21  C11 UNL     1     -28.371   5.828 -12.114  1.00  0.00     0.099 C 
HETATM   22  C12 UNL     1     -29.797   6.177 -12.417  1.00  0.00     0.026 C 
HETATM   23  C13 UNL     1     -30.504   4.862 -12.740  1.00  0.00     0.002 C 
HETATM   24  C14 UNL     1     -29.381   3.898 -13.013  1.00  0.00     0.002 C 
HETATM   25  C15 UNL     1     -28.312   4.323 -12.041  1.00  0.00     0.026 C 
ENDBRANCH  19  21
ENDBRANCH  12  19
ENDBRANCH   9  10
ENDBRANCH   3   9
BRANCH   1  26
HETATM   26  C5  UNL     1     -26.293  13.418  -6.065  1.00  0.00     0.038 C 
HETATM   27  C4  UNL     1     -25.313  14.494  -5.731  1.00  0.00     0.030 C 
HETATM   28  C3  UNL     1     -26.074  15.813  -5.500  1.00  0.00     0.122 C 
HETATM   29  N1  UNL     1     -27.098  15.565  -4.576  1.00  0.00    -0.391 N 
HETATM   30  C21 UNL     1     -28.065  14.571  -4.902  1.00  0.00     0.122 C 
HETATM   31  C20 UNL     1     -27.316  13.231  -4.960  1.00  0.00     0.030 C 
BRANCH  29  32
HETATM   32  C2  UNL     1     -27.268  16.312  -3.416  1.00  0.00     0.084 C 
BRANCH  32  33
HETATM   33  C1  UNL     1     -26.464  17.579  -3.416  1.00  0.00     0.208 C 
BRANCH  33  34
HETATM   34  O1  UNL     1     -27.185  18.670  -3.039  1.00  0.00    -0.396 OA
ATOM     35  H1  UNL     1     -28.059  18.686  -3.412  1.00  0.00     0.209 HD
ENDBRANCH  33  34
ENDBRANCH  32  33
ENDBRANCH  29  32
ENDBRANCH   1  26
TORSDOF 8
ENDMDL
MODEL 4
REMARK VINA RESULT: -8.020777891      1.298      1.564
REMARK  8 active torsions:
REMARK  status: ('A' for Active; 'I' for Inactive)
REMARK    1  A    between atoms: O1_1  and  C1_3 
REMARK    2  A    between atoms: C1_3  and  C2_4 
REMARK    3  A    between atoms: C2_4  and  N1_5 
REMARK    4  A    between atoms: C5_8  and  C6_9 
REMARK    5  A    between atoms: C8_11  and  N2_12 
REMARK    6  A    between atoms: N2_12  and  C9_13 
REMARK    7  A    between atoms: C10_16  and  N4_17 
REMARK    8  A    between atoms: N4_17  and  C11_19 
ROOT
HETATM    1  C6  UNL     1     -27.849   9.897 -13.309  1.00  0.00     0.016 A 
HETATM    2  C7  UNL     1     -27.370   9.860 -12.032  1.00  0.00     0.073 A 
HETATM    3  C8  UNL     1     -26.887  11.036 -11.461  1.00  0.00     0.151 A 
HETATM    4  C18 UNL     1     -26.934  12.183 -12.262  1.00  0.00     0.172 A 
HETATM    5  F2  UNL     1     -26.468  13.373 -11.743  1.00  0.00    -0.201 F 
HETATM    6  C19 UNL     1     -27.419  12.172 -13.525  1.00  0.00     0.134 A 
HETATM    7  N6  UNL     1     -27.875  11.022 -14.039  1.00  0.00    -0.366 N 
ATOM      8  H6  UNL     1     -28.242  11.002 -14.990  1.00  0.00     0.165 HD
ENDROOT
BRANCH   3   9
HETATM    9  N2  UNL     1     -26.455  11.088 -10.357  1.00  0.00    -0.380 NA
BRANCH   9  10
HETATM   10  C9  UNL     1     -25.941  11.050  -9.143  1.00  0.00     0.234 A 
HETATM   11  N3  UNL     1     -25.861  12.221  -8.414  1.00  0.00    -0.161 N 
HETATM   12  C10 UNL     1     -25.357  12.267  -7.182  1.00  0.00     0.680 A 
ATOM     13  H3  UNL     1     -26.201  13.085  -8.837  1.00  0.00     0.187 HD
HETATM   14  N5  UNL     1     -24.911  11.143  -6.619  1.00  0.00    -0.199 N 
HETATM   15  C16 UNL     1     -24.954   9.953  -7.264  1.00  0.00     0.153 A 
ATOM     16  H5  UNL     1     -24.527  11.181  -5.675  1.00  0.00     0.183 HD
HETATM   17  C17 UNL     1     -25.463   9.876  -8.527  1.00  0.00     0.190 A 
HETATM   18  F1  UNL     1     -25.552   8.743  -9.252  1.00  0.00    -0.199 F 
BRANCH  12  19
HETATM   19  N4  UNL     1     -25.303  13.405  -6.532  1.00  0.00    -0.221 N 
ATOM     20  H4  UNL     1     -24.405  13.805  -6.261  1.00  0.00     0.178 HD
BRANCH  19  21
HETATM   21  C11 UNL     1     -26.551  14.091  -6.203  1.00  0.00     0.099 C 
HETATM   22  C12 UNL     1     -26.310  15.524  -5.835  1.00  0.00     0.026 C 
HETATM   23  C13 UNL     1     -27.012  15.751  -4.497  1.00  0.00     0.002 C 
HETATM   24  C14 UNL     1     -27.954  14.583  -4.373  1.00  0.00     0.002 C 
HETATM   25  C15 UNL     1     -27.184  13.447  -4.994  1.00  0.00     0.026 C 
ENDBRANCH  19  21
ENDBRANCH  12  19
ENDBRANCH   9  10
ENDBRANCH   3   9
BRANCH   1  26
HETATM   26  C5  UNL     1     -28.364   8.630 -13.896  1.00  0.00     0.038 C 
HETATM   27  C4  UNL     1     -29.273   7.980 -12.907  1.00  0.00     0.030 C 
HETATM   28  C3  UNL     1     -29.846   6.690 -13.524  1.00  0.00     0.122 C 
HETATM   29  N1  UNL     1     -28.773   5.930 -14.009  1.00  0.00    -0.391 N 
HETATM   30  C21 UNL     1     -27.923   6.524 -14.986  1.00  0.00     0.122 C 
HETATM   31  C20 UNL     1     -27.228   7.710 -14.301  1.00  0.00     0.030 C 
BRANCH  29  32
HETATM   32  C2  UNL     1     -28.568   4.600 -13.660  1.00  0.00     0.084 C 
BRANCH  32  33
HETATM   33  C1  UNL     1     -28.782   4.342 -12.198  1.00  0.00     0.208 C 
BRANCH  33  34
HETATM   34  O1  UNL     1     -27.834   3.532 -11.653  1.00  0.00    -0.396 OA
ATOM     35  H1  UNL     1     -28.161   3.006 -10.933  1.00  0.00     0.209 HD
ENDBRANCH  33  34
ENDBRANCH  32  33
ENDBRANCH  29  32
ENDBRANCH   1  26
TORSDOF 8
ENDMDL
MODEL 5
REMARK VINA RESULT: -8.020461827      1.406      1.716
REMARK  8 active torsions:
REMARK  status: ('A' for Active; 'I' for Inactive)
REMARK    1  A    between atoms: O1_1  and  C1_3 
REMARK    2  A    between atoms: C1_3  and  C2_4 
REMARK    3  A    between atoms: C2_4  and  N1_5 
REMARK    4  A    between atoms: C5_8  and  C6_9 
REMARK    5  A    between atoms: C8_11  and  N2_12 
REMARK    6  A    between atoms: N2_12  and  C9_13 
REMARK    7  A    between atoms: C10_16  and  N4_17 
REMARK    8  A    between atoms: N4_17  and  C11_19 
ROOT
HETATM    1  C6  UNL     1     -26.545   8.682 -12.122  1.00  0.00     0.016 A 
HETATM    2  C7  UNL     1     -26.231   9.020 -10.838  1.00  0.00     0.073 A 
HETATM    3  C8  UNL     1     -25.827  10.325 -10.565  1.00  0.00     0.151 A 
HETATM    4  C18 UNL     1     -25.776  11.202 -11.655  1.00  0.00     0.172 A 
HETATM    5  F2  UNL     1     -25.383  12.506 -11.439  1.00  0.00    -0.201 F 
HETATM    6  C19 UNL     1     -26.097  10.822 -12.914  1.00  0.00     0.134 A 
HETATM    7  N6  UNL     1     -26.481   9.558 -13.136  1.00  0.00    -0.366 N 
ATOM      8  H6  UNL     1     -26.726   9.261 -14.080  1.00  0.00     0.165 HD
ENDROOT
BRANCH   3   9
HETATM    9  N2  UNL     1     -25.539  10.698  -9.477  1.00  0.00    -0.380 NA
BRANCH   9  10
HETATM   10  C9  UNL     1     -25.302  11.063  -8.231  1.00  0.00     0.234 A 
HETATM   11  N3  UNL     1     -25.602  12.356  -7.845  1.00  0.00    -0.161 N 
HETATM   12  C10 UNL     1     -25.394  12.801  -6.608  1.00  0.00     0.680 A 
ATOM     13  H3  UNL     1     -25.998  12.994  -8.536  1.00  0.00     0.187 HD
HETATM   14  N5  UNL     1     -24.877  11.976  -5.696  1.00  0.00    -0.199 N 
HETATM   15  C16 UNL     1     -24.556  10.693  -5.992  1.00  0.00     0.153 A 
ATOM     16  H5  UNL     1     -24.720  12.320  -4.749  1.00  0.00     0.183 HD
HETATM   17  C17 UNL     1     -24.757  10.210  -7.251  1.00  0.00     0.190 A 
HETATM   18  F1  UNL     1     -24.473   8.953  -7.645  1.00  0.00    -0.199 F 
BRANCH  12  19
HETATM   19  N4  UNL     1     -25.696  14.039  -6.291  1.00  0.00    -0.221 N 
ATOM     20  H4  UNL     1     -25.622  14.784  -6.984  1.00  0.00     0.178 HD
BRANCH  19  21
HETATM   21  C11 UNL     1     -26.141  14.331  -4.930  1.00  0.00     0.099 C 
HETATM   22  C12 UNL     1     -27.565  13.914  -4.717  1.00  0.00     0.026 C 
HETATM   23  C13 UNL     1     -28.287  15.126  -4.132  1.00  0.00     0.002 C 
HETATM   24  C14 UNL     1     -27.176  16.022  -3.656  1.00  0.00     0.002 C 
HETATM   25  C15 UNL     1     -26.098  15.819  -4.687  1.00  0.00     0.026 C 
ENDBRANCH  19  21
ENDBRANCH  12  19
ENDBRANCH   9  10
ENDBRANCH   3   9
BRANCH   1  26
HETATM   26  C5  UNL     1     -26.977   7.283 -12.388  1.00  0.00     0.038 C 
HETATM   27  C4  UNL     1     -28.033   7.302 -13.443  1.00  0.00     0.030 C 
HETATM   28  C3  UNL     1     -28.455   5.854 -13.757  1.00  0.00     0.122 C 
HETATM   29  N1  UNL     1     -28.766   5.222 -12.546  1.00  0.00    -0.391 N 
HETATM   30  C21 UNL     1     -27.753   5.159 -11.546  1.00  0.00     0.122 C 
HETATM   31  C20 UNL     1     -27.465   6.607 -11.120  1.00  0.00     0.030 C 
BRANCH  29  32
HETATM   32  C2  UNL     1     -29.973   4.570 -12.320  1.00  0.00     0.084 C 
BRANCH  32  33
HETATM   33  C1  UNL     1     -31.151   5.498 -12.350  1.00  0.00     0.208 C 
BRANCH  33  34
HETATM   34  O1  UNL     1     -31.023   6.553 -11.500  1.00  0.00    -0.396 OA
ATOM     35  H1  UNL     1     -31.567   7.294 -11.740  1.00  0.00     0.209 HD
ENDBRANCH  33  34
ENDBRANCH  32  33
ENDBRANCH  29  32
ENDBRANCH   1  26
TORSDOF 8
ENDMDL
