MODEL 1
REMARK VINA RESULT: -8.478047316      0.000      0.000
REMARK  6 active torsions:
REMARK  status: ('A' for Active; 'I' for Inactive)
REMARK    1  A    between atoms: C4_4  and  C5_5 
REMARK    2  A    between atoms: N1_8  and  C6_9 
REMARK    3  A    between atoms: C9_12  and  N2_13 
REMARK    4  A    between atoms: N2_13  and  S1_15 
REMARK    5  A    between atoms: S1_15  and  C10_18 
REMARK    6  A    between atoms: C16_28  and  N5_29 
ROOT
HETATM    1  C1  UNL     1     -25.672  11.385 -13.355  1.00  0.00     0.018 C 
HETATM    2  C2  UNL     1     -25.772  11.391 -12.157  1.00  0.00    -0.075 C 
HETATM    3  C3  UNL     1     -25.868  11.400 -10.725  1.00  0.00     0.060 A 
HETATM    4  C4  UNL     1     -26.884  11.997  -9.970  1.00  0.00     0.066 A 
HETATM    5  N1  UNL     1     -26.632  11.796  -8.681  1.00  0.00    -0.327 N 
HETATM    6  C14 UNL     1     -25.462  11.075  -8.601  1.00  0.00     0.124 A 
HETATM    7  N3  UNL     1     -24.761  10.609  -7.553  1.00  0.00    -0.338 N 
ATOM      8  H3  UNL     1     -25.108  10.789  -6.611  1.00  0.00     0.168 HD
HETATM    9  C15 UNL     1     -23.622   9.915  -7.699  1.00  0.00     0.183 A 
HETATM   10  N4  UNL     1     -23.143   9.664  -8.926  1.00  0.00    -0.338 N 
ATOM     11  H4  UNL     1     -22.277   9.138  -9.041  1.00  0.00     0.168 HD
HETATM   12  C16 UNL     1     -23.806  10.109 -10.000  1.00  0.00     0.115 A 
HETATM   13  C17 UNL     1     -24.984  10.826  -9.855  1.00  0.00     0.072 A 
ENDROOT
BRANCH   4  14
HETATM   14  C5  UNL     1     -27.999  12.701 -10.568  1.00  0.00     0.229 C 
HETATM   15 CL1  UNL     1     -27.449  14.088 -11.584  1.00  0.00    -0.101 Cl
HETATM   16 CL2  UNL     1     -28.900  11.656 -11.734  1.00  0.00    -0.101 Cl
ENDBRANCH   4  14
BRANCH   5  17
HETATM   17  C6  UNL     1     -27.365  12.206  -7.536  1.00  0.00     0.093 C 
HETATM   18  C7  UNL     1     -27.108  11.442  -6.287  1.00  0.00     0.028 C 
HETATM   19  C8  UNL     1     -27.290  12.472  -5.168  1.00  0.00     0.028 C 
HETATM   20  C9  UNL     1     -27.987  13.642  -5.818  1.00  0.00     0.095 C 
HETATM   21  C13 UNL     1     -27.254  13.644  -7.171  1.00  0.00     0.051 C 
BRANCH  20  22
HETATM   22  N2  UNL     1     -27.869  14.868  -5.138  1.00  0.00    -0.314 N 
ATOM     23  H2  UNL     1     -28.679  15.367  -4.772  1.00  0.00     0.172 HD
BRANCH  22  24
HETATM   24  S1  UNL     1     -26.275  15.466  -4.968  1.00  0.00     0.231 S 
HETATM   25  O1  UNL     1     -25.935  16.448  -6.054  1.00  0.00    -0.206 OA
HETATM   26  O2  UNL     1     -25.254  14.393  -4.830  1.00  0.00    -0.206 OA
BRANCH  24  27
HETATM   27  C10 UNL     1     -26.233  16.414  -3.439  1.00  0.00     0.129 A 
HETATM   28  C11 UNL     1     -27.575  17.011  -3.034  1.00  0.00     0.023 A 
HETATM   29  C12 UNL     1     -26.472  17.862  -3.477  1.00  0.00     0.023 A 
ENDBRANCH  24  27
ENDBRANCH  22  24
ENDBRANCH  20  22
ENDBRANCH   5  17
BRANCH  12  30
HETATM   30  N5  UNL     1     -23.416   9.912 -11.220  1.00  0.00    -0.385 N 
ATOM     31  H52 UNL     1     -22.445  10.153 -11.417  1.00  0.00     0.157 HD
ATOM     32  H51 UNL     1     -24.019   9.542 -11.954  1.00  0.00     0.157 HD
ENDBRANCH  12  30
TORSDOF 6
ENDMDL
MODEL 2
REMARK VINA RESULT: -8.225759478      3.811      5.510
REMARK  6 active torsions:
REMARK  status: ('A' for Active; 'I' for Inactive)
REMARK    1  A    between atoms: C4_4  and  C5_5 
REMARK    2  A    between atoms: N1_8  and  C6_9 
REMARK    3  A    between atoms: C9_12  and  N2_13 
REMARK    4  A    between atoms: N2_13  and  S1_15 
REMARK    5  A    between atoms: S1_15  and  C10_18 
REMARK    6  A    between atoms: C16_28  and  N5_29 
ROOT
HETATM    1  C1  UNL     1     -28.342   9.693 -16.402  1.00  0.00     0.018 C 
HETATM    2  C2  UNL     1     -27.859   9.467 -15.324  1.00  0.00    -0.075 C 
HETATM    3  C3  UNL     1     -27.280   9.175 -14.044  1.00  0.00     0.060 A 
HETATM    4  C4  UNL     1     -26.490  10.041 -13.279  1.00  0.00     0.066 A 
HETATM    5  N1  UNL     1     -26.138   9.420 -12.158  1.00  0.00    -0.327 N 
HETATM    6  C14 UNL     1     -26.697   8.162 -12.195  1.00  0.00     0.124 A 
HETATM    7  N3  UNL     1     -26.660   7.134 -11.330  1.00  0.00    -0.338 N 
ATOM      8  H3  UNL     1     -26.136   7.243 -10.462  1.00  0.00     0.168 HD
HETATM    9  C15 UNL     1     -27.287   5.972 -11.565  1.00  0.00     0.183 A 
HETATM   10  N4  UNL     1     -27.983   5.803 -12.699  1.00  0.00    -0.338 N 
ATOM     11  H4  UNL     1     -28.460   4.920 -12.881  1.00  0.00     0.168 HD
HETATM   12  C16 UNL     1     -28.048   6.798 -13.591  1.00  0.00     0.115 A 
HETATM   13  C17 UNL     1     -27.402   8.002 -13.352  1.00  0.00     0.072 A 
ENDROOT
BRANCH   4  14
HETATM   14  C5  UNL     1     -26.151  11.382 -13.706  1.00  0.00     0.229 C 
HETATM   15 CL1  UNL     1     -25.276  11.383 -15.284  1.00  0.00    -0.101 Cl
HETATM   16 CL2  UNL     1     -27.629  12.367 -14.045  1.00  0.00    -0.101 Cl
ENDBRANCH   4  14
BRANCH   5  17
HETATM   17  C6  UNL     1     -25.345   9.880 -11.073  1.00  0.00     0.093 C 
HETATM   18  C7  UNL     1     -24.075  10.562 -11.436  1.00  0.00     0.028 C 
HETATM   19  C8  UNL     1     -23.874  11.603 -10.330  1.00  0.00     0.028 C 
HETATM   20  C9  UNL     1     -24.831  11.203  -9.234  1.00  0.00     0.095 C 
HETATM   21  C13 UNL     1     -26.029  10.772 -10.099  1.00  0.00     0.051 C 
BRANCH  20  22
HETATM   22  N2  UNL     1     -25.162  12.223  -8.322  1.00  0.00    -0.314 N 
ATOM     23  H2  UNL     1     -25.191  13.206  -8.592  1.00  0.00     0.172 HD
BRANCH  22  24
HETATM   24  S1  UNL     1     -25.514  11.702  -6.731  1.00  0.00     0.231 S 
HETATM   25  O1  UNL     1     -26.996  11.645  -6.483  1.00  0.00    -0.206 OA
HETATM   26  O2  UNL     1     -24.790  12.472  -5.684  1.00  0.00    -0.206 OA
BRANCH  24  27
HETATM   27  C10 UNL     1     -24.945   9.999  -6.602  1.00  0.00     0.129 A 
HETATM   28  C11 UNL     1     -25.127   9.379  -5.222  1.00  0.00     0.023 A 
HETATM   29  C12 UNL     1     -23.796   9.681  -5.745  1.00  0.00     0.023 A 
ENDBRANCH  24  27
ENDBRANCH  22  24
ENDBRANCH  20  22
ENDBRANCH   5  17
BRANCH  12  30
HETATM   30  N5  UNL     1     -28.697   6.721 -14.710  1.00  0.00    -0.385 N 
ATOM     31  H52 UNL     1     -29.545   6.154 -14.690  1.00  0.00     0.157 HD
ATOM     32  H51 UNL     1     -28.402   7.184 -15.569  1.00  0.00     0.157 HD
ENDBRANCH  12  30
TORSDOF 6
ENDMDL
MODEL 3
REMARK VINA RESULT: -8.190676302      1.349      1.736
REMARK  6 active torsions:
REMARK  status: ('A' for Active; 'I' for Inactive)
REMARK    1  A    between atoms: C4_4  and  C5_5 
REMARK    2  A    between atoms: N1_8  and  C6_9 
REMARK    3  A    between atoms: C9_12  and  N2_13 
REMARK    4  A    between atoms: N2_13  and  S1_15 
REMARK    5  A    between atoms: S1_15  and  C10_18 
REMARK    6  A    between atoms: C16_28  and  N5_29 
ROOT
HETATM    1  C1  UNL     1     -25.651   9.960 -11.676  1.00  0.00     0.018 C 
HETATM    2  C2  UNL     1     -25.793  10.326 -10.540  1.00  0.00    -0.075 C 
HETATM    3  C3  UNL     1     -25.940  10.766  -9.182  1.00  0.00     0.060 A 
HETATM    4  C4  UNL     1     -27.018  11.491  -8.661  1.00  0.00     0.066 A 
HETATM    5  N1  UNL     1     -26.799  11.714  -7.369  1.00  0.00    -0.327 N 
HETATM    6  C14 UNL     1     -25.589  11.138  -7.055  1.00  0.00     0.124 A 
HETATM    7  N3  UNL     1     -24.897  11.067  -5.905  1.00  0.00    -0.338 N 
ATOM      8  H3  UNL     1     -25.288  11.501  -5.069  1.00  0.00     0.168 HD
HETATM    9  C15 UNL     1     -23.712  10.445  -5.814  1.00  0.00     0.183 A 
HETATM   10  N4  UNL     1     -23.174   9.865  -6.898  1.00  0.00    -0.338 N 
ATOM     11  H4  UNL     1     -22.273   9.392  -6.832  1.00  0.00     0.168 HD
HETATM   12  C16 UNL     1     -23.826   9.911  -8.065  1.00  0.00     0.115 A 
HETATM   13  C17 UNL     1     -25.052  10.551  -8.164  1.00  0.00     0.072 A 
ENDROOT
BRANCH   4  14
HETATM   14  C5  UNL     1     -28.154  11.897  -9.462  1.00  0.00     0.229 C 
HETATM   15 CL1  UNL     1     -29.718  11.556  -8.630  1.00  0.00    -0.101 Cl
HETATM   16 CL2  UNL     1     -28.190  13.688  -9.708  1.00  0.00    -0.101 Cl
ENDBRANCH   4  14
BRANCH   5  17
HETATM   17  C6  UNL     1     -27.597  12.401  -6.417  1.00  0.00     0.093 C 
HETATM   18  C7  UNL     1     -27.650  11.804  -5.056  1.00  0.00     0.028 C 
HETATM   19  C8  UNL     1     -27.798  13.007  -4.120  1.00  0.00     0.028 C 
HETATM   20  C9  UNL     1     -28.183  14.159  -5.015  1.00  0.00     0.095 C 
HETATM   21  C13 UNL     1     -27.284  13.842  -6.223  1.00  0.00     0.051 C 
BRANCH  20  22
HETATM   22  N2  UNL     1     -27.944  15.440  -4.485  1.00  0.00    -0.314 N 
ATOM     23  H2  UNL     1     -28.691  16.020  -4.104  1.00  0.00     0.172 HD
BRANCH  22  24
HETATM   24  S1  UNL     1     -26.314  15.961  -4.524  1.00  0.00     0.231 S 
HETATM   25  O1  UNL     1     -26.004  16.712  -5.789  1.00  0.00    -0.206 OA
HETATM   26  O2  UNL     1     -25.339  14.870  -4.254  1.00  0.00    -0.206 OA
BRANCH  24  27
HETATM   27  C10 UNL     1     -26.119  17.163  -3.198  1.00  0.00     0.129 A 
HETATM   28  C11 UNL     1     -27.411  17.855  -2.783  1.00  0.00     0.023 A 
HETATM   29  C12 UNL     1     -26.349  18.587  -3.470  1.00  0.00     0.023 A 
ENDBRANCH  24  27
ENDBRANCH  22  24
ENDBRANCH  20  22
ENDBRANCH   5  17
BRANCH  12  30
HETATM   30  N5  UNL     1     -23.381   9.378  -9.160  1.00  0.00    -0.385 N 
ATOM     31  H52 UNL     1     -23.101   8.399  -9.092  1.00  0.00     0.157 HD
ATOM     32  H51 UNL     1     -23.304   9.880 -10.044  1.00  0.00     0.157 HD
ENDBRANCH  12  30
TORSDOF 6
ENDMDL
MODEL 4
REMARK VINA RESULT: -8.098538003      5.441      8.318
REMARK  6 active torsions:
REMARK  status: ('A' for Active; 'I' for Inactive)
REMARK    1  A    between atoms: C4_4  and  C5_5 
REMARK    2  A    between atoms: N1_8  and  C6_9 
REMARK    3  A    between atoms: C9_12  and  N2_13 
REMARK    4  A    between atoms: N2_13  and  S1_15 
REMARK    5  A    between atoms: S1_15  and  C10_18 
REMARK    6  A    between atoms: C16_28  and  N5_29 
ROOT
HETATM    1  C1  UNL     1     -27.932  14.140  -7.176  1.00  0.00     0.018 C 
HETATM    2  C2  UNL     1     -27.531  13.108  -7.645  1.00  0.00    -0.075 C 
HETATM    3  C3  UNL     1     -27.047  11.870  -8.185  1.00  0.00     0.060 A 
HETATM    4  C4  UNL     1     -27.565  11.196  -9.297  1.00  0.00     0.066 A 
HETATM    5  N1  UNL     1     -26.858  10.088  -9.492  1.00  0.00    -0.327 N 
HETATM    6  C14 UNL     1     -25.890  10.043  -8.514  1.00  0.00     0.124 A 
HETATM    7  N3  UNL     1     -24.920   9.152  -8.247  1.00  0.00    -0.338 N 
ATOM      8  H3  UNL     1     -24.830   8.331  -8.845  1.00  0.00     0.168 HD
HETATM    9  C15 UNL     1     -24.066   9.302  -7.223  1.00  0.00     0.183 A 
HETATM   10  N4  UNL     1     -24.163  10.371  -6.420  1.00  0.00    -0.338 N 
ATOM     11  H4  UNL     1     -23.516  10.488  -5.641  1.00  0.00     0.168 HD
HETATM   12  C16 UNL     1     -25.114  11.285  -6.646  1.00  0.00     0.115 A 
HETATM   13  C17 UNL     1     -25.999  11.136  -7.704  1.00  0.00     0.072 A 
ENDROOT
BRANCH   4  14
HETATM   14  C5  UNL     1     -28.690  11.690 -10.063  1.00  0.00     0.229 C 
HETATM   15 CL1  UNL     1     -28.290  11.852 -11.815  1.00  0.00    -0.101 Cl
HETATM   16 CL2  UNL     1     -30.068  10.520 -10.053  1.00  0.00    -0.101 Cl
ENDBRANCH   4  14
BRANCH   5  17
HETATM   17  C6  UNL     1     -26.997   9.084 -10.487  1.00  0.00     0.093 C 
HETATM   18  C7  UNL     1     -25.768   8.748 -11.253  1.00  0.00     0.028 C 
HETATM   19  C8  UNL     1     -25.916   7.258 -11.575  1.00  0.00     0.028 C 
HETATM   20  C9  UNL     1     -27.363   6.937 -11.296  1.00  0.00     0.095 C 
HETATM   21  C13 UNL     1     -27.564   7.787 -10.029  1.00  0.00     0.051 C 
BRANCH  20  22
HETATM   22  N2  UNL     1     -27.648   5.575 -11.082  1.00  0.00    -0.314 N 
ATOM     23  H2  UNL     1     -27.343   5.080 -10.245  1.00  0.00     0.172 HD
BRANCH  22  24
HETATM   24  S1  UNL     1     -28.540   4.806 -12.324  1.00  0.00     0.231 S 
HETATM   25  O1  UNL     1     -29.998   4.701 -11.972  1.00  0.00    -0.206 OA
HETATM   26  O2  UNL     1     -27.960   3.503 -12.747  1.00  0.00    -0.206 OA
BRANCH  24  27
HETATM   27  C10 UNL     1     -28.475   5.888 -13.761  1.00  0.00     0.129 A 
HETATM   28  C11 UNL     1     -29.746   5.894 -14.601  1.00  0.00     0.023 A 
HETATM   29  C12 UNL     1     -28.507   5.308 -15.108  1.00  0.00     0.023 A 
ENDBRANCH  24  27
ENDBRANCH  22  24
ENDBRANCH  20  22
ENDBRANCH   5  17
BRANCH  12  30
HETATM   30  N5  UNL     1     -25.278  12.347  -5.923  1.00  0.00    -0.385 N 
ATOM     31  H52 UNL     1     -25.495  12.182  -4.940  1.00  0.00     0.157 HD
ATOM     32  H51 UNL     1     -25.204  13.297  -6.286  1.00  0.00     0.157 HD
ENDBRANCH  12  30
TORSDOF 6
ENDMDL
MODEL 5
REMARK VINA RESULT: -8.096305794      3.529      4.978
REMARK  6 active torsions:
REMARK  status: ('A' for Active; 'I' for Inactive)
REMARK    1  A    between atoms: C4_4  and  C5_5 
REMARK    2  A    between atoms: N1_8  and  C6_9 
REMARK    3  A    between atoms: C9_12  and  N2_13 
REMARK    4  A    between atoms: N2_13  and  S1_15 
REMARK    5  A    between atoms: S1_15  and  C10_18 
REMARK    6  A    between atoms: C16_28  and  N5_29 
ROOT
HETATM    1  C1  UNL     1     -28.229   9.694 -16.374  1.00  0.00     0.018 C 
HETATM    2  C2  UNL     1     -27.771   9.482 -15.282  1.00  0.00    -0.075 C 
HETATM    3  C3  UNL     1     -27.221   9.207 -13.986  1.00  0.00     0.060 A 
HETATM    4  C4  UNL     1     -26.454  10.085 -13.212  1.00  0.00     0.066 A 
HETATM    5  N1  UNL     1     -26.126   9.478 -12.075  1.00  0.00    -0.327 N 
HETATM    6  C14 UNL     1     -26.677   8.216 -12.113  1.00  0.00     0.124 A 
HETATM    7  N3  UNL     1     -26.656   7.198 -11.236  1.00  0.00    -0.338 N 
ATOM      8  H3  UNL     1     -26.153   7.318 -10.357  1.00  0.00     0.168 HD
HETATM    9  C15 UNL     1     -27.270   6.030 -11.474  1.00  0.00     0.183 A 
HETATM   10  N4  UNL     1     -27.938   5.845 -12.622  1.00  0.00    -0.338 N 
ATOM     11  H4  UNL     1     -28.406   4.957 -12.806  1.00  0.00     0.168 HD
HETATM   12  C16 UNL     1     -27.987   6.830 -13.526  1.00  0.00     0.115 A 
HETATM   13  C17 UNL     1     -27.354   8.040 -13.285  1.00  0.00     0.072 A 
ENDROOT
BRANCH   4  14
HETATM   14  C5  UNL     1     -26.112  11.423 -13.645  1.00  0.00     0.229 C 
HETATM   15 CL1  UNL     1     -25.242  11.416 -15.226  1.00  0.00    -0.101 Cl
HETATM   16 CL2  UNL     1     -27.587  12.412 -13.983  1.00  0.00    -0.101 Cl
ENDBRANCH   4  14
BRANCH   5  17
HETATM   17  C6  UNL     1     -25.362   9.954 -10.978  1.00  0.00     0.093 C 
HETATM   18  C7  UNL     1     -24.104  10.669 -11.318  1.00  0.00     0.028 C 
HETATM   19  C8  UNL     1     -23.947  11.711 -10.206  1.00  0.00     0.028 C 
HETATM   20  C9  UNL     1     -24.910  11.282  -9.126  1.00  0.00     0.095 C 
HETATM   21  C13 UNL     1     -26.082  10.824 -10.010  1.00  0.00     0.051 C 
BRANCH  20  22
HETATM   22  N2  UNL     1     -25.281  12.289  -8.216  1.00  0.00    -0.314 N 
ATOM     23  H2  UNL     1     -25.351  13.269  -8.487  1.00  0.00     0.172 HD
BRANCH  22  24
HETATM   24  S1  UNL     1     -25.607  11.757  -6.622  1.00  0.00     0.231 S 
HETATM   25  O1  UNL     1     -24.398  11.122  -5.993  1.00  0.00    -0.206 OA
HETATM   26  O2  UNL     1     -26.819  10.900  -6.521  1.00  0.00    -0.206 OA
BRANCH  24  27
HETATM   27  C10 UNL     1     -25.936  13.229  -5.638  1.00  0.00     0.129 A 
HETATM   28  C11 UNL     1     -26.681  14.329  -6.384  1.00  0.00     0.023 A 
HETATM   29  C12 UNL     1     -25.284  14.496  -5.988  1.00  0.00     0.023 A 
ENDBRANCH  24  27
ENDBRANCH  22  24
ENDBRANCH  20  22
ENDBRANCH   5  17
BRANCH  12  30
HETATM   30  N5  UNL     1     -28.608   6.738 -14.659  1.00  0.00    -0.385 N 
ATOM     31  H52 UNL     1     -29.612   6.918 -14.628  1.00  0.00     0.157 HD
ATOM     32  H51 UNL     1     -28.150   6.500 -15.539  1.00  0.00     0.157 HD
ENDBRANCH  12  30
TORSDOF 6
ENDMDL
