MODEL 1
REMARK VINA RESULT: -7.311103821      0.000      0.000
REMARK  7 active torsions:
REMARK  status: ('A' for Active; 'I' for Inactive)
REMARK    1  A    between atoms: N1_2  and  C2_3 
REMARK    2  A    between atoms: N1_2  and  C4_9 
REMARK    3  A    between atoms: C2_3  and  C3_4 
REMARK    4  A    between atoms: C3_4  and  N2_5 
REMARK    5  A    between atoms: C6_11  and  N3_12 
REMARK    6  A    between atoms: N3_12  and  C7_14 
REMARK    7  A    between atoms: C7_14  and  C8_15 
ROOT
HETATM    1  C4  UNL     1     -25.879  11.554  -6.612  1.00  0.00     0.050 A 
HETATM    2  C5  UNL     1     -26.339  12.704  -6.012  1.00  0.00     0.078 A 
HETATM    3  C6  UNL     1     -27.006  13.682  -6.704  1.00  0.00     0.103 A 
HETATM    4  N5  UNL     1     -27.216  13.499  -8.035  1.00  0.00    -0.341 N 
ATOM      5  H5  UNL     1     -27.710  14.213  -8.570  1.00  0.00     0.167 HD
HETATM    6  C12 UNL     1     -26.779  12.383  -8.659  1.00  0.00     0.063 A 
HETATM    7  C13 UNL     1     -26.103  11.387  -7.963  1.00  0.00     0.069 A 
HETATM    8  C14 UNL     1     -25.784  10.361  -8.932  1.00  0.00     0.198 A 
HETATM    9  O1  UNL     1     -25.167   9.294  -8.676  1.00  0.00    -0.286 OA
HETATM   10  C15 UNL     1     -26.295  10.778 -10.230  1.00  0.00     0.031 A 
HETATM   11  C16 UNL     1     -26.261  10.174 -11.476  1.00  0.00     0.040 A 
HETATM   12  C17 UNL     1     -26.816  10.756 -12.590  1.00  0.00     0.036 A 
HETATM   13 CL1  UNL     1     -26.792  10.026 -14.178  1.00  0.00    -0.084 Cl
HETATM   14  C18 UNL     1     -27.421  11.984 -12.425  1.00  0.00     0.048 A 
HETATM   15  C19 UNL     1     -27.462  12.598 -11.187  1.00  0.00     0.049 A 
HETATM   16 CL2  UNL     1     -28.247  14.138 -11.093  1.00  0.00    -0.083 Cl
HETATM   17  C20 UNL     1     -26.903  12.011 -10.068  1.00  0.00     0.028 A 
ENDROOT
BRANCH   3  18
HETATM   18  N3  UNL     1     -27.451  14.771  -6.185  1.00  0.00    -0.376 N 
ATOM     19  H3  UNL     1     -28.459  14.923  -6.149  1.00  0.00     0.161 HD
BRANCH  18  20
HETATM   20  C7  UNL     1     -26.569  15.792  -5.647  1.00  0.00     0.127 C 
BRANCH  20  21
HETATM   21  C8  UNL     1     -26.347  15.615  -4.167  1.00  0.00     0.030 C 
HETATM   22  C9  UNL     1     -26.139  16.895  -3.432  1.00  0.00     0.035 C 
HETATM   23  C10 UNL     1     -27.484  17.256  -2.879  1.00  0.00     0.232 C 
HETATM   24  N4  UNL     1     -28.425  16.271  -3.429  1.00  0.00    -0.075 N 
HETATM   25  C11 UNL     1     -27.621  15.081  -3.552  1.00  0.00     0.238 C 
ATOM     26  H42 UNL     1     -29.280  16.150  -2.885  1.00  0.00     0.277 HD
ATOM     27  H41 UNL     1     -28.889  16.561  -4.290  1.00  0.00     0.277 HD
ENDBRANCH  20  21
ENDBRANCH  18  20
ENDBRANCH   3  18
BRANCH   1  28
HETATM   28  N1  UNL     1     -25.202  10.541  -5.872  1.00  0.00    -0.383 N 
HETATM   29  C1  UNL     1     -25.972   9.449  -5.319  1.00  0.00     0.150 C 
BRANCH  28  30
HETATM   30  C2  UNL     1     -23.773  10.542  -5.637  1.00  0.00     0.149 C 
BRANCH  30  31
HETATM   31  C3  UNL     1     -23.187   9.148  -5.569  1.00  0.00     0.249 C 
BRANCH  31  32
HETATM   32  N2  UNL     1     -22.894   8.718  -6.913  1.00  0.00    -0.078 N 
ATOM     33  H23 UNL     1     -23.094   7.730  -7.062  1.00  0.00     0.274 HD
ATOM     34  H22 UNL     1     -23.549   9.095  -7.598  1.00  0.00     0.274 HD
ATOM     35  H21 UNL     1     -21.925   8.959  -7.119  1.00  0.00     0.274 HD
ENDBRANCH  31  32
ENDBRANCH  30  31
ENDBRANCH  28  30
ENDBRANCH   1  28
TORSDOF 7
ENDMDL
MODEL 2
REMARK VINA RESULT: -7.287927323      2.887      7.055
REMARK  7 active torsions:
REMARK  status: ('A' for Active; 'I' for Inactive)
REMARK    1  A    between atoms: N1_2  and  C2_3 
REMARK    2  A    between atoms: N1_2  and  C4_9 
REMARK    3  A    between atoms: C2_3  and  C3_4 
REMARK    4  A    between atoms: C3_4  and  N2_5 
REMARK    5  A    between atoms: C6_11  and  N3_12 
REMARK    6  A    between atoms: N3_12  and  C7_14 
REMARK    7  A    between atoms: C7_14  and  C8_15 
ROOT
HETATM    1  C4  UNL     1     -25.789  10.975  -8.792  1.00  0.00     0.050 A 
HETATM    2  C5  UNL     1     -26.593  10.797  -9.894  1.00  0.00     0.078 A 
HETATM    3  C6  UNL     1     -27.772  11.476 -10.067  1.00  0.00     0.103 A 
HETATM    4  N5  UNL     1     -28.152  12.359  -9.104  1.00  0.00    -0.341 N 
ATOM      5  H5  UNL     1     -29.025  12.875  -9.211  1.00  0.00     0.167 HD
HETATM    6  C12 UNL     1     -27.389  12.560  -8.007  1.00  0.00     0.063 A 
HETATM    7  C13 UNL     1     -26.193  11.875  -7.827  1.00  0.00     0.069 A 
HETATM    8  C14 UNL     1     -25.653  12.327  -6.563  1.00  0.00     0.198 A 
HETATM    9  O1  UNL     1     -24.573  11.928  -6.055  1.00  0.00    -0.286 OA
HETATM   10  C15 UNL     1     -26.568  13.307  -5.996  1.00  0.00     0.031 A 
HETATM   11  C16 UNL     1     -26.529  14.039  -4.821  1.00  0.00     0.040 A 
HETATM   12  C17 UNL     1     -27.519  14.926  -4.474  1.00  0.00     0.036 A 
HETATM   13 CL1  UNL     1     -27.505  15.866  -3.001  1.00  0.00    -0.084 Cl
HETATM   14  C18 UNL     1     -28.574  15.069  -5.351  1.00  0.00     0.048 A 
HETATM   15  C19 UNL     1     -28.625  14.345  -6.527  1.00  0.00     0.049 A 
HETATM   16 CL2  UNL     1     -29.995  14.602  -7.555  1.00  0.00    -0.083 Cl
HETATM   17  C20 UNL     1     -27.629  13.453  -6.873  1.00  0.00     0.028 A 
ENDROOT
BRANCH   3  18
HETATM   18  N3  UNL     1     -28.554  11.340 -11.079  1.00  0.00    -0.376 N 
ATOM     19  H3  UNL     1     -29.522  11.650 -10.997  1.00  0.00     0.161 HD
BRANCH  18  20
HETATM   20  C7  UNL     1     -28.106  10.761 -12.333  1.00  0.00     0.127 C 
BRANCH  20  21
HETATM   21  C8  UNL     1     -27.540  11.806 -13.259  1.00  0.00     0.030 C 
HETATM   22  C9  UNL     1     -26.171  11.491 -13.759  1.00  0.00     0.035 C 
HETATM   23  C10 UNL     1     -26.377  10.852 -15.099  1.00  0.00     0.232 C 
HETATM   24  N4  UNL     1     -27.830  10.691 -15.251  1.00  0.00    -0.075 N 
HETATM   25  C11 UNL     1     -28.363  11.818 -14.527  1.00  0.00     0.238 C 
ATOM     26  H42 UNL     1     -28.150  10.617 -16.217  1.00  0.00     0.277 HD
ATOM     27  H41 UNL     1     -28.191   9.785 -14.952  1.00  0.00     0.277 HD
ENDBRANCH  20  21
ENDBRANCH  18  20
ENDBRANCH   3  18
BRANCH   1  28
HETATM   28  N1  UNL     1     -24.559  10.272  -8.639  1.00  0.00    -0.383 N 
HETATM   29  C1  UNL     1     -23.415  10.689  -9.419  1.00  0.00     0.150 C 
BRANCH  28  30
HETATM   30  C2  UNL     1     -24.386   9.149  -7.740  1.00  0.00     0.149 C 
BRANCH  30  31
HETATM   31  C3  UNL     1     -23.015   9.115  -7.100  1.00  0.00     0.249 C 
BRANCH  31  32
HETATM   32  N2  UNL     1     -23.188   9.113  -5.669  1.00  0.00    -0.078 N 
ATOM     33  H23 UNL     1     -22.919   9.997  -5.239  1.00  0.00     0.274 HD
ATOM     34  H22 UNL     1     -24.170   9.119  -5.392  1.00  0.00     0.274 HD
ATOM     35  H21 UNL     1     -22.677   8.318  -5.288  1.00  0.00     0.274 HD
ENDBRANCH  31  32
ENDBRANCH  30  31
ENDBRANCH  28  30
ENDBRANCH   1  28
TORSDOF 7
ENDMDL
MODEL 3
REMARK VINA RESULT: -7.218418181      3.681      7.530
REMARK  7 active torsions:
REMARK  status: ('A' for Active; 'I' for Inactive)
REMARK    1  A    between atoms: N1_2  and  C2_3 
REMARK    2  A    between atoms: N1_2  and  C4_9 
REMARK    3  A    between atoms: C2_3  and  C3_4 
REMARK    4  A    between atoms: C3_4  and  N2_5 
REMARK    5  A    between atoms: C6_11  and  N3_12 
REMARK    6  A    between atoms: N3_12  and  C7_14 
REMARK    7  A    between atoms: C7_14  and  C8_15 
ROOT
HETATM    1  C4  UNL     1     -29.132  11.276  -9.160  1.00  0.00     0.050 A 
HETATM    2  C5  UNL     1     -28.267  10.277  -9.544  1.00  0.00     0.078 A 
HETATM    3  C6  UNL     1     -27.040  10.096  -8.959  1.00  0.00     0.103 A 
HETATM    4  N5  UNL     1     -26.673  10.943  -7.960  1.00  0.00    -0.341 N 
ATOM      5  H5  UNL     1     -25.764  10.827  -7.510  1.00  0.00     0.167 HD
HETATM    6  C12 UNL     1     -27.495  11.936  -7.555  1.00  0.00     0.063 A 
HETATM    7  C13 UNL     1     -28.740  12.124  -8.144  1.00  0.00     0.069 A 
HETATM    8  C14 UNL     1     -29.335  13.262  -7.477  1.00  0.00     0.198 A 
HETATM    9  O1  UNL     1     -30.470  13.739  -7.739  1.00  0.00    -0.286 OA
HETATM   10  C15 UNL     1     -28.403  13.745  -6.469  1.00  0.00     0.031 A 
HETATM   11  C16 UNL     1     -28.477  14.791  -5.565  1.00  0.00     0.040 A 
HETATM   12  C17 UNL     1     -27.461  15.077  -4.685  1.00  0.00     0.036 A 
HETATM   13 CL1  UNL     1     -27.517  16.388  -3.532  1.00  0.00    -0.084 Cl
HETATM   14  C18 UNL     1     -26.342  14.271  -4.732  1.00  0.00     0.048 A 
HETATM   15  C19 UNL     1     -26.255  13.223  -5.629  1.00  0.00     0.049 A 
HETATM   16 CL2  UNL     1     -24.806  12.276  -5.601  1.00  0.00    -0.083 Cl
HETATM   17  C20 UNL     1     -27.278  12.939  -6.513  1.00  0.00     0.028 A 
ENDROOT
BRANCH   3  18
HETATM   18  N3  UNL     1     -26.201   9.178  -9.287  1.00  0.00    -0.376 N 
ATOM     19  H3  UNL     1     -26.557   8.294  -9.651  1.00  0.00     0.161 HD
BRANCH  18  20
HETATM   20  C7  UNL     1     -24.766   9.357  -9.158  1.00  0.00     0.127 C 
BRANCH  20  21
HETATM   21  C8  UNL     1     -24.137   9.784 -10.459  1.00  0.00     0.030 C 
HETATM   22  C9  UNL     1     -25.079  10.472 -11.388  1.00  0.00     0.035 C 
HETATM   23  C10 UNL     1     -24.864  11.937 -11.154  1.00  0.00     0.232 C 
HETATM   24  N4  UNL     1     -23.933  12.033 -10.021  1.00  0.00    -0.075 N 
HETATM   25  C11 UNL     1     -23.112  10.857 -10.168  1.00  0.00     0.238 C 
ATOM     26  H42 UNL     1     -23.414  12.909  -9.972  1.00  0.00     0.277 HD
ATOM     27  H41 UNL     1     -24.382  12.126  -9.109  1.00  0.00     0.277 HD
ENDBRANCH  20  21
ENDBRANCH  18  20
ENDBRANCH   3  18
BRANCH   1  28
HETATM   28  N1  UNL     1     -30.410  11.438  -9.769  1.00  0.00    -0.383 N 
HETATM   29  C1  UNL     1     -30.520  12.264 -10.950  1.00  0.00     0.150 C 
BRANCH  28  30
HETATM   30  C2  UNL     1     -31.619  10.817  -9.267  1.00  0.00     0.149 C 
BRANCH  30  31
HETATM   31  C3  UNL     1     -32.826  11.725  -9.357  1.00  0.00     0.249 C 
BRANCH  31  32
HETATM   32  N2  UNL     1     -33.045  12.311  -8.060  1.00  0.00    -0.078 N 
ATOM     33  H23 UNL     1     -33.759  11.822  -7.522  1.00  0.00     0.274 HD
ATOM     34  H22 UNL     1     -32.264  12.158  -7.422  1.00  0.00     0.274 HD
ATOM     35  H21 UNL     1     -33.259  13.300  -8.189  1.00  0.00     0.274 HD
ENDBRANCH  31  32
ENDBRANCH  30  31
ENDBRANCH  28  30
ENDBRANCH   1  28
TORSDOF 7
ENDMDL
MODEL 4
REMARK VINA RESULT: -7.197961543      3.638      7.412
REMARK  7 active torsions:
REMARK  status: ('A' for Active; 'I' for Inactive)
REMARK    1  A    between atoms: N1_2  and  C2_3 
REMARK    2  A    between atoms: N1_2  and  C4_9 
REMARK    3  A    between atoms: C2_3  and  C3_4 
REMARK    4  A    between atoms: C3_4  and  N2_5 
REMARK    5  A    between atoms: C6_11  and  N3_12 
REMARK    6  A    between atoms: N3_12  and  C7_14 
REMARK    7  A    between atoms: C7_14  and  C8_15 
ROOT
HETATM    1  C4  UNL     1     -28.892  11.215  -9.282  1.00  0.00     0.050 A 
HETATM    2  C5  UNL     1     -27.979  10.252  -9.645  1.00  0.00     0.078 A 
HETATM    3  C6  UNL     1     -26.772  10.101  -9.011  1.00  0.00     0.103 A 
HETATM    4  N5  UNL     1     -26.476  10.943  -7.983  1.00  0.00    -0.341 N 
ATOM      5  H5  UNL     1     -25.584  10.850  -7.497  1.00  0.00     0.167 HD
HETATM    6  C12 UNL     1     -27.347  11.901  -7.599  1.00  0.00     0.063 A 
HETATM    7  C13 UNL     1     -28.572  12.058  -8.237  1.00  0.00     0.069 A 
HETATM    8  C14 UNL     1     -29.233  13.165  -7.579  1.00  0.00     0.198 A 
HETATM    9  O1  UNL     1     -30.372  13.609  -7.882  1.00  0.00    -0.286 OA
HETATM   10  C15 UNL     1     -28.362  13.661  -6.524  1.00  0.00     0.031 A 
HETATM   11  C16 UNL     1     -28.509  14.688  -5.608  1.00  0.00     0.040 A 
HETATM   12  C17 UNL     1     -27.541  14.992  -4.681  1.00  0.00     0.036 A 
HETATM   13 CL1  UNL     1     -27.690  16.281  -3.511  1.00  0.00    -0.084 Cl
HETATM   14  C18 UNL     1     -26.395  14.225  -4.692  1.00  0.00     0.048 A 
HETATM   15  C19 UNL     1     -26.235  13.196  -5.601  1.00  0.00     0.049 A 
HETATM   16 CL2  UNL     1     -24.757  12.296  -5.526  1.00  0.00    -0.083 Cl
HETATM   17  C20 UNL     1     -27.209  12.893  -6.532  1.00  0.00     0.028 A 
ENDROOT
BRANCH   3  18
HETATM   18  N3  UNL     1     -25.889   9.218  -9.317  1.00  0.00    -0.376 N 
ATOM     19  H3  UNL     1     -26.201   8.286  -9.592  1.00  0.00     0.161 HD
BRANCH  18  20
HETATM   20  C7  UNL     1     -24.465   9.500  -9.284  1.00  0.00     0.127 C 
BRANCH  20  21
HETATM   21  C8  UNL     1     -23.935   9.851 -10.650  1.00  0.00     0.030 C 
HETATM   22  C9  UNL     1     -24.995  10.201 -11.638  1.00  0.00     0.035 C 
HETATM   23  C10 UNL     1     -25.074  11.698 -11.618  1.00  0.00     0.232 C 
HETATM   24  N4  UNL     1     -24.179  12.136 -10.537  1.00  0.00    -0.075 N 
HETATM   25  C11 UNL     1     -23.142  11.134 -10.542  1.00  0.00     0.238 C 
ATOM     26  H42 UNL     1     -23.844  13.094 -10.626  1.00  0.00     0.277 HD
ATOM     27  H41 UNL     1     -24.637  12.269  -9.635  1.00  0.00     0.277 HD
ENDBRANCH  20  21
ENDBRANCH  18  20
ENDBRANCH   3  18
BRANCH   1  28
HETATM   28  N1  UNL     1     -30.148  11.345  -9.943  1.00  0.00    -0.383 N 
HETATM   29  C1  UNL     1     -31.288  10.626  -9.421  1.00  0.00     0.150 C 
BRANCH  28  30
HETATM   30  C2  UNL     1     -30.351  12.163 -11.121  1.00  0.00     0.149 C 
BRANCH  30  31
HETATM   31  C3  UNL     1     -29.174  13.066 -11.420  1.00  0.00     0.249 C 
BRANCH  31  32
HETATM   32  N2  UNL     1     -29.469  14.375 -10.896  1.00  0.00    -0.078 N 
ATOM     33  H23 UNL     1     -29.786  14.349  -9.928  1.00  0.00     0.274 HD
ATOM     34  H22 UNL     1     -28.631  14.939 -10.751  1.00  0.00     0.274 HD
ATOM     35  H21 UNL     1     -30.141  14.823 -11.519  1.00  0.00     0.274 HD
ENDBRANCH  31  32
ENDBRANCH  30  31
ENDBRANCH  28  30
ENDBRANCH   1  28
TORSDOF 7
ENDMDL
MODEL 5
REMARK VINA RESULT: -7.165981963      2.882      6.646
REMARK  7 active torsions:
REMARK  status: ('A' for Active; 'I' for Inactive)
REMARK    1  A    between atoms: N1_2  and  C2_3 
REMARK    2  A    between atoms: N1_2  and  C4_9 
REMARK    3  A    between atoms: C2_3  and  C3_4 
REMARK    4  A    between atoms: C3_4  and  N2_5 
REMARK    5  A    between atoms: C6_11  and  N3_12 
REMARK    6  A    between atoms: N3_12  and  C7_14 
REMARK    7  A    between atoms: C7_14  and  C8_15 
ROOT
HETATM    1  C4  UNL     1     -25.730  10.647  -8.269  1.00  0.00     0.050 A 
HETATM    2  C5  UNL     1     -26.591  10.326  -9.294  1.00  0.00     0.078 A 
HETATM    3  C6  UNL     1     -27.780  10.980  -9.493  1.00  0.00     0.103 A 
HETATM    4  N5  UNL     1     -28.111  11.985  -8.639  1.00  0.00    -0.341 N 
ATOM      5  H5  UNL     1     -28.991  12.486  -8.768  1.00  0.00     0.167 HD
HETATM    6  C12 UNL     1     -27.292  12.329  -7.620  1.00  0.00     0.063 A 
HETATM    7  C13 UNL     1     -26.086  11.670  -7.414  1.00  0.00     0.069 A 
HETATM    8  C14 UNL     1     -25.482  12.285  -6.251  1.00  0.00     0.198 A 
HETATM    9  O1  UNL     1     -24.375  11.954  -5.753  1.00  0.00    -0.286 OA
HETATM   10  C15 UNL     1     -26.369  13.336  -5.774  1.00  0.00     0.031 A 
HETATM   11  C16 UNL     1     -26.270  14.219  -4.711  1.00  0.00     0.040 A 
HETATM   12  C17 UNL     1     -27.243  15.148  -4.434  1.00  0.00     0.036 A 
HETATM   13 CL1  UNL     1     -27.155  16.277  -3.104  1.00  0.00    -0.084 Cl
HETATM   14  C18 UNL     1     -28.343  15.176  -5.266  1.00  0.00     0.048 A 
HETATM   15  C19 UNL     1     -28.454  14.300  -6.330  1.00  0.00     0.049 A 
HETATM   16 CL2  UNL     1     -29.877  14.422  -7.310  1.00  0.00    -0.083 Cl
HETATM   17  C20 UNL     1     -27.475  13.366  -6.605  1.00  0.00     0.028 A 
ENDROOT
BRANCH   3  18
HETATM   18  N3  UNL     1     -28.613  10.713 -10.435  1.00  0.00    -0.376 N 
ATOM     19  H3  UNL     1     -29.547  10.385 -10.187  1.00  0.00     0.161 HD
BRANCH  18  20
HETATM   20  C7  UNL     1     -28.271  10.861 -11.839  1.00  0.00     0.127 C 
BRANCH  20  21
HETATM   21  C8  UNL     1     -28.037  12.303 -12.207  1.00  0.00     0.030 C 
HETATM   22  C9  UNL     1     -27.829  12.527 -13.666  1.00  0.00     0.035 C 
HETATM   23  C10 UNL     1     -29.172  12.925 -14.200  1.00  0.00     0.232 C 
HETATM   24  N4  UNL     1     -30.113  12.775 -13.081  1.00  0.00    -0.075 N 
HETATM   25  C11 UNL     1     -29.304  13.081 -11.927  1.00  0.00     0.238 C 
ATOM     26  H42 UNL     1     -30.962  13.333 -13.163  1.00  0.00     0.277 HD
ATOM     27  H41 UNL     1     -30.585  11.871 -13.041  1.00  0.00     0.277 HD
ENDBRANCH  20  21
ENDBRANCH  18  20
ENDBRANCH   3  18
BRANCH   1  28
HETATM   28  N1  UNL     1     -24.491   9.966  -8.088  1.00  0.00    -0.383 N 
HETATM   29  C1  UNL     1     -24.432   8.863  -7.155  1.00  0.00     0.150 C 
BRANCH  28  30
HETATM   30  C2  UNL     1     -23.275  10.319  -8.790  1.00  0.00     0.149 C 
BRANCH  30  31
HETATM   31  C3  UNL     1     -23.535  10.875 -10.174  1.00  0.00     0.249 C 
BRANCH  31  32
HETATM   32  N2  UNL     1     -23.315  12.298 -10.134  1.00  0.00    -0.078 N 
ATOM     33  H23 UNL     1     -24.181  12.832 -10.190  1.00  0.00     0.274 HD
ATOM     34  H22 UNL     1     -23.011  12.624  -9.217  1.00  0.00     0.274 HD
ATOM     35  H21 UNL     1     -22.656  12.539 -10.875  1.00  0.00     0.274 HD
ENDBRANCH  31  32
ENDBRANCH  30  31
ENDBRANCH  28  30
ENDBRANCH   1  28
TORSDOF 7
ENDMDL
