MODEL 1
REMARK VINA RESULT: -7.670539005      0.000      0.000
REMARK  2 active torsions:
REMARK  status: ('A' for Active; 'I' for Inactive)
REMARK    1  A    between atoms: O1_2  and  C2_3 
REMARK    2  A    between atoms: C5_7  and  C6_8 
ROOT
HETATM    1  C2  UNL     1     -45.671  12.696   7.556  1.00  0.00     0.113 A 
HETATM    2  C3  UNL     1     -45.020  13.309   6.525  1.00  0.00     0.070 A 
HETATM    3 CL1  UNL     1     -45.389  12.744   4.899  1.00  0.00    -0.081 Cl
HETATM    4  C4  UNL     1     -44.117  14.316   6.716  1.00  0.00     0.044 A 
HETATM    5  C5  UNL     1     -43.820  14.770   8.025  1.00  0.00     0.033 A 
HETATM    6  C9  UNL     1     -44.462  14.169   9.055  1.00  0.00     0.072 A 
HETATM    7 CL2  UNL     1     -44.270  14.643  10.740  1.00  0.00    -0.081 Cl
HETATM    8  C10 UNL     1     -45.378  13.142   8.823  1.00  0.00     0.091 A 
HETATM    9 CL3  UNL     1     -46.172  12.406  10.214  1.00  0.00    -0.079 Cl
ENDROOT
BRANCH   5  10
HETATM   10  C6  UNL     1     -42.884  15.864   8.163  1.00  0.00     0.123 A 
HETATM   11  N1  UNL     1     -42.908  16.823   7.169  1.00  0.00    -0.294 N 
HETATM   12  C7  UNL     1     -42.127  17.893   7.222  1.00  0.00     0.328 A 
ATOM     13  H1  UNL     1     -43.540  16.706   6.378  1.00  0.00     0.172 HD
HETATM   14  O2  UNL     1     -42.139  18.782   6.317  1.00  0.00    -0.247 OA
HETATM   15  N2  UNL     1     -41.268  18.111   8.240  1.00  0.00    -0.285 N 
HETATM   16  C8  UNL     1     -41.229  17.195   9.210  1.00  0.00     0.181 A 
ATOM     17  H2  UNL     1     -40.674  18.940   8.267  1.00  0.00     0.173 HD
HETATM   18  S1  UNL     1     -40.213  17.394  10.471  1.00  0.00    -0.040 SA
HETATM   19  N3  UNL     1     -42.040  16.080   9.158  1.00  0.00    -0.318 N 
ATOM     20  H3  UNL     1     -41.985  15.396   9.913  1.00  0.00     0.170 HD
ENDBRANCH   5  10
BRANCH   1  21
HETATM   21  O1  UNL     1     -46.585  11.680   7.416  1.00  0.00    -0.352 OA
HETATM   22  C1  UNL     1     -46.278  10.324   7.298  1.00  0.00     0.210 C 
ENDBRANCH   1  21
TORSDOF 2
ENDMDL
MODEL 2
REMARK VINA RESULT: -7.322183742      3.761      5.950
REMARK  2 active torsions:
REMARK  status: ('A' for Active; 'I' for Inactive)
REMARK    1  A    between atoms: O1_2  and  C2_3 
REMARK    2  A    between atoms: C5_7  and  C6_8 
ROOT
HETATM    1  C2  UNL     1     -42.948  16.589   9.413  1.00  0.00     0.113 A 
HETATM    2  C3  UNL     1     -43.159  16.531   8.066  1.00  0.00     0.070 A 
HETATM    3 CL1  UNL     1     -42.488  17.837   7.094  1.00  0.00    -0.081 Cl
HETATM    4  C4  UNL     1     -43.857  15.518   7.472  1.00  0.00     0.044 A 
HETATM    5  C5  UNL     1     -44.397  14.467   8.254  1.00  0.00     0.033 A 
HETATM    6  C9  UNL     1     -44.191  14.516   9.592  1.00  0.00     0.072 A 
HETATM    7 CL2  UNL     1     -44.729  13.268  10.711  1.00  0.00    -0.081 Cl
HETATM    8  C10 UNL     1     -43.474  15.567  10.166  1.00  0.00     0.091 A 
HETATM    9 CL3  UNL     1     -43.250  15.563  11.914  1.00  0.00    -0.079 Cl
ENDROOT
BRANCH   5  10
HETATM   10  C6  UNL     1     -45.093  13.403   7.565  1.00  0.00     0.123 A 
HETATM   11  N1  UNL     1     -44.976  13.381   6.189  1.00  0.00    -0.294 N 
HETATM   12  C7  UNL     1     -45.533  12.421   5.464  1.00  0.00     0.328 A 
ATOM     13  H1  UNL     1     -44.450  14.119   5.721  1.00  0.00     0.172 HD
HETATM   14  O2  UNL     1     -45.434  12.389   4.199  1.00  0.00    -0.247 OA
HETATM   15  N2  UNL     1     -46.243  11.415   6.017  1.00  0.00    -0.285 N 
HETATM   16  C8  UNL     1     -46.368  11.419   7.346  1.00  0.00     0.181 A 
ATOM     17  H2  UNL     1     -46.665  10.684   5.445  1.00  0.00     0.173 HD
HETATM   18  S1  UNL     1     -47.213  10.234   8.083  1.00  0.00    -0.040 SA
HETATM   19  N3  UNL     1     -45.790  12.417   8.104  1.00  0.00    -0.318 N 
ATOM     20  H3  UNL     1     -45.906  12.394   9.118  1.00  0.00     0.170 HD
ENDBRANCH   5  10
BRANCH   1  21
HETATM   21  O1  UNL     1     -42.255  17.585  10.058  1.00  0.00    -0.352 OA
HETATM   22  C1  UNL     1     -40.867  17.649  10.195  1.00  0.00     0.210 C 
ENDBRANCH   1  21
TORSDOF 2
ENDMDL
MODEL 3
REMARK VINA RESULT: -7.061110645      4.054      6.039
REMARK  2 active torsions:
REMARK  status: ('A' for Active; 'I' for Inactive)
REMARK    1  A    between atoms: O1_2  and  C2_3 
REMARK    2  A    between atoms: C5_7  and  C6_8 
ROOT
HETATM    1  C2  UNL     1     -43.536  16.007  10.148  1.00  0.00     0.113 A 
HETATM    2  C3  UNL     1     -42.871  15.318   9.176  1.00  0.00     0.070 A 
HETATM    3 CL1  UNL     1     -41.160  15.676   8.970  1.00  0.00    -0.081 Cl
HETATM    4  C4  UNL     1     -43.481  14.387   8.383  1.00  0.00     0.044 A 
HETATM    5  C5  UNL     1     -44.858  14.100   8.548  1.00  0.00     0.033 A 
HETATM    6  C9  UNL     1     -45.526  14.778   9.512  1.00  0.00     0.072 A 
HETATM    7 CL2  UNL     1     -47.221  14.506   9.904  1.00  0.00    -0.081 Cl
HETATM    8  C10 UNL     1     -44.872  15.723  10.303  1.00  0.00     0.091 A 
HETATM    9 CL3  UNL     1     -45.808  16.568  11.534  1.00  0.00    -0.079 Cl
ENDROOT
BRANCH   5  10
HETATM   10  C6  UNL     1     -45.440  13.078   7.706  1.00  0.00     0.123 A 
HETATM   11  N1  UNL     1     -45.475  13.344   6.351  1.00  0.00    -0.294 N 
HETATM   12  C7  UNL     1     -45.942  12.456   5.484  1.00  0.00     0.328 A 
ATOM     13  H1  UNL     1     -45.134  14.243   6.010  1.00  0.00     0.172 HD
HETATM   14  O2  UNL     1     -45.980  12.687   4.237  1.00  0.00    -0.247 OA
HETATM   15  N2  UNL     1     -46.408  11.249   5.866  1.00  0.00    -0.285 N 
HETATM   16  C8  UNL     1     -46.384  10.973   7.172  1.00  0.00     0.181 A 
ATOM     17  H2  UNL     1     -46.764  10.576   5.186  1.00  0.00     0.173 HD
HETATM   18  S1  UNL     1     -46.932   9.532   7.705  1.00  0.00    -0.040 SA
HETATM   19  N3  UNL     1     -45.899  11.895   8.077  1.00  0.00    -0.318 N 
ATOM     20  H3  UNL     1     -45.896  11.656   9.069  1.00  0.00     0.170 HD
ENDBRANCH   5  10
BRANCH   1  21
HETATM   21  O1  UNL     1     -42.970  16.951  10.969  1.00  0.00    -0.352 OA
HETATM   22  C1  UNL     1     -42.319  16.690  12.176  1.00  0.00     0.210 C 
ENDBRANCH   1  21
TORSDOF 2
ENDMDL
MODEL 4
REMARK VINA RESULT: -7.022622334      5.695      8.182
REMARK  2 active torsions:
REMARK  status: ('A' for Active; 'I' for Inactive)
REMARK    1  A    between atoms: O1_2  and  C2_3 
REMARK    2  A    between atoms: C5_7  and  C6_8 
ROOT
HETATM    1  C2  UNL     1     -45.559  13.322   8.811  1.00  0.00     0.113 A 
HETATM    2  C3  UNL     1     -46.330  12.436   9.506  1.00  0.00     0.070 A 
HETATM    3 CL1  UNL     1     -46.630  12.797  11.203  1.00  0.00    -0.081 Cl
HETATM    4  C4  UNL     1     -46.858  11.312   8.937  1.00  0.00     0.044 A 
HETATM    5  C5  UNL     1     -46.616  11.022   7.571  1.00  0.00     0.033 A 
HETATM    6  C9  UNL     1     -45.854  11.897   6.873  1.00  0.00     0.072 A 
HETATM    7 CL2  UNL     1     -45.503  11.735   5.155  1.00  0.00    -0.081 Cl
HETATM    8  C10 UNL     1     -45.330  13.035   7.487  1.00  0.00     0.091 A 
HETATM    9 CL3  UNL     1     -44.344  14.125   6.514  1.00  0.00    -0.079 Cl
ENDROOT
BRANCH   5  10
HETATM   10  C6  UNL     1     -47.233   9.838   7.014  1.00  0.00     0.123 A 
HETATM   11  N1  UNL     1     -46.563   8.646   7.211  1.00  0.00    -0.294 N 
HETATM   12  C7  UNL     1     -47.063   7.494   6.784  1.00  0.00     0.328 A 
ATOM     13  H1  UNL     1     -45.666   8.651   7.695  1.00  0.00     0.172 HD
HETATM   14  O2  UNL     1     -46.460   6.391   6.959  1.00  0.00    -0.247 OA
HETATM   15  N2  UNL     1     -48.245   7.414   6.138  1.00  0.00    -0.285 N 
HETATM   16  C8  UNL     1     -48.907   8.556   5.937  1.00  0.00     0.181 A 
ATOM     17  H2  UNL     1     -48.617   6.520   5.817  1.00  0.00     0.173 HD
HETATM   18  S1  UNL     1     -50.342   8.535   5.161  1.00  0.00    -0.040 SA
HETATM   19  N3  UNL     1     -48.389   9.756   6.379  1.00  0.00    -0.318 N 
ATOM     20  H3  UNL     1     -48.917  10.612   6.208  1.00  0.00     0.170 HD
ENDBRANCH   5  10
BRANCH   1  21
HETATM   21  O1  UNL     1     -45.006  14.465   9.337  1.00  0.00    -0.352 OA
HETATM   22  C1  UNL     1     -45.653  15.695   9.463  1.00  0.00     0.210 C 
ENDBRANCH   1  21
TORSDOF 2
ENDMDL
MODEL 5
REMARK VINA RESULT: -7.015520924      1.395      1.428
REMARK  2 active torsions:
REMARK  status: ('A' for Active; 'I' for Inactive)
REMARK    1  A    between atoms: O1_2  and  C2_3 
REMARK    2  A    between atoms: C5_7  and  C6_8 
ROOT
HETATM    1  C2  UNL     1     -45.932  12.900   8.549  1.00  0.00     0.113 A 
HETATM    2  C3  UNL     1     -44.713  12.774   7.948  1.00  0.00     0.070 A 
HETATM    3 CL1  UNL     1     -44.393  11.266   7.098  1.00  0.00    -0.081 Cl
HETATM    4  C4  UNL     1     -43.765  13.756   7.990  1.00  0.00     0.044 A 
HETATM    5  C5  UNL     1     -44.023  14.969   8.675  1.00  0.00     0.033 A 
HETATM    6  C9  UNL     1     -45.231  15.104   9.273  1.00  0.00     0.072 A 
HETATM    7 CL2  UNL     1     -45.751  16.563  10.111  1.00  0.00    -0.081 Cl
HETATM    8  C10 UNL     1     -46.176  14.079   9.211  1.00  0.00     0.091 A 
HETATM    9 CL3  UNL     1     -47.724  14.326  10.016  1.00  0.00    -0.079 Cl
ENDROOT
BRANCH   5  10
HETATM   10  C6  UNL     1     -42.996  15.988   8.653  1.00  0.00     0.123 A 
HETATM   11  N1  UNL     1     -42.991  16.833   7.561  1.00  0.00    -0.294 N 
HETATM   12  C7  UNL     1     -42.123  17.831   7.463  1.00  0.00     0.328 A 
ATOM     13  H1  UNL     1     -43.669  16.686   6.813  1.00  0.00     0.172 HD
HETATM   14  O2  UNL     1     -42.108  18.615   6.466  1.00  0.00    -0.247 OA
HETATM   15  N2  UNL     1     -41.200  18.082   8.415  1.00  0.00    -0.285 N 
HETATM   16  C8  UNL     1     -41.187  17.275   9.478  1.00  0.00     0.181 A 
ATOM     17  H2  UNL     1     -40.539  18.854   8.325  1.00  0.00     0.173 HD
HETATM   18  S1  UNL     1     -40.097  17.519  10.667  1.00  0.00    -0.040 SA
HETATM   19  N3  UNL     1     -42.088  16.234   9.582  1.00  0.00    -0.318 N 
ATOM     20  H3  UNL     1     -42.052  15.634  10.406  1.00  0.00     0.170 HD
ENDBRANCH   5  10
BRANCH   1  21
HETATM   21  O1  UNL     1     -46.917  11.942   8.536  1.00  0.00    -0.352 OA
HETATM   22  C1  UNL     1     -47.224  11.081   9.591  1.00  0.00     0.210 C 
ENDBRANCH   1  21
TORSDOF 2
ENDMDL
