MODEL 1
REMARK VINA RESULT: -7.926049749      0.000      0.000
REMARK  3 active torsions:
REMARK  status: ('A' for Active; 'I' for Inactive)
REMARK    1  A    between atoms: C5_9  and  N2_10 
REMARK    2  A    between atoms: N2_10  and  C6_12 
REMARK    3  A    between atoms: C6_12  and  C7_13 
ROOT
HETATM    1  N2  UNL     1     -43.775  14.894   7.168  1.00  0.00    -0.350 N 
ATOM      2  H2  UNL     1     -43.203  14.115   6.843  1.00  0.00     0.166 HD
ENDROOT
BRANCH   1   3
HETATM    3  C5  UNL     1     -42.950  15.923   7.502  1.00  0.00     0.134 A 
HETATM    4  C4  UNL     1     -42.068  15.757   8.562  1.00  0.00     0.145 A 
HETATM    5  C3  UNL     1     -41.124  16.723   8.931  1.00  0.00     0.272 A 
HETATM    6 CL1  UNL     1     -42.124  14.296   9.503  1.00  0.00    -0.074 Cl
HETATM    7  N1  UNL     1     -41.079  17.837   8.223  1.00  0.00    -0.312 N 
HETATM    8  O1  UNL     1     -40.377  16.519   9.895  1.00  0.00    -0.266 OA
HETATM    9  C2  UNL     1     -41.907  18.054   7.184  1.00  0.00     0.081 A 
ATOM     10  H1  UNL     1     -40.397  18.555   8.470  1.00  0.00     0.170 HD
HETATM   11  C1  UNL     1     -41.731  19.344   6.478  1.00  0.00     0.089 C 
HETATM   12  N4  UNL     1     -42.806  17.124   6.850  1.00  0.00    -0.331 N 
ATOM     13  H4  UNL     1     -43.424  17.317   6.062  1.00  0.00     0.168 HD
ENDBRANCH   1   3
BRANCH   1  14
HETATM   14  C6  UNL     1     -45.124  14.509   7.106  1.00  0.00     0.104 C 
BRANCH  14  15
HETATM   15  C7  UNL     1     -45.503  13.155   7.393  1.00  0.00     0.023 A 
HETATM   16  C8  UNL     1     -45.961  12.866   8.709  1.00  0.00     0.050 A 
HETATM   17 CL2  UNL     1     -45.543  14.016   9.965  1.00  0.00    -0.083 Cl
HETATM   18  C9  UNL     1     -46.620  11.728   8.995  1.00  0.00     0.067 A 
HETATM   19  C10 UNL     1     -46.853  10.818   7.987  1.00  0.00     0.105 A 
HETATM   20 CL3  UNL     1     -47.715   9.328   8.270  1.00  0.00    -0.065 Cl
HETATM   21  N3  UNL     1     -46.407  11.084   6.719  1.00  0.00    -0.350 N 
HETATM   22  C11 UNL     1     -45.749  12.222   6.397  1.00  0.00     0.019 A 
ATOM     23  H3  UNL     1     -46.579  10.396   5.986  1.00  0.00     0.166 HD
HETATM   24  C12 UNL     1     -45.422  12.561   5.006  1.00  0.00     0.069 C 
ENDBRANCH  14  15
ENDBRANCH   1  14
TORSDOF 3
ENDMDL
MODEL 2
REMARK VINA RESULT: -7.375508416      2.984      6.940
REMARK  3 active torsions:
REMARK  status: ('A' for Active; 'I' for Inactive)
REMARK    1  A    between atoms: C5_9  and  N2_10 
REMARK    2  A    between atoms: N2_10  and  C6_12 
REMARK    3  A    between atoms: C6_12  and  C7_13 
ROOT
HETATM    1  N2  UNL     1     -46.068  13.522   8.653  1.00  0.00    -0.350 N 
ATOM      2  H2  UNL     1     -46.768  14.172   8.295  1.00  0.00     0.166 HD
ENDROOT
BRANCH   1   3
HETATM    3  C5  UNL     1     -46.188  12.346   7.978  1.00  0.00     0.134 A 
HETATM    4  C4  UNL     1     -45.601  12.232   6.725  1.00  0.00     0.145 A 
HETATM    5  C3  UNL     1     -45.597  11.041   5.987  1.00  0.00     0.272 A 
HETATM    6 CL1  UNL     1     -44.838  13.617   6.005  1.00  0.00    -0.074 Cl
HETATM    7  N1  UNL     1     -46.180   9.985   6.527  1.00  0.00    -0.312 N 
HETATM    8  O1  UNL     1     -45.070  11.008   4.870  1.00  0.00    -0.266 OA
HETATM    9  C2  UNL     1     -46.763  10.036   7.739  1.00  0.00     0.081 A 
ATOM     10  H1  UNL     1     -46.187   9.105   6.010  1.00  0.00     0.170 HD
HETATM   11  C1  UNL     1     -47.364   8.770   8.217  1.00  0.00     0.089 C 
HETATM   12  N4  UNL     1     -46.763  11.181   8.425  1.00  0.00    -0.331 N 
ATOM     13  H4  UNL     1     -47.218  11.193   9.338  1.00  0.00     0.168 HD
ENDBRANCH   1   3
BRANCH   1  14
HETATM   14  C6  UNL     1     -45.335  14.171   9.660  1.00  0.00     0.104 C 
BRANCH  14  15
HETATM   15  C7  UNL     1     -44.416  15.220   9.324  1.00  0.00     0.023 A 
HETATM   16  C8  UNL     1     -43.207  14.851   8.672  1.00  0.00     0.050 A 
HETATM   17 CL2  UNL     1     -42.717  13.172   8.803  1.00  0.00    -0.083 Cl
HETATM   18  C9  UNL     1     -42.433  15.758   8.048  1.00  0.00     0.067 A 
HETATM   19  C10 UNL     1     -42.821  17.079   8.044  1.00  0.00     0.105 A 
HETATM   20 CL3  UNL     1     -41.885  18.315   7.243  1.00  0.00    -0.065 Cl
HETATM   21  N3  UNL     1     -43.980  17.446   8.677  1.00  0.00    -0.350 N 
HETATM   22  C11 UNL     1     -44.784  16.557   9.307  1.00  0.00     0.019 A 
ATOM     23  H3  UNL     1     -44.249  18.430   8.674  1.00  0.00     0.166 HD
HETATM   24  C12 UNL     1     -46.098  16.943   9.839  1.00  0.00     0.069 C 
ENDBRANCH  14  15
ENDBRANCH   1  14
TORSDOF 3
ENDMDL
MODEL 3
REMARK VINA RESULT: -7.233687103      8.039     11.211
REMARK  3 active torsions:
REMARK  status: ('A' for Active; 'I' for Inactive)
REMARK    1  A    between atoms: C5_9  and  N2_10 
REMARK    2  A    between atoms: N2_10  and  C6_12 
REMARK    3  A    between atoms: C6_12  and  C7_13 
ROOT
HETATM    1  N2  UNL     1     -48.839   6.592   3.256  1.00  0.00    -0.350 N 
ATOM      2  H2  UNL     1     -49.272   5.767   3.670  1.00  0.00     0.166 HD
ENDROOT
BRANCH   1   3
HETATM    3  C5  UNL     1     -48.728   7.548   4.219  1.00  0.00     0.134 A 
HETATM    4  C4  UNL     1     -49.887   8.092   4.757  1.00  0.00     0.145 A 
HETATM    5  C3  UNL     1     -49.881   9.019   5.807  1.00  0.00     0.272 A 
HETATM    6 CL1  UNL     1     -51.433   7.630   4.111  1.00  0.00    -0.074 Cl
HETATM    7  N1  UNL     1     -48.709   9.378   6.300  1.00  0.00    -0.312 N 
HETATM    8  O1  UNL     1     -50.947   9.477   6.232  1.00  0.00    -0.266 OA
HETATM    9  C2  UNL     1     -47.553   8.884   5.820  1.00  0.00     0.081 A 
ATOM     10  H1  UNL     1     -48.679  10.050   7.067  1.00  0.00     0.170 HD
HETATM   11  C1  UNL     1     -46.321   9.370   6.481  1.00  0.00     0.089 C 
HETATM   12  N4  UNL     1     -47.577   8.005   4.814  1.00  0.00    -0.331 N 
ATOM     13  H4  UNL     1     -46.686   7.651   4.466  1.00  0.00     0.168 HD
ENDBRANCH   1   3
BRANCH   1  14
HETATM   14  C6  UNL     1     -48.576   6.323   1.903  1.00  0.00     0.104 C 
BRANCH  14  15
HETATM   15  C7  UNL     1     -49.659   6.129   0.981  1.00  0.00     0.023 A 
HETATM   16  C8  UNL     1     -50.164   4.808   0.829  1.00  0.00     0.050 A 
HETATM   17 CL2  UNL     1     -49.126   3.497   1.356  1.00  0.00    -0.083 Cl
HETATM   18  C9  UNL     1     -51.349   4.567   0.240  1.00  0.00     0.067 A 
HETATM   19  C10 UNL     1     -52.091   5.628  -0.230  1.00  0.00     0.105 A 
HETATM   20 CL3  UNL     1     -53.646   5.404  -0.990  1.00  0.00    -0.065 Cl
HETATM   21  N3  UNL     1     -51.608   6.904  -0.097  1.00  0.00    -0.350 N 
HETATM   22  C11 UNL     1     -50.423   7.180   0.497  1.00  0.00     0.019 A 
ATOM     23  H3  UNL     1     -52.164   7.678  -0.460  1.00  0.00     0.166 HD
HETATM   24  C12 UNL     1     -49.999   8.559   0.774  1.00  0.00     0.069 C 
ENDBRANCH  14  15
ENDBRANCH   1  14
TORSDOF 3
ENDMDL
MODEL 4
REMARK VINA RESULT: -7.174940978      3.570      4.422
REMARK  3 active torsions:
REMARK  status: ('A' for Active; 'I' for Inactive)
REMARK    1  A    between atoms: C5_9  and  N2_10 
REMARK    2  A    between atoms: N2_10  and  C6_12 
REMARK    3  A    between atoms: C6_12  and  C7_13 
ROOT
HETATM    1  N2  UNL     1     -44.346  14.810  10.539  1.00  0.00    -0.350 N 
ATOM      2  H2  UNL     1     -43.680  14.131  10.907  1.00  0.00     0.166 HD
ENDROOT
BRANCH   1   3
HETATM    3  C5  UNL     1     -43.946  15.170   9.289  1.00  0.00     0.134 A 
HETATM    4  C4  UNL     1     -44.309  14.369   8.214  1.00  0.00     0.145 A 
HETATM    5  C3  UNL     1     -44.019  14.697   6.884  1.00  0.00     0.272 A 
HETATM    6 CL1  UNL     1     -45.154  12.878   8.502  1.00  0.00    -0.074 Cl
HETATM    7  N1  UNL     1     -43.372  15.827   6.659  1.00  0.00    -0.312 N 
HETATM    8  O1  UNL     1     -44.357  13.933   5.972  1.00  0.00    -0.266 OA
HETATM    9  C2  UNL     1     -42.997  16.644   7.660  1.00  0.00     0.081 A 
ATOM     10  H1  UNL     1     -43.152  16.089   5.697  1.00  0.00     0.170 HD
HETATM   11  C1  UNL     1     -42.292  17.880   7.252  1.00  0.00     0.089 C 
HETATM   12  N4  UNL     1     -43.277  16.313   8.923  1.00  0.00    -0.331 N 
ATOM     13  H4  UNL     1     -42.975  16.948   9.662  1.00  0.00     0.168 HD
ENDBRANCH   1   3
BRANCH   1  14
HETATM   14  C6  UNL     1     -45.337  15.027  11.509  1.00  0.00     0.104 C 
BRANCH  14  15
HETATM   15  C7  UNL     1     -46.718  14.788  11.199  1.00  0.00     0.023 A 
HETATM   16  C8  UNL     1     -47.318  13.616  11.736  1.00  0.00     0.050 A 
HETATM   17 CL2  UNL     1     -46.236  12.343  12.268  1.00  0.00    -0.083 Cl
HETATM   18  C9  UNL     1     -48.654  13.454  11.766  1.00  0.00     0.067 A 
HETATM   19  C10 UNL     1     -49.460  14.451  11.260  1.00  0.00     0.105 A 
HETATM   20 CL3  UNL     1     -51.200  14.329  11.278  1.00  0.00    -0.065 Cl
HETATM   21  N3  UNL     1     -48.890  15.580  10.732  1.00  0.00    -0.350 N 
HETATM   22  C11 UNL     1     -47.551  15.775  10.693  1.00  0.00     0.019 A 
ATOM     23  H3  UNL     1     -49.500  16.304  10.352  1.00  0.00     0.166 HD
HETATM   24  C12 UNL     1     -46.967  17.056  10.273  1.00  0.00     0.069 C 
ENDBRANCH  14  15
ENDBRANCH   1  14
TORSDOF 3
ENDMDL
MODEL 5
REMARK VINA RESULT: -7.173695821      2.627      3.777
REMARK  3 active torsions:
REMARK  status: ('A' for Active; 'I' for Inactive)
REMARK    1  A    between atoms: C5_9  and  N2_10 
REMARK    2  A    between atoms: N2_10  and  C6_12 
REMARK    3  A    between atoms: C6_12  and  C7_13 
ROOT
HETATM    1  N2  UNL     1     -45.864  13.365   7.818  1.00  0.00    -0.350 N 
ATOM      2  H2  UNL     1     -46.742  13.466   7.309  1.00  0.00     0.166 HD
ENDROOT
BRANCH   1   3
HETATM    3  C5  UNL     1     -45.432  14.603   8.180  1.00  0.00     0.134 A 
HETATM    4  C4  UNL     1     -46.032  15.230   9.265  1.00  0.00     0.145 A 
HETATM    5  C3  UNL     1     -45.605  16.466   9.767  1.00  0.00     0.272 A 
HETATM    6 CL1  UNL     1     -47.386  14.475  10.051  1.00  0.00    -0.074 Cl
HETATM    7  N1  UNL     1     -44.578  17.047   9.171  1.00  0.00    -0.312 N 
HETATM    8  O1  UNL     1     -46.190  16.978  10.728  1.00  0.00    -0.266 OA
HETATM    9  C2  UNL     1     -43.957  16.487   8.117  1.00  0.00     0.081 A 
ATOM     10  H1  UNL     1     -44.247  17.946   9.521  1.00  0.00     0.170 HD
HETATM   11  C1  UNL     1     -42.815  17.250   7.563  1.00  0.00     0.089 C 
HETATM   12  N4  UNL     1     -44.381  15.311   7.648  1.00  0.00    -0.331 N 
ATOM     13  H4  UNL     1     -43.896  14.913   6.844  1.00  0.00     0.168 HD
ENDBRANCH   1   3
BRANCH   1  14
HETATM   14  C6  UNL     1     -45.548  11.999   7.887  1.00  0.00     0.104 C 
BRANCH  14  15
HETATM   15  C7  UNL     1     -46.488  11.014   7.434  1.00  0.00     0.023 A 
HETATM   16  C8  UNL     1     -46.267  10.433   6.155  1.00  0.00     0.050 A 
HETATM   17 CL2  UNL     1     -45.213  11.307   5.059  1.00  0.00    -0.083 Cl
HETATM   18  C9  UNL     1     -46.893   9.306   5.771  1.00  0.00     0.067 A 
HETATM   19  C10 UNL     1     -47.775   8.701   6.640  1.00  0.00     0.105 A 
HETATM   20 CL3  UNL     1     -48.614   7.227   6.229  1.00  0.00    -0.065 Cl
HETATM   21  N3  UNL     1     -48.002   9.259   7.872  1.00  0.00    -0.350 N 
HETATM   22  C11 UNL     1     -47.382  10.388   8.290  1.00  0.00     0.019 A 
ATOM     23  H3  UNL     1     -48.665   8.805   8.499  1.00  0.00     0.166 HD
HETATM   24  C12 UNL     1     -47.515  10.879   9.667  1.00  0.00     0.069 C 
ENDBRANCH  14  15
ENDBRANCH   1  14
TORSDOF 3
ENDMDL
