MODEL 1
REMARK VINA RESULT: -6.770835508      0.000      0.000
REMARK  4 active torsions:
REMARK  status: ('A' for Active; 'I' for Inactive)
REMARK    1  A    between atoms: C2_2  and  C3_3 
REMARK    2  A    between atoms: C3_3  and  N1_4 
REMARK    3  A    between atoms: C3_3  and  C4_8 
REMARK    4  A    between atoms: N2_12  and  C7_13 
ROOT
HETATM    1  C4  UNL     1     -43.690  16.482   8.683  1.00  0.00     0.062 A 
HETATM    2  C5  UNL     1     -44.812  16.891   9.349  1.00  0.00     0.105 A 
HETATM    3  C6  UNL     1     -45.705  15.847   9.378  1.00  0.00     0.269 A 
HETATM    4  O1  UNL     1     -46.828  15.852   9.898  1.00  0.00    -0.266 OA
HETATM    5  N2  UNL     1     -45.138  14.830   8.746  1.00  0.00    -0.212 N 
HETATM    6  N3  UNL     1     -43.941  15.195   8.328  1.00  0.00    -0.292 N 
ATOM      7  H3  UNL     1     -43.296  14.596   7.812  1.00  0.00     0.187 HD
ENDROOT
BRANCH   5   8
HETATM    8  C7  UNL     1     -45.658  13.502   8.499  1.00  0.00     0.125 A 
HETATM    9  S1  UNL     1     -46.487  12.451   9.553  1.00  0.00    -0.055 SA
HETATM   10  C8  UNL     1     -46.732  11.136   8.504  1.00  0.00     0.100 A 
HETATM   11 CL1  UNL     1     -47.544   9.620   8.878  1.00  0.00    -0.074 Cl
HETATM   12  C9  UNL     1     -46.151  11.560   7.342  1.00  0.00     0.087 A 
HETATM   13 CL2  UNL     1     -46.166  10.477   5.921  1.00  0.00    -0.080 Cl
HETATM   14  C10 UNL     1     -45.595  12.779   7.331  1.00  0.00     0.093 A 
HETATM   15 CL3  UNL     1     -44.789  13.493   5.891  1.00  0.00    -0.079 Cl
ENDBRANCH   5   8
BRANCH   1  16
HETATM   16  C3  UNL     1     -42.430  17.192   8.364  1.00  0.00     0.234 C 
BRANCH  16  17
HETATM   17  C2  UNL     1     -41.280  16.285   8.714  1.00  0.00     0.035 C 
HETATM   18  C1  UNL     1     -40.357  17.015   9.647  1.00  0.00     0.007 C 
ENDBRANCH  16  17
BRANCH  16  19
HETATM   19  N1  UNL     1     -42.404  17.579   6.971  1.00  0.00    -0.070 N 
ATOM     20  H13 UNL     1     -41.559  18.105   6.748  1.00  0.00     0.275 HD
ATOM     21  H12 UNL     1     -42.257  16.773   6.363  1.00  0.00     0.275 HD
ATOM     22  H11 UNL     1     -43.243  18.096   6.706  1.00  0.00     0.275 HD
ENDBRANCH  16  19
ENDBRANCH   1  16
TORSDOF 4
ENDMDL
MODEL 2
REMARK VINA RESULT: -6.770300745      3.816      5.606
REMARK  4 active torsions:
REMARK  status: ('A' for Active; 'I' for Inactive)
REMARK    1  A    between atoms: C2_2  and  C3_3 
REMARK    2  A    between atoms: C3_3  and  N1_4 
REMARK    3  A    between atoms: C3_3  and  C4_8 
REMARK    4  A    between atoms: N2_12  and  C7_13 
ROOT
HETATM    1  C4  UNL     1     -44.847  13.731   6.691  1.00  0.00     0.062 A 
HETATM    2  C5  UNL     1     -44.040  14.809   6.451  1.00  0.00     0.105 A 
HETATM    3  C6  UNL     1     -44.025  15.599   7.575  1.00  0.00     0.269 A 
HETATM    4  O1  UNL     1     -43.403  16.659   7.724  1.00  0.00    -0.266 OA
HETATM    5  N2  UNL     1     -44.804  15.015   8.474  1.00  0.00    -0.212 N 
HETATM    6  N3  UNL     1     -45.298  13.904   7.961  1.00  0.00    -0.292 N 
ATOM      7  H3  UNL     1     -45.927  13.267   8.449  1.00  0.00     0.187 HD
ENDROOT
BRANCH   5   8
HETATM    8  C7  UNL     1     -45.125  15.439   9.820  1.00  0.00     0.125 A 
HETATM    9  S1  UNL     1     -46.530  16.201  10.410  1.00  0.00    -0.055 SA
HETATM   10  C8  UNL     1     -46.104  16.348  12.049  1.00  0.00     0.100 A 
HETATM   11 CL1  UNL     1     -47.075  17.056  13.336  1.00  0.00    -0.074 Cl
HETATM   12  C9  UNL     1     -44.858  15.789  12.092  1.00  0.00     0.087 A 
HETATM   13 CL2  UNL     1     -43.994  15.720  13.654  1.00  0.00    -0.080 Cl
HETATM   14  C10 UNL     1     -44.345  15.318  10.946  1.00  0.00     0.093 A 
HETATM   15 CL3  UNL     1     -42.723  14.554  10.823  1.00  0.00    -0.079 Cl
ENDBRANCH   5   8
BRANCH   1  16
HETATM   16  C3  UNL     1     -45.216  12.579   5.838  1.00  0.00     0.234 C 
BRANCH  16  17
HETATM   17  C2  UNL     1     -45.509  11.405   6.736  1.00  0.00     0.035 C 
HETATM   18  C1  UNL     1     -44.388  10.414   6.617  1.00  0.00     0.007 C 
ENDBRANCH  16  17
BRANCH  16  19
HETATM   19  N1  UNL     1     -46.346  12.908   4.999  1.00  0.00    -0.070 N 
ATOM     20  H13 UNL     1     -47.228  12.733   5.479  1.00  0.00     0.275 HD
ATOM     21  H12 UNL     1     -46.432  13.917   4.870  1.00  0.00     0.275 HD
ATOM     22  H11 UNL     1     -46.307  12.421   4.104  1.00  0.00     0.275 HD
ENDBRANCH  16  19
ENDBRANCH   1  16
TORSDOF 4
ENDMDL
MODEL 3
REMARK VINA RESULT: -6.762101745      2.737      3.240
REMARK  4 active torsions:
REMARK  status: ('A' for Active; 'I' for Inactive)
REMARK    1  A    between atoms: C2_2  and  C3_3 
REMARK    2  A    between atoms: C3_3  and  N1_4 
REMARK    3  A    between atoms: C3_3  and  C4_8 
REMARK    4  A    between atoms: N2_12  and  C7_13 
ROOT
HETATM    1  C4  UNL     1     -43.254  16.277   7.950  1.00  0.00     0.062 A 
HETATM    2  C5  UNL     1     -43.616  15.555   6.846  1.00  0.00     0.105 A 
HETATM    3  C6  UNL     1     -44.660  14.731   7.190  1.00  0.00     0.269 A 
HETATM    4  O1  UNL     1     -45.246  13.933   6.445  1.00  0.00    -0.266 OA
HETATM    5  N2  UNL     1     -44.926  14.948   8.469  1.00  0.00    -0.212 N 
HETATM    6  N3  UNL     1     -44.097  15.864   8.932  1.00  0.00    -0.292 N 
ATOM      7  H3  UNL     1     -44.091  16.214   9.891  1.00  0.00     0.187 HD
ENDROOT
BRANCH   5   8
HETATM    8  C7  UNL     1     -45.932  14.337   9.311  1.00  0.00     0.125 A 
HETATM    9  S1  UNL     1     -46.265  12.688   9.579  1.00  0.00    -0.055 SA
HETATM   10  C8  UNL     1     -47.561  12.835  10.669  1.00  0.00     0.100 A 
HETATM   11 CL1  UNL     1     -48.467  11.526  11.421  1.00  0.00    -0.074 Cl
HETATM   12  C9  UNL     1     -47.700  14.189  10.797  1.00  0.00     0.087 A 
HETATM   13 CL2  UNL     1     -48.974  14.831  11.872  1.00  0.00    -0.080 Cl
HETATM   14  C10 UNL     1     -46.863  14.970  10.099  1.00  0.00     0.093 A 
HETATM   15 CL3  UNL     1     -46.907  16.767  10.149  1.00  0.00    -0.079 Cl
ENDBRANCH   5   8
BRANCH   1  16
HETATM   16  C3  UNL     1     -42.203  17.301   8.145  1.00  0.00     0.234 C 
BRANCH  16  17
HETATM   17  C2  UNL     1     -40.927  16.597   8.524  1.00  0.00     0.035 C 
HETATM   18  C1  UNL     1     -40.455  17.132   9.845  1.00  0.00     0.007 C 
ENDBRANCH  16  17
BRANCH  16  19
HETATM   19  N1  UNL     1     -42.042  18.099   6.950  1.00  0.00    -0.070 N 
ATOM     20  H13 UNL     1     -41.147  17.914   6.498  1.00  0.00     0.275 HD
ATOM     21  H12 UNL     1     -42.665  17.783   6.205  1.00  0.00     0.275 HD
ATOM     22  H11 UNL     1     -42.165  19.093   7.139  1.00  0.00     0.275 HD
ENDBRANCH  16  19
ENDBRANCH   1  16
TORSDOF 4
ENDMDL
MODEL 4
REMARK VINA RESULT: -6.730765584      3.593      5.265
REMARK  4 active torsions:
REMARK  status: ('A' for Active; 'I' for Inactive)
REMARK    1  A    between atoms: C2_2  and  C3_3 
REMARK    2  A    between atoms: C3_3  and  N1_4 
REMARK    3  A    between atoms: C3_3  and  C4_8 
REMARK    4  A    between atoms: N2_12  and  C7_13 
ROOT
HETATM    1  C4  UNL     1     -45.075  13.740   6.837  1.00  0.00     0.062 A 
HETATM    2  C5  UNL     1     -44.416  14.917   7.061  1.00  0.00     0.105 A 
HETATM    3  C6  UNL     1     -44.805  15.408   8.284  1.00  0.00     0.269 A 
HETATM    4  O1  UNL     1     -44.414  16.455   8.816  1.00  0.00    -0.266 OA
HETATM    5  N2  UNL     1     -45.678  14.549   8.790  1.00  0.00    -0.212 N 
HETATM    6  N3  UNL     1     -45.847  13.554   7.941  1.00  0.00    -0.292 N 
ATOM      7  H3  UNL     1     -46.468  12.759   8.090  1.00  0.00     0.187 HD
ENDROOT
BRANCH   5   8
HETATM    8  C7  UNL     1     -46.384  14.601  10.052  1.00  0.00     0.125 A 
HETATM    9  S1  UNL     1     -48.023  14.948  10.363  1.00  0.00    -0.055 SA
HETATM   10  C8  UNL     1     -48.026  14.802  12.056  1.00  0.00     0.100 A 
HETATM   11 CL1  UNL     1     -49.399  15.021  13.136  1.00  0.00    -0.074 Cl
HETATM   12  C9  UNL     1     -46.728  14.481  12.337  1.00  0.00     0.087 A 
HETATM   13 CL2  UNL     1     -46.248  14.225  14.039  1.00  0.00    -0.080 Cl
HETATM   14  C10 UNL     1     -45.875  14.376  11.309  1.00  0.00     0.093 A 
HETATM   15 CL3  UNL     1     -44.135  13.963  11.498  1.00  0.00    -0.079 Cl
ENDBRANCH   5   8
BRANCH   1  16
HETATM   16  C3  UNL     1     -45.034  12.799   5.696  1.00  0.00     0.234 C 
BRANCH  16  17
HETATM   17  C2  UNL     1     -44.725  11.425   6.230  1.00  0.00     0.035 C 
HETATM   18  C1  UNL     1     -45.490  10.412   5.428  1.00  0.00     0.007 C 
ENDBRANCH  16  17
BRANCH  16  19
HETATM   19  N1  UNL     1     -46.286  12.824   4.971  1.00  0.00    -0.070 N 
ATOM     20  H13 UNL     1     -47.017  13.287   5.510  1.00  0.00     0.275 HD
ATOM     21  H12 UNL     1     -46.243  13.464   4.177  1.00  0.00     0.275 HD
ATOM     22  H11 UNL     1     -46.573  11.890   4.680  1.00  0.00     0.275 HD
ENDBRANCH  16  19
ENDBRANCH   1  16
TORSDOF 4
ENDMDL
MODEL 5
REMARK VINA RESULT: -6.723639817      2.636      3.166
REMARK  4 active torsions:
REMARK  status: ('A' for Active; 'I' for Inactive)
REMARK    1  A    between atoms: C2_2  and  C3_3 
REMARK    2  A    between atoms: C3_3  and  N1_4 
REMARK    3  A    between atoms: C3_3  and  C4_8 
REMARK    4  A    between atoms: N2_12  and  C7_13 
ROOT
HETATM    1  C4  UNL     1     -43.255  16.466   8.032  1.00  0.00     0.062 A 
HETATM    2  C5  UNL     1     -43.579  15.653   6.982  1.00  0.00     0.105 A 
HETATM    3  C6  UNL     1     -44.721  14.960   7.305  1.00  0.00     0.269 A 
HETATM    4  O1  UNL     1     -45.307  14.131   6.596  1.00  0.00    -0.266 OA
HETATM    5  N2  UNL     1     -45.081  15.345   8.521  1.00  0.00    -0.212 N 
HETATM    6  N3  UNL     1     -44.218  16.239   8.964  1.00  0.00    -0.292 N 
ATOM      7  H3  UNL     1     -44.267  16.695   9.874  1.00  0.00     0.187 HD
ENDROOT
BRANCH   5   8
HETATM    8  C7  UNL     1     -46.210  14.918   9.318  1.00  0.00     0.125 A 
HETATM    9  S1  UNL     1     -47.524  15.827   9.911  1.00  0.00    -0.055 SA
HETATM   10  C8  UNL     1     -48.372  14.600  10.725  1.00  0.00     0.100 A 
HETATM   11 CL1  UNL     1     -49.882  14.767  11.615  1.00  0.00    -0.074 Cl
HETATM   12  C9  UNL     1     -47.595  13.497  10.510  1.00  0.00     0.087 A 
HETATM   13 CL2  UNL     1     -48.106  11.929  11.198  1.00  0.00    -0.080 Cl
HETATM   14  C10 UNL     1     -46.478  13.652   9.785  1.00  0.00     0.093 A 
HETATM   15 CL3  UNL     1     -45.343  12.311   9.406  1.00  0.00    -0.079 Cl
ENDBRANCH   5   8
BRANCH   1  16
HETATM   16  C3  UNL     1     -42.138  17.419   8.220  1.00  0.00     0.234 C 
BRANCH  16  17
HETATM   17  C2  UNL     1     -40.929  16.641   8.669  1.00  0.00     0.035 C 
HETATM   18  C1  UNL     1     -40.380  17.278   9.913  1.00  0.00     0.007 C 
ENDBRANCH  16  17
BRANCH  16  19
HETATM   19  N1  UNL     1     -41.883  18.151   7.000  1.00  0.00    -0.070 N 
ATOM     20  H13 UNL     1     -42.710  18.179   6.404  1.00  0.00     0.275 HD
ATOM     21  H12 UNL     1     -41.781  19.150   7.180  1.00  0.00     0.275 HD
ATOM     22  H11 UNL     1     -41.076  17.780   6.498  1.00  0.00     0.275 HD
ENDBRANCH  16  19
ENDBRANCH   1  16
TORSDOF 4
ENDMDL
