MODEL 1
REMARK VINA RESULT: -9.625476608      0.000      0.000
REMARK  16 active torsions:
REMARK  status: ('A' for Active; 'I' for Inactive)
REMARK    1  A    between atoms: C3_6  and  O2_7 
REMARK    2  A    between atoms: C4_9  and  C5_10 
REMARK    3  A    between atoms: C5_10  and  C6_11 
REMARK    4  A    between atoms: C6_11  and  O3_12 
REMARK    5  A    between atoms: C6_11  and  O4_14 
REMARK    6  A    between atoms: O4_14  and  C7_15 
REMARK    7  A    between atoms: C7_15  and  C8_16 
REMARK    8  A    between atoms: C8_16  and  N2_17 
REMARK    9  A    between atoms: N2_17  and  O5_18 
REMARK   10  A    between atoms: N2_17  and  N3_20 
REMARK   11  A    between atoms: C10_29  and  N7_30 
REMARK   12  A    between atoms: C12_32  and  O6_33 
REMARK   13  A    between atoms: C13_35  and  O7_36 
REMARK   14  A    between atoms: C14_38  and  C15_39 
REMARK   15  A    between atoms: C15_39  and  N8_40 
REMARK   16  A    between atoms: C18_47  and  N11_48 
ROOT
HETATM    1  N3  UNL     1       0.624  20.746  68.618  1.00  0.00     0.017 N 
HETATM    2  N4  UNL     1      -0.113  21.852  68.619  1.00  0.00    -0.094 N 
ATOM      3  H4  UNL     1       0.052  22.663  68.023  1.00  0.00     0.208 HD
HETATM    4  C9  UNL     1      -1.110  21.748  69.518  1.00  0.00     0.707 A 
HETATM    5  N5  UNL     1      -2.022  22.595  69.813  1.00  0.00    -0.233 N 
ATOM      6  H51 UNL     1      -2.777  22.518  70.495  1.00  0.00     0.174 HD
ATOM      7  H52 UNL     1      -2.134  23.517  69.391  1.00  0.00     0.174 HD
HETATM    8  N6  UNL     1      -0.963  20.540  70.072  1.00  0.00    -0.018 N 
ATOM      9  H6  UNL     1      -1.566  20.154  70.799  1.00  0.00     0.203 HD
HETATM   10  C10 UNL     1       0.110  19.899  69.527  1.00  0.00     0.733 A 
ENDROOT
BRANCH  10  11
HETATM   11  N7  UNL     1       0.483  18.608  69.941  1.00  0.00    -0.211 N 
HETATM   12  C11 UNL     1      -0.511  17.569  69.912  1.00  0.00     0.175 C 
HETATM   13  C12 UNL     1       0.045  16.199  70.077  1.00  0.00     0.165 C 
HETATM   14  C13 UNL     1       1.294  16.080  70.861  1.00  0.00     0.155 C 
HETATM   15  C14 UNL     1       1.856  17.290  71.460  1.00  0.00     0.055 C 
HETATM   16  C19 UNL     1       1.837  18.387  70.390  1.00  0.00     0.150 C 
BRANCH  13  17
HETATM   17  O6  UNL     1      -0.958  15.276  70.487  1.00  0.00    -0.391 OA
ATOM     18  H6  UNL     1      -0.840  15.015  71.393  1.00  0.00     0.210 HD
ENDBRANCH  13  17
BRANCH  14  19
HETATM   19  O7  UNL     1       1.264  14.948  71.692  1.00  0.00    -0.392 OA
ATOM     20  H7  UNL     1       1.120  15.194  72.598  1.00  0.00     0.210 HD
ENDBRANCH  14  19
BRANCH  15  21
HETATM   21  C15 UNL     1       1.318  17.885  72.693  1.00  0.00     0.161 C 
BRANCH  21  22
HETATM   22  N8  UNL     1       2.196  18.672  73.505  1.00  0.00    -0.260 N 
HETATM   23  N9  UNL     1       3.155  18.057  74.170  1.00  0.00    -0.237 N 
HETATM   24  N10 UNL     1       3.966  18.724  74.971  1.00  0.00    -0.268 N 
ATOM     25  H9  UNL     1       3.272  17.050  74.063  1.00  0.00     0.208 HD
HETATM   26  C16 UNL     1       3.835  20.053  75.131  1.00  0.00     0.166 A 
ATOM     27  H10 UNL     1       4.701  18.225  75.474  1.00  0.00     0.190 HD
HETATM   28  C17 UNL     1       2.849  20.747  74.460  1.00  0.00     0.138 A 
HETATM   29  N14 UNL     1       4.525  21.055  75.902  1.00  0.00    -0.266 N 
HETATM   30  C18 UNL     1       2.024  19.986  73.627  1.00  0.00     0.149 A 
HETATM   31  N12 UNL     1       2.917  22.127  74.789  1.00  0.00    -0.277 N 
HETATM   32  N13 UNL     1       4.071  22.326  75.551  1.00  0.00    -0.020 NA
ATOM     33  H12 UNL     1       2.244  22.845  74.518  1.00  0.00     0.184 HD
ATOM     34  H14 UNL     1       5.242  20.862  76.602  1.00  0.00     0.186 HD
BRANCH  30  35
HETATM   35  N11 UNL     1       1.129  20.678  72.972  1.00  0.00    -0.382 N 
ATOM     36 2H11 UNL     1       0.875  20.288  72.065  1.00  0.00     0.157 HD
ATOM     37 1H11 UNL     1       0.681  21.523  73.327  1.00  0.00     0.157 HD
ENDBRANCH  30  35
ENDBRANCH  21  22
ENDBRANCH  15  21
ENDBRANCH  10  11
BRANCH   1  38
HETATM   38  N2  UNL     1       1.741  20.474  67.842  1.00  0.00    -0.163 N 
BRANCH  38  39
HETATM   39  C8  UNL     1       1.657  19.694  66.624  1.00  0.00     0.205 C 
BRANCH  39  40
HETATM   40  C7  UNL     1       1.145  20.518  65.444  1.00  0.00     0.195 C 
BRANCH  40  41
HETATM   41  O4  UNL     1       2.228  20.911  64.670  1.00  0.00    -0.359 OA
BRANCH  41  42
HETATM   42  C6  UNL     1       2.622  22.219  64.853  1.00  0.00     0.261 C 
BRANCH  42  43
HETATM   43  C5  UNL     1       1.411  23.150  64.867  1.00  0.00     0.106 C 
BRANCH  43  44
HETATM   44  C4  UNL     1       1.752  24.430  65.541  1.00  0.00     0.031 A 
HETATM   45  C2  UNL     1       1.692  25.693  64.983  1.00  0.00     0.040 A 
HETATM   46  C1  UNL     1       1.259  26.045  63.598  1.00  0.00     0.071 C 
HETATM   47  N1  UNL     1       2.093  26.539  65.928  1.00  0.00    -0.263 N 
HETATM   48  O1  UNL     1       2.390  25.882  67.008  1.00  0.00    -0.212 OA
ATOM     49  H1  UNL     1       2.157  27.551  65.820  1.00  0.00     0.194 HD
HETATM   50  C3  UNL     1       2.202  24.595  66.832  1.00  0.00     0.213 A 
BRANCH  50  51
HETATM   51  O2  UNL     1       2.428  23.624  67.797  1.00  0.00    -0.339 OA
ATOM     52  H2  UNL     1       2.983  22.862  67.679  1.00  0.00     0.220 HD
ENDBRANCH  50  51
ENDBRANCH  43  44
ENDBRANCH  42  43
BRANCH  42  53
HETATM   53  O3  UNL     1       3.462  22.630  63.810  1.00  0.00    -0.371 OA
ATOM     54  H3  UNL     1       3.697  21.858  63.308  1.00  0.00     0.212 HD
ENDBRANCH  42  53
ENDBRANCH  41  42
ENDBRANCH  40  41
ENDBRANCH  39  40
ENDBRANCH  38  39
BRANCH  38  55
HETATM   55  O5  UNL     1       2.975  20.946  68.186  1.00  0.00    -0.270 OA
ATOM     56  H5  UNL     1       3.174  20.987  69.114  1.00  0.00     0.246 HD
ENDBRANCH  38  55
ENDBRANCH   1  38
TORSDOF 16
ENDMDL
MODEL 2
REMARK VINA RESULT: -9.293983060      0.575      1.291
REMARK  16 active torsions:
REMARK  status: ('A' for Active; 'I' for Inactive)
REMARK    1  A    between atoms: C3_6  and  O2_7 
REMARK    2  A    between atoms: C4_9  and  C5_10 
REMARK    3  A    between atoms: C5_10  and  C6_11 
REMARK    4  A    between atoms: C6_11  and  O3_12 
REMARK    5  A    between atoms: C6_11  and  O4_14 
REMARK    6  A    between atoms: O4_14  and  C7_15 
REMARK    7  A    between atoms: C7_15  and  C8_16 
REMARK    8  A    between atoms: C8_16  and  N2_17 
REMARK    9  A    between atoms: N2_17  and  O5_18 
REMARK   10  A    between atoms: N2_17  and  N3_20 
REMARK   11  A    between atoms: C10_29  and  N7_30 
REMARK   12  A    between atoms: C12_32  and  O6_33 
REMARK   13  A    between atoms: C13_35  and  O7_36 
REMARK   14  A    between atoms: C14_38  and  C15_39 
REMARK   15  A    between atoms: C15_39  and  N8_40 
REMARK   16  A    between atoms: C18_47  and  N11_48 
ROOT
HETATM    1  N3  UNL     1       0.527  20.874  68.649  1.00  0.00     0.017 N 
HETATM    2  N4  UNL     1      -0.369  21.856  68.653  1.00  0.00    -0.094 N 
ATOM      3  H4  UNL     1      -0.349  22.667  68.034  1.00  0.00     0.208 HD
HETATM    4  C9  UNL     1      -1.307  21.630  69.592  1.00  0.00     0.707 A 
HETATM    5  N5  UNL     1      -2.325  22.338  69.903  1.00  0.00    -0.233 N 
ATOM      6  H51 UNL     1      -3.036  22.167  70.614  1.00  0.00     0.174 HD
ATOM      7  H52 UNL     1      -2.590  23.221  69.465  1.00  0.00     0.174 HD
HETATM    8  N6  UNL     1      -0.960  20.473  70.167  1.00  0.00    -0.018 N 
ATOM      9  H6  UNL     1      -1.473  20.021  70.924  1.00  0.00     0.203 HD
HETATM   10  C10 UNL     1       0.177  19.986  69.595  1.00  0.00     0.733 A 
ENDROOT
BRANCH  10  11
HETATM   11  N7  UNL     1       0.755  18.777  70.023  1.00  0.00    -0.211 N 
HETATM   12  C11 UNL     1      -0.011  17.568  69.883  1.00  0.00     0.175 C 
HETATM   13  C12 UNL     1       0.784  16.325  70.080  1.00  0.00     0.165 C 
HETATM   14  C13 UNL     1       1.955  16.423  70.978  1.00  0.00     0.155 C 
HETATM   15  C14 UNL     1       2.214  17.697  71.646  1.00  0.00     0.055 C 
HETATM   16  C19 UNL     1       2.080  18.805  70.596  1.00  0.00     0.150 C 
BRANCH  13  17
HETATM   17  O6  UNL     1      -0.053  15.214  70.378  1.00  0.00    -0.391 OA
ATOM     18  H6  UNL     1       0.283  14.712  71.111  1.00  0.00     0.210 HD
ENDBRANCH  13  17
BRANCH  14  19
HETATM   19  O7  UNL     1       2.070  15.279  71.784  1.00  0.00    -0.392 OA
ATOM     20  H7  UNL     1       2.908  15.260  72.233  1.00  0.00     0.210 HD
ENDBRANCH  14  19
BRANCH  15  21
HETATM   21  C15 UNL     1       1.461  18.136  72.831  1.00  0.00     0.161 C 
BRANCH  21  22
HETATM   22  N8  UNL     1       1.802  19.393  73.425  1.00  0.00    -0.260 N 
HETATM   23  N9  UNL     1       1.100  20.457  73.086  1.00  0.00    -0.237 N 
HETATM   24  N10 UNL     1       1.396  21.652  73.564  1.00  0.00    -0.268 N 
ATOM     25  H9  UNL     1       0.314  20.355  72.443  1.00  0.00     0.208 HD
HETATM   26  C16 UNL     1       2.427  21.816  74.413  1.00  0.00     0.166 A 
ATOM     27  H10 UNL     1       0.838  22.460  73.286  1.00  0.00     0.190 HD
HETATM   28  C17 UNL     1       3.195  20.737  74.801  1.00  0.00     0.138 A 
HETATM   29  N14 UNL     1       3.006  22.942  75.100  1.00  0.00    -0.266 N 
HETATM   30  C18 UNL     1       2.830  19.501  74.262  1.00  0.00     0.149 A 
HETATM   31  N12 UNL     1       4.211  21.163  75.698  1.00  0.00    -0.277 N 
HETATM   32  N13 UNL     1       3.972  22.504  76.006  1.00  0.00    -0.020 NA
ATOM     33  H12 UNL     1       4.978  20.592  76.054  1.00  0.00     0.184 HD
ATOM     34  H14 UNL     1       2.747  23.917  74.946  1.00  0.00     0.186 HD
BRANCH  30  35
HETATM   35  N11 UNL     1       3.549  18.493  74.684  1.00  0.00    -0.382 N 
ATOM     36 2H11 UNL     1       4.345  18.756  75.265  1.00  0.00     0.157 HD
ATOM     37 1H11 UNL     1       3.336  17.514  74.493  1.00  0.00     0.157 HD
ENDBRANCH  30  35
ENDBRANCH  21  22
ENDBRANCH  15  21
ENDBRANCH  10  11
BRANCH   1  38
HETATM   38  N2  UNL     1       1.643  20.751  67.836  1.00  0.00    -0.163 N 
BRANCH  38  39
HETATM   39  C8  UNL     1       1.633  19.945  66.634  1.00  0.00     0.205 C 
BRANCH  39  40
HETATM   40  C7  UNL     1       1.181  20.739  65.409  1.00  0.00     0.195 C 
BRANCH  40  41
HETATM   41  O4  UNL     1       2.302  21.130  64.692  1.00  0.00    -0.359 OA
BRANCH  41  42
HETATM   42  C6  UNL     1       2.687  22.438  64.893  1.00  0.00     0.261 C 
BRANCH  42  43
HETATM   43  C5  UNL     1       1.468  23.328  65.130  1.00  0.00     0.106 C 
BRANCH  43  44
HETATM   44  C4  UNL     1       1.897  24.690  65.543  1.00  0.00     0.031 A 
HETATM   45  C2  UNL     1       1.715  25.859  64.829  1.00  0.00     0.040 A 
HETATM   46  C1  UNL     1       1.042  26.010  63.505  1.00  0.00     0.071 C 
HETATM   47  N1  UNL     1       2.258  26.830  65.559  1.00  0.00    -0.263 N 
HETATM   48  O1  UNL     1       2.751  26.334  66.653  1.00  0.00    -0.212 OA
ATOM     49  H1  UNL     1       2.283  27.816  65.298  1.00  0.00     0.194 HD
HETATM   50  C3  UNL     1       2.560  25.037  66.699  1.00  0.00     0.213 A 
BRANCH  50  51
HETATM   51  O2  UNL     1       2.970  24.214  67.739  1.00  0.00    -0.339 OA
ATOM     52  H2  UNL     1       2.492  24.089  68.550  1.00  0.00     0.220 HD
ENDBRANCH  50  51
ENDBRANCH  43  44
ENDBRANCH  42  43
BRANCH  42  53
HETATM   53  O3  UNL     1       3.361  22.931  63.768  1.00  0.00    -0.371 OA
ATOM     54  H3  UNL     1       3.869  23.685  64.044  1.00  0.00     0.212 HD
ENDBRANCH  42  53
ENDBRANCH  41  42
ENDBRANCH  40  41
ENDBRANCH  39  40
ENDBRANCH  38  39
BRANCH  38  55
HETATM   55  O5  UNL     1       2.808  21.403  68.129  1.00  0.00    -0.270 OA
ATOM     56  H5  UNL     1       3.604  21.045  67.755  1.00  0.00     0.246 HD
ENDBRANCH  38  55
ENDBRANCH   1  38
TORSDOF 16
ENDMDL
MODEL 3
REMARK VINA RESULT: -9.213381840      1.019      1.431
REMARK  16 active torsions:
REMARK  status: ('A' for Active; 'I' for Inactive)
REMARK    1  A    between atoms: C3_6  and  O2_7 
REMARK    2  A    between atoms: C4_9  and  C5_10 
REMARK    3  A    between atoms: C5_10  and  C6_11 
REMARK    4  A    between atoms: C6_11  and  O3_12 
REMARK    5  A    between atoms: C6_11  and  O4_14 
REMARK    6  A    between atoms: O4_14  and  C7_15 
REMARK    7  A    between atoms: C7_15  and  C8_16 
REMARK    8  A    between atoms: C8_16  and  N2_17 
REMARK    9  A    between atoms: N2_17  and  O5_18 
REMARK   10  A    between atoms: N2_17  and  N3_20 
REMARK   11  A    between atoms: C10_29  and  N7_30 
REMARK   12  A    between atoms: C12_32  and  O6_33 
REMARK   13  A    between atoms: C13_35  and  O7_36 
REMARK   14  A    between atoms: C14_38  and  C15_39 
REMARK   15  A    between atoms: C15_39  and  N8_40 
REMARK   16  A    between atoms: C18_47  and  N11_48 
ROOT
HETATM    1  N3  UNL     1       0.459  20.331  68.438  1.00  0.00     0.017 N 
HETATM    2  N4  UNL     1      -0.138  21.518  68.507  1.00  0.00    -0.094 N 
ATOM      3  H4  UNL     1      -0.085  22.239  67.787  1.00  0.00     0.208 HD
HETATM    4  C9  UNL     1      -0.821  21.632  69.661  1.00  0.00     0.707 A 
HETATM    5  N5  UNL     1      -1.517  22.614  70.093  1.00  0.00    -0.233 N 
ATOM      6  H51 UNL     1      -2.034  22.701  70.967  1.00  0.00     0.174 HD
ATOM      7  H52 UNL     1      -1.665  23.497  69.603  1.00  0.00     0.174 HD
HETATM    8  N6  UNL     1      -0.627  20.475  70.303  1.00  0.00    -0.018 N 
ATOM      9  H6  UNL     1      -1.016  20.242  71.217  1.00  0.00     0.203 HD
HETATM   10  C10 UNL     1       0.166  19.651  69.560  1.00  0.00     0.733 A 
ENDROOT
BRANCH  10  11
HETATM   11  N7  UNL     1       0.524  18.369  70.015  1.00  0.00    -0.211 N 
HETATM   12  C11 UNL     1      -0.481  17.341  70.016  1.00  0.00     0.175 C 
HETATM   13  C12 UNL     1       0.059  15.971  70.226  1.00  0.00     0.165 C 
HETATM   14  C13 UNL     1       1.306  15.863  71.015  1.00  0.00     0.155 C 
HETATM   15  C14 UNL     1       1.880  17.085  71.577  1.00  0.00     0.055 C 
HETATM   16  C19 UNL     1       1.875  18.148  70.473  1.00  0.00     0.150 C 
BRANCH  13  17
HETATM   17  O6  UNL     1      -0.954  15.072  70.662  1.00  0.00    -0.391 OA
ATOM     18  H6  UNL     1      -1.798  15.504  70.726  1.00  0.00     0.210 HD
ENDBRANCH  13  17
BRANCH  14  19
HETATM   19  O7  UNL     1       1.262  14.758  71.881  1.00  0.00    -0.392 OA
ATOM     20  H7  UNL     1       2.090  14.293  71.882  1.00  0.00     0.210 HD
ENDBRANCH  14  19
BRANCH  15  21
HETATM   21  C15 UNL     1       1.347  17.723  72.790  1.00  0.00     0.161 C 
BRANCH  21  22
HETATM   22  N8  UNL     1       2.230  18.534  73.573  1.00  0.00    -0.260 N 
HETATM   23  N9  UNL     1       3.203  17.940  74.237  1.00  0.00    -0.237 N 
HETATM   24  N10 UNL     1       4.020  18.628  75.013  1.00  0.00    -0.268 N 
ATOM     25  H9  UNL     1       3.326  16.931  74.149  1.00  0.00     0.208 HD
HETATM   26  C16 UNL     1       3.881  19.960  75.148  1.00  0.00     0.166 A 
ATOM     27  H10 UNL     1       4.765  18.146  75.516  1.00  0.00     0.190 HD
HETATM   28  C17 UNL     1       2.880  20.632  74.476  1.00  0.00     0.138 A 
HETATM   29  N14 UNL     1       4.574  20.982  75.888  1.00  0.00    -0.266 N 
HETATM   30  C18 UNL     1       2.050  19.849  73.670  1.00  0.00     0.149 A 
HETATM   31  N12 UNL     1       2.942  22.020  74.776  1.00  0.00    -0.277 N 
HETATM   32  N13 UNL     1       4.105  22.242  75.517  1.00  0.00    -0.020 NA
ATOM     33  H12 UNL     1       2.261  22.727  74.499  1.00  0.00     0.184 HD
ATOM     34  H14 UNL     1       5.302  20.810  76.582  1.00  0.00     0.186 HD
BRANCH  30  35
HETATM   35  N11 UNL     1       1.141  20.521  73.013  1.00  0.00    -0.382 N 
ATOM     36 2H11 UNL     1       0.224  20.076  72.987  1.00  0.00     0.157 HD
ATOM     37 1H11 UNL     1       1.298  21.432  72.582  1.00  0.00     0.157 HD
ENDBRANCH  30  35
ENDBRANCH  21  22
ENDBRANCH  15  21
ENDBRANCH  10  11
BRANCH   1  38
HETATM   38  N2  UNL     1       1.257  19.843  67.415  1.00  0.00    -0.163 N 
BRANCH  38  39
HETATM   39  C8  UNL     1       1.956  20.722  66.501  1.00  0.00     0.205 C 
BRANCH  39  40
HETATM   40  C7  UNL     1       1.268  20.806  65.140  1.00  0.00     0.195 C 
BRANCH  40  41
HETATM   41  O4  UNL     1       2.173  21.302  64.211  1.00  0.00    -0.359 OA
BRANCH  41  42
HETATM   42  C6  UNL     1       2.677  22.549  64.509  1.00  0.00     0.261 C 
BRANCH  42  43
HETATM   43  C5  UNL     1       1.611  23.625  64.304  1.00  0.00     0.106 C 
BRANCH  43  44
HETATM   44  C4  UNL     1       2.056  24.912  64.900  1.00  0.00     0.031 A 
HETATM   45  C2  UNL     1       2.293  25.158  66.239  1.00  0.00     0.040 A 
HETATM   46  C1  UNL     1       2.167  24.189  67.367  1.00  0.00     0.071 C 
HETATM   47  N1  UNL     1       2.659  26.434  66.325  1.00  0.00    -0.263 N 
HETATM   48  O1  UNL     1       2.660  26.971  65.143  1.00  0.00    -0.212 OA
ATOM     49  H1  UNL     1       2.903  26.916  67.190  1.00  0.00     0.194 HD
HETATM   50  C3  UNL     1       2.302  26.093  64.236  1.00  0.00     0.213 A 
BRANCH  50  51
HETATM   51  O2  UNL     1       2.205  26.355  62.877  1.00  0.00    -0.339 OA
ATOM     52  H2  UNL     1       1.389  26.477  62.406  1.00  0.00     0.220 HD
ENDBRANCH  50  51
ENDBRANCH  43  44
ENDBRANCH  42  43
BRANCH  42  53
HETATM   53  O3  UNL     1       3.757  22.856  63.670  1.00  0.00    -0.371 OA
ATOM     54  H3  UNL     1       3.611  22.416  62.841  1.00  0.00     0.212 HD
ENDBRANCH  42  53
ENDBRANCH  41  42
ENDBRANCH  40  41
ENDBRANCH  39  40
ENDBRANCH  38  39
BRANCH  38  55
HETATM   55  O5  UNL     1       1.432  18.501  67.232  1.00  0.00    -0.270 OA
ATOM     56  H5  UNL     1       1.877  18.029  67.926  1.00  0.00     0.246 HD
ENDBRANCH  38  55
ENDBRANCH   1  38
TORSDOF 16
ENDMDL
MODEL 4
REMARK VINA RESULT: -9.092810499      2.693      4.300
REMARK  16 active torsions:
REMARK  status: ('A' for Active; 'I' for Inactive)
REMARK    1  A    between atoms: C3_6  and  O2_7 
REMARK    2  A    between atoms: C4_9  and  C5_10 
REMARK    3  A    between atoms: C5_10  and  C6_11 
REMARK    4  A    between atoms: C6_11  and  O3_12 
REMARK    5  A    between atoms: C6_11  and  O4_14 
REMARK    6  A    between atoms: O4_14  and  C7_15 
REMARK    7  A    between atoms: C7_15  and  C8_16 
REMARK    8  A    between atoms: C8_16  and  N2_17 
REMARK    9  A    between atoms: N2_17  and  O5_18 
REMARK   10  A    between atoms: N2_17  and  N3_20 
REMARK   11  A    between atoms: C10_29  and  N7_30 
REMARK   12  A    between atoms: C12_32  and  O6_33 
REMARK   13  A    between atoms: C13_35  and  O7_36 
REMARK   14  A    between atoms: C14_38  and  C15_39 
REMARK   15  A    between atoms: C15_39  and  N8_40 
REMARK   16  A    between atoms: C18_47  and  N11_48 
ROOT
HETATM    1  N3  UNL     1       0.329  18.209  70.712  1.00  0.00     0.017 N 
HETATM    2  N4  UNL     1      -0.974  18.180  70.451  1.00  0.00    -0.094 N 
ATOM      3  H4  UNL     1      -1.383  17.942  69.548  1.00  0.00     0.208 HD
HETATM    4  C9  UNL     1      -1.678  18.511  71.550  1.00  0.00     0.707 A 
HETATM    5  N5  UNL     1      -2.945  18.597  71.701  1.00  0.00    -0.233 N 
ATOM      6  H51 UNL     1      -3.479  18.848  72.533  1.00  0.00     0.174 HD
ATOM      7  H52 UNL     1      -3.642  18.419  70.978  1.00  0.00     0.174 HD
HETATM    8  N6  UNL     1      -0.765  18.745  72.498  1.00  0.00    -0.018 N 
ATOM      9  H6  UNL     1      -0.977  19.019  73.458  1.00  0.00     0.203 HD
HETATM   10  C10 UNL     1       0.490  18.562  71.998  1.00  0.00     0.733 A 
ENDROOT
BRANCH  10  11
HETATM   11  N7  UNL     1       1.634  18.749  72.797  1.00  0.00    -0.211 N 
HETATM   12  C11 UNL     1       2.014  17.696  73.699  1.00  0.00     0.175 C 
HETATM   13  C12 UNL     1       3.379  17.856  74.270  1.00  0.00     0.165 C 
HETATM   14  C13 UNL     1       3.882  19.241  74.408  1.00  0.00     0.155 C 
HETATM   15  C14 UNL     1       2.995  20.342  74.036  1.00  0.00     0.055 C 
HETATM   16  C19 UNL     1       2.362  19.990  72.686  1.00  0.00     0.150 C 
BRANCH  13  17
HETATM   17  O6  UNL     1       3.542  17.085  75.455  1.00  0.00    -0.391 OA
ATOM     18  H6  UNL     1       3.403  17.611  76.234  1.00  0.00     0.210 HD
ENDBRANCH  13  17
BRANCH  14  19
HETATM   19  O7  UNL     1       4.583  19.405  75.614  1.00  0.00    -0.392 OA
ATOM     20  H7  UNL     1       5.454  19.752  75.458  1.00  0.00     0.210 HD
ENDBRANCH  14  19
BRANCH  15  21
HETATM   21  C15 UNL     1       1.908  20.811  74.909  1.00  0.00     0.161 C 
BRANCH  21  22
HETATM   22  N8  UNL     1       2.169  21.915  75.783  1.00  0.00    -0.260 N 
HETATM   23  N9  UNL     1       3.153  21.806  76.655  1.00  0.00    -0.237 N 
HETATM   24  N10 UNL     1       3.412  22.772  77.518  1.00  0.00    -0.268 N 
ATOM     25  H9  UNL     1       3.724  20.961  76.663  1.00  0.00     0.208 HD
HETATM   26  C16 UNL     1       2.675  23.897  77.531  1.00  0.00     0.166 A 
ATOM     27  H10 UNL     1       4.178  22.663  78.182  1.00  0.00     0.190 HD
HETATM   28  C17 UNL     1       1.634  24.065  76.640  1.00  0.00     0.138 A 
HETATM   29  N14 UNL     1       2.685  25.107  78.312  1.00  0.00    -0.266 N 
HETATM   30  C18 UNL     1       1.412  23.009  75.753  1.00  0.00     0.149 A 
HETATM   31  N12 UNL     1       1.016  25.328  76.848  1.00  0.00    -0.277 N 
HETATM   32  N13 UNL     1       1.790  26.032  77.773  1.00  0.00    -0.020 NA
ATOM     33  H12 UNL     1       0.162  25.660  76.401  1.00  0.00     0.184 HD
ATOM     34  H14 UNL     1       3.262  25.264  79.138  1.00  0.00     0.186 HD
BRANCH  30  35
HETATM   35  N11 UNL     1       0.448  23.217  74.894  1.00  0.00    -0.382 N 
ATOM     36 2H11 UNL     1      -0.401  22.681  75.074  1.00  0.00     0.157 HD
ATOM     37 1H11 UNL     1       0.499  23.878  74.119  1.00  0.00     0.157 HD
ENDBRANCH  30  35
ENDBRANCH  21  22
ENDBRANCH  15  21
ENDBRANCH  10  11
BRANCH   1  38
HETATM   38  N2  UNL     1       1.372  17.940  69.839  1.00  0.00    -0.163 N 
BRANCH  38  39
HETATM   39  C8  UNL     1       1.630  18.759  68.674  1.00  0.00     0.205 C 
BRANCH  39  40
HETATM   40  C7  UNL     1       2.763  19.757  68.907  1.00  0.00     0.195 C 
BRANCH  40  41
HETATM   41  O4  UNL     1       2.298  21.034  68.628  1.00  0.00    -0.359 OA
BRANCH  41  42
HETATM   42  C6  UNL     1       0.951  21.218  68.852  1.00  0.00     0.261 C 
BRANCH  42  43
HETATM   43  C5  UNL     1       0.380  22.254  67.885  1.00  0.00     0.106 C 
BRANCH  43  44
HETATM   44  C4  UNL     1       1.224  22.340  66.664  1.00  0.00     0.031 A 
HETATM   45  C2  UNL     1       2.135  23.335  66.366  1.00  0.00     0.040 A 
HETATM   46  C1  UNL     1       2.479  24.522  67.203  1.00  0.00     0.071 C 
HETATM   47  N1  UNL     1       2.653  23.024  65.180  1.00  0.00    -0.263 N 
HETATM   48  O1  UNL     1       2.122  21.922  64.745  1.00  0.00    -0.212 OA
ATOM     49  H1  UNL     1       3.360  23.569  64.688  1.00  0.00     0.194 HD
HETATM   50  C3  UNL     1       1.246  21.460  65.606  1.00  0.00     0.213 A 
BRANCH  50  51
HETATM   51  O2  UNL     1       0.507  20.298  65.436  1.00  0.00    -0.339 OA
ATOM     52  H2  UNL     1      -0.412  20.270  65.197  1.00  0.00     0.220 HD
ENDBRANCH  50  51
ENDBRANCH  43  44
ENDBRANCH  42  43
BRANCH  42  53
HETATM   53  O3  UNL     1       0.728  21.685  70.154  1.00  0.00    -0.371 OA
ATOM     54  H3  UNL     1       0.602  20.927  70.714  1.00  0.00     0.212 HD
ENDBRANCH  42  53
ENDBRANCH  41  42
ENDBRANCH  40  41
ENDBRANCH  39  40
ENDBRANCH  38  39
BRANCH  38  55
HETATM   55  O5  UNL     1       2.219  16.889  70.050  1.00  0.00    -0.270 OA
ATOM     56  H5  UNL     1       2.380  16.644  70.954  1.00  0.00     0.246 HD
ENDBRANCH  38  55
ENDBRANCH   1  38
TORSDOF 16
ENDMDL
MODEL 5
REMARK VINA RESULT: -8.900137237      2.580      3.777
REMARK  16 active torsions:
REMARK  status: ('A' for Active; 'I' for Inactive)
REMARK    1  A    between atoms: C3_6  and  O2_7 
REMARK    2  A    between atoms: C4_9  and  C5_10 
REMARK    3  A    between atoms: C5_10  and  C6_11 
REMARK    4  A    between atoms: C6_11  and  O3_12 
REMARK    5  A    between atoms: C6_11  and  O4_14 
REMARK    6  A    between atoms: O4_14  and  C7_15 
REMARK    7  A    between atoms: C7_15  and  C8_16 
REMARK    8  A    between atoms: C8_16  and  N2_17 
REMARK    9  A    between atoms: N2_17  and  O5_18 
REMARK   10  A    between atoms: N2_17  and  N3_20 
REMARK   11  A    between atoms: C10_29  and  N7_30 
REMARK   12  A    between atoms: C12_32  and  O6_33 
REMARK   13  A    between atoms: C13_35  and  O7_36 
REMARK   14  A    between atoms: C14_38  and  C15_39 
REMARK   15  A    between atoms: C15_39  and  N8_40 
REMARK   16  A    between atoms: C18_47  and  N11_48 
ROOT
HETATM    1  N3  UNL     1       0.186  18.135  70.668  1.00  0.00     0.017 N 
HETATM    2  N4  UNL     1      -1.108  17.883  70.493  1.00  0.00    -0.094 N 
ATOM      3  H4  UNL     1      -1.556  17.739  69.588  1.00  0.00     0.208 HD
HETATM    4  C9  UNL     1      -1.743  17.846  71.679  1.00  0.00     0.707 A 
HETATM    5  N5  UNL     1      -2.979  17.635  71.927  1.00  0.00    -0.233 N 
ATOM      6  H51 UNL     1      -3.461  17.607  72.825  1.00  0.00     0.174 HD
ATOM      7  H52 UNL     1      -3.701  17.454  71.229  1.00  0.00     0.174 HD
HETATM    8  N6  UNL     1      -0.797  18.082  72.594  1.00  0.00    -0.018 N 
ATOM      9  H6  UNL     1      -0.955  18.121  73.601  1.00  0.00     0.203 HD
HETATM   10  C10 UNL     1       0.410  18.265  71.987  1.00  0.00     0.733 A 
ENDROOT
BRANCH  10  11
HETATM   11  N7  UNL     1       1.574  18.533  72.731  1.00  0.00    -0.211 N 
HETATM   12  C11 UNL     1       2.034  17.537  73.659  1.00  0.00     0.175 C 
HETATM   13  C12 UNL     1       3.412  17.778  74.169  1.00  0.00     0.165 C 
HETATM   14  C13 UNL     1       3.858  19.187  74.230  1.00  0.00     0.155 C 
HETATM   15  C14 UNL     1       2.911  20.233  73.849  1.00  0.00     0.055 C 
HETATM   16  C19 UNL     1       2.243  19.798  72.540  1.00  0.00     0.150 C 
BRANCH  13  17
HETATM   17  O6  UNL     1       3.652  17.065  75.377  1.00  0.00    -0.391 OA
ATOM     18  H6  UNL     1       4.332  16.411  75.265  1.00  0.00     0.210 HD
ENDBRANCH  13  17
BRANCH  14  19
HETATM   19  O7  UNL     1       4.597  19.432  75.399  1.00  0.00    -0.392 OA
ATOM     20  H7  UNL     1       4.928  20.322  75.413  1.00  0.00     0.210 HD
ENDBRANCH  14  19
BRANCH  15  21
HETATM   21  C15 UNL     1       1.839  20.693  74.745  1.00  0.00     0.161 C 
BRANCH  21  22
HETATM   22  N8  UNL     1       2.124  21.767  75.648  1.00  0.00    -0.260 N 
HETATM   23  N9  UNL     1       3.060  21.586  76.561  1.00  0.00    -0.237 N 
HETATM   24  N10 UNL     1       3.335  22.521  77.451  1.00  0.00    -0.268 N 
ATOM     25  H9  UNL     1       3.579  20.708  76.579  1.00  0.00     0.208 HD
HETATM   26  C16 UNL     1       2.666  23.689  77.451  1.00  0.00     0.166 A 
ATOM     27  H10 UNL     1       4.063  22.357  78.147  1.00  0.00     0.190 HD
HETATM   28  C17 UNL     1       1.678  23.931  76.519  1.00  0.00     0.138 A 
HETATM   29  N14 UNL     1       2.711  24.883  78.254  1.00  0.00    -0.266 N 
HETATM   30  C18 UNL     1       1.434  22.903  75.604  1.00  0.00     0.149 A 
HETATM   31  N12 UNL     1       1.127  25.225  76.721  1.00  0.00    -0.277 N 
HETATM   32  N13 UNL     1       1.898  25.868  77.692  1.00  0.00    -0.020 NA
ATOM     33  H12 UNL     1       0.314  25.614  76.244  1.00  0.00     0.184 HD
ATOM     34  H14 UNL     1       3.259  24.994  79.108  1.00  0.00     0.186 HD
BRANCH  30  35
HETATM   35  N11 UNL     1       0.524  23.181  74.707  1.00  0.00    -0.382 N 
ATOM     36 2H11 UNL     1      -0.410  23.332  75.087  1.00  0.00     0.157 HD
ATOM     37 1H11 UNL     1       0.710  23.279  73.709  1.00  0.00     0.157 HD
ENDBRANCH  30  35
ENDBRANCH  21  22
ENDBRANCH  15  21
ENDBRANCH  10  11
BRANCH   1  38
HETATM   38  N2  UNL     1       1.163  18.259  69.693  1.00  0.00    -0.163 N 
BRANCH  38  39
HETATM   39  C8  UNL     1       1.107  19.289  68.676  1.00  0.00     0.205 C 
BRANCH  39  40
HETATM   40  C7  UNL     1       2.043  18.996  67.505  1.00  0.00     0.195 C 
BRANCH  40  41
HETATM   41  O4  UNL     1       1.436  19.419  66.331  1.00  0.00    -0.359 OA
BRANCH  41  42
HETATM   42  C6  UNL     1       1.964  20.573  65.794  1.00  0.00     0.261 C 
BRANCH  42  43
HETATM   43  C5  UNL     1       1.025  21.756  66.028  1.00  0.00     0.106 C 
BRANCH  43  44
HETATM   44  C4  UNL     1       1.793  22.940  66.494  1.00  0.00     0.031 A 
HETATM   45  C2  UNL     1       2.065  24.081  65.765  1.00  0.00     0.040 A 
HETATM   46  C1  UNL     1       1.638  24.378  64.366  1.00  0.00     0.071 C 
HETATM   47  N1  UNL     1       2.783  24.870  66.560  1.00  0.00    -0.263 N 
HETATM   48  O1  UNL     1       2.963  24.290  67.708  1.00  0.00    -0.212 OA
ATOM     49  H1  UNL     1       3.139  25.792  66.306  1.00  0.00     0.194 HD
HETATM   50  C3  UNL     1       2.383  23.113  67.726  1.00  0.00     0.213 A 
BRANCH  50  51
HETATM   51  O2  UNL     1       2.392  22.245  68.809  1.00  0.00    -0.339 OA
ATOM     52  H2  UNL     1       2.812  21.393  68.816  1.00  0.00     0.220 HD
ENDBRANCH  50  51
ENDBRANCH  43  44
ENDBRANCH  42  43
BRANCH  42  53
HETATM   53  O3  UNL     1       2.138  20.436  64.410  1.00  0.00    -0.371 OA
ATOM     54  H3  UNL     1       2.467  19.560  64.247  1.00  0.00     0.212 HD
ENDBRANCH  42  53
ENDBRANCH  41  42
ENDBRANCH  40  41
ENDBRANCH  39  40
ENDBRANCH  38  39
BRANCH  38  55
HETATM   55  O5  UNL     1       2.239  17.419  69.657  1.00  0.00    -0.270 OA
ATOM     56  H5  UNL     1       2.975  17.687  69.120  1.00  0.00     0.246 HD
ENDBRANCH  38  55
ENDBRANCH   1  38
TORSDOF 16
ENDMDL
