MODEL 1
REMARK VINA RESULT: -8.448481450      0.000      0.000
REMARK  17 active torsions:
REMARK  status: ('A' for Active; 'I' for Inactive)
REMARK    1  A    between atoms: N1_1  and  C1_4 
REMARK    2  A    between atoms: N3_8  and  C3_10 
REMARK    3  A    between atoms: C4_11  and  C5_12 
REMARK    4  A    between atoms: C5_12  and  O1_13 
REMARK    5  A    between atoms: C5_12  and  O2_15 
REMARK    6  A    between atoms: N4_19  and  O4_21 
REMARK    7  A    between atoms: C7_23  and  O5_24 
REMARK    8  A    between atoms: O5_24  and  C8_25 
REMARK    9  A    between atoms: C8_25  and  C9_27 
REMARK   10  A    between atoms: C9_27  and  N5_28 
REMARK   11  A    between atoms: C9_27  and  C10_32 
REMARK   12  A    between atoms: N9_39  and  C11_40 
REMARK   13  A    between atoms: C11_40  and  C12_41 
REMARK   14  A    between atoms: C12_41  and  C13_42 
REMARK   15  A    between atoms: C16_48  and  C17_49 
REMARK   16  A    between atoms: C17_49  and  O10_50 
REMARK   17  A    between atoms: C17_49  and  O11_52 
ROOT
HETATM    1  C3  UNL     1      -0.327  20.418  71.311  1.00  0.00     0.049 C 
HETATM    2  C4  UNL     1      -1.595  20.611  71.701  1.00  0.00     0.132 C 
HETATM    3  O3  UNL     1      -2.533  21.299  70.987  1.00  0.00    -0.291 OA
HETATM    4  C6  UNL     1      -2.218  21.860  69.775  1.00  0.00     0.173 C 
HETATM    5  N4  UNL     1      -3.121  22.169  68.922  1.00  0.00    -0.248 N 
ATOM      6  H4  UNL     1      -2.872  22.585  68.025  1.00  0.00     0.196 HD
HETATM    7  C7  UNL     1      -0.756  22.098  69.496  1.00  0.00     0.214 C 
HETATM    8  C14 UNL     1       0.077  20.967  70.014  1.00  0.00     0.101 C 
ENDROOT
BRANCH   1   9
HETATM    9  N3  UNL     1       0.533  19.710  72.121  1.00  0.00    -0.341 N 
HETATM   10  C2  UNL     1       0.984  18.582  72.283  1.00  0.00     0.159 A 
HETATM   11  N2  UNL     1       0.678  17.517  71.536  1.00  0.00    -0.174 N 
HETATM   12  C15 UNL     1       1.895  18.397  73.335  1.00  0.00     0.166 A 
HETATM   13  C1  UNL     1       1.190  16.273  71.730  1.00  0.00     0.679 A 
ATOM     14  H2  UNL     1       0.016  17.647  70.771  1.00  0.00     0.186 HD
HETATM   15  N11 UNL     1       2.061  16.128  72.747  1.00  0.00    -0.174 N 
HETATM   16  C18 UNL     1       2.414  17.153  73.537  1.00  0.00     0.161 A 
ATOM     17  H11 UNL     1       2.466  15.208  72.923  1.00  0.00     0.186 HD
HETATM   18  N10 UNL     1       3.254  17.271  74.608  1.00  0.00    -0.319 N 
HETATM   19  C16 UNL     1       3.218  18.566  75.015  1.00  0.00     0.181 A 
ATOM     20  H10 UNL     1       3.807  16.523  75.026  1.00  0.00     0.169 HD
HETATM   21  O9  UNL     1       2.394  19.219  74.233  1.00  0.00    -0.285 OA
ATOM     22  H3  UNL     1       0.927  20.336  72.824  1.00  0.00     0.167 HD
BRANCH  13  23
HETATM   23  N1  UNL     1       0.853  15.274  70.968  1.00  0.00    -0.234 N 
ATOM     24  H12 UNL     1       0.593  15.407  69.990  1.00  0.00     0.174 HD
ATOM     25  H11 UNL     1       0.835  14.318  71.321  1.00  0.00     0.174 HD
ENDBRANCH  13  23
BRANCH  19  26
HETATM   26  C17 UNL     1       3.978  19.153  76.151  1.00  0.00     0.331 C 
BRANCH  26  27
HETATM   27  O10 UNL     1       4.771  20.229  75.726  1.00  0.00    -0.364 OA
ATOM     28  H10 UNL     1       5.548  20.314  76.264  1.00  0.00     0.213 HD
ENDBRANCH  26  27
BRANCH  26  29
HETATM   29  O11 UNL     1       3.063  19.649  77.107  1.00  0.00    -0.364 OA
ATOM     30  H11 UNL     1       3.176  20.589  77.183  1.00  0.00     0.213 HD
ENDBRANCH  26  29
ENDBRANCH  19  26
ENDBRANCH   1   9
BRANCH   2  31
HETATM   31  C5  UNL     1      -1.992  20.031  73.003  1.00  0.00     0.314 C 
BRANCH  31  32
HETATM   32  O1  UNL     1      -3.234  20.537  73.377  1.00  0.00    -0.365 OA
ATOM     33  H1  UNL     1      -3.798  20.587  72.615  1.00  0.00     0.213 HD
ENDBRANCH  31  32
BRANCH  31  34
HETATM   34  O2  UNL     1      -2.175  18.638  72.837  1.00  0.00    -0.365 OA
ATOM     35  H2  UNL     1      -1.546  18.184  73.384  1.00  0.00     0.213 HD
ENDBRANCH  31  34
ENDBRANCH   2  31
BRANCH   7  36
HETATM   36  O5  UNL     1      -0.653  22.112  68.079  1.00  0.00    -0.305 OA
BRANCH  36  37
HETATM   37  C8  UNL     1       0.514  21.869  67.375  1.00  0.00     0.298 C 
HETATM   38  O6  UNL     1       0.560  20.834  66.665  1.00  0.00    -0.262 OA
BRANCH  37  39
HETATM   39  C9  UNL     1       1.683  22.793  67.448  1.00  0.00     0.351 C 
BRANCH  39  40
HETATM   40  N5  UNL     1       2.646  22.316  68.367  1.00  0.00    -0.059 N 
ATOM     41  H53 UNL     1       3.225  23.072  68.733  1.00  0.00     0.275 HD
ATOM     42  H52 UNL     1       2.215  22.014  69.242  1.00  0.00     0.275 HD
ATOM     43  H51 UNL     1       3.211  21.576  67.951  1.00  0.00     0.275 HD
ENDBRANCH  39  40
BRANCH  39  44
HETATM   44  C10 UNL     1       2.207  23.066  66.077  1.00  0.00     0.156 A 
HETATM   45  N6  UNL     1       2.622  22.171  65.173  1.00  0.00    -0.270 N 
HETATM   46  N7  UNL     1       2.965  22.804  64.084  1.00  0.00    -0.227 N 
ATOM     47  H6  UNL     1       2.665  21.162  65.312  1.00  0.00     0.190 HD
HETATM   48  N8  UNL     1       2.774  24.083  64.284  1.00  0.00    -0.225 N 
ATOM     49  H7  UNL     1       3.320  22.378  63.228  1.00  0.00     0.210 HD
HETATM   50  N9  UNL     1       2.294  24.284  65.537  1.00  0.00    -0.261 N 
ATOM     51  H8  UNL     1       2.959  24.817  63.602  1.00  0.00     0.210 HD
BRANCH  50  52
HETATM   52  C11 UNL     1       2.011  25.601  66.027  1.00  0.00     0.163 C 
BRANCH  52  53
HETATM   53  C12 UNL     1       1.304  26.517  65.082  1.00  0.00     0.135 C 
BRANCH  53  54
HETATM   54  C13 UNL     1       2.222  27.430  64.376  1.00  0.00     0.174 C 
HETATM   55  O7  UNL     1       1.808  28.554  64.005  1.00  0.00    -0.648 OA
HETATM   56  O8  UNL     1       3.537  27.105  64.103  1.00  0.00    -0.648 OA
ENDBRANCH  53  54
ENDBRANCH  52  53
ENDBRANCH  50  52
ENDBRANCH  39  44
ENDBRANCH  37  39
ENDBRANCH  36  37
ENDBRANCH   7  36
BRANCH   5  57
HETATM   57  O4  UNL     1      -4.433  21.926  69.243  1.00  0.00    -0.288 OA
ATOM     58  H4  UNL     1      -5.039  22.657  69.253  1.00  0.00     0.244 HD
ENDBRANCH   5  57
TORSDOF 17
ENDMDL
MODEL 2
REMARK VINA RESULT: -8.254938912      4.328      7.180
REMARK  17 active torsions:
REMARK  status: ('A' for Active; 'I' for Inactive)
REMARK    1  A    between atoms: N1_1  and  C1_4 
REMARK    2  A    between atoms: N3_8  and  C3_10 
REMARK    3  A    between atoms: C4_11  and  C5_12 
REMARK    4  A    between atoms: C5_12  and  O1_13 
REMARK    5  A    between atoms: C5_12  and  O2_15 
REMARK    6  A    between atoms: N4_19  and  O4_21 
REMARK    7  A    between atoms: C7_23  and  O5_24 
REMARK    8  A    between atoms: O5_24  and  C8_25 
REMARK    9  A    between atoms: C8_25  and  C9_27 
REMARK   10  A    between atoms: C9_27  and  N5_28 
REMARK   11  A    between atoms: C9_27  and  C10_32 
REMARK   12  A    between atoms: N9_39  and  C11_40 
REMARK   13  A    between atoms: C11_40  and  C12_41 
REMARK   14  A    between atoms: C12_41  and  C13_42 
REMARK   15  A    between atoms: C16_48  and  C17_49 
REMARK   16  A    between atoms: C17_49  and  O10_50 
REMARK   17  A    between atoms: C17_49  and  O11_52 
ROOT
HETATM    1  C3  UNL     1       2.191  21.561  75.140  1.00  0.00     0.049 C 
HETATM    2  C4  UNL     1       2.552  20.709  76.110  1.00  0.00     0.132 C 
HETATM    3  O3  UNL     1       2.968  19.426  75.904  1.00  0.00    -0.291 OA
HETATM    4  C6  UNL     1       3.043  18.908  74.636  1.00  0.00     0.173 C 
HETATM    5  N4  UNL     1       3.765  17.885  74.369  1.00  0.00    -0.248 N 
ATOM      6  H4  UNL     1       3.811  17.512  73.421  1.00  0.00     0.196 HD
HETATM    7  C7  UNL     1       2.234  19.602  73.570  1.00  0.00     0.214 C 
HETATM    8  C14 UNL     1       2.270  21.087  73.756  1.00  0.00     0.101 C 
ENDROOT
BRANCH   1   9
HETATM    9  N3  UNL     1       1.781  22.833  75.470  1.00  0.00    -0.341 N 
HETATM   10  C2  UNL     1       0.945  23.677  75.168  1.00  0.00     0.159 A 
HETATM   11  N2  UNL     1       0.010  23.530  74.225  1.00  0.00    -0.174 N 
HETATM   12  C15 UNL     1       0.971  24.892  75.872  1.00  0.00     0.166 A 
HETATM   13  C1  UNL     1      -0.911  24.478  73.905  1.00  0.00     0.679 A 
ATOM     14  H2  UNL     1      -0.013  22.650  73.711  1.00  0.00     0.186 HD
HETATM   15  N11 UNL     1      -0.858  25.632  74.598  1.00  0.00    -0.174 N 
HETATM   16  C18 UNL     1       0.052  25.848  75.559  1.00  0.00     0.161 A 
ATOM     17  H11 UNL     1      -1.534  26.366  74.385  1.00  0.00     0.186 HD
HETATM   18  N10 UNL     1       0.315  26.900  76.389  1.00  0.00    -0.319 N 
HETATM   19  C16 UNL     1       1.370  26.553  77.169  1.00  0.00     0.181 A 
ATOM     20  H10 UNL     1      -0.190  27.786  76.417  1.00  0.00     0.169 HD
HETATM   21  O9  UNL     1       1.744  25.342  76.837  1.00  0.00    -0.285 OA
ATOM     22  H3  UNL     1       2.373  23.196  76.218  1.00  0.00     0.167 HD
BRANCH  13  23
HETATM   23  N1  UNL     1      -1.797  24.276  72.975  1.00  0.00    -0.234 N 
ATOM     24  H12 UNL     1      -1.773  23.447  72.380  1.00  0.00     0.174 HD
ATOM     25  H11 UNL     1      -2.550  24.941  72.804  1.00  0.00     0.174 HD
ENDBRANCH  13  23
BRANCH  19  26
HETATM   26  C17 UNL     1       2.001  27.394  78.221  1.00  0.00     0.331 C 
BRANCH  26  27
HETATM   27  O10 UNL     1       3.066  26.718  78.835  1.00  0.00    -0.364 OA
ATOM     28  H10 UNL     1       3.721  27.329  79.152  1.00  0.00     0.213 HD
ENDBRANCH  26  27
BRANCH  26  29
HETATM   29  O11 UNL     1       2.525  28.561  77.623  1.00  0.00    -0.364 OA
ATOM     30  H11 UNL     1       3.124  28.978  78.232  1.00  0.00     0.213 HD
ENDBRANCH  26  29
ENDBRANCH  19  26
ENDBRANCH   1   9
BRANCH   2  31
HETATM   31  C5  UNL     1       2.488  21.211  77.501  1.00  0.00     0.314 C 
BRANCH  31  32
HETATM   32  O1  UNL     1       3.133  22.441  77.580  1.00  0.00    -0.365 OA
ATOM     33  H1  UNL     1       4.063  22.303  77.713  1.00  0.00     0.213 HD
ENDBRANCH  31  32
BRANCH  31  34
HETATM   34  O2  UNL     1       1.133  21.462  77.825  1.00  0.00    -0.365 OA
ATOM     35  H2  UNL     1       1.027  22.394  77.974  1.00  0.00     0.213 HD
ENDBRANCH  31  34
ENDBRANCH   2  31
BRANCH   7  36
HETATM   36  O5  UNL     1       2.894  19.291  72.351  1.00  0.00    -0.305 OA
BRANCH  36  37
HETATM   37  C8  UNL     1       2.259  18.826  71.213  1.00  0.00     0.298 C 
HETATM   38  O6  UNL     1       1.539  17.803  71.325  1.00  0.00    -0.262 OA
BRANCH  37  39
HETATM   39  C9  UNL     1       2.416  19.503  69.893  1.00  0.00     0.351 C 
BRANCH  39  40
HETATM   40  N5  UNL     1       2.745  18.569  68.883  1.00  0.00    -0.059 N 
ATOM     41  H53 UNL     1       2.075  17.801  68.848  1.00  0.00     0.275 HD
ATOM     42  H52 UNL     1       2.590  18.953  67.951  1.00  0.00     0.275 HD
ATOM     43  H51 UNL     1       3.700  18.231  68.998  1.00  0.00     0.275 HD
ENDBRANCH  39  40
BRANCH  39  44
HETATM   44  C10 UNL     1       1.217  20.344  69.602  1.00  0.00     0.156 A 
HETATM   45  N6  UNL     1       0.014  20.273  70.186  1.00  0.00    -0.270 N 
HETATM   46  N7  UNL     1      -0.751  21.204  69.683  1.00  0.00    -0.227 N 
ATOM     47  H6  UNL     1      -0.260  19.602  70.903  1.00  0.00     0.190 HD
HETATM   48  N8  UNL     1      -0.054  21.861  68.793  1.00  0.00    -0.225 N 
ATOM     49  H7  UNL     1      -1.721  21.387  69.940  1.00  0.00     0.210 HD
HETATM   50  N9  UNL     1       1.197  21.342  68.716  1.00  0.00    -0.261 N 
ATOM     51  H8  UNL     1      -0.399  22.645  68.240  1.00  0.00     0.210 HD
BRANCH  50  52
HETATM   52  C11 UNL     1       2.170  21.866  67.803  1.00  0.00     0.163 C 
BRANCH  52  53
HETATM   53  C12 UNL     1       1.795  21.841  66.356  1.00  0.00     0.135 C 
BRANCH  53  54
HETATM   54  C13 UNL     1       1.395  20.499  65.893  1.00  0.00     0.174 C 
HETATM   55  O7  UNL     1       0.398  20.378  65.142  1.00  0.00    -0.648 OA
HETATM   56  O8  UNL     1       2.078  19.351  66.248  1.00  0.00    -0.648 OA
ENDBRANCH  53  54
ENDBRANCH  52  53
ENDBRANCH  50  52
ENDBRANCH  39  44
ENDBRANCH  37  39
ENDBRANCH  36  37
ENDBRANCH   7  36
BRANCH   5  57
HETATM   57  O4  UNL     1       4.475  17.302  75.388  1.00  0.00    -0.288 OA
ATOM     58  H4  UNL     1       4.923  16.483  75.216  1.00  0.00     0.244 HD
ENDBRANCH   5  57
TORSDOF 17
ENDMDL
MODEL 3
REMARK VINA RESULT: -8.172833897      4.126      7.269
REMARK  17 active torsions:
REMARK  status: ('A' for Active; 'I' for Inactive)
REMARK    1  A    between atoms: N1_1  and  C1_4 
REMARK    2  A    between atoms: N3_8  and  C3_10 
REMARK    3  A    between atoms: C4_11  and  C5_12 
REMARK    4  A    between atoms: C5_12  and  O1_13 
REMARK    5  A    between atoms: C5_12  and  O2_15 
REMARK    6  A    between atoms: N4_19  and  O4_21 
REMARK    7  A    between atoms: C7_23  and  O5_24 
REMARK    8  A    between atoms: O5_24  and  C8_25 
REMARK    9  A    between atoms: C8_25  and  C9_27 
REMARK   10  A    between atoms: C9_27  and  N5_28 
REMARK   11  A    between atoms: C9_27  and  C10_32 
REMARK   12  A    between atoms: N9_39  and  C11_40 
REMARK   13  A    between atoms: C11_40  and  C12_41 
REMARK   14  A    between atoms: C12_41  and  C13_42 
REMARK   15  A    between atoms: C16_48  and  C17_49 
REMARK   16  A    between atoms: C17_49  and  O10_50 
REMARK   17  A    between atoms: C17_49  and  O11_52 
ROOT
HETATM    1  C3  UNL     1       1.920  21.358  74.214  1.00  0.00     0.049 C 
HETATM    2  C4  UNL     1       2.529  20.752  75.243  1.00  0.00     0.132 C 
HETATM    3  O3  UNL     1       3.094  19.511  75.193  1.00  0.00    -0.291 OA
HETATM    4  C6  UNL     1       3.068  18.777  74.034  1.00  0.00     0.173 C 
HETATM    5  N4  UNL     1       3.887  17.814  73.831  1.00  0.00    -0.248 N 
ATOM      6  H4  UNL     1       3.857  17.276  72.964  1.00  0.00     0.196 HD
HETATM    7  C7  UNL     1       2.030  19.158  73.011  1.00  0.00     0.214 C 
HETATM    8  C14 UNL     1       1.876  20.645  72.935  1.00  0.00     0.101 C 
ENDROOT
BRANCH   1   9
HETATM    9  N3  UNL     1       1.379  22.612  74.387  1.00  0.00    -0.341 N 
HETATM   10  C2  UNL     1       0.350  23.247  74.183  1.00  0.00     0.159 A 
HETATM   11  N2  UNL     1      -0.753  22.759  73.610  1.00  0.00    -0.174 N 
HETATM   12  C15 UNL     1       0.331  24.592  74.587  1.00  0.00     0.166 A 
HETATM   13  C1  UNL     1      -1.886  23.479  73.393  1.00  0.00     0.679 A 
ATOM     14  H2  UNL     1      -0.745  21.783  73.315  1.00  0.00     0.186 HD
HETATM   15  N11 UNL     1      -1.872  24.766  73.791  1.00  0.00    -0.174 N 
HETATM   16  C18 UNL     1      -0.799  25.322  74.374  1.00  0.00     0.161 A 
ATOM     17  H11 UNL     1      -2.705  25.337  73.645  1.00  0.00     0.186 HD
HETATM   18  N10 UNL     1      -0.532  26.570  74.858  1.00  0.00    -0.319 N 
HETATM   19  C16 UNL     1       0.736  26.558  75.343  1.00  0.00     0.181 A 
ATOM     20  H10 UNL     1      -1.168  27.367  74.855  1.00  0.00     0.169 HD
HETATM   21  O9  UNL     1       1.231  25.358  75.167  1.00  0.00    -0.285 OA
ATOM     22  H3  UNL     1       2.066  23.218  74.836  1.00  0.00     0.167 HD
BRANCH  13  23
HETATM   23  N1  UNL     1      -2.930  22.946  72.829  1.00  0.00    -0.234 N 
ATOM     24  H12 UNL     1      -3.658  22.483  73.373  1.00  0.00     0.174 HD
ATOM     25  H11 UNL     1      -3.060  22.973  71.818  1.00  0.00     0.174 HD
ENDBRANCH  13  23
BRANCH  19  26
HETATM   26  C17 UNL     1       1.451  27.703  75.967  1.00  0.00     0.331 C 
BRANCH  26  27
HETATM   27  O10 UNL     1       1.798  28.665  75.008  1.00  0.00    -0.364 OA
ATOM     28  H10 UNL     1       1.967  29.507  75.413  1.00  0.00     0.213 HD
ENDBRANCH  26  27
BRANCH  26  29
HETATM   29  O11 UNL     1       0.595  28.324  76.903  1.00  0.00    -0.364 OA
ATOM     30  H11 UNL     1       1.074  28.470  77.710  1.00  0.00     0.213 HD
ENDBRANCH  26  29
ENDBRANCH  19  26
ENDBRANCH   1   9
BRANCH   2  31
HETATM   31  C5  UNL     1       2.583  21.496  76.522  1.00  0.00     0.314 C 
BRANCH  31  32
HETATM   32  O1  UNL     1       2.800  20.604  77.568  1.00  0.00    -0.365 OA
ATOM     33  H1  UNL     1       2.519  20.999  78.385  1.00  0.00     0.213 HD
ENDBRANCH  31  32
BRANCH  31  34
HETATM   34  O2  UNL     1       3.712  22.348  76.498  1.00  0.00    -0.365 OA
ATOM     35  H2  UNL     1       3.497  23.117  75.985  1.00  0.00     0.213 HD
ENDBRANCH  31  34
ENDBRANCH   2  31
BRANCH   7  36
HETATM   36  O5  UNL     1       2.555  18.703  71.771  1.00  0.00    -0.305 OA
BRANCH  36  37
HETATM   37  C8  UNL     1       2.000  17.689  71.010  1.00  0.00     0.298 C 
HETATM   38  O6  UNL     1       2.150  16.509  71.414  1.00  0.00    -0.262 OA
BRANCH  37  39
HETATM   39  C9  UNL     1       1.250  17.971  69.751  1.00  0.00     0.351 C 
BRANCH  39  40
HETATM   40  N5  UNL     1       0.495  16.844  69.351  1.00  0.00    -0.059 N 
ATOM     41  H53 UNL     1      -0.295  16.679  69.975  1.00  0.00     0.275 HD
ATOM     42  H52 UNL     1      -0.021  17.024  68.490  1.00  0.00     0.275 HD
ATOM     43  H51 UNL     1       1.089  16.019  69.269  1.00  0.00     0.275 HD
ENDBRANCH  39  40
BRANCH  39  44
HETATM   44  C10 UNL     1       0.465  19.232  69.895  1.00  0.00     0.156 A 
HETATM   45  N6  UNL     1      -0.684  19.404  70.561  1.00  0.00    -0.270 N 
HETATM   46  N7  UNL     1      -1.030  20.660  70.484  1.00  0.00    -0.227 N 
ATOM     47  H6  UNL     1      -1.203  18.673  71.048  1.00  0.00     0.190 HD
HETATM   48  N8  UNL     1      -0.122  21.285  69.781  1.00  0.00    -0.225 N 
ATOM     49  H7  UNL     1      -1.861  21.080  70.899  1.00  0.00     0.210 HD
HETATM   50  N9  UNL     1       0.840  20.411  69.391  1.00  0.00    -0.261 N 
ATOM     51  H8  UNL     1      -0.134  22.281  69.559  1.00  0.00     0.210 HD
BRANCH  50  52
HETATM   52  C11 UNL     1       1.952  20.830  68.591  1.00  0.00     0.163 C 
BRANCH  52  53
HETATM   53  C12 UNL     1       1.625  21.336  67.223  1.00  0.00     0.135 C 
BRANCH  53  54
HETATM   54  C13 UNL     1       1.266  20.257  66.284  1.00  0.00     0.174 C 
HETATM   55  O7  UNL     1       1.702  19.097  66.482  1.00  0.00    -0.648 OA
HETATM   56  O8  UNL     1       0.457  20.462  65.183  1.00  0.00    -0.648 OA
ENDBRANCH  53  54
ENDBRANCH  52  53
ENDBRANCH  50  52
ENDBRANCH  39  44
ENDBRANCH  37  39
ENDBRANCH  36  37
ENDBRANCH   7  36
BRANCH   5  57
HETATM   57  O4  UNL     1       4.806  17.520  74.806  1.00  0.00    -0.288 OA
ATOM     58  H4  UNL     1       5.302  16.714  74.732  1.00  0.00     0.244 HD
ENDBRANCH   5  57
TORSDOF 17
ENDMDL
MODEL 4
REMARK VINA RESULT: -8.151322831      3.290      5.120
REMARK  17 active torsions:
REMARK  status: ('A' for Active; 'I' for Inactive)
REMARK    1  A    between atoms: N1_1  and  C1_4 
REMARK    2  A    between atoms: N3_8  and  C3_10 
REMARK    3  A    between atoms: C4_11  and  C5_12 
REMARK    4  A    between atoms: C5_12  and  O1_13 
REMARK    5  A    between atoms: C5_12  and  O2_15 
REMARK    6  A    between atoms: N4_19  and  O4_21 
REMARK    7  A    between atoms: C7_23  and  O5_24 
REMARK    8  A    between atoms: O5_24  and  C8_25 
REMARK    9  A    between atoms: C8_25  and  C9_27 
REMARK   10  A    between atoms: C9_27  and  N5_28 
REMARK   11  A    between atoms: C9_27  and  C10_32 
REMARK   12  A    between atoms: N9_39  and  C11_40 
REMARK   13  A    between atoms: C11_40  and  C12_41 
REMARK   14  A    between atoms: C12_41  and  C13_42 
REMARK   15  A    between atoms: C16_48  and  C17_49 
REMARK   16  A    between atoms: C17_49  and  O10_50 
REMARK   17  A    between atoms: C17_49  and  O11_52 
ROOT
HETATM    1  C3  UNL     1       1.181  21.261  67.798  1.00  0.00     0.049 C 
HETATM    2  C4  UNL     1       1.885  20.185  67.421  1.00  0.00     0.132 C 
HETATM    3  O3  UNL     1       2.316  19.942  66.150  1.00  0.00    -0.291 OA
HETATM    4  C6  UNL     1       2.040  20.825  65.136  1.00  0.00     0.173 C 
HETATM    5  N4  UNL     1       2.723  20.839  64.053  1.00  0.00    -0.248 N 
ATOM      6  H4  UNL     1       2.506  21.502  63.308  1.00  0.00     0.196 HD
HETATM    7  C7  UNL     1       0.894  21.777  65.358  1.00  0.00     0.214 C 
HETATM    8  C14 UNL     1       0.870  22.262  66.774  1.00  0.00     0.101 C 
ENDROOT
BRANCH   1   9
HETATM    9  N3  UNL     1       0.794  21.395  69.113  1.00  0.00    -0.341 N 
HETATM   10  C2  UNL     1      -0.210  21.504  69.808  1.00  0.00     0.159 A 
HETATM   11  N2  UNL     1      -1.464  21.523  69.350  1.00  0.00    -0.174 N 
HETATM   12  C15 UNL     1      -0.024  21.614  71.196  1.00  0.00     0.166 A 
HETATM   13  C1  UNL     1      -2.566  21.642  70.137  1.00  0.00     0.679 A 
ATOM     14  H2  UNL     1      -1.604  21.443  68.343  1.00  0.00     0.186 HD
HETATM   15  N11 UNL     1      -2.354  21.747  71.464  1.00  0.00    -0.174 N 
HETATM   16  C18 UNL     1      -1.122  21.735  71.994  1.00  0.00     0.161 A 
ATOM     17  H11 UNL     1      -3.157  21.839  72.086  1.00  0.00     0.186 HD
HETATM   18  N10 UNL     1      -0.644  21.823  73.270  1.00  0.00    -0.319 N 
HETATM   19  C16 UNL     1       0.710  21.753  73.207  1.00  0.00     0.181 A 
ATOM     20  H10 UNL     1      -1.203  21.923  74.117  1.00  0.00     0.169 HD
HETATM   21  O9  UNL     1       1.055  21.629  71.949  1.00  0.00    -0.285 OA
ATOM     22  H3  UNL     1       1.622  21.408  69.709  1.00  0.00     0.167 HD
BRANCH  13  23
HETATM   23  N1  UNL     1      -3.764  21.655  69.631  1.00  0.00    -0.234 N 
ATOM     24  H12 UNL     1      -3.933  21.457  68.645  1.00  0.00     0.174 HD
ATOM     25  H11 UNL     1      -4.581  21.864  70.203  1.00  0.00     0.174 HD
ENDBRANCH  13  23
BRANCH  19  26
HETATM   26  C17 UNL     1       1.650  21.809  74.358  1.00  0.00     0.331 C 
BRANCH  26  27
HETATM   27  O10 UNL     1       0.996  22.236  75.523  1.00  0.00    -0.364 OA
ATOM     28  H10 UNL     1       1.501  22.902  75.974  1.00  0.00     0.213 HD
ENDBRANCH  26  27
BRANCH  26  29
HETATM   29  O11 UNL     1       2.153  20.512  74.603  1.00  0.00    -0.364 OA
ATOM     30  H11 UNL     1       2.930  20.580  75.146  1.00  0.00     0.213 HD
ENDBRANCH  26  29
ENDBRANCH  19  26
ENDBRANCH   1   9
BRANCH   2  31
HETATM   31  C5  UNL     1       2.209  19.194  68.472  1.00  0.00     0.314 C 
BRANCH  31  32
HETATM   32  O1  UNL     1       1.232  18.203  68.493  1.00  0.00    -0.365 OA
ATOM     33  H1  UNL     1       1.181  17.826  69.363  1.00  0.00     0.213 HD
ENDBRANCH  31  32
BRANCH  31  34
HETATM   34  O2  UNL     1       3.415  18.543  68.119  1.00  0.00    -0.365 OA
ATOM     35  H2  UNL     1       3.547  17.813  68.711  1.00  0.00     0.213 HD
ENDBRANCH  31  34
ENDBRANCH   2  31
BRANCH   7  36
HETATM   36  O5  UNL     1       1.172  22.886  64.514  1.00  0.00    -0.305 OA
BRANCH  36  37
HETATM   37  C8  UNL     1       2.260  23.728  64.660  1.00  0.00     0.298 C 
HETATM   38  O6  UNL     1       3.214  23.591  63.853  1.00  0.00    -0.262 OA
BRANCH  37  39
HETATM   39  C9  UNL     1       2.315  24.765  65.731  1.00  0.00     0.351 C 
BRANCH  39  40
HETATM   40  N5  UNL     1       2.967  24.266  66.882  1.00  0.00    -0.059 N 
ATOM     41  H53 UNL     1       3.692  23.590  66.641  1.00  0.00     0.275 HD
ATOM     42  H52 UNL     1       3.556  24.976  67.318  1.00  0.00     0.275 HD
ATOM     43  H51 UNL     1       2.294  23.878  67.543  1.00  0.00     0.275 HD
ENDBRANCH  39  40
BRANCH  39  44
HETATM   44  C10 UNL     1       2.884  26.034  65.188  1.00  0.00     0.156 A 
HETATM   45  N6  UNL     1       4.177  26.339  65.021  1.00  0.00    -0.270 N 
HETATM   46  N7  UNL     1       4.261  27.525  64.482  1.00  0.00    -0.227 N 
ATOM     47  H6  UNL     1       4.965  25.743  65.274  1.00  0.00     0.190 HD
HETATM   48  N8  UNL     1       3.046  27.974  64.306  1.00  0.00    -0.225 N 
ATOM     49  H7  UNL     1       5.123  28.014  64.241  1.00  0.00     0.210 HD
HETATM   50  N9  UNL     1       2.149  27.055  64.743  1.00  0.00    -0.261 N 
ATOM     51  H8  UNL     1       2.809  28.880  63.901  1.00  0.00     0.210 HD
BRANCH  50  52
HETATM   52  C11 UNL     1       0.738  27.299  64.682  1.00  0.00     0.163 C 
BRANCH  52  53
HETATM   53  C12 UNL     1       0.261  28.120  63.528  1.00  0.00     0.135 C 
BRANCH  53  54
HETATM   54  C13 UNL     1       0.260  27.373  62.256  1.00  0.00     0.174 C 
HETATM   55  O7  UNL     1       1.344  27.175  61.657  1.00  0.00    -0.648 OA
HETATM   56  O8  UNL     1      -0.894  26.870  61.685  1.00  0.00    -0.648 OA
ENDBRANCH  53  54
ENDBRANCH  52  53
ENDBRANCH  50  52
ENDBRANCH  39  44
ENDBRANCH  37  39
ENDBRANCH  36  37
ENDBRANCH   7  36
BRANCH   5  57
HETATM   57  O4  UNL     1       3.753  19.943  63.917  1.00  0.00    -0.288 OA
ATOM     58  H4  UNL     1       3.545  19.049  63.672  1.00  0.00     0.244 HD
ENDBRANCH   5  57
TORSDOF 17
ENDMDL
MODEL 5
REMARK VINA RESULT: -8.131210277      3.294      8.464
REMARK  17 active torsions:
REMARK  status: ('A' for Active; 'I' for Inactive)
REMARK    1  A    between atoms: N1_1  and  C1_4 
REMARK    2  A    between atoms: N3_8  and  C3_10 
REMARK    3  A    between atoms: C4_11  and  C5_12 
REMARK    4  A    between atoms: C5_12  and  O1_13 
REMARK    5  A    between atoms: C5_12  and  O2_15 
REMARK    6  A    between atoms: N4_19  and  O4_21 
REMARK    7  A    between atoms: C7_23  and  O5_24 
REMARK    8  A    between atoms: O5_24  and  C8_25 
REMARK    9  A    between atoms: C8_25  and  C9_27 
REMARK   10  A    between atoms: C9_27  and  N5_28 
REMARK   11  A    between atoms: C9_27  and  C10_32 
REMARK   12  A    between atoms: N9_39  and  C11_40 
REMARK   13  A    between atoms: C11_40  and  C12_41 
REMARK   14  A    between atoms: C12_41  and  C13_42 
REMARK   15  A    between atoms: C16_48  and  C17_49 
REMARK   16  A    between atoms: C17_49  and  O10_50 
REMARK   17  A    between atoms: C17_49  and  O11_52 
ROOT
HETATM    1  C3  UNL     1      -1.350  20.861  72.036  1.00  0.00     0.049 C 
HETATM    2  C4  UNL     1      -1.167  21.696  73.069  1.00  0.00     0.132 C 
HETATM    3  O3  UNL     1      -1.934  21.717  74.198  1.00  0.00    -0.291 OA
HETATM    4  C6  UNL     1      -2.985  20.848  74.347  1.00  0.00     0.173 C 
HETATM    5  N4  UNL     1      -3.473  20.575  75.498  1.00  0.00    -0.248 N 
ATOM      6  H4  UNL     1      -4.255  19.926  75.594  1.00  0.00     0.196 HD
HETATM    7  C7  UNL     1      -3.539  20.229  73.089  1.00  0.00     0.214 C 
HETATM    8  C14 UNL     1      -2.438  19.885  72.135  1.00  0.00     0.101 C 
ENDROOT
BRANCH   1   9
HETATM    9  N3  UNL     1      -0.514  20.938  70.945  1.00  0.00    -0.341 N 
HETATM   10  C2  UNL     1       0.088  20.225  70.148  1.00  0.00     0.159 A 
HETATM   11  N2  UNL     1       0.072  18.890  70.148  1.00  0.00    -0.174 N 
HETATM   12  C15 UNL     1       0.850  20.866  69.158  1.00  0.00     0.166 A 
HETATM   13  C1  UNL     1       0.744  18.116  69.255  1.00  0.00     0.679 A 
ATOM     14  H2  UNL     1      -0.480  18.420  70.865  1.00  0.00     0.186 HD
HETATM   15  N11 UNL     1       1.466  18.761  68.318  1.00  0.00    -0.174 N 
HETATM   16  C18 UNL     1       1.527  20.099  68.258  1.00  0.00     0.161 A 
ATOM     17  H11 UNL     1       1.984  18.212  67.631  1.00  0.00     0.186 HD
HETATM   18  N10 UNL     1       2.168  20.977  67.431  1.00  0.00    -0.319 N 
HETATM   19  C16 UNL     1       1.862  22.232  67.850  1.00  0.00     0.181 A 
ATOM     20  H10 UNL     1       2.768  20.735  66.643  1.00  0.00     0.169 HD
HETATM   21  O9  UNL     1       1.069  22.135  68.889  1.00  0.00    -0.285 OA
ATOM     22  H3  UNL     1      -0.334  21.917  70.724  1.00  0.00     0.167 HD
BRANCH  13  23
HETATM   23  N1  UNL     1       0.690  16.817  69.306  1.00  0.00    -0.234 N 
ATOM     24  H12 UNL     1       1.290  16.278  69.931  1.00  0.00     0.174 HD
ATOM     25  H11 UNL     1       0.043  16.288  68.723  1.00  0.00     0.174 HD
ENDBRANCH  13  23
BRANCH  19  26
HETATM   26  C17 UNL     1       2.340  23.503  67.244  1.00  0.00     0.331 C 
BRANCH  26  27
HETATM   27  O10 UNL     1       3.453  24.004  67.933  1.00  0.00    -0.364 OA
ATOM     28  H10 UNL     1       3.271  24.861  68.300  1.00  0.00     0.213 HD
ENDBRANCH  26  27
BRANCH  26  29
HETATM   29  O11 UNL     1       2.739  23.256  65.912  1.00  0.00    -0.364 OA
ATOM     30  H11 UNL     1       1.989  22.947  65.418  1.00  0.00     0.213 HD
ENDBRANCH  26  29
ENDBRANCH  19  26
ENDBRANCH   1   9
BRANCH   2  31
HETATM   31  C5  UNL     1      -0.050  22.660  72.963  1.00  0.00     0.314 C 
BRANCH  31  32
HETATM   32  O1  UNL     1      -0.098  23.546  74.035  1.00  0.00    -0.365 OA
ATOM     33  H1  UNL     1       0.705  23.477  74.539  1.00  0.00     0.213 HD
ENDBRANCH  31  32
BRANCH  31  34
HETATM   34  O2  UNL     1       1.168  21.953  73.098  1.00  0.00    -0.365 OA
ATOM     35  H2  UNL     1       1.565  22.193  73.927  1.00  0.00     0.213 HD
ENDBRANCH  31  34
ENDBRANCH   2  31
BRANCH   7  36
HETATM   36  O5  UNL     1      -4.149  19.019  73.516  1.00  0.00    -0.305 OA
BRANCH  36  37
HETATM   37  C8  UNL     1      -4.645  18.047  72.664  1.00  0.00     0.298 C 
HETATM   38  O6  UNL     1      -5.381  18.424  71.719  1.00  0.00    -0.262 OA
BRANCH  37  39
HETATM   39  C9  UNL     1      -4.326  16.602  72.850  1.00  0.00     0.351 C 
BRANCH  39  40
HETATM   40  N5  UNL     1      -5.474  15.881  73.254  1.00  0.00    -0.059 N 
ATOM     41  H53 UNL     1      -5.661  15.999  74.250  1.00  0.00     0.275 HD
ATOM     42  H52 UNL     1      -6.329  16.297  72.886  1.00  0.00     0.275 HD
ATOM     43  H51 UNL     1      -5.394  14.896  73.000  1.00  0.00     0.275 HD
ENDBRANCH  39  40
BRANCH  39  44
HETATM   44  C10 UNL     1      -3.647  16.066  71.633  1.00  0.00     0.156 A 
HETATM   45  N6  UNL     1      -4.147  15.980  70.395  1.00  0.00    -0.270 N 
HETATM   46  N7  UNL     1      -3.228  15.495  69.605  1.00  0.00    -0.227 N 
ATOM     47  H6  UNL     1      -5.090  16.248  70.115  1.00  0.00     0.190 HD
HETATM   48  N8  UNL     1      -2.156  15.273  70.322  1.00  0.00    -0.225 N 
ATOM     49  H7  UNL     1      -3.327  15.319  68.605  1.00  0.00     0.210 HD
HETATM   50  N9  UNL     1      -2.387  15.624  71.612  1.00  0.00    -0.261 N 
ATOM     51  H8  UNL     1      -1.280  14.893  69.965  1.00  0.00     0.210 HD
BRANCH  50  52
HETATM   52  C11 UNL     1      -1.381  15.468  72.621  1.00  0.00     0.163 C 
BRANCH  52  53
HETATM   53  C12 UNL     1      -0.151  14.725  72.214  1.00  0.00     0.135 C 
BRANCH  53  54
HETATM   54  C13 UNL     1       1.078  15.525  72.366  1.00  0.00     0.174 C 
HETATM   55  O7  UNL     1       1.168  16.342  73.314  1.00  0.00    -0.648 OA
HETATM   56  O8  UNL     1       2.154  15.416  71.506  1.00  0.00    -0.648 OA
ENDBRANCH  53  54
ENDBRANCH  52  53
ENDBRANCH  50  52
ENDBRANCH  39  44
ENDBRANCH  37  39
ENDBRANCH  36  37
ENDBRANCH   7  36
BRANCH   5  57
HETATM   57  O4  UNL     1      -2.921  21.175  76.602  1.00  0.00    -0.288 OA
ATOM     58  H4  UNL     1      -3.457  21.776  77.105  1.00  0.00     0.244 HD
ENDBRANCH   5  57
TORSDOF 17
ENDMDL
