MODEL 1
REMARK VINA RESULT: -5.552588387      0.000      0.000
REMARK  12 active torsions:
REMARK  status: ('A' for Active; 'I' for Inactive)
REMARK    1  A    between atoms: C2_2  and  C3_3 
REMARK    2  A    between atoms: C2_2  and  C4_6 
REMARK    3  A    between atoms: C2_2  and  N1_9 
REMARK    4  A    between atoms: C3_3  and  O1_4 
REMARK    5  A    between atoms: C4_6  and  O2_7 
REMARK    6  A    between atoms: N1_9  and  C5_11 
REMARK    7  A    between atoms: C5_11  and  C6_12 
REMARK    8  A    between atoms: C9_20  and  N4_21 
REMARK    9  A    between atoms: N6_27  and  C11_28 
REMARK   10  A    between atoms: C12_32  and  N8_33 
REMARK   11  A    between atoms: N8_33  and  N9_35 
REMARK   12  A    between atoms: C13_38  and  N10_39 
ROOT
HETATM    1  C6  UNL     1      78.241 -10.628 -54.959  1.00  0.00     0.096 A 
HETATM    2  N2  UNL     1      78.724  -9.445 -54.574  1.00  0.00    -0.346 N 
ATOM      3  H2  UNL     1      79.067  -8.809 -55.293  1.00  0.00     0.166 HD
HETATM    4  C7  UNL     1      78.783  -9.051 -53.307  1.00  0.00     0.147 A 
HETATM    5  C8  UNL     1      79.296  -7.813 -52.980  1.00  0.00     0.290 A 
HETATM    6  O3  UNL     1      79.723  -7.021 -53.865  1.00  0.00    -0.265 OA
HETATM    7  N3  UNL     1      79.345  -7.438 -51.698  1.00  0.00    -0.154 N 
ATOM      8  H3  UNL     1      79.723  -6.525 -51.443  1.00  0.00     0.187 HD
HETATM    9  C9  UNL     1      78.895  -8.269 -50.755  1.00  0.00     0.680 A 
HETATM   10  N5  UNL     1      78.386  -9.493 -51.068  1.00  0.00    -0.174 N 
ATOM     11  H5  UNL     1      78.054 -10.095 -50.314  1.00  0.00     0.186 HD
HETATM   12  C10 UNL     1      78.306  -9.937 -52.335  1.00  0.00     0.161 A 
HETATM   13  N6  UNL     1      77.809 -11.139 -52.664  1.00  0.00    -0.257 N 
HETATM   14  C14 UNL     1      77.775 -11.482 -53.957  1.00  0.00     0.276 A 
HETATM   15  O4  UNL     1      77.321 -12.584 -54.289  1.00  0.00    -0.266 OA
ENDROOT
BRANCH  13  16
HETATM   16  C11 UNL     1      77.338 -12.006 -51.646  1.00  0.00     0.363 C 
HETATM   17  N7  UNL     1      75.976 -12.515 -51.879  1.00  0.00    -0.019 N 
HETATM   18  C12 UNL     1      75.812 -13.493 -50.834  1.00  0.00     0.342 C 
ATOM     19  H72 UNL     1      75.252 -11.797 -51.907  1.00  0.00     0.283 HD
ATOM     20  H71 UNL     1      75.809 -12.868 -52.822  1.00  0.00     0.283 HD
HETATM   21  C13 UNL     1      76.768 -14.641 -51.133  1.00  0.00     0.299 C 
HETATM   22  S1  UNL     1      78.220 -13.625 -51.649  1.00  0.00    -0.078 SA
BRANCH  18  23
HETATM   23  N8  UNL     1      74.487 -13.899 -50.565  1.00  0.00    -0.310 N 
ATOM     24  H8  UNL     1      74.245 -14.398 -49.709  1.00  0.00     0.182 HD
BRANCH  23  25
HETATM   25  N9  UNL     1      73.542 -13.591 -51.509  1.00  0.00    -0.347 N 
ATOM     26  H92 UNL     1      73.621 -12.739 -52.066  1.00  0.00     0.176 HD
ATOM     27  H91 UNL     1      72.772 -14.249 -51.620  1.00  0.00     0.176 HD
ENDBRANCH  23  25
ENDBRANCH  18  23
BRANCH  21  28
HETATM   28  N10 UNL     1      77.035 -15.299 -49.882  1.00  0.00    -0.062 N 
ATOM     29 3H10 UNL     1      78.027 -15.481 -49.728  1.00  0.00     0.275 HD
ATOM     30 2H10 UNL     1      76.886 -14.696 -49.073  1.00  0.00     0.275 HD
ATOM     31 1H10 UNL     1      76.465 -16.144 -49.864  1.00  0.00     0.275 HD
ENDBRANCH  21  28
ENDBRANCH  13  16
BRANCH   1  32
HETATM   32  C5  UNL     1      78.203 -11.013 -56.408  1.00  0.00     0.178 C 
BRANCH  32  33
HETATM   33  N1  UNL     1      79.544 -11.078 -56.879  1.00  0.00    -0.404 N 
ATOM     34  H1  UNL     1      80.222 -11.744 -56.509  1.00  0.00     0.154 HD
BRANCH  33  35
HETATM   35  C2  UNL     1      79.871 -10.142 -57.906  1.00  0.00     0.065 C 
HETATM   36  C1  UNL     1      80.501 -10.913 -59.062  1.00  0.00     0.042 C 
BRANCH  35  37
HETATM   37  C3  UNL     1      78.643  -9.461 -58.481  1.00  0.00     0.196 C 
BRANCH  37  38
HETATM   38  O1  UNL     1      79.023  -8.896 -59.697  1.00  0.00    -0.398 OA
ATOM     39  H1  UNL     1      78.268  -8.428 -60.034  1.00  0.00     0.209 HD
ENDBRANCH  37  38
ENDBRANCH  35  37
BRANCH  35  40
HETATM   40  C4  UNL     1      80.828  -9.078 -57.494  1.00  0.00     0.196 C 
BRANCH  40  41
HETATM   41  O2  UNL     1      80.111  -8.121 -56.756  1.00  0.00    -0.398 OA
ATOM     42  H2  UNL     1      80.676  -7.813 -56.057  1.00  0.00     0.209 HD
ENDBRANCH  40  41
ENDBRANCH  35  40
ENDBRANCH  33  35
ENDBRANCH  32  33
ENDBRANCH   1  32
BRANCH   9  43
HETATM   43  N4  UNL     1      78.939  -7.913 -49.523  1.00  0.00    -0.234 N 
ATOM     44  H42 UNL     1      78.780  -6.933 -49.287  1.00  0.00     0.174 HD
ATOM     45  H41 UNL     1      79.132  -8.609 -48.803  1.00  0.00     0.174 HD
ENDBRANCH   9  43
TORSDOF 12
ENDMDL
MODEL 2
REMARK VINA RESULT: -5.502950530      0.584      1.199
REMARK  12 active torsions:
REMARK  status: ('A' for Active; 'I' for Inactive)
REMARK    1  A    between atoms: C2_2  and  C3_3 
REMARK    2  A    between atoms: C2_2  and  C4_6 
REMARK    3  A    between atoms: C2_2  and  N1_9 
REMARK    4  A    between atoms: C3_3  and  O1_4 
REMARK    5  A    between atoms: C4_6  and  O2_7 
REMARK    6  A    between atoms: N1_9  and  C5_11 
REMARK    7  A    between atoms: C5_11  and  C6_12 
REMARK    8  A    between atoms: C9_20  and  N4_21 
REMARK    9  A    between atoms: N6_27  and  C11_28 
REMARK   10  A    between atoms: C12_32  and  N8_33 
REMARK   11  A    between atoms: N8_33  and  N9_35 
REMARK   12  A    between atoms: C13_38  and  N10_39 
ROOT
HETATM    1  C6  UNL     1      78.000 -10.518 -54.888  1.00  0.00     0.096 A 
HETATM    2  N2  UNL     1      78.511  -9.357 -54.475  1.00  0.00    -0.346 N 
ATOM      3  H2  UNL     1      78.821  -8.689 -55.180  1.00  0.00     0.166 HD
HETATM    4  C7  UNL     1      78.639  -9.024 -53.195  1.00  0.00     0.147 A 
HETATM    5  C8  UNL     1      79.178  -7.805 -52.838  1.00  0.00     0.290 A 
HETATM    6  O3  UNL     1      79.564  -6.974 -53.706  1.00  0.00    -0.265 OA
HETATM    7  N3  UNL     1      79.297  -7.491 -51.544  1.00  0.00    -0.154 N 
ATOM      8  H3  UNL     1      79.694  -6.593 -51.267  1.00  0.00     0.187 HD
HETATM    9  C9  UNL     1      78.890  -8.363 -50.618  1.00  0.00     0.680 A 
HETATM   10  N5  UNL     1      78.357  -9.569 -50.962  1.00  0.00    -0.174 N 
ATOM     11  H5  UNL     1      78.060 -10.204 -50.220  1.00  0.00     0.186 HD
HETATM   12  C10 UNL     1      78.208  -9.952 -52.242  1.00  0.00     0.161 A 
HETATM   13  N6  UNL     1      77.685 -11.134 -52.600  1.00  0.00    -0.257 N 
HETATM   14  C14 UNL     1      77.582 -11.416 -53.905  1.00  0.00     0.276 A 
HETATM   15  O4  UNL     1      77.103 -12.499 -54.263  1.00  0.00    -0.266 OA
ENDROOT
BRANCH  13  16
HETATM   16  C11 UNL     1      77.261 -12.047 -51.601  1.00  0.00     0.363 C 
HETATM   17  N7  UNL     1      75.884 -12.534 -51.783  1.00  0.00    -0.019 N 
HETATM   18  C12 UNL     1      75.768 -13.560 -50.779  1.00  0.00     0.342 C 
ATOM     19  H72 UNL     1      75.167 -11.810 -51.738  1.00  0.00     0.283 HD
ATOM     20  H71 UNL     1      75.663 -12.840 -52.731  1.00  0.00     0.283 HD
HETATM   21  C13 UNL     1      76.695 -14.699 -51.184  1.00  0.00     0.299 C 
HETATM   22  S1  UNL     1      78.126 -13.670 -51.729  1.00  0.00    -0.078 SA
BRANCH  18  23
HETATM   23  N8  UNL     1      74.455 -13.969 -50.457  1.00  0.00    -0.310 N 
ATOM     24  H8  UNL     1      74.255 -14.509 -49.616  1.00  0.00     0.182 HD
BRANCH  23  25
HETATM   25  N9  UNL     1      73.463 -13.606 -51.331  1.00  0.00    -0.347 N 
ATOM     26  H92 UNL     1      73.346 -12.631 -51.610  1.00  0.00     0.176 HD
ATOM     27  H91 UNL     1      72.862 -14.353 -51.680  1.00  0.00     0.176 HD
ENDBRANCH  23  25
ENDBRANCH  18  23
BRANCH  21  28
HETATM   28  N10 UNL     1      77.023 -15.418 -49.982  1.00  0.00    -0.062 N 
ATOM     29 3H10 UNL     1      76.214 -15.597 -49.388  1.00  0.00     0.275 HD
ATOM     30 2H10 UNL     1      77.275 -16.391 -50.154  1.00  0.00     0.275 HD
ATOM     31 1H10 UNL     1      77.757 -14.890 -49.512  1.00  0.00     0.275 HD
ENDBRANCH  21  28
ENDBRANCH  13  16
BRANCH   1  32
HETATM   32  C5  UNL     1      77.884 -10.834 -56.350  1.00  0.00     0.178 C 
BRANCH  32  33
HETATM   33  N1  UNL     1      79.195 -10.840 -56.902  1.00  0.00    -0.404 N 
ATOM     34  H1  UNL     1      79.925 -11.473 -56.573  1.00  0.00     0.154 HD
BRANCH  33  35
HETATM   35  C2  UNL     1      79.415  -9.897 -57.950  1.00  0.00     0.065 C 
HETATM   36  C1  UNL     1      78.057  -9.512 -58.530  1.00  0.00     0.042 C 
BRANCH  35  37
HETATM   37  C3  UNL     1      80.032  -8.606 -57.447  1.00  0.00     0.196 C 
BRANCH  37  38
HETATM   38  O1  UNL     1      80.858  -8.939 -56.375  1.00  0.00    -0.398 OA
ATOM     39  H1  UNL     1      80.583  -8.409 -55.637  1.00  0.00     0.209 HD
ENDBRANCH  37  38
ENDBRANCH  35  37
BRANCH  35  40
HETATM   40  C4  UNL     1      80.261 -10.398 -59.069  1.00  0.00     0.196 C 
BRANCH  40  41
HETATM   41  O2  UNL     1      81.302  -9.475 -59.263  1.00  0.00    -0.398 OA
ATOM     42  H2  UNL     1      82.068  -9.960 -59.548  1.00  0.00     0.209 HD
ENDBRANCH  40  41
ENDBRANCH  35  40
ENDBRANCH  33  35
ENDBRANCH  32  33
ENDBRANCH   1  32
BRANCH   9  43
HETATM   43  N4  UNL     1      79.001  -8.066 -49.375  1.00  0.00    -0.234 N 
ATOM     44  H42 UNL     1      79.837  -7.573 -49.059  1.00  0.00     0.174 HD
ATOM     45  H41 UNL     1      78.259  -8.325 -48.727  1.00  0.00     0.174 HD
ENDBRANCH   9  43
TORSDOF 12
ENDMDL
MODEL 3
REMARK VINA RESULT: -5.479018913      0.654      1.155
REMARK  12 active torsions:
REMARK  status: ('A' for Active; 'I' for Inactive)
REMARK    1  A    between atoms: C2_2  and  C3_3 
REMARK    2  A    between atoms: C2_2  and  C4_6 
REMARK    3  A    between atoms: C2_2  and  N1_9 
REMARK    4  A    between atoms: C3_3  and  O1_4 
REMARK    5  A    between atoms: C4_6  and  O2_7 
REMARK    6  A    between atoms: N1_9  and  C5_11 
REMARK    7  A    between atoms: C5_11  and  C6_12 
REMARK    8  A    between atoms: C9_20  and  N4_21 
REMARK    9  A    between atoms: N6_27  and  C11_28 
REMARK   10  A    between atoms: C12_32  and  N8_33 
REMARK   11  A    between atoms: N8_33  and  N9_35 
REMARK   12  A    between atoms: C13_38  and  N10_39 
ROOT
HETATM    1  C6  UNL     1      78.048 -10.524 -54.890  1.00  0.00     0.096 A 
HETATM    2  N2  UNL     1      78.539  -9.356 -54.473  1.00  0.00    -0.346 N 
ATOM      3  H2  UNL     1      78.845  -8.683 -55.176  1.00  0.00     0.166 HD
HETATM    4  C7  UNL     1      78.651  -9.020 -53.192  1.00  0.00     0.147 A 
HETATM    5  C8  UNL     1      79.169  -7.793 -52.832  1.00  0.00     0.290 A 
HETATM    6  O3  UNL     1      79.550  -6.957 -53.697  1.00  0.00    -0.265 OA
HETATM    7  N3  UNL     1      79.272  -7.477 -51.537  1.00  0.00    -0.154 N 
ATOM      8  H3  UNL     1      79.653  -6.573 -51.257  1.00  0.00     0.187 HD
HETATM    9  C9  UNL     1      78.871  -8.354 -50.614  1.00  0.00     0.680 A 
HETATM   10  N5  UNL     1      78.358  -9.568 -50.961  1.00  0.00    -0.174 N 
ATOM     11  H5  UNL     1      78.064 -10.207 -50.222  1.00  0.00     0.186 HD
HETATM   12  C10 UNL     1      78.225  -9.954 -52.242  1.00  0.00     0.161 A 
HETATM   13  N6  UNL     1      77.723 -11.144 -52.605  1.00  0.00    -0.257 N 
HETATM   14  C14 UNL     1      77.635 -11.428 -53.910  1.00  0.00     0.276 A 
HETATM   15  O4  UNL     1      77.175 -12.518 -54.272  1.00  0.00    -0.266 OA
ENDROOT
BRANCH  13  16
HETATM   16  C11 UNL     1      77.304 -12.062 -51.609  1.00  0.00     0.363 C 
HETATM   17  N7  UNL     1      75.921 -12.536 -51.777  1.00  0.00    -0.019 N 
HETATM   18  C12 UNL     1      75.808 -13.569 -50.781  1.00  0.00     0.342 C 
ATOM     19  H72 UNL     1      75.210 -11.806 -51.715  1.00  0.00     0.283 HD
ATOM     20  H71 UNL     1      75.684 -12.830 -52.725  1.00  0.00     0.283 HD
HETATM   21  C13 UNL     1      76.720 -14.713 -51.209  1.00  0.00     0.299 C 
HETATM   22  S1  UNL     1      78.153 -13.691 -51.763  1.00  0.00    -0.078 SA
BRANCH  18  23
HETATM   23  N8  UNL     1      74.496 -13.970 -50.446  1.00  0.00    -0.310 N 
ATOM     24  H8  UNL     1      74.301 -14.508 -49.602  1.00  0.00     0.182 HD
BRANCH  23  25
HETATM   25  N9  UNL     1      73.498 -13.602 -51.311  1.00  0.00    -0.347 N 
ATOM     26  H92 UNL     1      72.673 -13.106 -50.973  1.00  0.00     0.176 HD
ATOM     27  H91 UNL     1      73.626 -13.849 -52.292  1.00  0.00     0.176 HD
ENDBRANCH  23  25
ENDBRANCH  18  23
BRANCH  21  28
HETATM   28  N10 UNL     1      77.057 -15.446 -50.019  1.00  0.00    -0.062 N 
ATOM     29 3H10 UNL     1      77.021 -14.877 -49.173  1.00  0.00     0.275 HD
ATOM     30 2H10 UNL     1      76.343 -16.124 -49.749  1.00  0.00     0.275 HD
ATOM     31 1H10 UNL     1      77.970 -15.869 -50.180  1.00  0.00     0.275 HD
ENDBRANCH  21  28
ENDBRANCH  13  16
BRANCH   1  32
HETATM   32  C5  UNL     1      77.949 -10.843 -56.353  1.00  0.00     0.178 C 
BRANCH  32  33
HETATM   33  N1  UNL     1      79.265 -10.834 -56.893  1.00  0.00    -0.404 N 
ATOM     34  H1  UNL     1      80.007 -11.437 -56.536  1.00  0.00     0.154 HD
BRANCH  33  35
HETATM   35  C2  UNL     1      79.471  -9.922 -57.970  1.00  0.00     0.065 C 
HETATM   36  C1  UNL     1      80.232  -8.715 -57.427  1.00  0.00     0.042 C 
BRANCH  35  37
HETATM   37  C3  UNL     1      80.346 -10.505 -59.064  1.00  0.00     0.196 C 
BRANCH  37  38
HETATM   38  O1  UNL     1      81.361  -9.583 -59.310  1.00  0.00    -0.398 OA
ATOM     39  H1  UNL     1      81.344  -9.391 -60.240  1.00  0.00     0.209 HD
ENDBRANCH  37  38
ENDBRANCH  35  37
BRANCH  35  40
HETATM   40  C4  UNL     1      78.222  -9.421 -58.608  1.00  0.00     0.196 C 
BRANCH  40  41
HETATM   41  O2  UNL     1      78.591  -8.664 -59.733  1.00  0.00    -0.398 OA
ATOM     42  H2  UNL     1      78.850  -7.802 -59.428  1.00  0.00     0.209 HD
ENDBRANCH  40  41
ENDBRANCH  35  40
ENDBRANCH  33  35
ENDBRANCH  32  33
ENDBRANCH   1  32
BRANCH   9  43
HETATM   43  N4  UNL     1      78.967  -8.055 -49.370  1.00  0.00    -0.234 N 
ATOM     44  H42 UNL     1      78.325  -8.489 -48.708  1.00  0.00     0.174 HD
ATOM     45  H41 UNL     1      79.678  -7.392 -49.065  1.00  0.00     0.174 HD
ENDBRANCH   9  43
TORSDOF 12
ENDMDL
MODEL 4
REMARK VINA RESULT: -4.993802753      3.850      6.241
REMARK  12 active torsions:
REMARK  status: ('A' for Active; 'I' for Inactive)
REMARK    1  A    between atoms: C2_2  and  C3_3 
REMARK    2  A    between atoms: C2_2  and  C4_6 
REMARK    3  A    between atoms: C2_2  and  N1_9 
REMARK    4  A    between atoms: C3_3  and  O1_4 
REMARK    5  A    between atoms: C4_6  and  O2_7 
REMARK    6  A    between atoms: N1_9  and  C5_11 
REMARK    7  A    between atoms: C5_11  and  C6_12 
REMARK    8  A    between atoms: C9_20  and  N4_21 
REMARK    9  A    between atoms: N6_27  and  C11_28 
REMARK   10  A    between atoms: C12_32  and  N8_33 
REMARK   11  A    between atoms: N8_33  and  N9_35 
REMARK   12  A    between atoms: C13_38  and  N10_39 
ROOT
HETATM    1  C6  UNL     1      78.730  -9.288 -51.085  1.00  0.00     0.096 A 
HETATM    2  N2  UNL     1      78.108  -8.211 -51.568  1.00  0.00    -0.346 N 
ATOM      3  H2  UNL     1      77.756  -8.248 -52.525  1.00  0.00     0.166 HD
HETATM    4  C7  UNL     1      77.922  -7.094 -50.873  1.00  0.00     0.147 A 
HETATM    5  C8  UNL     1      77.270  -6.018 -51.437  1.00  0.00     0.290 A 
HETATM    6  O3  UNL     1      76.833  -6.056 -52.621  1.00  0.00    -0.265 OA
HETATM    7  N3  UNL     1      77.094  -4.904 -50.719  1.00  0.00    -0.154 N 
ATOM      8  H3  UNL     1      76.613  -4.101 -51.124  1.00  0.00     0.187 HD
HETATM    9  C9  UNL     1      77.552  -4.854 -49.466  1.00  0.00     0.680 A 
HETATM   10  N5  UNL     1      78.196  -5.913 -48.901  1.00  0.00    -0.174 N 
ATOM     11  H5  UNL     1      78.530  -5.829 -47.940  1.00  0.00     0.186 HD
HETATM   12  C10 UNL     1      78.409  -7.063 -49.563  1.00  0.00     0.161 A 
HETATM   13  N6  UNL     1      79.042  -8.117 -49.024  1.00  0.00    -0.257 N 
HETATM   14  C14 UNL     1      79.202  -9.215 -49.772  1.00  0.00     0.276 A 
HETATM   15  O4  UNL     1      79.781 -10.201 -49.300  1.00  0.00    -0.266 OA
ENDROOT
BRANCH  13  16
HETATM   16  C11 UNL     1      79.523  -8.042 -47.692  1.00  0.00     0.363 C 
HETATM   17  N7  UNL     1      79.163  -9.203 -46.862  1.00  0.00    -0.019 N 
HETATM   18  C12 UNL     1      79.909  -8.979 -45.651  1.00  0.00     0.342 C 
ATOM     19  H72 UNL     1      78.161  -9.336 -46.727  1.00  0.00     0.283 HD
ATOM     20  H71 UNL     1      79.329 -10.108 -47.302  1.00  0.00     0.283 HD
HETATM   21  C13 UNL     1      81.387  -9.123 -45.993  1.00  0.00     0.299 C 
HETATM   22  S1  UNL     1      81.355  -8.220 -47.602  1.00  0.00    -0.078 SA
BRANCH  18  23
HETATM   23  N8  UNL     1      79.501  -9.724 -44.522  1.00  0.00    -0.310 N 
ATOM     24  H8  UNL     1      79.719  -9.420 -43.574  1.00  0.00     0.182 HD
BRANCH  23  25
HETATM   25  N9  UNL     1      78.800 -10.877 -44.765  1.00  0.00    -0.347 N 
ATOM     26  H92 UNL     1      78.717 -11.247 -45.712  1.00  0.00     0.176 HD
ATOM     27  H91 UNL     1      78.374 -11.334 -43.958  1.00  0.00     0.176 HD
ENDBRANCH  23  25
ENDBRANCH  18  23
BRANCH  21  28
HETATM   28  N10 UNL     1      82.119  -8.371 -45.010  1.00  0.00    -0.062 N 
ATOM     29 3H10 UNL     1      81.571  -8.160 -44.176  1.00  0.00     0.275 HD
ATOM     30 2H10 UNL     1      82.849  -8.916 -44.551  1.00  0.00     0.275 HD
ATOM     31 1H10 UNL     1      82.474  -7.539 -45.478  1.00  0.00     0.275 HD
ENDBRANCH  21  28
ENDBRANCH  13  16
BRANCH   1  32
HETATM   32  C5  UNL     1      78.909 -10.519 -51.922  1.00  0.00     0.178 C 
BRANCH  32  33
HETATM   33  N1  UNL     1      78.134 -11.561 -51.340  1.00  0.00    -0.404 N 
ATOM     34  H1  UNL     1      78.176 -11.783 -50.345  1.00  0.00     0.154 HD
BRANCH  33  35
HETATM   35  C2  UNL     1      77.297 -12.274 -52.249  1.00  0.00     0.065 C 
HETATM   36  C1  UNL     1      77.908 -13.654 -52.471  1.00  0.00     0.042 C 
BRANCH  35  37
HETATM   37  C3  UNL     1      75.909 -12.520 -51.687  1.00  0.00     0.196 C 
BRANCH  37  38
HETATM   38  O1  UNL     1      75.099 -12.904 -52.754  1.00  0.00    -0.398 OA
ATOM     39  H1  UNL     1      74.699 -13.732 -52.516  1.00  0.00     0.209 HD
ENDBRANCH  37  38
ENDBRANCH  35  37
BRANCH  35  40
HETATM   40  C4  UNL     1      77.138 -11.629 -53.582  1.00  0.00     0.196 C 
BRANCH  40  41
HETATM   41  O2  UNL     1      77.122 -12.649 -54.550  1.00  0.00    -0.398 OA
ATOM     42  H2  UNL     1      78.024 -12.864 -54.755  1.00  0.00     0.209 HD
ENDBRANCH  40  41
ENDBRANCH  35  40
ENDBRANCH  33  35
ENDBRANCH  32  33
ENDBRANCH   1  32
BRANCH   9  43
HETATM   43  N4  UNL     1      77.384  -3.788 -48.772  1.00  0.00    -0.234 N 
ATOM     44  H42 UNL     1      76.448  -3.560 -48.436  1.00  0.00     0.174 HD
ATOM     45  H41 UNL     1      78.183  -3.188 -48.568  1.00  0.00     0.174 HD
ENDBRANCH   9  43
TORSDOF 12
ENDMDL
MODEL 5
REMARK VINA RESULT: -4.981357322      3.906      6.321
REMARK  12 active torsions:
REMARK  status: ('A' for Active; 'I' for Inactive)
REMARK    1  A    between atoms: C2_2  and  C3_3 
REMARK    2  A    between atoms: C2_2  and  C4_6 
REMARK    3  A    between atoms: C2_2  and  N1_9 
REMARK    4  A    between atoms: C3_3  and  O1_4 
REMARK    5  A    between atoms: C4_6  and  O2_7 
REMARK    6  A    between atoms: N1_9  and  C5_11 
REMARK    7  A    between atoms: C5_11  and  C6_12 
REMARK    8  A    between atoms: C9_20  and  N4_21 
REMARK    9  A    between atoms: N6_27  and  C11_28 
REMARK   10  A    between atoms: C12_32  and  N8_33 
REMARK   11  A    between atoms: N8_33  and  N9_35 
REMARK   12  A    between atoms: C13_38  and  N10_39 
ROOT
HETATM    1  C6  UNL     1      78.553  -8.592 -51.098  1.00  0.00     0.096 A 
HETATM    2  N2  UNL     1      78.056  -7.438 -51.548  1.00  0.00    -0.346 N 
ATOM      3  H2  UNL     1      77.752  -7.391 -52.520  1.00  0.00     0.166 HD
HETATM    4  C7  UNL     1      77.935  -6.347 -50.799  1.00  0.00     0.147 A 
HETATM    5  C8  UNL     1      77.412  -5.187 -51.330  1.00  0.00     0.290 A 
HETATM    6  O3  UNL     1      77.035  -5.122 -52.533  1.00  0.00    -0.265 OA
HETATM    7  N3  UNL     1      77.299  -4.102 -50.557  1.00  0.00    -0.154 N 
ATOM      8  H3  UNL     1      76.914  -3.237 -50.937  1.00  0.00     0.187 HD
HETATM    9  C9  UNL     1      77.694  -4.160 -49.283  1.00  0.00     0.680 A 
HETATM   10  N5  UNL     1      78.212  -5.303 -48.751  1.00  0.00    -0.174 N 
ATOM     11  H5  UNL     1      78.501  -5.302 -47.772  1.00  0.00     0.186 HD
HETATM   12  C10 UNL     1      78.355  -6.431 -49.468  1.00  0.00     0.161 A 
HETATM   13  N6  UNL     1      78.862  -7.566 -48.962  1.00  0.00    -0.257 N 
HETATM   14  C14 UNL     1      78.961  -8.633 -49.764  1.00  0.00     0.276 A 
HETATM   15  O4  UNL     1      79.425  -9.692 -49.323  1.00  0.00    -0.266 OA
ENDROOT
BRANCH  13  16
HETATM   16  C11 UNL     1      79.278  -7.606 -47.607  1.00  0.00     0.363 C 
HETATM   17  N7  UNL     1      78.970  -8.874 -46.926  1.00  0.00    -0.019 N 
HETATM   18  C12 UNL     1      79.643  -8.735 -45.661  1.00  0.00     0.342 C 
ATOM     19  H72 UNL     1      77.975  -9.090 -46.857  1.00  0.00     0.283 HD
ATOM     20  H71 UNL     1      79.220  -9.712 -47.452  1.00  0.00     0.283 HD
HETATM   21  C13 UNL     1      81.141  -8.740 -45.941  1.00  0.00     0.299 C 
HETATM   22  S1  UNL     1      81.113  -7.667 -47.443  1.00  0.00    -0.078 SA
BRANCH  18  23
HETATM   23  N8  UNL     1      79.244  -9.628 -44.642  1.00  0.00    -0.310 N 
ATOM     24  H8  UNL     1      79.247  -9.353 -43.660  1.00  0.00     0.182 HD
BRANCH  23  25
HETATM   25  N9  UNL     1      78.852 -10.881 -45.037  1.00  0.00    -0.347 N 
ATOM     26  H92 UNL     1      78.987 -11.686 -44.424  1.00  0.00     0.176 HD
ATOM     27  H91 UNL     1      78.427 -10.959 -45.961  1.00  0.00     0.176 HD
ENDBRANCH  23  25
ENDBRANCH  18  23
BRANCH  21  28
HETATM   28  N10 UNL     1      81.773  -8.053 -44.847  1.00  0.00    -0.062 N 
ATOM     29 3H10 UNL     1      81.111  -7.575 -44.236  1.00  0.00     0.275 HD
ATOM     30 2H10 UNL     1      82.162  -8.686 -44.148  1.00  0.00     0.275 HD
ATOM     31 1H10 UNL     1      82.469  -7.427 -45.252  1.00  0.00     0.275 HD
ENDBRANCH  21  28
ENDBRANCH  13  16
BRANCH   1  32
HETATM   32  C5  UNL     1      78.664  -9.788 -51.996  1.00  0.00     0.178 C 
BRANCH  32  33
HETATM   33  N1  UNL     1      77.930 -10.852 -51.401  1.00  0.00    -0.404 N 
ATOM     34  H1  UNL     1      77.685 -10.860 -50.411  1.00  0.00     0.154 HD
BRANCH  33  35
HETATM   35  C2  UNL     1      77.563 -11.906 -52.290  1.00  0.00     0.065 C 
HETATM   36  C1  UNL     1      76.230 -12.479 -51.816  1.00  0.00     0.042 C 
BRANCH  35  37
HETATM   37  C3  UNL     1      77.324 -11.414 -53.705  1.00  0.00     0.196 C 
BRANCH  37  38
HETATM   38  O1  UNL     1      76.204 -12.088 -54.187  1.00  0.00    -0.398 OA
ATOM     39  H1  UNL     1      76.041 -12.816 -53.598  1.00  0.00     0.209 HD
ENDBRANCH  37  38
ENDBRANCH  35  37
BRANCH  35  40
HETATM   40  C4  UNL     1      78.540 -13.028 -52.359  1.00  0.00     0.196 C 
BRANCH  40  41
HETATM   41  O2  UNL     1      78.065 -13.949 -53.309  1.00  0.00    -0.398 OA
ATOM     42  H2  UNL     1      77.425 -14.503 -52.878  1.00  0.00     0.209 HD
ENDBRANCH  40  41
ENDBRANCH  35  40
ENDBRANCH  33  35
ENDBRANCH  32  33
ENDBRANCH   1  32
BRANCH   9  43
HETATM   43  N4  UNL     1      77.587  -3.122 -48.537  1.00  0.00    -0.234 N 
ATOM     44  H42 UNL     1      77.966  -3.154 -47.591  1.00  0.00     0.174 HD
ATOM     45  H41 UNL     1      77.128  -2.287 -48.899  1.00  0.00     0.174 HD
ENDBRANCH   9  43
TORSDOF 12
ENDMDL
