MODEL 1
REMARK VINA RESULT: -6.157326208      0.000      0.000
REMARK  9 active torsions:
REMARK  status: ('A' for Active; 'I' for Inactive)
REMARK    1  A    between atoms: C2_2  and  O1_3 
REMARK    2  A    between atoms: C2_2  and  C3_5 
REMARK    3  A    between atoms: C3_5  and  C4_6 
REMARK    4  A    between atoms: C3_5  and  N10_28 
REMARK    5  A    between atoms: C4_6  and  N1_7 
REMARK    6  A    between atoms: C4_6  and  C6_12 
REMARK       I    between atoms: N1_7  and  C5_9 
REMARK    7  A    between atoms: C7_15  and  N5_16 
REMARK    8  A    between atoms: C8_21  and  N8_22 
REMARK    9  A    between atoms: C11_33  and  N12_34 
ROOT
HETATM    1  C4  UNL     1      77.613 -10.954 -52.736  1.00  0.00     0.157 C 
ENDROOT
BRANCH   1   2
HETATM    2  C3  UNL     1      78.993 -11.471 -52.823  1.00  0.00     0.147 C 
BRANCH   2   3
HETATM    3  C2  UNL     1      79.275 -12.885 -53.173  1.00  0.00     0.139 C 
HETATM    4  C1  UNL     1      79.738 -13.826 -52.138  1.00  0.00     0.041 C 
BRANCH   3   5
HETATM    5  O1  UNL     1      78.168 -13.490 -53.825  1.00  0.00    -0.394 OA
ATOM      6  H1  UNL     1      77.487 -12.831 -53.890  1.00  0.00     0.210 HD
ENDBRANCH   3   5
ENDBRANCH   2   3
BRANCH   2   7
HETATM    7  N10 UNL     1      79.660 -10.676 -53.887  1.00  0.00    -0.318 N 
HETATM    8  C9  UNL     1      80.822 -10.047 -53.707  1.00  0.00     0.185 A 
HETATM    9  N11 UNL     1      81.173  -9.401 -54.861  1.00  0.00    -0.346 N 
HETATM   10  C10 UNL     1      80.208  -9.647 -55.743  1.00  0.00     0.122 A 
ATOM     11  H11 UNL     1      82.011  -8.839 -55.015  1.00  0.00     0.167 HD
HETATM   12  C11 UNL     1      80.036  -9.257 -57.047  1.00  0.00     0.131 A 
HETATM   13  C13 UNL     1      79.250 -10.454 -55.126  1.00  0.00     0.141 A 
HETATM   14  N13 UNL     1      78.939  -9.668 -57.702  1.00  0.00    -0.337 N 
HETATM   15  C12 UNL     1      78.021 -10.458 -57.072  1.00  0.00     0.183 A 
ATOM     16  H13 UNL     1      78.791  -9.389 -58.672  1.00  0.00     0.168 HD
HETATM   17  N14 UNL     1      78.176 -10.846 -55.794  1.00  0.00    -0.336 N 
ATOM     18  H14 UNL     1      77.475 -11.436 -55.345  1.00  0.00     0.168 HD
BRANCH  12  19
HETATM   19  N12 UNL     1      80.898  -8.513 -57.646  1.00  0.00    -0.383 N 
ATOM     20 2H12 UNL     1      81.758  -8.246 -57.168  1.00  0.00     0.157 HD
ATOM     21 1H12 UNL     1      80.744  -8.178 -58.597  1.00  0.00     0.157 HD
ENDBRANCH  12  19
ENDBRANCH   2   7
ENDBRANCH   1   2
BRANCH   1  22
HETATM   22  N1  UNL     1      77.775  -9.727 -51.854  1.00  0.00    -0.335 N 
HETATM   23  C5  UNL     1      77.622  -8.436 -52.346  1.00  0.00     0.329 C 
HETATM   24  N2  UNL     1      77.807  -7.356 -51.409  1.00  0.00    -0.040 NA
HETATM   25  O2  UNL     1      77.340  -8.083 -53.511  1.00  0.00    -0.251 OA
ATOM     26  H1  UNL     1      78.005  -9.855 -50.868  1.00  0.00     0.164 HD
ENDBRANCH   1  22
BRANCH   1  27
HETATM   27  C6  UNL     1      76.567 -11.704 -52.008  1.00  0.00     0.259 C 
HETATM   28  N3  UNL     1      75.727 -12.495 -52.927  1.00  0.00    -0.110 NA
HETATM   29  N4  UNL     1      74.915 -13.197 -52.036  1.00  0.00    -0.089 NA
HETATM   30  C7  UNL     1      75.694 -13.265 -50.806  1.00  0.00     0.378 C 
HETATM   31  O3  UNL     1      76.890 -12.615 -51.074  1.00  0.00    -0.323 OA
BRANCH  30  32
HETATM   32  N5  UNL     1      75.875 -14.622 -50.378  1.00  0.00    -0.157 N 
HETATM   33  N6  UNL     1      76.487 -15.575 -51.042  1.00  0.00    -0.207 N 
HETATM   34  N7  UNL     1      76.468 -16.709 -50.342  1.00  0.00    -0.115 N 
ATOM     35  H6  UNL     1      76.914 -15.463 -51.961  1.00  0.00     0.210 HD
HETATM   36  C8  UNL     1      75.814 -16.418 -49.207  1.00  0.00     0.707 A 
ATOM     37  H7  UNL     1      76.866 -17.608 -50.613  1.00  0.00     0.207 HD
HETATM   38  N9  UNL     1      75.452 -15.122 -49.239  1.00  0.00    -0.109 N 
ATOM     39  H9  UNL     1      74.941 -14.620 -48.513  1.00  0.00     0.207 HD
BRANCH  36  40
HETATM   40  N8  UNL     1      75.565 -17.237 -48.231  1.00  0.00    -0.232 N 
ATOM     41  H82 UNL     1      75.998 -17.197 -47.308  1.00  0.00     0.174 HD
ATOM     42  H81 UNL     1      74.912 -18.020 -48.249  1.00  0.00     0.174 HD
ENDBRANCH  36  40
ENDBRANCH  30  32
ENDBRANCH   1  27
TORSDOF 9
ENDMDL
MODEL 2
REMARK VINA RESULT: -6.099924266      2.076      4.707
REMARK  9 active torsions:
REMARK  status: ('A' for Active; 'I' for Inactive)
REMARK    1  A    between atoms: C2_2  and  O1_3 
REMARK    2  A    between atoms: C2_2  and  C3_5 
REMARK    3  A    between atoms: C3_5  and  C4_6 
REMARK    4  A    between atoms: C3_5  and  N10_28 
REMARK    5  A    between atoms: C4_6  and  N1_7 
REMARK    6  A    between atoms: C4_6  and  C6_12 
REMARK       I    between atoms: N1_7  and  C5_9 
REMARK    7  A    between atoms: C7_15  and  N5_16 
REMARK    8  A    between atoms: C8_21  and  N8_22 
REMARK    9  A    between atoms: C11_33  and  N12_34 
ROOT
HETATM    1  C4  UNL     1      78.738 -10.874 -52.845  1.00  0.00     0.157 C 
ENDROOT
BRANCH   1   2
HETATM    2  C3  UNL     1      78.924  -9.617 -53.595  1.00  0.00     0.147 C 
BRANCH   2   3
HETATM    3  C2  UNL     1      78.356  -9.426 -54.952  1.00  0.00     0.139 C 
HETATM    4  C1  UNL     1      79.245  -9.367 -56.125  1.00  0.00     0.041 C 
BRANCH   3   5
HETATM    5  O1  UNL     1      77.352 -10.389 -55.235  1.00  0.00    -0.394 OA
ATOM      6  H1  UNL     1      76.717  -9.974 -55.807  1.00  0.00     0.210 HD
ENDBRANCH   3   5
ENDBRANCH   2   3
BRANCH   2   7
HETATM    7  N10 UNL     1      78.297  -8.552 -52.768  1.00  0.00    -0.318 N 
HETATM    8  C9  UNL     1      77.358  -7.727 -53.232  1.00  0.00     0.185 A 
HETATM    9  N11 UNL     1      76.986  -6.858 -52.241  1.00  0.00    -0.346 N 
HETATM   10  C10 UNL     1      77.714  -7.169 -51.171  1.00  0.00     0.122 A 
ATOM     11  H11 UNL     1      76.289  -6.117 -52.309  1.00  0.00     0.167 HD
HETATM   12  C11 UNL     1      77.760  -6.636 -49.907  1.00  0.00     0.131 A 
HETATM   13  C13 UNL     1      78.544  -8.241 -51.505  1.00  0.00     0.141 A 
HETATM   14  N13 UNL     1      78.611  -7.168 -49.016  1.00  0.00    -0.337 N 
HETATM   15  C12 UNL     1      79.409  -8.216 -49.373  1.00  0.00     0.183 A 
ATOM     16  H13 UNL     1      78.662  -6.787 -48.072  1.00  0.00     0.168 HD
HETATM   17  N14 UNL     1      79.375  -8.747 -50.607  1.00  0.00    -0.336 N 
ATOM     18  H14 UNL     1      79.983  -9.530 -50.850  1.00  0.00     0.168 HD
BRANCH  12  19
HETATM   19  N12 UNL     1      77.010  -5.648 -49.565  1.00  0.00    -0.383 N 
ATOM     20 2H12 UNL     1      76.498  -5.681 -48.684  1.00  0.00     0.157 HD
ATOM     21 1H12 UNL     1      76.910  -4.825 -50.158  1.00  0.00     0.157 HD
ENDBRANCH  12  19
ENDBRANCH   2   7
ENDBRANCH   1   2
BRANCH   1  22
HETATM   22  N1  UNL     1      79.217 -11.924 -53.834  1.00  0.00    -0.335 N 
HETATM   23  C5  UNL     1      80.543 -12.336 -53.890  1.00  0.00     0.329 C 
HETATM   24  N2  UNL     1      80.873 -13.334 -54.876  1.00  0.00    -0.040 NA
HETATM   25  O2  UNL     1      81.502 -11.948 -53.189  1.00  0.00    -0.251 OA
ATOM     26  H1  UNL     1      78.543 -12.339 -54.478  1.00  0.00     0.164 HD
ENDBRANCH   1  22
BRANCH   1  27
HETATM   27  C6  UNL     1      77.382 -11.371 -52.523  1.00  0.00     0.259 C 
HETATM   28  N3  UNL     1      76.985 -12.481 -53.409  1.00  0.00    -0.110 NA
HETATM   29  N4  UNL     1      75.762 -12.861 -52.857  1.00  0.00    -0.089 NA
HETATM   30  C7  UNL     1      75.845 -12.446 -51.462  1.00  0.00     0.378 C 
HETATM   31  O3  UNL     1      77.098 -11.871 -51.308  1.00  0.00    -0.323 OA
BRANCH  30  32
HETATM   32  N5  UNL     1      75.619 -13.549 -50.575  1.00  0.00    -0.157 N 
HETATM   33  N6  UNL     1      74.453 -14.019 -50.194  1.00  0.00    -0.207 N 
HETATM   34  N7  UNL     1      74.620 -15.050 -49.367  1.00  0.00    -0.115 N 
ATOM     35  H6  UNL     1      73.550 -13.647 -50.489  1.00  0.00     0.210 HD
HETATM   36  C8  UNL     1      75.948 -15.203 -49.248  1.00  0.00     0.707 A 
ATOM     37  H7  UNL     1      73.892 -15.605 -48.918  1.00  0.00     0.207 HD
HETATM   38  N9  UNL     1      76.557 -14.267 -50.001  1.00  0.00    -0.109 N 
ATOM     39  H9  UNL     1      77.563 -14.140 -50.107  1.00  0.00     0.207 HD
BRANCH  36  40
HETATM   40  N8  UNL     1      76.559 -16.097 -48.532  1.00  0.00    -0.232 N 
ATOM     41  H82 UNL     1      76.283 -17.076 -48.457  1.00  0.00     0.174 HD
ATOM     42  H81 UNL     1      77.386 -15.948 -47.955  1.00  0.00     0.174 HD
ENDBRANCH  36  40
ENDBRANCH  30  32
ENDBRANCH   1  27
TORSDOF 9
ENDMDL
MODEL 3
REMARK VINA RESULT: -5.961771296      2.002      3.847
REMARK  9 active torsions:
REMARK  status: ('A' for Active; 'I' for Inactive)
REMARK    1  A    between atoms: C2_2  and  O1_3 
REMARK    2  A    between atoms: C2_2  and  C3_5 
REMARK    3  A    between atoms: C3_5  and  C4_6 
REMARK    4  A    between atoms: C3_5  and  N10_28 
REMARK    5  A    between atoms: C4_6  and  N1_7 
REMARK    6  A    between atoms: C4_6  and  C6_12 
REMARK       I    between atoms: N1_7  and  C5_9 
REMARK    7  A    between atoms: C7_15  and  N5_16 
REMARK    8  A    between atoms: C8_21  and  N8_22 
REMARK    9  A    between atoms: C11_33  and  N12_34 
ROOT
HETATM    1  C4  UNL     1      78.525 -11.312 -53.198  1.00  0.00     0.157 C 
ENDROOT
BRANCH   1   2
HETATM    2  C3  UNL     1      78.637 -10.461 -54.399  1.00  0.00     0.147 C 
BRANCH   2   3
HETATM    3  C2  UNL     1      77.632 -10.514 -55.490  1.00  0.00     0.139 C 
HETATM    4  C1  UNL     1      77.874  -9.797 -56.754  1.00  0.00     0.041 C 
BRANCH   3   5
HETATM    5  O1  UNL     1      77.299 -11.854 -55.825  1.00  0.00    -0.394 OA
ATOM      6  H1  UNL     1      77.358 -12.365 -55.026  1.00  0.00     0.210 HD
ENDBRANCH   3   5
ENDBRANCH   2   3
BRANCH   2   7
HETATM    7  N10 UNL     1      78.593  -9.058 -53.911  1.00  0.00    -0.318 N 
HETATM    8  C9  UNL     1      77.507  -8.509 -53.366  1.00  0.00     0.185 A 
HETATM    9  N11 UNL     1      77.776  -7.211 -53.024  1.00  0.00    -0.346 N 
HETATM   10  C10 UNL     1      79.041  -6.982 -53.370  1.00  0.00     0.122 A 
ATOM     11  H11 UNL     1      77.133  -6.549 -52.590  1.00  0.00     0.167 HD
HETATM   12  C11 UNL     1      79.832  -5.866 -53.264  1.00  0.00     0.131 A 
HETATM   13  C13 UNL     1      79.557  -8.151 -53.932  1.00  0.00     0.141 A 
HETATM   14  N13 UNL     1      81.097  -5.930 -53.707  1.00  0.00    -0.337 N 
HETATM   15  C12 UNL     1      81.574  -7.088 -54.251  1.00  0.00     0.183 A 
ATOM     16  H13 UNL     1      81.703  -5.113 -53.638  1.00  0.00     0.168 HD
HETATM   17  N14 UNL     1      80.809  -8.189 -54.362  1.00  0.00    -0.336 N 
ATOM     18  H14 UNL     1      81.188  -9.042 -54.773  1.00  0.00     0.168 HD
BRANCH  12  19
HETATM   19  N12 UNL     1      79.388  -4.772 -52.752  1.00  0.00    -0.383 N 
ATOM     20 2H12 UNL     1      79.470  -4.611 -51.749  1.00  0.00     0.157 HD
ATOM     21 1H12 UNL     1      78.950  -4.053 -53.328  1.00  0.00     0.157 HD
ENDBRANCH  12  19
ENDBRANCH   2   7
ENDBRANCH   1   2
BRANCH   1  22
HETATM   22  N1  UNL     1      78.986 -12.667 -53.708  1.00  0.00    -0.335 N 
HETATM   23  C5  UNL     1      80.082 -13.328 -53.166  1.00  0.00     0.329 C 
HETATM   24  N2  UNL     1      80.421 -14.605 -53.741  1.00  0.00    -0.040 NA
HETATM   25  O2  UNL     1      80.823 -12.955 -52.232  1.00  0.00    -0.251 OA
ATOM     26  H1  UNL     1      78.474 -13.106 -54.474  1.00  0.00     0.164 HD
ENDBRANCH   1  22
BRANCH   1  27
HETATM   27  C6  UNL     1      77.202 -11.646 -52.627  1.00  0.00     0.259 C 
HETATM   28  N3  UNL     1      76.490 -12.641 -53.451  1.00  0.00    -0.110 NA
HETATM   29  N4  UNL     1      75.357 -12.891 -52.677  1.00  0.00    -0.089 NA
HETATM   30  C7  UNL     1      75.766 -12.573 -51.315  1.00  0.00     0.378 C 
HETATM   31  O3  UNL     1      77.093 -12.176 -51.396  1.00  0.00    -0.323 OA
BRANCH  30  32
HETATM   32  N5  UNL     1      75.565 -13.688 -50.436  1.00  0.00    -0.157 N 
HETATM   33  N6  UNL     1      74.411 -14.168 -50.035  1.00  0.00    -0.207 N 
HETATM   34  N7  UNL     1      74.601 -15.208 -49.224  1.00  0.00    -0.115 N 
ATOM     35  H6  UNL     1      73.500 -13.797 -50.305  1.00  0.00     0.210 HD
HETATM   36  C8  UNL     1      75.932 -15.356 -49.138  1.00  0.00     0.707 A 
ATOM     37  H7  UNL     1      73.886 -15.773 -48.766  1.00  0.00     0.207 HD
HETATM   38  N9  UNL     1      76.520 -14.409 -49.893  1.00  0.00    -0.109 N 
ATOM     39  H9  UNL     1      77.523 -14.275 -50.020  1.00  0.00     0.207 HD
BRANCH  36  40
HETATM   40  N8  UNL     1      76.564 -16.256 -48.447  1.00  0.00    -0.232 N 
ATOM     41  H82 UNL     1      77.513 -16.157 -48.086  1.00  0.00     0.174 HD
ATOM     42  H81 UNL     1      76.206 -17.170 -48.174  1.00  0.00     0.174 HD
ENDBRANCH  36  40
ENDBRANCH  30  32
ENDBRANCH   1  27
TORSDOF 9
ENDMDL
MODEL 4
REMARK VINA RESULT: -5.944777606      2.666      8.011
REMARK  9 active torsions:
REMARK  status: ('A' for Active; 'I' for Inactive)
REMARK    1  A    between atoms: C2_2  and  O1_3 
REMARK    2  A    between atoms: C2_2  and  C3_5 
REMARK    3  A    between atoms: C3_5  and  C4_6 
REMARK    4  A    between atoms: C3_5  and  N10_28 
REMARK    5  A    between atoms: C4_6  and  N1_7 
REMARK    6  A    between atoms: C4_6  and  C6_12 
REMARK       I    between atoms: N1_7  and  C5_9 
REMARK    7  A    between atoms: C7_15  and  N5_16 
REMARK    8  A    between atoms: C8_21  and  N8_22 
REMARK    9  A    between atoms: C11_33  and  N12_34 
ROOT
HETATM    1  C4  UNL     1      76.592 -13.020 -51.085  1.00  0.00     0.157 C 
ENDROOT
BRANCH   1   2
HETATM    2  C3  UNL     1      76.936 -14.454 -51.124  1.00  0.00     0.147 C 
BRANCH   2   3
HETATM    3  C2  UNL     1      78.066 -14.965 -51.938  1.00  0.00     0.139 C 
HETATM    4  C1  UNL     1      78.319 -16.413 -52.028  1.00  0.00     0.041 C 
BRANCH   3   5
HETATM    5  O1  UNL     1      78.016 -14.465 -53.266  1.00  0.00    -0.394 OA
ATOM      6  H1  UNL     1      77.188 -14.008 -53.364  1.00  0.00     0.210 HD
ENDBRANCH   3   5
ENDBRANCH   2   3
BRANCH   2   7
HETATM    7  N10 UNL     1      77.276 -14.830 -49.726  1.00  0.00    -0.318 N 
HETATM    8  C9  UNL     1      78.447 -14.542 -49.158  1.00  0.00     0.185 A 
HETATM    9  N11 UNL     1      78.461 -15.022 -47.876  1.00  0.00    -0.346 N 
HETATM   10  C10 UNL     1      77.281 -15.604 -47.675  1.00  0.00     0.122 A 
ATOM     11  H11 UNL     1      79.226 -14.948 -47.205  1.00  0.00     0.167 HD
HETATM   12  C11 UNL     1      76.748 -16.245 -46.585  1.00  0.00     0.131 A 
HETATM   13  C13 UNL     1      76.531 -15.482 -48.847  1.00  0.00     0.141 A 
HETATM   14  N13 UNL     1      75.506 -16.743 -46.676  1.00  0.00    -0.337 N 
HETATM   15  C12 UNL     1      74.797 -16.608 -47.835  1.00  0.00     0.183 A 
ATOM     16  H13 UNL     1      75.091 -17.224 -45.879  1.00  0.00     0.168 HD
HETATM   17  N14 UNL     1      75.307 -15.983 -48.911  1.00  0.00    -0.336 N 
ATOM     18  H14 UNL     1      74.758 -15.895 -49.766  1.00  0.00     0.168 HD
BRANCH  12  19
HETATM   19  N12 UNL     1      77.412 -16.375 -45.490  1.00  0.00    -0.383 N 
ATOM     20 2H12 UNL     1      76.971 -16.148 -44.600  1.00  0.00     0.157 HD
ATOM     21 1H12 UNL     1      78.378 -16.702 -45.488  1.00  0.00     0.157 HD
ENDBRANCH  12  19
ENDBRANCH   2   7
ENDBRANCH   1   2
BRANCH   1  22
HETATM   22  N1  UNL     1      75.268 -12.976 -51.831  1.00  0.00    -0.335 N 
HETATM   23  C5  UNL     1      74.067 -13.325 -51.226  1.00  0.00     0.329 C 
HETATM   24  N2  UNL     1      72.881 -13.248 -52.041  1.00  0.00    -0.040 NA
HETATM   25  O2  UNL     1      73.876 -13.703 -50.050  1.00  0.00    -0.251 OA
ATOM     26  H1  UNL     1      75.262 -12.682 -52.808  1.00  0.00     0.164 HD
ENDBRANCH   1  22
BRANCH   1  27
HETATM   27  C6  UNL     1      77.389 -12.029 -51.841  1.00  0.00     0.259 C 
HETATM   28  N3  UNL     1      76.725 -11.646 -53.102  1.00  0.00    -0.110 NA
HETATM   29  N4  UNL     1      77.568 -10.640 -53.572  1.00  0.00    -0.089 NA
HETATM   30  C7  UNL     1      78.209 -10.109 -52.375  1.00  0.00     0.378 C 
HETATM   31  O3  UNL     1      77.689 -10.831 -51.311  1.00  0.00    -0.323 OA
BRANCH  30  32
HETATM   32  N5  UNL     1      77.999  -8.696 -52.253  1.00  0.00    -0.157 N 
HETATM   33  N6  UNL     1      77.492  -7.900 -53.167  1.00  0.00    -0.207 N 
HETATM   34  N7  UNL     1      77.442  -6.650 -52.712  1.00  0.00    -0.115 N 
ATOM     35  H6  UNL     1      77.182  -8.198 -54.092  1.00  0.00     0.210 HD
HETATM   36  C8  UNL     1      77.942  -6.701 -51.467  1.00  0.00     0.707 A 
ATOM     37  H7  UNL     1      77.097  -5.826 -53.205  1.00  0.00     0.207 HD
HETATM   38  N9  UNL     1      78.283  -7.974 -51.194  1.00  0.00    -0.109 N 
ATOM     39  H9  UNL     1      78.689  -8.316 -50.323  1.00  0.00     0.207 HD
BRANCH  36  40
HETATM   40  N8  UNL     1      78.080  -5.700 -50.651  1.00  0.00    -0.232 N 
ATOM     41  H82 UNL     1      77.349  -5.027 -50.422  1.00  0.00     0.174 HD
ATOM     42  H81 UNL     1      78.924  -5.454 -50.134  1.00  0.00     0.174 HD
ENDBRANCH  36  40
ENDBRANCH  30  32
ENDBRANCH   1  27
TORSDOF 9
ENDMDL
MODEL 5
REMARK VINA RESULT: -5.917531822      2.133      3.223
REMARK  9 active torsions:
REMARK  status: ('A' for Active; 'I' for Inactive)
REMARK    1  A    between atoms: C2_2  and  O1_3 
REMARK    2  A    between atoms: C2_2  and  C3_5 
REMARK    3  A    between atoms: C3_5  and  C4_6 
REMARK    4  A    between atoms: C3_5  and  N10_28 
REMARK    5  A    between atoms: C4_6  and  N1_7 
REMARK    6  A    between atoms: C4_6  and  C6_12 
REMARK       I    between atoms: N1_7  and  C5_9 
REMARK    7  A    between atoms: C7_15  and  N5_16 
REMARK    8  A    between atoms: C8_21  and  N8_22 
REMARK    9  A    between atoms: C11_33  and  N12_34 
ROOT
HETATM    1  C4  UNL     1      77.667 -11.434 -52.069  1.00  0.00     0.157 C 
ENDROOT
BRANCH   1   2
HETATM    2  C3  UNL     1      78.100 -11.016 -53.416  1.00  0.00     0.147 C 
BRANCH   2   3
HETATM    3  C2  UNL     1      77.232 -11.193 -54.606  1.00  0.00     0.139 C 
HETATM    4  C1  UNL     1      77.586 -10.550 -55.883  1.00  0.00     0.041 C 
BRANCH   3   5
HETATM    5  O1  UNL     1      76.997 -12.567 -54.878  1.00  0.00    -0.394 OA
ATOM      6  H1  UNL     1      77.003 -13.023 -54.045  1.00  0.00     0.210 HD
ENDBRANCH   3   5
ENDBRANCH   2   3
BRANCH   2   7
HETATM    7  N10 UNL     1      78.335  -9.551 -53.333  1.00  0.00    -0.318 N 
HETATM    8  C9  UNL     1      77.404  -8.684 -52.931  1.00  0.00     0.185 A 
HETATM    9  N11 UNL     1      77.917  -7.416 -52.968  1.00  0.00    -0.346 N 
HETATM   10  C10 UNL     1      79.172  -7.526 -53.397  1.00  0.00     0.122 A 
ATOM     11  H11 UNL     1      77.433  -6.554 -52.716  1.00  0.00     0.167 HD
HETATM   12  C11 UNL     1      80.149  -6.589 -53.624  1.00  0.00     0.131 A 
HETATM   13  C13 UNL     1      79.436  -8.877 -53.628  1.00  0.00     0.141 A 
HETATM   14  N13 UNL     1      81.347  -7.004 -54.065  1.00  0.00    -0.337 N 
HETATM   15  C12 UNL     1      81.575  -8.332 -54.281  1.00  0.00     0.183 A 
ATOM     16  H13 UNL     1      82.087  -6.325 -54.240  1.00  0.00     0.168 HD
HETATM   17  N14 UNL     1      80.626  -9.260 -54.064  1.00  0.00    -0.336 N 
ATOM     18  H14 UNL     1      80.821 -10.247 -54.234  1.00  0.00     0.168 HD
BRANCH  12  19
HETATM   19  N12 UNL     1      79.940  -5.336 -53.421  1.00  0.00    -0.383 N 
ATOM     20 2H12 UNL     1      80.008  -4.678 -54.198  1.00  0.00     0.157 HD
ATOM     21 1H12 UNL     1      79.706  -4.977 -52.496  1.00  0.00     0.157 HD
ENDBRANCH  12  19
ENDBRANCH   2   7
ENDBRANCH   1   2
BRANCH   1  22
HETATM   22  N1  UNL     1      78.971 -11.869 -51.421  1.00  0.00    -0.335 N 
HETATM   23  C5  UNL     1      79.555 -11.154 -50.382  1.00  0.00     0.329 C 
HETATM   24  N2  UNL     1      80.796 -11.666 -49.857  1.00  0.00    -0.040 NA
HETATM   25  O2  UNL     1      79.141 -10.110 -49.836  1.00  0.00    -0.251 OA
ATOM     26  H1  UNL     1      79.434 -12.713 -51.761  1.00  0.00     0.164 HD
ENDBRANCH   1  22
BRANCH   1  27
HETATM   27  C6  UNL     1      76.829 -12.640 -51.882  1.00  0.00     0.259 C 
HETATM   28  N3  UNL     1      77.587 -13.875 -52.157  1.00  0.00    -0.110 NA
HETATM   29  N4  UNL     1      76.662 -14.858 -51.805  1.00  0.00    -0.089 NA
HETATM   30  C7  UNL     1      75.788 -14.209 -50.836  1.00  0.00     0.378 C 
HETATM   31  O3  UNL     1      76.269 -12.916 -50.692  1.00  0.00    -0.323 OA
BRANCH  30  32
HETATM   32  N5  UNL     1      75.748 -14.936 -49.601  1.00  0.00    -0.157 N 
HETATM   33  N6  UNL     1      76.769 -15.213 -48.824  1.00  0.00    -0.207 N 
HETATM   34  N7  UNL     1      76.365 -15.902 -47.759  1.00  0.00    -0.115 N 
ATOM     35  H6  UNL     1      77.734 -14.939 -49.011  1.00  0.00     0.210 HD
HETATM   36  C8  UNL     1      75.039 -16.044 -47.906  1.00  0.00     0.707 A 
ATOM     37  H7  UNL     1      76.942 -16.249 -46.993  1.00  0.00     0.207 HD
HETATM   38  N9  UNL     1      74.667 -15.441 -49.051  1.00  0.00    -0.109 N 
ATOM     39  H9  UNL     1      73.719 -15.387 -49.424  1.00  0.00     0.207 HD
BRANCH  36  40
HETATM   40  N8  UNL     1      74.234 -16.656 -47.091  1.00  0.00    -0.232 N 
ATOM     41  H82 UNL     1      73.726 -16.212 -46.327  1.00  0.00     0.174 HD
ATOM     42  H81 UNL     1      74.002 -17.649 -47.102  1.00  0.00     0.174 HD
ENDBRANCH  36  40
ENDBRANCH  30  32
ENDBRANCH   1  27
TORSDOF 9
ENDMDL
