MODEL 1
REMARK VINA RESULT: -7.757045143      0.000      0.000
REMARK  11 active torsions:
REMARK  status: ('A' for Active; 'I' for Inactive)
REMARK    1  A    between atoms: N3_5  and  C2_6 
REMARK    2  A    between atoms: C3_10  and  C4_11 
REMARK    3  A    between atoms: C9_18  and  N6_19 
REMARK    4  A    between atoms: N6_19  and  C10_21 
REMARK    5  A    between atoms: C11_23  and  O3_24 
REMARK    6  A    between atoms: C12_27  and  N7_28 
REMARK    7  A    between atoms: C12_27  and  C13_32 
REMARK    8  A    between atoms: C14_35  and  N8_36 
REMARK    9  A    between atoms: C15_40  and  O7_41 
REMARK   10  A    between atoms: C16_43  and  O8_44 
REMARK   11  A    between atoms: C17_48  and  O9_49 
ROOT
HETATM    1  C2  UNL     1      76.919 -20.451 -50.981  1.00  0.00     0.357 C 
HETATM    2  N4  UNL     1      77.785 -21.081 -50.013  1.00  0.00    -0.038 N 
ATOM      3  H41 UNL     1      78.753 -21.145 -50.328  1.00  0.00     0.280 HD
ATOM      4  H42 UNL     1      77.611 -22.081 -49.914  1.00  0.00     0.280 HD
HETATM    5  C3  UNL     1      77.641 -20.333 -48.726  1.00  0.00     0.255 C 
HETATM    6  C14 UNL     1      76.302 -20.807 -48.282  1.00  0.00     0.249 C 
HETATM    7  C15 UNL     1      75.280 -19.997 -49.105  1.00  0.00     0.183 C 
HETATM    8  C16 UNL     1      75.851 -19.590 -50.424  1.00  0.00     0.202 C 
ENDROOT
BRANCH   5   9
HETATM    9  C4  UNL     1      78.822 -20.600 -47.835  1.00  0.00     0.024 C 
HETATM   10  C5  UNL     1      78.538 -21.656 -46.824  1.00  0.00     0.142 C 
HETATM   11  O1  UNL     1      79.434 -22.104 -45.978  1.00  0.00    -0.361 OA
HETATM   12  C6  UNL     1      79.618 -21.958 -44.698  1.00  0.00     0.191 C 
HETATM   13  C7  UNL     1      80.893 -21.263 -44.173  1.00  0.00     0.147 C 
HETATM   14  N5  UNL     1      81.029 -19.933 -44.424  1.00  0.00    -0.189 NA
HETATM   15  C8  UNL     1      79.949 -19.565 -45.295  1.00  0.00     0.160 C 
HETATM   16  O4  UNL     1      81.950 -19.176 -44.874  1.00  0.00    -0.268 OA
HETATM   17  C9  UNL     1      80.665 -19.661 -46.553  1.00  0.00     0.145 C 
HETATM   18  C11 UNL     1      81.598 -18.541 -46.117  1.00  0.00     0.312 C 
HETATM   19  C12 UNL     1      79.615 -19.391 -47.582  1.00  0.00     0.268 C 
BRANCH  17  20
HETATM   20  N6  UNL     1      81.625 -20.502 -47.068  1.00  0.00    -0.350 N 
ATOM     21  H6  UNL     1      81.247 -21.448 -47.048  1.00  0.00     0.163 HD
BRANCH  20  22
HETATM   22  C10 UNL     1      82.908 -20.574 -47.604  1.00  0.00     0.349 C 
HETATM   23  O2  UNL     1      83.221 -20.381 -48.795  1.00  0.00    -0.284 OA
ENDBRANCH  20  22
ENDBRANCH  17  20
BRANCH  18  24
HETATM   24  O3  UNL     1      81.039 -17.321 -45.955  1.00  0.00    -0.367 OA
ATOM     25  H3  UNL     1      80.992 -16.991 -45.066  1.00  0.00     0.212 HD
ENDBRANCH  18  24
BRANCH  19  26
HETATM   26  N7  UNL     1      80.461 -19.172 -48.798  1.00  0.00    -0.053 N 
ATOM     27  H73 UNL     1      81.395 -18.824 -48.582  1.00  0.00     0.276 HD
ATOM     28  H72 UNL     1      80.750 -20.039 -49.250  1.00  0.00     0.276 HD
ATOM     29  H71 UNL     1      79.932 -18.554 -49.414  1.00  0.00     0.276 HD
ENDBRANCH  19  26
BRANCH  19  30
HETATM   30  C13 UNL     1      78.905 -18.111 -47.426  1.00  0.00     0.218 C 
HETATM   31  O5  UNL     1      79.058 -17.130 -48.252  1.00  0.00    -0.646 OA
HETATM   32  O6  UNL     1      78.012 -17.768 -46.423  1.00  0.00    -0.646 OA
ENDBRANCH  19  30
ENDBRANCH   5   9
BRANCH   6  33
HETATM   33  N8  UNL     1      76.030 -22.191 -48.696  1.00  0.00    -0.070 N 
ATOM     34  H83 UNL     1      75.570 -22.219 -49.605  1.00  0.00     0.274 HD
ATOM     35  H82 UNL     1      76.894 -22.679 -48.934  1.00  0.00     0.274 HD
ATOM     36  H81 UNL     1      75.496 -22.708 -47.998  1.00  0.00     0.274 HD
ENDBRANCH   6  33
BRANCH   1  37
HETATM   37  N3  UNL     1      77.677 -19.683 -51.941  1.00  0.00    -0.196 N 
HETATM   38  N2  UNL     1      77.304 -18.555 -52.486  1.00  0.00    -0.265 N 
HETATM   39  C1  UNL     1      78.257 -18.140 -53.320  1.00  0.00     0.184 A 
ATOM     40  H2  UNL     1      76.425 -18.071 -52.303  1.00  0.00     0.190 HD
HETATM   41  N1  UNL     1      78.188 -16.950 -54.083  1.00  0.00    -0.076 NA
HETATM   42  C17 UNL     1      79.265 -19.079 -53.270  1.00  0.00     0.200 A 
HETATM   43  N9  UNL     1      78.858 -20.014 -52.404  1.00  0.00    -0.258 N 
ATOM     44  H9  UNL     1      79.382 -20.850 -52.145  1.00  0.00     0.191 HD
BRANCH  42  45
HETATM   45  O9  UNL     1      80.435 -18.989 -54.011  1.00  0.00    -0.343 OA
ATOM     46  H9  UNL     1      81.095 -19.671 -54.034  1.00  0.00     0.219 HD
ENDBRANCH  42  45
ENDBRANCH   1  37
BRANCH   7  47
HETATM   47  O7  UNL     1      74.091 -20.717 -49.210  1.00  0.00    -0.391 OA
ATOM     48  H7  UNL     1      73.509 -20.473 -48.500  1.00  0.00     0.210 HD
ENDBRANCH   7  47
BRANCH   8  49
HETATM   49  O8  UNL     1      74.804 -19.543 -51.373  1.00  0.00    -0.389 OA
ATOM     50  H8  UNL     1      74.040 -19.182 -50.938  1.00  0.00     0.210 HD
ENDBRANCH   8  49
TORSDOF 11
ENDMDL
MODEL 2
REMARK VINA RESULT: -7.732938646      2.874      5.352
REMARK  11 active torsions:
REMARK  status: ('A' for Active; 'I' for Inactive)
REMARK    1  A    between atoms: N3_5  and  C2_6 
REMARK    2  A    between atoms: C3_10  and  C4_11 
REMARK    3  A    between atoms: C9_18  and  N6_19 
REMARK    4  A    between atoms: N6_19  and  C10_21 
REMARK    5  A    between atoms: C11_23  and  O3_24 
REMARK    6  A    between atoms: C12_27  and  N7_28 
REMARK    7  A    between atoms: C12_27  and  C13_32 
REMARK    8  A    between atoms: C14_35  and  N8_36 
REMARK    9  A    between atoms: C15_40  and  O7_41 
REMARK   10  A    between atoms: C16_43  and  O8_44 
REMARK   11  A    between atoms: C17_48  and  O9_49 
ROOT
HETATM    1  C2  UNL     1      78.443 -16.247 -51.860  1.00  0.00     0.357 C 
HETATM    2  N4  UNL     1      78.816 -16.941 -50.650  1.00  0.00    -0.038 N 
ATOM      3  H41 UNL     1      78.560 -16.432 -49.805  1.00  0.00     0.280 HD
ATOM      4  H42 UNL     1      79.825 -16.956 -50.496  1.00  0.00     0.280 HD
HETATM    5  C3  UNL     1      78.215 -18.308 -50.712  1.00  0.00     0.255 C 
HETATM    6  C14 UNL     1      79.104 -18.955 -51.714  1.00  0.00     0.249 C 
HETATM    7  C15 UNL     1      78.615 -18.454 -53.089  1.00  0.00     0.183 C 
HETATM    8  C16 UNL     1      77.986 -17.104 -52.978  1.00  0.00     0.202 C 
ENDROOT
BRANCH   5   9
HETATM    9  C4  UNL     1      78.142 -18.906 -49.335  1.00  0.00     0.024 C 
HETATM   10  C5  UNL     1      79.453 -19.456 -48.889  1.00  0.00     0.142 C 
HETATM   11  O1  UNL     1      79.651 -19.972 -47.699  1.00  0.00    -0.361 OA
HETATM   12  C6  UNL     1      79.824 -21.184 -47.260  1.00  0.00     0.191 C 
HETATM   13  C7  UNL     1      78.800 -21.806 -46.285  1.00  0.00     0.147 C 
HETATM   14  N5  UNL     1      77.557 -22.073 -46.770  1.00  0.00    -0.189 NA
HETATM   15  C8  UNL     1      77.504 -21.522 -48.095  1.00  0.00     0.160 C 
HETATM   16  O4  UNL     1      76.361 -21.860 -46.388  1.00  0.00    -0.268 OA
HETATM   17  C9  UNL     1      76.872 -20.260 -47.761  1.00  0.00     0.145 C 
HETATM   18  C11 UNL     1      75.631 -20.999 -47.282  1.00  0.00     0.312 C 
HETATM   19  C12 UNL     1      76.839 -19.525 -49.062  1.00  0.00     0.268 C 
BRANCH  17  20
HETATM   20  N6  UNL     1      76.964 -19.369 -46.716  1.00  0.00    -0.350 N 
ATOM     21  H6  UNL     1      77.913 -18.998 -46.712  1.00  0.00     0.163 HD
BRANCH  20  22
HETATM   22  C10 UNL     1      76.276 -18.773 -45.663  1.00  0.00     0.349 C 
HETATM   23  O2  UNL     1      75.529 -17.779 -45.739  1.00  0.00    -0.284 OA
ENDBRANCH  20  22
ENDBRANCH  17  20
BRANCH  18  24
HETATM   24  O3  UNL     1      74.931 -21.671 -48.222  1.00  0.00    -0.367 OA
ATOM     25  H3  UNL     1      74.288 -21.170 -48.710  1.00  0.00     0.212 HD
ENDBRANCH  18  24
BRANCH  19  26
HETATM   26  N7  UNL     1      75.897 -18.408 -48.730  1.00  0.00    -0.053 N 
ATOM     27  H73 UNL     1      76.363 -17.591 -48.336  1.00  0.00     0.276 HD
ATOM     28  H72 UNL     1      75.510 -17.948 -49.554  1.00  0.00     0.276 HD
ATOM     29  H71 UNL     1      75.183 -18.802 -48.117  1.00  0.00     0.276 HD
ENDBRANCH  19  26
BRANCH  19  30
HETATM   30  C13 UNL     1      76.158 -20.230 -50.159  1.00  0.00     0.218 C 
HETATM   31  O5  UNL     1      74.983 -19.894 -50.574  1.00  0.00    -0.646 OA
HETATM   32  O6  UNL     1      76.639 -21.311 -50.882  1.00  0.00    -0.646 OA
ENDBRANCH  19  30
ENDBRANCH   5   9
BRANCH   6  33
HETATM   33  N8  UNL     1      80.482 -18.447 -51.654  1.00  0.00    -0.070 N 
ATOM     34  H83 UNL     1      80.503 -17.431 -51.746  1.00  0.00     0.274 HD
ATOM     35  H82 UNL     1      80.864 -18.533 -50.712  1.00  0.00     0.274 HD
ATOM     36  H81 UNL     1      81.091 -18.891 -52.341  1.00  0.00     0.274 HD
ENDBRANCH   6  33
BRANCH   1  37
HETATM   37  N3  UNL     1      77.430 -15.250 -51.601  1.00  0.00    -0.196 N 
HETATM   38  N2  UNL     1      77.410 -14.035 -52.081  1.00  0.00    -0.265 N 
HETATM   39  C1  UNL     1      76.327 -13.406 -51.626  1.00  0.00     0.184 A 
ATOM     40  H2  UNL     1      78.111 -13.633 -52.704  1.00  0.00     0.190 HD
HETATM   41  N1  UNL     1      75.985 -12.070 -51.945  1.00  0.00    -0.076 NA
HETATM   42  C17 UNL     1      75.655 -14.303 -50.822  1.00  0.00     0.200 A 
HETATM   43  N9  UNL     1      76.379 -15.428 -50.838  1.00  0.00    -0.258 N 
ATOM     44  H9  UNL     1      76.149 -16.287 -50.338  1.00  0.00     0.191 HD
BRANCH  42  45
HETATM   45  O9  UNL     1      74.470 -14.005 -50.165  1.00  0.00    -0.343 OA
ATOM     46  H9  UNL     1      73.657 -14.474 -50.312  1.00  0.00     0.219 HD
ENDBRANCH  42  45
ENDBRANCH   1  37
BRANCH   7  47
HETATM   47  O7  UNL     1      79.665 -18.508 -54.004  1.00  0.00    -0.391 OA
ATOM     48  H7  UNL     1      79.883 -19.415 -54.183  1.00  0.00     0.210 HD
ENDBRANCH   7  47
BRANCH   8  49
HETATM   49  O8  UNL     1      78.223 -16.397 -54.180  1.00  0.00    -0.389 OA
ATOM     50  H8  UNL     1      78.277 -17.036 -54.881  1.00  0.00     0.210 HD
ENDBRANCH   8  49
TORSDOF 11
ENDMDL
MODEL 3
REMARK VINA RESULT: -7.490235812      2.545      6.676
REMARK  11 active torsions:
REMARK  status: ('A' for Active; 'I' for Inactive)
REMARK    1  A    between atoms: N3_5  and  C2_6 
REMARK    2  A    between atoms: C3_10  and  C4_11 
REMARK    3  A    between atoms: C9_18  and  N6_19 
REMARK    4  A    between atoms: N6_19  and  C10_21 
REMARK    5  A    between atoms: C11_23  and  O3_24 
REMARK    6  A    between atoms: C12_27  and  N7_28 
REMARK    7  A    between atoms: C12_27  and  C13_32 
REMARK    8  A    between atoms: C14_35  and  N8_36 
REMARK    9  A    between atoms: C15_40  and  O7_41 
REMARK   10  A    between atoms: C16_43  and  O8_44 
REMARK   11  A    between atoms: C17_48  and  O9_49 
ROOT
HETATM    1  C2  UNL     1      76.094 -21.455 -47.035  1.00  0.00     0.357 C 
HETATM    2  N4  UNL     1      76.830 -21.559 -48.273  1.00  0.00    -0.038 N 
ATOM      3  H41 UNL     1      76.224 -21.604 -49.093  1.00  0.00     0.280 HD
ATOM      4  H42 UNL     1      77.284 -22.465 -48.392  1.00  0.00     0.280 HD
HETATM    5  C3  UNL     1      77.790 -20.414 -48.323  1.00  0.00     0.255 C 
HETATM    6  C14 UNL     1      78.807 -20.864 -47.334  1.00  0.00     0.249 C 
HETATM    7  C15 UNL     1      78.200 -20.562 -45.948  1.00  0.00     0.183 C 
HETATM    8  C16 UNL     1      76.707 -20.600 -45.993  1.00  0.00     0.202 C 
ENDROOT
BRANCH   5   9
HETATM    9  C4  UNL     1      78.235 -20.171 -49.738  1.00  0.00     0.024 C 
HETATM   10  C5  UNL     1      79.529 -19.436 -49.804  1.00  0.00     0.142 C 
HETATM   11  O1  UNL     1      80.147 -19.164 -50.929  1.00  0.00    -0.361 OA
HETATM   12  C6  UNL     1      80.335 -18.074 -51.613  1.00  0.00     0.191 C 
HETATM   13  C7  UNL     1      79.753 -17.945 -53.038  1.00  0.00     0.147 C 
HETATM   14  N5  UNL     1      78.399 -17.882 -53.157  1.00  0.00    -0.189 NA
HETATM   15  C8  UNL     1      77.858 -18.123 -51.849  1.00  0.00     0.160 C 
HETATM   16  O4  UNL     1      77.515 -18.453 -53.876  1.00  0.00    -0.268 OA
HETATM   17  C9  UNL     1      77.593 -19.541 -52.000  1.00  0.00     0.145 C 
HETATM   18  C11 UNL     1      76.591 -19.244 -53.106  1.00  0.00     0.312 C 
HETATM   19  C12 UNL     1      77.104 -19.957 -50.650  1.00  0.00     0.268 C 
BRANCH  17  20
HETATM   20  N6  UNL     1      78.232 -20.592 -52.616  1.00  0.00    -0.350 N 
ATOM     21  H6  UNL     1      79.081 -20.789 -52.086  1.00  0.00     0.163 HD
BRANCH  20  22
HETATM   22  C10 UNL     1      78.182 -21.494 -53.675  1.00  0.00     0.349 C 
HETATM   23  O2  UNL     1      77.218 -22.225 -53.975  1.00  0.00    -0.284 OA
ENDBRANCH  20  22
ENDBRANCH  17  20
BRANCH  18  24
HETATM   24  O3  UNL     1      75.479 -18.567 -52.744  1.00  0.00    -0.367 OA
ATOM     25  H3  UNL     1      74.763 -19.085 -52.394  1.00  0.00     0.212 HD
ENDBRANCH  18  24
BRANCH  19  26
HETATM   26  N7  UNL     1      76.542 -21.310 -50.959  1.00  0.00    -0.053 N 
ATOM     27  H73 UNL     1      76.402 -21.887 -50.130  1.00  0.00     0.276 HD
ATOM     28  H72 UNL     1      75.569 -21.284 -51.262  1.00  0.00     0.276 HD
ATOM     29  H71 UNL     1      77.166 -21.735 -51.646  1.00  0.00     0.276 HD
ENDBRANCH  19  26
BRANCH  19  30
HETATM   30  C13 UNL     1      75.939 -19.209 -50.153  1.00  0.00     0.218 C 
HETATM   31  O5  UNL     1      74.741 -19.691 -50.187  1.00  0.00    -0.646 OA
HETATM   32  O6  UNL     1      75.935 -17.938 -49.601  1.00  0.00    -0.646 OA
ENDBRANCH  19  30
ENDBRANCH   5   9
BRANCH   6  33
HETATM   33  N8  UNL     1      78.959 -22.326 -47.311  1.00  0.00    -0.070 N 
ATOM     34  H83 UNL     1      79.193 -22.657 -46.375  1.00  0.00     0.274 HD
ATOM     35  H82 UNL     1      78.058 -22.790 -47.428  1.00  0.00     0.274 HD
ATOM     36  H81 UNL     1      79.636 -22.658 -47.998  1.00  0.00     0.274 HD
ENDBRANCH   6  33
BRANCH   1  37
HETATM   37  N3  UNL     1      74.742 -21.003 -47.265  1.00  0.00    -0.196 N 
HETATM   38  N2  UNL     1      73.790 -21.692 -47.837  1.00  0.00    -0.265 N 
HETATM   39  C1  UNL     1      72.682 -20.953 -47.876  1.00  0.00     0.184 A 
ATOM     40  H2  UNL     1      73.881 -22.642 -48.196  1.00  0.00     0.190 HD
HETATM   41  N1  UNL     1      71.453 -21.384 -48.428  1.00  0.00    -0.076 NA
HETATM   42  C17 UNL     1      72.991 -19.744 -47.288  1.00  0.00     0.200 A 
HETATM   43  N9  UNL     1      74.276 -19.824 -46.929  1.00  0.00    -0.258 N 
ATOM     44  H9  UNL     1      74.809 -19.087 -46.466  1.00  0.00     0.191 HD
BRANCH  42  45
HETATM   45  O9  UNL     1      72.080 -18.706 -47.145  1.00  0.00    -0.343 OA
ATOM     46  H9  UNL     1      72.302 -17.792 -47.278  1.00  0.00     0.219 HD
ENDBRANCH  42  45
ENDBRANCH   1  37
BRANCH   7  47
HETATM   47  O7  UNL     1      78.752 -21.423 -45.000  1.00  0.00    -0.391 OA
ATOM     48  H7  UNL     1      78.940 -20.939 -44.205  1.00  0.00     0.210 HD
ENDBRANCH   7  47
BRANCH   8  49
HETATM   49  O8  UNL     1      76.230 -21.049 -44.740  1.00  0.00    -0.389 OA
ATOM     50  H8  UNL     1      75.896 -20.291 -44.273  1.00  0.00     0.210 HD
ENDBRANCH   8  49
TORSDOF 11
ENDMDL
MODEL 4
REMARK VINA RESULT: -7.464790073      2.529      4.703
REMARK  11 active torsions:
REMARK  status: ('A' for Active; 'I' for Inactive)
REMARK    1  A    between atoms: N3_5  and  C2_6 
REMARK    2  A    between atoms: C3_10  and  C4_11 
REMARK    3  A    between atoms: C9_18  and  N6_19 
REMARK    4  A    between atoms: N6_19  and  C10_21 
REMARK    5  A    between atoms: C11_23  and  O3_24 
REMARK    6  A    between atoms: C12_27  and  N7_28 
REMARK    7  A    between atoms: C12_27  and  C13_32 
REMARK    8  A    between atoms: C14_35  and  N8_36 
REMARK    9  A    between atoms: C15_40  and  O7_41 
REMARK   10  A    between atoms: C16_43  and  O8_44 
REMARK   11  A    between atoms: C17_48  and  O9_49 
ROOT
HETATM    1  C2  UNL     1      76.728 -17.522 -51.722  1.00  0.00     0.357 C 
HETATM    2  N4  UNL     1      76.444 -17.582 -50.308  1.00  0.00    -0.038 N 
ATOM      3  H41 UNL     1      75.877 -18.390 -50.050  1.00  0.00     0.280 HD
ATOM      4  H42 UNL     1      75.793 -16.859 -50.001  1.00  0.00     0.280 HD
HETATM    5  C3  UNL     1      77.752 -17.535 -49.585  1.00  0.00     0.255 C 
HETATM    6  C14 UNL     1      78.110 -16.101 -49.757  1.00  0.00     0.249 C 
HETATM    7  C15 UNL     1      78.665 -15.981 -51.191  1.00  0.00     0.183 C 
HETATM    8  C16 UNL     1      78.070 -17.017 -52.088  1.00  0.00     0.202 C 
ENDROOT
BRANCH   5   9
HETATM    9  C4  UNL     1      77.591 -18.065 -48.187  1.00  0.00     0.024 C 
HETATM   10  C5  UNL     1      78.319 -17.239 -47.184  1.00  0.00     0.142 C 
HETATM   11  O1  UNL     1      78.275 -17.468 -45.893  1.00  0.00    -0.361 OA
HETATM   12  C6  UNL     1      79.127 -17.945 -45.033  1.00  0.00     0.191 C 
HETATM   13  C7  UNL     1      78.820 -19.262 -44.288  1.00  0.00     0.147 C 
HETATM   14  N5  UNL     1      78.800 -20.407 -45.024  1.00  0.00    -0.189 NA
HETATM   15  C8  UNL     1      78.929 -20.015 -46.399  1.00  0.00     0.160 C 
HETATM   16  O4  UNL     1      78.017 -21.404 -45.145  1.00  0.00    -0.268 OA
HETATM   17  C9  UNL     1      77.520 -20.022 -46.741  1.00  0.00     0.145 C 
HETATM   18  C11 UNL     1      77.451 -21.516 -46.464  1.00  0.00     0.312 C 
HETATM   19  C12 UNL     1      77.495 -19.530 -48.153  1.00  0.00     0.268 C 
BRANCH  17  20
HETATM   20  N6  UNL     1      76.358 -19.667 -46.096  1.00  0.00    -0.350 N 
ATOM     21  H6  UNL     1      76.386 -18.659 -45.945  1.00  0.00     0.163 HD
BRANCH  20  22
HETATM   22  C10 UNL     1      75.158 -20.136 -45.568  1.00  0.00     0.349 C 
HETATM   23  O2  UNL     1      74.100 -20.327 -46.198  1.00  0.00    -0.284 OA
ENDBRANCH  20  22
ENDBRANCH  17  20
BRANCH  18  24
HETATM   24  O3  UNL     1      78.165 -22.315 -47.287  1.00  0.00    -0.367 OA
ATOM     25  H3  UNL     1      79.044 -22.537 -47.003  1.00  0.00     0.212 HD
ENDBRANCH  18  24
BRANCH  19  26
HETATM   26  N7  UNL     1      76.091 -19.875 -48.547  1.00  0.00    -0.053 N 
ATOM     27  H73 UNL     1      75.469 -19.068 -48.567  1.00  0.00     0.276 HD
ATOM     28  H72 UNL     1      75.999 -20.131 -49.529  1.00  0.00     0.276 HD
ATOM     29  H71 UNL     1      75.782 -20.608 -47.908  1.00  0.00     0.276 HD
ENDBRANCH  19  26
BRANCH  19  30
HETATM   30  C13 UNL     1      78.314 -20.305 -49.097  1.00  0.00     0.218 C 
HETATM   31  O5  UNL     1      77.795 -21.078 -49.992  1.00  0.00    -0.646 OA
HETATM   32  O6  UNL     1      79.698 -20.334 -49.174  1.00  0.00    -0.646 OA
ENDBRANCH  19  30
ENDBRANCH   5   9
BRANCH   6  33
HETATM   33  N8  UNL     1      76.928 -15.227 -49.790  1.00  0.00    -0.070 N 
ATOM     34  H83 UNL     1      77.162 -14.307 -50.163  1.00  0.00     0.274 HD
ATOM     35  H82 UNL     1      76.268 -15.531 -50.506  1.00  0.00     0.274 HD
ATOM     36  H81 UNL     1      76.475 -15.150 -48.880  1.00  0.00     0.274 HD
ENDBRANCH   6  33
BRANCH   1  37
HETATM   37  N3  UNL     1      76.533 -18.808 -52.351  1.00  0.00    -0.196 N 
HETATM   38  N2  UNL     1      77.478 -19.624 -52.736  1.00  0.00    -0.265 N 
HETATM   39  C1  UNL     1      76.922 -20.711 -53.271  1.00  0.00     0.184 A 
ATOM     40  H2  UNL     1      78.480 -19.456 -52.642  1.00  0.00     0.190 HD
HETATM   41  N1  UNL     1      77.650 -21.805 -53.794  1.00  0.00    -0.076 NA
HETATM   42  C17 UNL     1      75.556 -20.534 -53.201  1.00  0.00     0.200 A 
HETATM   43  N9  UNL     1      75.367 -19.341 -52.624  1.00  0.00    -0.258 N 
ATOM     44  H9  UNL     1      74.460 -18.916 -52.429  1.00  0.00     0.191 HD
BRANCH  42  45
HETATM   45  O9  UNL     1      74.637 -21.464 -53.665  1.00  0.00    -0.343 OA
ATOM     46  H9  UNL     1      73.713 -21.278 -53.775  1.00  0.00     0.219 HD
ENDBRANCH  42  45
ENDBRANCH   1  37
BRANCH   7  47
HETATM   47  O7  UNL     1      78.488 -14.676 -51.650  1.00  0.00    -0.391 OA
ATOM     48  H7  UNL     1      78.798 -14.612 -52.546  1.00  0.00     0.210 HD
ENDBRANCH   7  47
BRANCH   8  49
HETATM   49  O8  UNL     1      77.983 -16.484 -53.395  1.00  0.00    -0.389 OA
ATOM     50  H8  UNL     1      78.016 -17.213 -54.003  1.00  0.00     0.210 HD
ENDBRANCH   8  49
TORSDOF 11
ENDMDL
MODEL 5
REMARK VINA RESULT: -7.374035499      3.407      6.442
REMARK  11 active torsions:
REMARK  status: ('A' for Active; 'I' for Inactive)
REMARK    1  A    between atoms: N3_5  and  C2_6 
REMARK    2  A    between atoms: C3_10  and  C4_11 
REMARK    3  A    between atoms: C9_18  and  N6_19 
REMARK    4  A    between atoms: N6_19  and  C10_21 
REMARK    5  A    between atoms: C11_23  and  O3_24 
REMARK    6  A    between atoms: C12_27  and  N7_28 
REMARK    7  A    between atoms: C12_27  and  C13_32 
REMARK    8  A    between atoms: C14_35  and  N8_36 
REMARK    9  A    between atoms: C15_40  and  O7_41 
REMARK   10  A    between atoms: C16_43  and  O8_44 
REMARK   11  A    between atoms: C17_48  and  O9_49 
ROOT
HETATM    1  C2  UNL     1      78.934 -20.151 -46.889  1.00  0.00     0.357 C 
HETATM    2  N4  UNL     1      78.538 -19.082 -46.002  1.00  0.00    -0.038 N 
ATOM      3  H41 UNL     1      78.761 -19.272 -45.026  1.00  0.00     0.280 HD
ATOM      4  H42 UNL     1      77.526 -19.007 -45.896  1.00  0.00     0.280 HD
HETATM    5  C3  UNL     1      79.166 -17.822 -46.508  1.00  0.00     0.255 C 
HETATM    6  C14 UNL     1      78.317 -17.551 -47.700  1.00  0.00     0.249 C 
HETATM    7  C15 UNL     1      78.838 -18.497 -48.803  1.00  0.00     0.183 C 
HETATM    8  C16 UNL     1      79.438 -19.732 -48.216  1.00  0.00     0.202 C 
ENDROOT
BRANCH   5   9
HETATM    9  C4  UNL     1      79.209 -16.789 -45.416  1.00  0.00     0.024 C 
HETATM   10  C5  UNL     1      78.872 -15.427 -45.916  1.00  0.00     0.142 C 
HETATM   11  O1  UNL     1      78.783 -14.376 -45.137  1.00  0.00    -0.361 OA
HETATM   12  C6  UNL     1      79.527 -13.325 -44.954  1.00  0.00     0.191 C 
HETATM   13  C7  UNL     1      80.185 -13.073 -43.579  1.00  0.00     0.147 C 
HETATM   14  N5  UNL     1      81.164 -13.933 -43.186  1.00  0.00    -0.189 NA
HETATM   15  C8  UNL     1      81.200 -14.988 -44.160  1.00  0.00     0.160 C 
HETATM   16  O4  UNL     1      81.434 -14.591 -42.130  1.00  0.00    -0.268 OA
HETATM   17  C9  UNL     1      80.369 -15.942 -43.452  1.00  0.00     0.145 C 
HETATM   18  C11 UNL     1      81.395 -16.016 -42.331  1.00  0.00     0.312 C 
HETATM   19  C12 UNL     1      80.239 -17.081 -44.412  1.00  0.00     0.268 C 
BRANCH  17  20
HETATM   20  N6  UNL     1      79.247 -15.860 -42.661  1.00  0.00    -0.350 N 
ATOM     21  H6  UNL     1      78.475 -15.555 -43.253  1.00  0.00     0.163 HD
BRANCH  20  22
HETATM   22  C10 UNL     1      78.745 -16.029 -41.373  1.00  0.00     0.349 C 
HETATM   23  O2  UNL     1      78.358 -17.100 -40.867  1.00  0.00    -0.284 OA
ENDBRANCH  20  22
ENDBRANCH  17  20
BRANCH  18  24
HETATM   24  O3  UNL     1      82.598 -16.545 -42.650  1.00  0.00    -0.367 OA
ATOM     25  H3  UNL     1      82.775 -16.666 -43.575  1.00  0.00     0.212 HD
ENDBRANCH  18  24
BRANCH  19  26
HETATM   26  N7  UNL     1      79.675 -18.141 -43.517  1.00  0.00    -0.053 N 
ATOM     27  H73 UNL     1      78.761 -18.478 -43.817  1.00  0.00     0.276 HD
ATOM     28  H72 UNL     1      80.168 -19.031 -43.586  1.00  0.00     0.276 HD
ATOM     29  H71 UNL     1      79.673 -17.754 -42.573  1.00  0.00     0.276 HD
ENDBRANCH  19  26
BRANCH  19  30
HETATM   30  C13 UNL     1      81.513 -17.661 -44.867  1.00  0.00     0.218 C 
HETATM   31  O5  UNL     1      81.917 -18.827 -44.487  1.00  0.00    -0.646 OA
HETATM   32  O6  UNL     1      82.435 -17.082 -45.724  1.00  0.00    -0.646 OA
ENDBRANCH  19  30
ENDBRANCH   5   9
BRANCH   6  33
HETATM   33  N8  UNL     1      76.930 -17.999 -47.515  1.00  0.00    -0.070 N 
ATOM     34  H83 UNL     1      76.717 -18.139 -46.528  1.00  0.00     0.274 HD
ATOM     35  H82 UNL     1      76.272 -17.248 -47.720  1.00  0.00     0.274 HD
ATOM     36  H81 UNL     1      76.715 -18.835 -48.059  1.00  0.00     0.274 HD
ENDBRANCH   6  33
BRANCH   1  37
HETATM   37  N3  UNL     1      79.921 -21.005 -46.270  1.00  0.00    -0.196 N 
HETATM   38  N2  UNL     1      79.980 -21.315 -45.002  1.00  0.00    -0.265 N 
HETATM   39  C1  UNL     1      81.020 -22.123 -44.800  1.00  0.00     0.184 A 
ATOM     40  H2  UNL     1      79.333 -20.990 -44.283  1.00  0.00     0.190 HD
HETATM   41  N1  UNL     1      81.386 -22.655 -43.541  1.00  0.00    -0.076 NA
HETATM   42  C17 UNL     1      81.622 -22.309 -46.026  1.00  0.00     0.200 A 
HETATM   43  N9  UNL     1      80.905 -21.596 -46.903  1.00  0.00    -0.258 N 
ATOM     44  H9  UNL     1      81.094 -21.525 -47.903  1.00  0.00     0.191 HD
BRANCH  42  45
HETATM   45  O9  UNL     1      82.749 -23.097 -46.216  1.00  0.00    -0.343 OA
ATOM     46  H9  UNL     1      83.219 -23.149 -47.039  1.00  0.00     0.219 HD
ENDBRANCH  42  45
ENDBRANCH   1  37
BRANCH   7  47
HETATM   47  O7  UNL     1      77.816 -18.752 -49.716  1.00  0.00    -0.391 OA
ATOM     48  H7  UNL     1      77.956 -19.601 -50.120  1.00  0.00     0.210 HD
ENDBRANCH   7  47
BRANCH   8  49
HETATM   49  O8  UNL     1      79.224 -20.806 -49.111  1.00  0.00    -0.389 OA
ATOM     50  H8  UNL     1      79.290 -20.459 -49.993  1.00  0.00     0.210 HD
ENDBRANCH   8  49
TORSDOF 11
ENDMDL
