MODEL 1
REMARK VINA RESULT: -8.692101423      0.000      0.000
REMARK  10 active torsions:
REMARK  status: ('A' for Active; 'I' for Inactive)
REMARK    1  A    between atoms: C2_5  and  C3_6 
REMARK    2  A    between atoms: C3_6  and  C4_7 
REMARK    3  A    between atoms: C5_8  and  C6_9 
REMARK    4  A    between atoms: C7_10  and  O1_11 
REMARK    5  A    between atoms: C8_13  and  O2_14 
REMARK    6  A    between atoms: C9_16  and  N3_17 
REMARK    7  A    between atoms: C10_20  and  C11_21 
REMARK       I    between atoms: C11_21  and  N5_23 
REMARK    8  A    between atoms: C15_37  and  N11_38 
REMARK    9  A    between atoms: N13_44  and  O5_45 
REMARK   10  A    between atoms: O5_45  and  O6_46 
ROOT
HETATM    1  N1  UNL     1      77.881 -17.297 -38.475  1.00  0.00    -0.172 NA
HETATM    2  C1  UNL     1      77.960 -16.186 -38.792  1.00  0.00     0.181 C 
HETATM    3  N2  UNL     1      78.056 -14.851 -39.165  1.00  0.00    -0.308 N 
ATOM      4  H2  UNL     1      77.228 -14.258 -39.215  1.00  0.00     0.177 HD
HETATM    5  C2  UNL     1      79.224 -14.386 -39.447  1.00  0.00     0.076 C 
ENDROOT
BRANCH   5   6
HETATM    6  C3  UNL     1      79.319 -12.956 -39.846  1.00  0.00     0.072 C 
BRANCH   6   7
HETATM    7  C4  UNL     1      79.680 -12.835 -41.282  1.00  0.00    -0.024 C 
HETATM    8  C5  UNL     1      79.384 -13.769 -42.172  1.00  0.00    -0.006 C 
BRANCH   8   9
HETATM    9  C6  UNL     1      79.779 -13.574 -43.587  1.00  0.00     0.145 C 
HETATM   10  C7  UNL     1      80.757 -14.617 -44.074  1.00  0.00     0.174 C 
HETATM   11  C8  UNL     1      79.861 -15.751 -44.530  1.00  0.00     0.190 C 
HETATM   12  C9  UNL     1      78.499 -15.127 -44.620  1.00  0.00     0.244 C 
HETATM   13  N13 UNL     1      78.664 -13.713 -44.476  1.00  0.00    -0.126 NA
BRANCH  10  14
HETATM   14  O1  UNL     1      81.610 -15.035 -43.054  1.00  0.00    -0.391 OA
ATOM     15  H1  UNL     1      82.081 -15.825 -43.294  1.00  0.00     0.210 HD
ENDBRANCH  10  14
BRANCH  11  16
HETATM   16  O2  UNL     1      80.344 -16.232 -45.725  1.00  0.00    -0.389 OA
ATOM     17  H2  UNL     1      79.683 -16.094 -46.393  1.00  0.00     0.210 HD
ENDBRANCH  11  16
BRANCH  12  18
HETATM   18  N3  UNL     1      77.767 -15.517 -45.808  1.00  0.00    -0.251 N 
HETATM   19  N4  UNL     1      78.206 -15.383 -47.042  1.00  0.00    -0.289 N 
HETATM   20  C10 UNL     1      77.285 -15.844 -47.935  1.00  0.00     0.136 A 
ATOM     21  H4  UNL     1      79.112 -14.989 -47.295  1.00  0.00     0.187 HD
HETATM   22  C13 UNL     1      76.241 -16.273 -47.159  1.00  0.00     0.112 A 
HETATM   23  C14 UNL     1      75.031 -16.831 -47.455  1.00  0.00     0.276 A 
HETATM   24  C16 UNL     1      76.545 -16.067 -45.821  1.00  0.00     0.157 A 
HETATM   25  O4  UNL     1      74.722 -17.032 -48.651  1.00  0.00    -0.267 OA
HETATM   26  N10 UNL     1      74.170 -17.166 -46.454  1.00  0.00    -0.155 N 
HETATM   27  C15 UNL     1      74.496 -16.954 -45.169  1.00  0.00     0.680 A 
ATOM     28  H10 UNL     1      73.268 -17.584 -46.683  1.00  0.00     0.187 HD
HETATM   29  N12 UNL     1      75.673 -16.408 -44.826  1.00  0.00    -0.174 N 
ATOM     30  H12 UNL     1      75.910 -16.252 -43.847  1.00  0.00     0.186 HD
BRANCH  20  31
HETATM   31  C11 UNL     1      77.507 -15.817 -49.364  1.00  0.00     0.277 C 
HETATM   32  O3  UNL     1      77.768 -16.812 -50.071  1.00  0.00    -0.266 OA
HETATM   33  N5  UNL     1      77.436 -14.580 -50.096  1.00  0.00    -0.291 N 
HETATM   34  C12 UNL     1      76.285 -14.117 -50.428  1.00  0.00     0.212 C 
ATOM     35  H5  UNL     1      78.288 -14.078 -50.346  1.00  0.00     0.172 HD
HETATM   36  N6  UNL     1      75.997 -12.922 -51.147  1.00  0.00    -0.256 N 
HETATM   37  N9  UNL     1      75.027 -14.708 -50.144  1.00  0.00    -0.256 N 
HETATM   38  N7  UNL     1      74.612 -12.790 -51.215  1.00  0.00    -0.006 NA
ATOM     39  H6  UNL     1      76.682 -12.277 -51.542  1.00  0.00     0.187 HD
HETATM   40  N8  UNL     1      74.088 -13.678 -50.269  1.00  0.00    -0.006 NA
ATOM     41  H9  UNL     1      74.845 -15.682 -49.900  1.00  0.00     0.187 HD
ENDBRANCH  20  31
BRANCH  27  42
HETATM   42  N11 UNL     1      73.679 -17.272 -44.201  1.00  0.00    -0.234 N 
ATOM     43 2H11 UNL     1      73.518 -16.573 -43.475  1.00  0.00     0.174 HD
ATOM     44 1H11 UNL     1      73.221 -18.183 -44.172  1.00  0.00     0.174 HD
ENDBRANCH  27  42
ENDBRANCH  12  18
BRANCH  13  45
HETATM   45  O5  UNL     1      77.560 -13.111 -44.023  1.00  0.00    -0.139 OA
BRANCH  45  46
HETATM   46  O6  UNL     1      77.599 -11.809 -44.164  1.00  0.00    -0.232 OA
ATOM     47  H6  UNL     1      77.423 -11.346 -43.353  1.00  0.00     0.255 HD
ENDBRANCH  45  46
ENDBRANCH  13  45
ENDBRANCH   8   9
ENDBRANCH   6   7
ENDBRANCH   5   6
TORSDOF 10
ENDMDL
MODEL 2
REMARK VINA RESULT: -8.372962084      7.138      8.627
REMARK  10 active torsions:
REMARK  status: ('A' for Active; 'I' for Inactive)
REMARK    1  A    between atoms: C2_5  and  C3_6 
REMARK    2  A    between atoms: C3_6  and  C4_7 
REMARK    3  A    between atoms: C5_8  and  C6_9 
REMARK    4  A    between atoms: C7_10  and  O1_11 
REMARK    5  A    between atoms: C8_13  and  O2_14 
REMARK    6  A    between atoms: C9_16  and  N3_17 
REMARK    7  A    between atoms: C10_20  and  C11_21 
REMARK       I    between atoms: C11_21  and  N5_23 
REMARK    8  A    between atoms: C15_37  and  N11_38 
REMARK    9  A    between atoms: N13_44  and  O5_45 
REMARK   10  A    between atoms: O5_45  and  O6_46 
ROOT
HETATM    1  N1  UNL     1      79.187 -24.866 -37.851  1.00  0.00    -0.172 NA
HETATM    2  C1  UNL     1      80.097 -25.151 -38.509  1.00  0.00     0.181 C 
HETATM    3  N2  UNL     1      81.189 -25.500 -39.293  1.00  0.00    -0.308 N 
ATOM      4  H2  UNL     1      82.131 -25.196 -39.047  1.00  0.00     0.177 HD
HETATM    5  C2  UNL     1      80.974 -26.219 -40.341  1.00  0.00     0.076 C 
ENDROOT
BRANCH   5   6
HETATM    6  C3  UNL     1      82.149 -26.588 -41.176  1.00  0.00     0.072 C 
BRANCH   6   7
HETATM    7  C4  UNL     1      82.668 -25.401 -41.904  1.00  0.00    -0.024 C 
HETATM    8  C5  UNL     1      82.115 -24.951 -43.019  1.00  0.00    -0.006 C 
BRANCH   8   9
HETATM    9  C6  UNL     1      82.692 -23.760 -43.686  1.00  0.00     0.145 C 
HETATM   10  C7  UNL     1      83.155 -24.041 -45.096  1.00  0.00     0.174 C 
HETATM   11  C8  UNL     1      81.902 -23.838 -45.923  1.00  0.00     0.190 C 
HETATM   12  C9  UNL     1      80.968 -23.111 -44.999  1.00  0.00     0.244 C 
HETATM   13  N13 UNL     1      81.721 -22.718 -43.849  1.00  0.00    -0.126 NA
BRANCH  10  14
HETATM   14  O1  UNL     1      83.634 -25.344 -45.228  1.00  0.00    -0.391 OA
ATOM     15  H1  UNL     1      83.032 -25.889 -45.721  1.00  0.00     0.210 HD
ENDBRANCH  10  14
BRANCH  11  16
HETATM   16  O2  UNL     1      82.239 -23.134 -47.056  1.00  0.00    -0.389 OA
ATOM     17  H2  UNL     1      81.821 -23.549 -47.802  1.00  0.00     0.210 HD
ENDBRANCH  11  16
BRANCH  12  18
HETATM   18  N3  UNL     1      80.259 -22.022 -45.640  1.00  0.00    -0.251 N 
HETATM   19  N4  UNL     1      79.051 -22.111 -46.158  1.00  0.00    -0.289 N 
HETATM   20  C10 UNL     1      78.663 -20.916 -46.685  1.00  0.00     0.136 A 
ATOM     21  H4  UNL     1      78.483 -22.958 -46.163  1.00  0.00     0.187 HD
HETATM   22  C13 UNL     1      79.724 -20.080 -46.455  1.00  0.00     0.112 A 
HETATM   23  C14 UNL     1      79.950 -18.764 -46.742  1.00  0.00     0.276 A 
HETATM   24  C16 UNL     1      80.727 -20.777 -45.797  1.00  0.00     0.157 A 
HETATM   25  O4  UNL     1      79.068 -18.103 -47.334  1.00  0.00    -0.267 OA
HETATM   26  N10 UNL     1      81.128 -18.180 -46.384  1.00  0.00    -0.155 N 
HETATM   27  C15 UNL     1      82.078 -18.884 -45.749  1.00  0.00     0.680 A 
ATOM     28  H10 UNL     1      81.290 -17.197 -46.602  1.00  0.00     0.187 HD
HETATM   29  N12 UNL     1      81.904 -20.178 -45.444  1.00  0.00    -0.174 N 
ATOM     30  H12 UNL     1      82.631 -20.703 -44.960  1.00  0.00     0.186 HD
BRANCH  20  31
HETATM   31  C11 UNL     1      77.378 -20.726 -47.321  1.00  0.00     0.277 C 
HETATM   32  O3  UNL     1      76.449 -20.023 -46.871  1.00  0.00    -0.266 OA
HETATM   33  N5  UNL     1      77.075 -21.369 -48.572  1.00  0.00    -0.291 N 
HETATM   34  C12 UNL     1      77.510 -20.847 -49.662  1.00  0.00     0.212 C 
ATOM     35  H5  UNL     1      76.523 -22.227 -48.592  1.00  0.00     0.172 HD
HETATM   36  N6  UNL     1      77.323 -21.319 -50.993  1.00  0.00    -0.256 N 
HETATM   37  N9  UNL     1      78.285 -19.665 -49.777  1.00  0.00    -0.256 N 
HETATM   38  N7  UNL     1      78.030 -20.474 -51.845  1.00  0.00    -0.006 NA
ATOM     39  H6  UNL     1      76.772 -22.130 -51.272  1.00  0.00     0.187 HD
HETATM   40  N8  UNL     1      78.898 -19.735 -51.034  1.00  0.00    -0.006 NA
ATOM     41  H9  UNL     1      78.377 -18.919 -49.088  1.00  0.00     0.187 HD
ENDBRANCH  20  31
BRANCH  27  42
HETATM   42  N11 UNL     1      83.210 -18.334 -45.401  1.00  0.00    -0.234 N 
ATOM     43 2H11 UNL     1      83.290 -17.321 -45.504  1.00  0.00     0.174 HD
ATOM     44 1H11 UNL     1      83.984 -18.894 -45.043  1.00  0.00     0.174 HD
ENDBRANCH  27  42
ENDBRANCH  12  18
BRANCH  13  45
HETATM   45  O5  UNL     1      80.956 -22.547 -42.767  1.00  0.00    -0.139 OA
BRANCH  45  46
HETATM   46  O6  UNL     1      80.677 -21.288 -42.536  1.00  0.00    -0.232 OA
ATOM     47  H6  UNL     1      80.630 -21.085 -41.609  1.00  0.00     0.255 HD
ENDBRANCH  45  46
ENDBRANCH  13  45
ENDBRANCH   8   9
ENDBRANCH   6   7
ENDBRANCH   5   6
TORSDOF 10
ENDMDL
MODEL 3
REMARK VINA RESULT: -8.331039116      8.145      9.680
REMARK  10 active torsions:
REMARK  status: ('A' for Active; 'I' for Inactive)
REMARK    1  A    between atoms: C2_5  and  C3_6 
REMARK    2  A    between atoms: C3_6  and  C4_7 
REMARK    3  A    between atoms: C5_8  and  C6_9 
REMARK    4  A    between atoms: C7_10  and  O1_11 
REMARK    5  A    between atoms: C8_13  and  O2_14 
REMARK    6  A    between atoms: C9_16  and  N3_17 
REMARK    7  A    between atoms: C10_20  and  C11_21 
REMARK       I    between atoms: C11_21  and  N5_23 
REMARK    8  A    between atoms: C15_37  and  N11_38 
REMARK    9  A    between atoms: N13_44  and  O5_45 
REMARK   10  A    between atoms: O5_45  and  O6_46 
ROOT
HETATM    1  N1  UNL     1      84.025 -28.664 -37.731  1.00  0.00    -0.172 NA
HETATM    2  C1  UNL     1      83.478 -28.021 -38.526  1.00  0.00     0.181 C 
HETATM    3  N2  UNL     1      82.819 -27.258 -39.480  1.00  0.00    -0.308 N 
ATOM      4  H2  UNL     1      83.239 -27.080 -40.392  1.00  0.00     0.177 HD
HETATM    5  C2  UNL     1      81.660 -26.783 -39.178  1.00  0.00     0.076 C 
ENDROOT
BRANCH   5   6
HETATM    6  C3  UNL     1      80.960 -25.967 -40.206  1.00  0.00     0.072 C 
BRANCH   6   7
HETATM    7  C4  UNL     1      81.940 -25.258 -41.068  1.00  0.00    -0.024 C 
HETATM    8  C5  UNL     1      81.739 -25.059 -42.361  1.00  0.00    -0.006 C 
BRANCH   8   9
HETATM    9  C6  UNL     1      82.767 -24.342 -43.154  1.00  0.00     0.145 C 
HETATM   10  C7  UNL     1      83.268 -25.145 -44.330  1.00  0.00     0.174 C 
HETATM   11  C8  UNL     1      82.270 -24.825 -45.424  1.00  0.00     0.190 C 
HETATM   12  C9  UNL     1      81.542 -23.617 -44.911  1.00  0.00     0.244 C 
HETATM   13  N13 UNL     1      82.242 -23.152 -43.754  1.00  0.00    -0.126 NA
BRANCH  10  14
HETATM   14  O1  UNL     1      83.280 -26.512 -44.051  1.00  0.00    -0.391 OA
ATOM     15  H1  UNL     1      82.626 -26.741 -43.401  1.00  0.00     0.210 HD
ENDBRANCH  10  14
BRANCH  11  16
HETATM   16  O2  UNL     1      82.961 -24.615 -46.595  1.00  0.00    -0.389 OA
ATOM     17  H2  UNL     1      82.618 -25.206 -47.255  1.00  0.00     0.210 HD
ENDBRANCH  11  16
BRANCH  12  18
HETATM   18  N3  UNL     1      81.333 -22.601 -45.923  1.00  0.00    -0.251 N 
HETATM   19  N4  UNL     1      82.282 -21.851 -46.444  1.00  0.00    -0.289 N 
HETATM   20  C10 UNL     1      81.765 -20.993 -47.368  1.00  0.00     0.136 A 
ATOM     21  H4  UNL     1      83.268 -21.905 -46.192  1.00  0.00     0.187 HD
HETATM   22  C13 UNL     1      80.423 -21.268 -47.379  1.00  0.00     0.112 A 
HETATM   23  C14 UNL     1      79.374 -20.752 -48.084  1.00  0.00     0.276 A 
HETATM   24  C16 UNL     1      80.153 -22.280 -46.469  1.00  0.00     0.157 A 
HETATM   25  O4  UNL     1      79.580 -19.838 -48.913  1.00  0.00    -0.267 OA
HETATM   26  N10 UNL     1      78.115 -21.232 -47.883  1.00  0.00    -0.155 N 
HETATM   27  C15 UNL     1      77.887 -22.212 -46.994  1.00  0.00     0.680 A 
ATOM     28  H10 UNL     1      77.336 -20.842 -48.413  1.00  0.00     0.187 HD
HETATM   29  N12 UNL     1      78.885 -22.752 -46.278  1.00  0.00    -0.174 N 
ATOM     30  H12 UNL     1      78.701 -23.497 -45.606  1.00  0.00     0.186 HD
BRANCH  20  31
HETATM   31  C11 UNL     1      82.585 -20.050 -48.098  1.00  0.00     0.277 C 
HETATM   32  O3  UNL     1      82.351 -19.636 -49.252  1.00  0.00    -0.266 OA
HETATM   33  N5  UNL     1      83.779 -19.505 -47.510  1.00  0.00    -0.291 N 
HETATM   34  C12 UNL     1      83.676 -18.528 -46.682  1.00  0.00     0.212 C 
ATOM     35  H5  UNL     1      84.694 -19.889 -47.746  1.00  0.00     0.172 HD
HETATM   36  N6  UNL     1      84.724 -17.849 -45.996  1.00  0.00    -0.256 N 
HETATM   37  N9  UNL     1      82.474 -17.902 -46.266  1.00  0.00    -0.256 N 
HETATM   38  N7  UNL     1      84.138 -16.907 -45.154  1.00  0.00    -0.006 NA
ATOM     39  H6  UNL     1      85.723 -18.022 -46.101  1.00  0.00     0.187 HD
HETATM   40  N8  UNL     1      82.783 -17.246 -45.069  1.00  0.00    -0.006 NA
ATOM     41  H9  UNL     1      81.571 -17.925 -46.740  1.00  0.00     0.187 HD
ENDBRANCH  20  31
BRANCH  27  42
HETATM   42  N11 UNL     1      76.684 -22.680 -46.794  1.00  0.00    -0.234 N 
ATOM     43 2H11 UNL     1      76.139 -22.261 -46.040  1.00  0.00     0.174 HD
ATOM     44 1H11 UNL     1      76.307 -23.434 -47.368  1.00  0.00     0.174 HD
ENDBRANCH  27  42
ENDBRANCH  12  18
BRANCH  13  45
HETATM   45  O5  UNL     1      81.460 -22.453 -42.926  1.00  0.00    -0.139 OA
BRANCH  45  46
HETATM   46  O6  UNL     1      81.217 -21.241 -43.359  1.00  0.00    -0.232 OA
ATOM     47  H6  UNL     1      80.498 -20.823 -42.899  1.00  0.00     0.255 HD
ENDBRANCH  45  46
ENDBRANCH  13  45
ENDBRANCH   8   9
ENDBRANCH   6   7
ENDBRANCH   5   6
TORSDOF 10
ENDMDL
MODEL 4
REMARK VINA RESULT: -8.264008053      5.048      8.792
REMARK  10 active torsions:
REMARK  status: ('A' for Active; 'I' for Inactive)
REMARK    1  A    between atoms: C2_5  and  C3_6 
REMARK    2  A    between atoms: C3_6  and  C4_7 
REMARK    3  A    between atoms: C5_8  and  C6_9 
REMARK    4  A    between atoms: C7_10  and  O1_11 
REMARK    5  A    between atoms: C8_13  and  O2_14 
REMARK    6  A    between atoms: C9_16  and  N3_17 
REMARK    7  A    between atoms: C10_20  and  C11_21 
REMARK       I    between atoms: C11_21  and  N5_23 
REMARK    8  A    between atoms: C15_37  and  N11_38 
REMARK    9  A    between atoms: N13_44  and  O5_45 
REMARK   10  A    between atoms: O5_45  and  O6_46 
ROOT
HETATM    1  N1  UNL     1      80.868 -21.141 -47.867  1.00  0.00    -0.172 NA
HETATM    2  C1  UNL     1      81.708 -20.456 -47.457  1.00  0.00     0.181 C 
HETATM    3  N2  UNL     1      82.713 -19.629 -46.972  1.00  0.00    -0.308 N 
ATOM      4  H2  UNL     1      83.695 -19.831 -47.160  1.00  0.00     0.177 HD
HETATM    5  C2  UNL     1      82.366 -18.600 -46.278  1.00  0.00     0.076 C 
ENDROOT
BRANCH   5   6
HETATM    6  C3  UNL     1      83.449 -17.720 -45.762  1.00  0.00     0.072 C 
BRANCH   6   7
HETATM    7  C4  UNL     1      82.891 -16.675 -44.866  1.00  0.00    -0.024 C 
HETATM    8  C5  UNL     1      81.591 -16.522 -44.672  1.00  0.00    -0.006 C 
BRANCH   8   9
HETATM    9  C6  UNL     1      81.113 -15.455 -43.761  1.00  0.00     0.145 C 
HETATM   10  C7  UNL     1      79.923 -14.704 -44.308  1.00  0.00     0.174 C 
HETATM   11  C8  UNL     1      78.744 -15.545 -43.863  1.00  0.00     0.190 C 
HETATM   12  C9  UNL     1      79.317 -16.453 -42.816  1.00  0.00     0.244 C 
HETATM   13  N13 UNL     1      80.636 -15.988 -42.519  1.00  0.00    -0.126 NA
BRANCH  10  14
HETATM   14  O1  UNL     1      79.971 -14.608 -45.698  1.00  0.00    -0.391 OA
ATOM     15  H1  UNL     1      79.391 -13.930 -46.022  1.00  0.00     0.210 HD
ENDBRANCH  10  14
BRANCH  11  16
HETATM   16  O2  UNL     1      77.757 -14.702 -43.404  1.00  0.00    -0.389 OA
ATOM     17  H2  UNL     1      76.946 -15.192 -43.350  1.00  0.00     0.210 HD
ENDBRANCH  11  16
BRANCH  12  18
HETATM   18  N3  UNL     1      78.466 -16.595 -41.651  1.00  0.00    -0.251 N 
HETATM   19  N4  UNL     1      77.426 -17.399 -41.571  1.00  0.00    -0.289 N 
HETATM   20  C10 UNL     1      76.835 -17.304 -40.347  1.00  0.00     0.136 A 
ATOM     21  H4  UNL     1      77.107 -18.010 -42.323  1.00  0.00     0.187 HD
HETATM   22  C13 UNL     1      77.589 -16.378 -39.674  1.00  0.00     0.112 A 
HETATM   23  C14 UNL     1      77.510 -15.852 -38.417  1.00  0.00     0.276 A 
HETATM   24  C16 UNL     1      78.615 -15.934 -40.496  1.00  0.00     0.157 A 
HETATM   25  O4  UNL     1      76.599 -16.229 -37.648  1.00  0.00    -0.267 OA
HETATM   26  N10 UNL     1      78.420 -14.924 -38.007  1.00  0.00    -0.155 N 
HETATM   27  C15 UNL     1      79.401 -14.516 -38.827  1.00  0.00     0.680 A 
ATOM     28  H10 UNL     1      78.355 -14.536 -37.066  1.00  0.00     0.187 HD
HETATM   29  N12 UNL     1      79.521 -15.003 -40.072  1.00  0.00    -0.174 N 
ATOM     30  H12 UNL     1      80.270 -14.686 -40.686  1.00  0.00     0.186 HD
BRANCH  20  31
HETATM   31  C11 UNL     1      75.668 -18.076 -39.985  1.00  0.00     0.277 C 
HETATM   32  O3  UNL     1      74.564 -18.029 -40.567  1.00  0.00    -0.266 OA
HETATM   33  N5  UNL     1      75.708 -18.993 -38.876  1.00  0.00    -0.291 N 
HETATM   34  C12 UNL     1      76.226 -20.156 -39.047  1.00  0.00     0.212 C 
ATOM     35  H5  UNL     1      75.331 -18.723 -37.968  1.00  0.00     0.172 HD
HETATM   36  N6  UNL     1      76.361 -21.203 -38.090  1.00  0.00    -0.256 N 
HETATM   37  N9  UNL     1      76.784 -20.659 -40.250  1.00  0.00    -0.256 N 
HETATM   38  N7  UNL     1      77.042 -22.252 -38.703  1.00  0.00    -0.006 NA
ATOM     39  H6  UNL     1      76.021 -21.187 -37.129  1.00  0.00     0.187 HD
HETATM   40  N8  UNL     1      77.609 -21.723 -39.868  1.00  0.00    -0.006 NA
ATOM     41  H9  UNL     1      76.619 -20.316 -41.197  1.00  0.00     0.187 HD
ENDBRANCH  20  31
BRANCH  27  42
HETATM   42  N11 UNL     1      80.278 -13.627 -38.445  1.00  0.00    -0.234 N 
ATOM     43 2H11 UNL     1      80.006 -12.994 -37.692  1.00  0.00     0.174 HD
ATOM     44 1H11 UNL     1      81.198 -13.569 -38.882  1.00  0.00     0.174 HD
ENDBRANCH  27  42
ENDBRANCH  12  18
BRANCH  13  45
HETATM   45  O5  UNL     1      81.424 -16.952 -42.030  1.00  0.00    -0.139 OA
BRANCH  45  46
HETATM   46  O6  UNL     1      81.814 -16.714 -40.804  1.00  0.00    -0.232 OA
ATOM     47  H6  UNL     1      81.421 -17.305 -40.171  1.00  0.00     0.255 HD
ENDBRANCH  45  46
ENDBRANCH  13  45
ENDBRANCH   8   9
ENDBRANCH   6   7
ENDBRANCH   5   6
TORSDOF 10
ENDMDL
MODEL 5
REMARK VINA RESULT: -8.241780888      5.736      7.425
REMARK  10 active torsions:
REMARK  status: ('A' for Active; 'I' for Inactive)
REMARK    1  A    between atoms: C2_5  and  C3_6 
REMARK    2  A    between atoms: C3_6  and  C4_7 
REMARK    3  A    between atoms: C5_8  and  C6_9 
REMARK    4  A    between atoms: C7_10  and  O1_11 
REMARK    5  A    between atoms: C8_13  and  O2_14 
REMARK    6  A    between atoms: C9_16  and  N3_17 
REMARK    7  A    between atoms: C10_20  and  C11_21 
REMARK       I    between atoms: C11_21  and  N5_23 
REMARK    8  A    between atoms: C15_37  and  N11_38 
REMARK    9  A    between atoms: N13_44  and  O5_45 
REMARK   10  A    between atoms: O5_45  and  O6_46 
ROOT
HETATM    1  N1  UNL     1      81.684 -21.503 -43.753  1.00  0.00    -0.172 NA
HETATM    2  C1  UNL     1      80.598 -21.676 -44.119  1.00  0.00     0.181 C 
HETATM    3  N2  UNL     1      79.295 -21.889 -44.551  1.00  0.00    -0.308 N 
ATOM      4  H2  UNL     1      79.097 -22.509 -45.337  1.00  0.00     0.177 HD
HETATM    5  C2  UNL     1      78.345 -21.279 -43.929  1.00  0.00     0.076 C 
ENDROOT
BRANCH   5   6
HETATM    6  C3  UNL     1      76.953 -21.512 -44.398  1.00  0.00     0.072 C 
BRANCH   6   7
HETATM    7  C4  UNL     1      76.928 -21.756 -45.864  1.00  0.00    -0.024 C 
HETATM    8  C5  UNL     1      76.556 -20.831 -46.734  1.00  0.00    -0.006 C 
BRANCH   8   9
HETATM    9  C6  UNL     1      76.559 -21.153 -48.181  1.00  0.00     0.145 C 
HETATM   10  C7  UNL     1      75.185 -21.082 -48.802  1.00  0.00     0.174 C 
HETATM   11  C8  UNL     1      75.044 -19.621 -49.176  1.00  0.00     0.190 C 
HETATM   12  C9  UNL     1      76.443 -19.086 -49.092  1.00  0.00     0.244 C 
HETATM   13  N13 UNL     1      77.322 -20.203 -48.936  1.00  0.00    -0.126 NA
BRANCH  10  14
HETATM   14  O1  UNL     1      74.193 -21.464 -47.898  1.00  0.00    -0.391 OA
ATOM     15  H1  UNL     1      73.324 -21.334 -48.258  1.00  0.00     0.210 HD
ENDBRANCH  10  14
BRANCH  11  16
HETATM   16  O2  UNL     1      74.482 -19.546 -50.430  1.00  0.00    -0.389 OA
ATOM     17  H2  UNL     1      74.668 -18.687 -50.790  1.00  0.00     0.210 HD
ENDBRANCH  11  16
BRANCH  12  18
HETATM   18  N3  UNL     1      76.790 -18.212 -50.194  1.00  0.00    -0.251 N 
HETATM   19  N4  UNL     1      76.615 -16.907 -50.206  1.00  0.00    -0.289 N 
HETATM   20  C10 UNL     1      77.042 -16.373 -51.384  1.00  0.00     0.136 A 
ATOM     21  H4  UNL     1      76.215 -16.369 -49.437  1.00  0.00     0.187 HD
HETATM   22  C13 UNL     1      77.495 -17.447 -52.103  1.00  0.00     0.112 A 
HETATM   23  C14 UNL     1      78.040 -17.570 -53.349  1.00  0.00     0.276 A 
HETATM   24  C16 UNL     1      77.336 -18.603 -51.353  1.00  0.00     0.157 A 
HETATM   25  O4  UNL     1      78.198 -16.549 -54.054  1.00  0.00    -0.267 OA
HETATM   26  N10 UNL     1      78.407 -18.796 -53.817  1.00  0.00    -0.155 N 
HETATM   27  C15 UNL     1      78.240 -19.895 -53.065  1.00  0.00     0.680 A 
ATOM     28  H10 UNL     1      78.814 -18.879 -54.748  1.00  0.00     0.187 HD
HETATM   29  N12 UNL     1      77.709 -19.827 -51.834  1.00  0.00    -0.174 N 
ATOM     30  H12 UNL     1      77.588 -20.669 -51.272  1.00  0.00     0.186 HD
BRANCH  20  31
HETATM   31  C11 UNL     1      76.966 -14.957 -51.669  1.00  0.00     0.277 C 
HETATM   32  O3  UNL     1      75.919 -14.331 -51.936  1.00  0.00    -0.266 OA
HETATM   33  N5  UNL     1      78.152 -14.141 -51.662  1.00  0.00    -0.291 N 
HETATM   34  C12 UNL     1      78.616 -13.726 -50.539  1.00  0.00     0.212 C 
ATOM     35  H5  UNL     1      78.616 -13.896 -52.537  1.00  0.00     0.172 HD
HETATM   36  N6  UNL     1      79.765 -12.915 -50.313  1.00  0.00    -0.256 N 
HETATM   37  N9  UNL     1      78.074 -13.991 -49.255  1.00  0.00    -0.256 N 
HETATM   38  N7  UNL     1      79.922 -12.776 -48.936  1.00  0.00    -0.006 NA
ATOM     39  H6  UNL     1      80.366 -12.510 -51.030  1.00  0.00     0.187 HD
HETATM   40  N8  UNL     1      79.113 -13.755 -48.349  1.00  0.00    -0.006 NA
ATOM     41  H9  UNL     1      77.123 -14.291 -49.038  1.00  0.00     0.187 HD
ENDBRANCH  20  31
BRANCH  27  42
HETATM   42  N11 UNL     1      78.589 -21.075 -53.503  1.00  0.00    -0.234 N 
ATOM     43 2H11 UNL     1      77.922 -21.570 -54.096  1.00  0.00     0.174 HD
ATOM     44 1H11 UNL     1      79.491 -21.484 -53.260  1.00  0.00     0.174 HD
ENDBRANCH  27  42
ENDBRANCH  12  18
BRANCH  13  45
HETATM   45  O5  UNL     1      78.474 -19.873 -48.344  1.00  0.00    -0.139 OA
BRANCH  45  46
HETATM   46  O6  UNL     1      79.522 -20.196 -49.059  1.00  0.00    -0.232 OA
ATOM     47  H6  UNL     1      80.336 -19.883 -48.681  1.00  0.00     0.255 HD
ENDBRANCH  45  46
ENDBRANCH  13  45
ENDBRANCH   8   9
ENDBRANCH   6   7
ENDBRANCH   5   6
TORSDOF 10
ENDMDL
