MODEL 1
REMARK VINA RESULT: -8.499972427      0.000      0.000
REMARK  12 active torsions:
REMARK  status: ('A' for Active; 'I' for Inactive)
REMARK    1  A    between atoms: N1_1  and  C1_4 
REMARK    2  A    between atoms: N3_8  and  C3_9 
REMARK    3  A    between atoms: C3_9  and  C4_10 
REMARK       I    between atoms: C4_10  and  N4_12 
REMARK    4  A    between atoms: N4_12  and  C5_14 
REMARK    5  A    between atoms: C5_14  and  C6_15 
REMARK    6  A    between atoms: N5_16  and  C7_18 
REMARK    7  A    between atoms: C12_31  and  N10_32 
REMARK    8  A    between atoms: N11_35  and  C13_36 
REMARK    9  A    between atoms: C14_38  and  C15_39 
REMARK   10  A    between atoms: C15_39  and  O4_40 
REMARK   11  A    between atoms: C16_42  and  O5_43 
REMARK   12  A    between atoms: C17_45  and  O6_46 
ROOT
HETATM    1  C7  UNL     1      80.198 -19.653 -48.395  1.00  0.00     0.684 A 
HETATM    2  N6  UNL     1      79.663 -19.018 -49.504  1.00  0.00    -0.174 N 
ATOM      3  H6  UNL     1      80.263 -18.374 -50.020  1.00  0.00     0.186 HD
HETATM    4  C8  UNL     1      78.428 -19.192 -49.938  1.00  0.00     0.161 A 
HETATM    5  C9  UNL     1      77.610 -20.050 -49.260  1.00  0.00     0.119 A 
HETATM    6  C10 UNL     1      78.100 -20.690 -48.169  1.00  0.00     0.151 A 
HETATM    7  N7  UNL     1      77.267 -21.580 -47.455  1.00  0.00    -0.081 NA
HETATM    8  N8  UNL     1      79.385 -20.494 -47.737  1.00  0.00    -0.177 N 
ATOM      9  H8  UNL     1      79.724 -20.988 -46.913  1.00  0.00     0.185 HD
HETATM   10  C11 UNL     1      76.321 -20.217 -49.704  1.00  0.00     0.277 A 
HETATM   11  O2  UNL     1      75.567 -21.009 -49.078  1.00  0.00    -0.267 OA
HETATM   12  N9  UNL     1      75.879 -19.549 -50.783  1.00  0.00    -0.155 N 
ATOM     13  H9  UNL     1      74.918 -19.687 -51.098  1.00  0.00     0.187 HD
HETATM   14  C12 UNL     1      76.693 -18.687 -51.466  1.00  0.00     0.684 A 
HETATM   15  N11 UNL     1      77.942 -18.517 -51.049  1.00  0.00    -0.137 N 
ENDROOT
BRANCH   1  16
HETATM   16  N5  UNL     1      81.377 -19.412 -48.075  1.00  0.00    -0.204 N 
HETATM   17  C6  UNL     1      82.272 -19.159 -47.085  1.00  0.00     0.098 C 
ATOM     18  H5  UNL     1      81.908 -19.398 -48.946  1.00  0.00     0.183 HD
BRANCH  17  19
HETATM   19  C5  UNL     1      81.780 -19.200 -45.664  1.00  0.00     0.167 C 
BRANCH  19  20
HETATM   20  N4  UNL     1      81.949 -20.484 -45.020  1.00  0.00    -0.355 N 
HETATM   21  C4  UNL     1      80.876 -21.321 -44.656  1.00  0.00     0.237 C 
HETATM   22  O1  UNL     1      79.669 -21.046 -44.858  1.00  0.00    -0.272 OA
ATOM     23  H4  UNL     1      82.897 -20.801 -44.818  1.00  0.00     0.162 HD
BRANCH  21  24
HETATM   24  C3  UNL     1      81.170 -22.632 -43.984  1.00  0.00     0.253 C 
BRANCH  24  25
HETATM   25  N3  UNL     1      82.010 -23.475 -44.782  1.00  0.00    -0.264 N 
HETATM   26  C2  UNL     1      82.751 -24.485 -44.265  1.00  0.00     0.218 A 
HETATM   27  N2  UNL     1      83.418 -25.072 -45.245  1.00  0.00    -0.185 N 
HETATM   28  C1  UNL     1      83.124 -24.458 -46.405  1.00  0.00     0.691 A 
ATOM     29  H2  UNL     1      84.054 -25.862 -45.138  1.00  0.00     0.185 HD
HETATM   30  N12 UNL     1      82.254 -23.478 -46.091  1.00  0.00    -0.129 N 
ATOM     31  H12 UNL     1      81.841 -22.830 -46.762  1.00  0.00     0.206 HD
BRANCH  28  32
HETATM   32  N1  UNL     1      83.626 -24.812 -47.529  1.00  0.00    -0.233 N 
ATOM     33  H12 UNL     1      83.186 -25.164 -48.379  1.00  0.00     0.174 HD
ATOM     34  H11 UNL     1      84.626 -24.779 -47.727  1.00  0.00     0.174 HD
ENDBRANCH  28  32
ENDBRANCH  24  25
ENDBRANCH  21  24
ENDBRANCH  19  20
ENDBRANCH  17  19
ENDBRANCH   1  16
BRANCH  15  35
HETATM   35  C13 UNL     1      78.863 -17.658 -51.670  1.00  0.00     0.279 C 
HETATM   36  O3  UNL     1      80.101 -18.406 -51.852  1.00  0.00    -0.353 OA
HETATM   37  C14 UNL     1      80.003 -18.976 -53.119  1.00  0.00     0.179 C 
HETATM   38  C16 UNL     1      79.094 -18.136 -53.949  1.00  0.00     0.182 C 
HETATM   39  C17 UNL     1      78.783 -17.024 -52.957  1.00  0.00     0.199 C 
BRANCH  37  40
HETATM   40  C15 UNL     1      81.356 -19.048 -53.801  1.00  0.00     0.198 C 
BRANCH  40  41
HETATM   41  O4  UNL     1      82.303 -19.613 -52.928  1.00  0.00    -0.398 OA
ATOM     42  H4  UNL     1      82.476 -20.513 -53.178  1.00  0.00     0.209 HD
ENDBRANCH  40  41
ENDBRANCH  37  40
BRANCH  38  43
HETATM   43  O5  UNL     1      77.994 -18.764 -54.457  1.00  0.00    -0.390 OA
ATOM     44  H5  UNL     1      77.326 -18.200 -54.831  1.00  0.00     0.210 HD
ENDBRANCH  38  43
BRANCH  39  45
HETATM   45  O6  UNL     1      77.790 -16.269 -53.430  1.00  0.00    -0.388 OA
ATOM     46  H6  UNL     1      77.849 -15.566 -54.067  1.00  0.00     0.210 HD
ENDBRANCH  39  45
ENDBRANCH  15  35
BRANCH  14  47
HETATM   47  N10 UNL     1      76.150 -18.069 -52.472  1.00  0.00    -0.234 N 
ATOM     48 2H10 UNL     1      75.150 -17.909 -52.592  1.00  0.00     0.174 HD
ATOM     49 1H10 UNL     1      76.791 -17.752 -53.200  1.00  0.00     0.174 HD
ENDBRANCH  14  47
TORSDOF 12
ENDMDL
MODEL 2
REMARK VINA RESULT: -8.400275830      1.494      1.834
REMARK  12 active torsions:
REMARK  status: ('A' for Active; 'I' for Inactive)
REMARK    1  A    between atoms: N1_1  and  C1_4 
REMARK    2  A    between atoms: N3_8  and  C3_9 
REMARK    3  A    between atoms: C3_9  and  C4_10 
REMARK       I    between atoms: C4_10  and  N4_12 
REMARK    4  A    between atoms: N4_12  and  C5_14 
REMARK    5  A    between atoms: C5_14  and  C6_15 
REMARK    6  A    between atoms: N5_16  and  C7_18 
REMARK    7  A    between atoms: C12_31  and  N10_32 
REMARK    8  A    between atoms: N11_35  and  C13_36 
REMARK    9  A    between atoms: C14_38  and  C15_39 
REMARK   10  A    between atoms: C15_39  and  O4_40 
REMARK   11  A    between atoms: C16_42  and  O5_43 
REMARK   12  A    between atoms: C17_45  and  O6_46 
ROOT
HETATM    1  C7  UNL     1      80.129 -19.978 -48.357  1.00  0.00     0.684 A 
HETATM    2  N6  UNL     1      79.665 -19.223 -49.422  1.00  0.00    -0.174 N 
ATOM      3  H6  UNL     1      80.334 -18.626 -49.909  1.00  0.00     0.186 HD
HETATM    4  C8  UNL     1      78.415 -19.227 -49.849  1.00  0.00     0.161 A 
HETATM    5  C9  UNL     1      77.506 -20.020 -49.209  1.00  0.00     0.119 A 
HETATM    6  C10 UNL     1      77.925 -20.774 -48.162  1.00  0.00     0.151 A 
HETATM    7  N7  UNL     1      76.998 -21.599 -47.487  1.00  0.00    -0.081 NA
HETATM    8  N8  UNL     1      79.227 -20.754 -47.737  1.00  0.00    -0.177 N 
ATOM      9  H8  UNL     1      79.511 -21.331 -46.946  1.00  0.00     0.185 HD
HETATM   10  C11 UNL     1      76.204 -20.010 -49.645  1.00  0.00     0.277 A 
HETATM   11  O2  UNL     1      75.367 -20.743 -49.054  1.00  0.00    -0.267 OA
HETATM   12  N9  UNL     1      75.836 -19.235 -50.679  1.00  0.00    -0.155 N 
ATOM     13  H9  UNL     1      74.864 -19.241 -50.988  1.00  0.00     0.187 HD
HETATM   14  C12 UNL     1      76.742 -18.437 -51.324  1.00  0.00     0.684 A 
HETATM   15  N11 UNL     1      78.005 -18.438 -50.914  1.00  0.00    -0.137 N 
ENDROOT
BRANCH   1  16
HETATM   16  N5  UNL     1      81.330 -19.896 -48.040  1.00  0.00    -0.204 N 
HETATM   17  C6  UNL     1      82.432 -20.509 -47.535  1.00  0.00     0.098 C 
ATOM     18  H5  UNL     1      81.613 -18.940 -48.255  1.00  0.00     0.183 HD
BRANCH  17  19
HETATM   19  C5  UNL     1      82.332 -21.973 -47.201  1.00  0.00     0.167 C 
BRANCH  19  20
HETATM   20  N4  UNL     1      82.272 -22.250 -45.783  1.00  0.00    -0.355 N 
HETATM   21  C4  UNL     1      81.733 -23.434 -45.242  1.00  0.00     0.237 C 
HETATM   22  O1  UNL     1      81.257 -24.369 -45.931  1.00  0.00    -0.272 OA
ATOM     23  H4  UNL     1      82.641 -21.551 -45.139  1.00  0.00     0.162 HD
BRANCH  21  24
HETATM   24  C3  UNL     1      81.717 -23.613 -43.751  1.00  0.00     0.253 C 
BRANCH  24  25
HETATM   25  N3  UNL     1      82.100 -24.937 -43.360  1.00  0.00    -0.264 N 
HETATM   26  C2  UNL     1      81.921 -25.419 -42.105  1.00  0.00     0.218 A 
HETATM   27  N2  UNL     1      82.375 -26.660 -42.055  1.00  0.00    -0.185 N 
HETATM   28  C1  UNL     1      82.852 -27.002 -43.265  1.00  0.00     0.691 A 
ATOM     29  H2  UNL     1      82.366 -27.261 -41.231  1.00  0.00     0.185 HD
HETATM   30  N12 UNL     1      82.670 -25.922 -44.050  1.00  0.00    -0.129 N 
ATOM     31  H12 UNL     1      82.932 -25.867 -45.034  1.00  0.00     0.206 HD
BRANCH  28  32
HETATM   32  N1  UNL     1      83.359 -28.151 -43.517  1.00  0.00    -0.233 N 
ATOM     33  H12 UNL     1      83.298 -29.036 -43.013  1.00  0.00     0.174 HD
ATOM     34  H11 UNL     1      83.942 -28.335 -44.333  1.00  0.00     0.174 HD
ENDBRANCH  28  32
ENDBRANCH  24  25
ENDBRANCH  21  24
ENDBRANCH  19  20
ENDBRANCH  17  19
ENDBRANCH   1  16
BRANCH  15  35
HETATM   35  C13 UNL     1      79.017 -17.659 -51.499  1.00  0.00     0.279 C 
HETATM   36  O3  UNL     1      80.157 -18.534 -51.737  1.00  0.00    -0.353 OA
HETATM   37  C14 UNL     1      79.985 -19.017 -53.033  1.00  0.00     0.179 C 
HETATM   38  C16 UNL     1      79.176 -18.032 -53.803  1.00  0.00     0.182 C 
HETATM   39  C17 UNL     1      79.003 -16.948 -52.747  1.00  0.00     0.199 C 
BRANCH  37  40
HETATM   40  C15 UNL     1      81.316 -19.208 -53.735  1.00  0.00     0.198 C 
BRANCH  40  41
HETATM   41  O4  UNL     1      82.297 -19.596 -52.804  1.00  0.00    -0.398 OA
ATOM     42  H4  UNL     1      82.472 -20.525 -52.887  1.00  0.00     0.209 HD
ENDBRANCH  40  41
ENDBRANCH  37  40
BRANCH  38  43
HETATM   43  O5  UNL     1      78.006 -18.497 -54.331  1.00  0.00    -0.390 OA
ATOM     44  H5  UNL     1      77.372 -17.837 -54.588  1.00  0.00     0.210 HD
ENDBRANCH  38  43
BRANCH  39  45
HETATM   45  O6  UNL     1      78.103 -16.057 -53.165  1.00  0.00    -0.388 OA
ATOM     46  H6  UNL     1      78.220 -15.119 -53.267  1.00  0.00     0.210 HD
ENDBRANCH  39  45
ENDBRANCH  15  35
BRANCH  14  47
HETATM   47  N10 UNL     1      76.269 -17.703 -52.287  1.00  0.00    -0.234 N 
ATOM     48 2H10 UNL     1      75.434 -17.121 -52.225  1.00  0.00     0.174 HD
ATOM     49 1H10 UNL     1      76.773 -17.750 -53.172  1.00  0.00     0.174 HD
ENDBRANCH  14  47
TORSDOF 12
ENDMDL
MODEL 3
REMARK VINA RESULT: -8.332152682      2.804      5.139
REMARK  12 active torsions:
REMARK  status: ('A' for Active; 'I' for Inactive)
REMARK    1  A    between atoms: N1_1  and  C1_4 
REMARK    2  A    between atoms: N3_8  and  C3_9 
REMARK    3  A    between atoms: C3_9  and  C4_10 
REMARK       I    between atoms: C4_10  and  N4_12 
REMARK    4  A    between atoms: N4_12  and  C5_14 
REMARK    5  A    between atoms: C5_14  and  C6_15 
REMARK    6  A    between atoms: N5_16  and  C7_18 
REMARK    7  A    between atoms: C12_31  and  N10_32 
REMARK    8  A    between atoms: N11_35  and  C13_36 
REMARK    9  A    between atoms: C14_38  and  C15_39 
REMARK   10  A    between atoms: C15_39  and  O4_40 
REMARK   11  A    between atoms: C16_42  and  O5_43 
REMARK   12  A    between atoms: C17_45  and  O6_46 
ROOT
HETATM    1  C7  UNL     1      76.688 -20.341 -50.795  1.00  0.00     0.684 A 
HETATM    2  N6  UNL     1      76.700 -18.966 -50.624  1.00  0.00    -0.174 N 
ATOM      3  H6  UNL     1      76.256 -18.586 -49.788  1.00  0.00     0.186 HD
HETATM    4  C8  UNL     1      77.247 -18.115 -51.473  1.00  0.00     0.161 A 
HETATM    5  C9  UNL     1      77.845 -18.605 -52.599  1.00  0.00     0.119 A 
HETATM    6  C10 UNL     1      77.854 -19.947 -52.798  1.00  0.00     0.151 A 
HETATM    7  N7  UNL     1      78.467 -20.471 -53.958  1.00  0.00    -0.081 NA
HETATM    8  N8  UNL     1      77.280 -20.811 -51.904  1.00  0.00    -0.177 N 
ATOM      9  H8  UNL     1      77.301 -21.814 -52.082  1.00  0.00     0.185 HD
HETATM   10  C11 UNL     1      78.400 -17.717 -53.487  1.00  0.00     0.277 A 
HETATM   11  O2  UNL     1      78.952 -18.170 -54.525  1.00  0.00    -0.267 OA
HETATM   12  N9  UNL     1      78.354 -16.396 -53.250  1.00  0.00    -0.155 N 
ATOM     13  H9  UNL     1      78.772 -15.751 -53.922  1.00  0.00     0.187 HD
HETATM   14  C12 UNL     1      77.755 -15.898 -52.125  1.00  0.00     0.684 A 
HETATM   15  N11 UNL     1      77.216 -16.745 -51.256  1.00  0.00    -0.137 N 
ENDROOT
BRANCH   1  16
HETATM   16  N5  UNL     1      76.141 -21.049 -49.930  1.00  0.00    -0.204 N 
HETATM   17  C6  UNL     1      76.018 -21.372 -48.615  1.00  0.00     0.098 C 
ATOM     18  H5  UNL     1      75.497 -21.660 -50.431  1.00  0.00     0.183 HD
BRANCH  17  19
HETATM   19  C5  UNL     1      76.800 -20.563 -47.616  1.00  0.00     0.167 C 
BRANCH  19  20
HETATM   20  N4  UNL     1      78.108 -21.102 -47.318  1.00  0.00    -0.355 N 
HETATM   21  C4  UNL     1      79.303 -20.598 -47.867  1.00  0.00     0.237 C 
HETATM   22  O1  UNL     1      79.358 -19.630 -48.663  1.00  0.00    -0.272 OA
ATOM     23  H4  UNL     1      78.169 -21.890 -46.673  1.00  0.00     0.162 HD
BRANCH  21  24
HETATM   24  C3  UNL     1      80.607 -21.242 -47.491  1.00  0.00     0.253 C 
BRANCH  24  25
HETATM   25  N3  UNL     1      81.617 -20.277 -47.173  1.00  0.00    -0.264 N 
HETATM   26  C2  UNL     1      82.847 -20.277 -47.742  1.00  0.00     0.218 A 
HETATM   27  N2  UNL     1      83.549 -19.273 -47.244  1.00  0.00    -0.185 N 
HETATM   28  C1  UNL     1      82.793 -18.609 -46.351  1.00  0.00     0.691 A 
ATOM     29  H2  UNL     1      84.510 -19.039 -47.495  1.00  0.00     0.185 HD
HETATM   30  N12 UNL     1      81.607 -19.249 -46.328  1.00  0.00    -0.129 N 
ATOM     31  H12 UNL     1      80.815 -18.982 -45.744  1.00  0.00     0.206 HD
BRANCH  28  32
HETATM   32  N1  UNL     1      83.212 -17.585 -45.706  1.00  0.00    -0.233 N 
ATOM     33  H12 UNL     1      84.141 -17.341 -45.364  1.00  0.00     0.174 HD
ATOM     34  H11 UNL     1      82.603 -16.814 -45.429  1.00  0.00     0.174 HD
ENDBRANCH  28  32
ENDBRANCH  24  25
ENDBRANCH  21  24
ENDBRANCH  19  20
ENDBRANCH  17  19
ENDBRANCH   1  16
BRANCH  15  35
HETATM   35  C13 UNL     1      76.576 -16.347 -50.071  1.00  0.00     0.279 C 
HETATM   36  O3  UNL     1      77.106 -17.170 -48.992  1.00  0.00    -0.353 OA
HETATM   37  C14 UNL     1      78.182 -16.450 -48.477  1.00  0.00     0.179 C 
HETATM   38  C16 UNL     1      77.958 -15.003 -48.747  1.00  0.00     0.182 C 
HETATM   39  C17 UNL     1      76.593 -15.067 -49.419  1.00  0.00     0.199 C 
BRANCH  37  40
HETATM   40  C15 UNL     1      78.317 -16.650 -46.979  1.00  0.00     0.198 C 
BRANCH  40  41
HETATM   41  O4  UNL     1      79.571 -17.214 -46.683  1.00  0.00    -0.398 OA
ATOM     42  H4  UNL     1      80.017 -16.685 -46.032  1.00  0.00     0.209 HD
ENDBRANCH  40  41
ENDBRANCH  37  40
BRANCH  38  43
HETATM   43  O5  UNL     1      78.921 -14.373 -49.482  1.00  0.00    -0.390 OA
ATOM     44  H5  UNL     1      78.866 -14.482 -50.424  1.00  0.00     0.210 HD
ENDBRANCH  38  43
BRANCH  39  45
HETATM   45  O6  UNL     1      76.302 -13.879 -49.952  1.00  0.00    -0.388 OA
ATOM     46  H6  UNL     1      75.486 -13.398 -49.882  1.00  0.00     0.210 HD
ENDBRANCH  39  45
ENDBRANCH  15  35
BRANCH  14  47
HETATM   47  N10 UNL     1      77.738 -14.602 -52.015  1.00  0.00    -0.234 N 
ATOM     48 2H10 UNL     1      78.287 -13.958 -52.584  1.00  0.00     0.174 HD
ATOM     49 1H10 UNL     1      77.141 -14.225 -51.280  1.00  0.00     0.174 HD
ENDBRANCH  14  47
TORSDOF 12
ENDMDL
MODEL 4
REMARK VINA RESULT: -8.247998446      2.836      4.867
REMARK  12 active torsions:
REMARK  status: ('A' for Active; 'I' for Inactive)
REMARK    1  A    between atoms: N1_1  and  C1_4 
REMARK    2  A    between atoms: N3_8  and  C3_9 
REMARK    3  A    between atoms: C3_9  and  C4_10 
REMARK       I    between atoms: C4_10  and  N4_12 
REMARK    4  A    between atoms: N4_12  and  C5_14 
REMARK    5  A    between atoms: C5_14  and  C6_15 
REMARK    6  A    between atoms: N5_16  and  C7_18 
REMARK    7  A    between atoms: C12_31  and  N10_32 
REMARK    8  A    between atoms: N11_35  and  C13_36 
REMARK    9  A    between atoms: C14_38  and  C15_39 
REMARK   10  A    between atoms: C15_39  and  O4_40 
REMARK   11  A    between atoms: C16_42  and  O5_43 
REMARK   12  A    between atoms: C17_45  and  O6_46 
ROOT
HETATM    1  C7  UNL     1      75.852 -17.430 -48.858  1.00  0.00     0.684 A 
HETATM    2  N6  UNL     1      76.665 -17.985 -49.832  1.00  0.00    -0.174 N 
ATOM      3  H6  UNL     1      76.884 -18.979 -49.760  1.00  0.00     0.186 HD
HETATM    4  C8  UNL     1      77.174 -17.313 -50.849  1.00  0.00     0.161 A 
HETATM    5  C9  UNL     1      76.892 -15.982 -50.962  1.00  0.00     0.119 A 
HETATM    6  C10 UNL     1      76.099 -15.404 -50.026  1.00  0.00     0.151 A 
HETATM    7  N7  UNL     1      75.798 -14.027 -50.127  1.00  0.00    -0.081 NA
HETATM    8  N8  UNL     1      75.581 -16.121 -48.980  1.00  0.00    -0.177 N 
ATOM      9  H8  UNL     1      74.989 -15.658 -48.292  1.00  0.00     0.185 HD
HETATM   10  C11 UNL     1      77.436 -15.283 -52.012  1.00  0.00     0.277 A 
HETATM   11  O2  UNL     1      77.175 -14.054 -52.115  1.00  0.00    -0.267 OA
HETATM   12  N9  UNL     1      78.228 -15.898 -52.905  1.00  0.00    -0.155 N 
ATOM     13  H9  UNL     1      78.622 -15.362 -53.678  1.00  0.00     0.187 HD
HETATM   14  C12 UNL     1      78.515 -17.232 -52.797  1.00  0.00     0.684 A 
HETATM   15  N11 UNL     1      77.995 -17.921 -51.789  1.00  0.00    -0.137 N 
ENDROOT
BRANCH   1  16
HETATM   16  N5  UNL     1      75.428 -18.158 -47.942  1.00  0.00    -0.204 N 
HETATM   17  C6  UNL     1      75.586 -19.287 -47.203  1.00  0.00     0.098 C 
ATOM     18  H5  UNL     1      74.585 -17.706 -47.589  1.00  0.00     0.183 HD
BRANCH  17  19
HETATM   19  C5  UNL     1      76.812 -20.124 -47.450  1.00  0.00     0.167 C 
BRANCH  19  20
HETATM   20  N4  UNL     1      77.954 -19.746 -46.648  1.00  0.00    -0.355 N 
HETATM   21  C4  UNL     1      79.072 -19.059 -47.159  1.00  0.00     0.237 C 
HETATM   22  O1  UNL     1      79.190 -18.698 -48.355  1.00  0.00    -0.272 OA
ATOM     23  H4  UNL     1      77.950 -19.990 -45.658  1.00  0.00     0.162 HD
BRANCH  21  24
HETATM   24  C3  UNL     1      80.207 -18.723 -46.235  1.00  0.00     0.253 C 
BRANCH  24  25
HETATM   25  N3  UNL     1      81.476 -19.130 -46.763  1.00  0.00    -0.264 N 
HETATM   26  C2  UNL     1      82.650 -18.566 -46.387  1.00  0.00     0.218 A 
HETATM   27  N2  UNL     1      83.636 -19.148 -47.049  1.00  0.00    -0.185 N 
HETATM   28  C1  UNL     1      83.123 -20.092 -47.859  1.00  0.00     0.691 A 
ATOM     29  H2  UNL     1      84.625 -18.919 -46.960  1.00  0.00     0.185 HD
HETATM   30  N12 UNL     1      81.790 -20.059 -47.662  1.00  0.00    -0.129 N 
ATOM     31  H12 UNL     1      81.118 -20.662 -48.137  1.00  0.00     0.206 HD
BRANCH  28  32
HETATM   32  N1  UNL     1      83.845 -20.822 -48.625  1.00  0.00    -0.233 N 
ATOM     33  H12 UNL     1      84.849 -21.004 -48.627  1.00  0.00     0.174 HD
ATOM     34  H11 UNL     1      83.463 -21.362 -49.400  1.00  0.00     0.174 HD
ENDBRANCH  28  32
ENDBRANCH  24  25
ENDBRANCH  21  24
ENDBRANCH  19  20
ENDBRANCH  17  19
ENDBRANCH   1  16
BRANCH  15  35
HETATM   35  C13 UNL     1      78.223 -19.291 -51.578  1.00  0.00     0.279 C 
HETATM   36  O3  UNL     1      76.929 -19.916 -51.338  1.00  0.00    -0.353 OA
HETATM   37  C14 UNL     1      76.484 -20.334 -52.590  1.00  0.00     0.179 C 
HETATM   38  C16 UNL     1      77.669 -20.562 -53.463  1.00  0.00     0.182 C 
HETATM   39  C17 UNL     1      78.788 -20.262 -52.474  1.00  0.00     0.199 C 
BRANCH  37  40
HETATM   40  C15 UNL     1      75.694 -21.625 -52.496  1.00  0.00     0.198 C 
BRANCH  40  41
HETATM   41  O4  UNL     1      75.972 -22.268 -51.276  1.00  0.00    -0.398 OA
ATOM     42  H4  UNL     1      75.609 -23.146 -51.284  1.00  0.00     0.209 HD
ENDBRANCH  40  41
ENDBRANCH  37  40
BRANCH  38  43
HETATM   43  O5  UNL     1      77.720 -19.827 -54.612  1.00  0.00    -0.390 OA
ATOM     44  H5  UNL     1      77.242 -20.179 -55.355  1.00  0.00     0.210 HD
ENDBRANCH  38  43
BRANCH  39  45
HETATM   45  O6  UNL     1      79.951 -20.188 -53.124  1.00  0.00    -0.388 OA
ATOM     46  H6  UNL     1      80.465 -20.906 -53.473  1.00  0.00     0.210 HD
ENDBRANCH  39  45
ENDBRANCH  15  35
BRANCH  14  47
HETATM   47  N10 UNL     1      79.319 -17.715 -53.697  1.00  0.00    -0.234 N 
ATOM     48 2H10 UNL     1      79.446 -17.335 -54.635  1.00  0.00     0.174 HD
ATOM     49 1H10 UNL     1      79.834 -18.555 -53.431  1.00  0.00     0.174 HD
ENDBRANCH  14  47
TORSDOF 12
ENDMDL
MODEL 5
REMARK VINA RESULT: -8.207861995      2.525      4.732
REMARK  12 active torsions:
REMARK  status: ('A' for Active; 'I' for Inactive)
REMARK    1  A    between atoms: N1_1  and  C1_4 
REMARK    2  A    between atoms: N3_8  and  C3_9 
REMARK    3  A    between atoms: C3_9  and  C4_10 
REMARK       I    between atoms: C4_10  and  N4_12 
REMARK    4  A    between atoms: N4_12  and  C5_14 
REMARK    5  A    between atoms: C5_14  and  C6_15 
REMARK    6  A    between atoms: N5_16  and  C7_18 
REMARK    7  A    between atoms: C12_31  and  N10_32 
REMARK    8  A    between atoms: N11_35  and  C13_36 
REMARK    9  A    between atoms: C14_38  and  C15_39 
REMARK   10  A    between atoms: C15_39  and  O4_40 
REMARK   11  A    between atoms: C16_42  and  O5_43 
REMARK   12  A    between atoms: C17_45  and  O6_46 
ROOT
HETATM    1  C7  UNL     1      80.030 -19.885 -48.351  1.00  0.00     0.684 A 
HETATM    2  N6  UNL     1      79.590 -19.132 -49.428  1.00  0.00    -0.174 N 
ATOM      3  H6  UNL     1      80.264 -18.521 -49.889  1.00  0.00     0.186 HD
HETATM    4  C8  UNL     1      78.355 -19.153 -49.896  1.00  0.00     0.161 A 
HETATM    5  C9  UNL     1      77.438 -19.964 -49.290  1.00  0.00     0.119 A 
HETATM    6  C10 UNL     1      77.833 -20.717 -48.234  1.00  0.00     0.151 A 
HETATM    7  N7  UNL     1      76.898 -21.561 -47.595  1.00  0.00    -0.081 NA
HETATM    8  N8  UNL     1      79.120 -20.679 -47.765  1.00  0.00    -0.177 N 
ATOM      9  H8  UNL     1      79.387 -21.256 -46.968  1.00  0.00     0.185 HD
HETATM   10  C11 UNL     1      76.151 -19.972 -49.770  1.00  0.00     0.277 A 
HETATM   11  O2  UNL     1      75.306 -20.722 -49.211  1.00  0.00    -0.267 OA
HETATM   12  N9  UNL     1      75.805 -19.198 -50.811  1.00  0.00    -0.155 N 
ATOM     13  H9  UNL     1      74.844 -19.218 -51.153  1.00  0.00     0.187 HD
HETATM   14  C12 UNL     1      76.719 -18.382 -51.422  1.00  0.00     0.684 A 
HETATM   15  N11 UNL     1      77.967 -18.365 -50.971  1.00  0.00    -0.137 N 
ENDROOT
BRANCH   1  16
HETATM   16  N5  UNL     1      81.218 -19.785 -47.994  1.00  0.00    -0.204 N 
HETATM   17  C6  UNL     1      82.105 -19.378 -47.049  1.00  0.00     0.098 C 
ATOM     18  H5  UNL     1      81.774 -20.190 -48.747  1.00  0.00     0.183 HD
BRANCH  17  19
HETATM   19  C5  UNL     1      81.558 -18.810 -45.769  1.00  0.00     0.167 C 
BRANCH  19  20
HETATM   20  N4  UNL     1      80.871 -17.547 -45.931  1.00  0.00    -0.355 N 
HETATM   21  C4  UNL     1      79.472 -17.407 -45.867  1.00  0.00     0.237 C 
HETATM   22  O1  UNL     1      78.678 -18.356 -45.657  1.00  0.00    -0.272 OA
ATOM     23  H4  UNL     1      81.432 -16.712 -46.100  1.00  0.00     0.162 HD
BRANCH  21  24
HETATM   24  C3  UNL     1      78.865 -16.046 -46.058  1.00  0.00     0.253 C 
BRANCH  24  25
HETATM   25  N3  UNL     1      77.869 -16.036 -47.087  1.00  0.00    -0.264 N 
HETATM   26  C2  UNL     1      78.061 -15.459 -48.298  1.00  0.00     0.218 A 
HETATM   27  N2  UNL     1      76.965 -15.609 -49.023  1.00  0.00    -0.185 N 
HETATM   28  C1  UNL     1      76.050 -16.281 -48.301  1.00  0.00     0.691 A 
ATOM     29  H2  UNL     1      76.834 -15.270 -49.976  1.00  0.00     0.185 HD
HETATM   30  N12 UNL     1      76.634 -16.532 -47.112  1.00  0.00    -0.129 N 
ATOM     31  H12 UNL     1      76.191 -17.031 -46.341  1.00  0.00     0.206 HD
BRANCH  28  32
HETATM   32  N1  UNL     1      74.886 -16.574 -48.747  1.00  0.00    -0.233 N 
ATOM     33  H12 UNL     1      74.253 -16.059 -49.359  1.00  0.00     0.174 HD
ATOM     34  H11 UNL     1      74.407 -17.445 -48.521  1.00  0.00     0.174 HD
ENDBRANCH  28  32
ENDBRANCH  24  25
ENDBRANCH  21  24
ENDBRANCH  19  20
ENDBRANCH  17  19
ENDBRANCH   1  16
BRANCH  15  35
HETATM   35  C13 UNL     1      78.985 -17.567 -51.517  1.00  0.00     0.279 C 
HETATM   36  O3  UNL     1      80.140 -18.428 -51.743  1.00  0.00    -0.353 OA
HETATM   37  C14 UNL     1      80.003 -18.890 -53.050  1.00  0.00     0.179 C 
HETATM   38  C16 UNL     1      79.204 -17.899 -53.823  1.00  0.00     0.182 C 
HETATM   39  C17 UNL     1      78.995 -16.835 -52.753  1.00  0.00     0.199 C 
BRANCH  37  40
HETATM   40  C15 UNL     1      81.352 -19.056 -53.723  1.00  0.00     0.198 C 
BRANCH  40  41
HETATM   41  O4  UNL     1      82.273 -19.615 -52.817  1.00  0.00    -0.398 OA
ATOM     42  H4  UNL     1      82.644 -18.931 -52.272  1.00  0.00     0.209 HD
ENDBRANCH  40  41
ENDBRANCH  37  40
BRANCH  38  43
HETATM   43  O5  UNL     1      78.051 -18.365 -54.387  1.00  0.00    -0.390 OA
ATOM     44  H5  UNL     1      77.345 -18.572 -53.786  1.00  0.00     0.210 HD
ENDBRANCH  38  43
BRANCH  39  45
HETATM   45  O6  UNL     1      78.096 -15.945 -53.178  1.00  0.00    -0.388 OA
ATOM     46  H6  UNL     1      78.172 -14.998 -53.172  1.00  0.00     0.210 HD
ENDBRANCH  39  45
ENDBRANCH  15  35
BRANCH  14  47
HETATM   47  N10 UNL     1      76.266 -17.651 -52.397  1.00  0.00    -0.234 N 
ATOM     48 2H10 UNL     1      75.551 -16.929 -52.306  1.00  0.00     0.174 HD
ATOM     49 1H10 UNL     1      76.652 -17.850 -53.320  1.00  0.00     0.174 HD
ENDBRANCH  14  47
TORSDOF 12
ENDMDL
