MODEL 1
REMARK VINA RESULT: -7.890053049      0.000      0.000
REMARK  16 active torsions:
REMARK  status: ('A' for Active; 'I' for Inactive)
REMARK    1  A    between atoms: C2_2  and  O2_4 
REMARK    2  A    between atoms: O2_4  and  C3_5 
REMARK    3  A    between atoms: C4_6  and  O3_7 
REMARK    4  A    between atoms: C5_9  and  N1_10 
REMARK    5  A    between atoms: C8_15  and  N3_16 
REMARK    6  A    between atoms: N3_16  and  N4_18 
REMARK    7  A    between atoms: C11_28  and  C12_29 
REMARK    8  A    between atoms: C12_29  and  O5_30 
REMARK    9  A    between atoms: C12_29  and  C13_32 
REMARK   10  A    between atoms: C13_32  and  O6_33 
REMARK   11  A    between atoms: C13_32  and  C14_35 
REMARK   12  A    between atoms: C14_35  and  N7_36 
REMARK   13  A    between atoms: C14_35  and  O7_40 
REMARK   14  A    between atoms: C15_42  and  N8_43 
REMARK       I    between atoms: N8_43  and  C16_45 
REMARK   15  A    between atoms: C16_45  and  C17_47 
REMARK   16  A    between atoms: C17_47  and  N9_48 
ROOT
HETATM    1  C3  UNL     1      76.218 -14.974 -50.647  1.00  0.00     0.190 C 
HETATM    2  C4  UNL     1      76.049 -15.948 -49.473  1.00  0.00     0.199 C 
HETATM    3  C5  UNL     1      76.999 -17.124 -49.681  1.00  0.00     0.262 C 
HETATM    4  O4  UNL     1      77.220 -17.384 -50.997  1.00  0.00    -0.353 OA
HETATM    5  C11 UNL     1      77.851 -16.366 -51.735  1.00  0.00     0.181 C 
HETATM    6  C15 UNL     1      77.727 -15.099 -50.996  1.00  0.00     0.148 C 
ENDROOT
BRANCH   3   7
HETATM    7  N1  UNL     1      76.332 -18.283 -49.116  1.00  0.00    -0.297 N 
HETATM    8  C6  UNL     1      75.035 -18.410 -48.782  1.00  0.00     0.188 A 
HETATM    9  N2  UNL     1      74.778 -19.629 -48.286  1.00  0.00    -0.346 N 
HETATM   10  C7  UNL     1      75.937 -20.309 -48.299  1.00  0.00     0.124 A 
ATOM     11  H2  UNL     1      73.875 -19.975 -47.962  1.00  0.00     0.167 HD
HETATM   12  C8  UNL     1      76.319 -21.573 -47.928  1.00  0.00     0.151 A 
HETATM   13  C10 UNL     1      76.895 -19.468 -48.814  1.00  0.00     0.142 A 
HETATM   14  N5  UNL     1      77.599 -21.950 -48.075  1.00  0.00    -0.336 N 
HETATM   15  C9  UNL     1      78.525 -21.112 -48.583  1.00  0.00     0.183 A 
ATOM     16  H5  UNL     1      77.877 -22.891 -47.797  1.00  0.00     0.168 HD
HETATM   17  N6  UNL     1      78.173 -19.868 -48.953  1.00  0.00    -0.336 N 
ATOM     18  H6  UNL     1      78.871 -19.231 -49.337  1.00  0.00     0.168 HD
BRANCH  12  19
HETATM   19  N3  UNL     1      75.450 -22.404 -47.436  1.00  0.00    -0.290 N 
ATOM     20  H3  UNL     1      74.750 -22.835 -48.040  1.00  0.00     0.188 HD
BRANCH  19  21
HETATM   21  N4  UNL     1      75.484 -22.703 -46.069  1.00  0.00    -0.344 N 
ATOM     22  H42 UNL     1      76.326 -23.117 -45.668  1.00  0.00     0.176 HD
ATOM     23  H41 UNL     1      74.667 -22.501 -45.493  1.00  0.00     0.176 HD
ENDBRANCH  19  21
ENDBRANCH  12  19
ENDBRANCH   3   7
BRANCH   2  24
HETATM   24  O3  UNL     1      76.459 -15.293 -48.315  1.00  0.00    -0.388 OA
ATOM     25  H3  UNL     1      76.908 -15.926 -47.767  1.00  0.00     0.210 HD
ENDBRANCH   2  24
BRANCH   1  26
HETATM   26  O2  UNL     1      75.871 -13.673 -50.322  1.00  0.00    -0.311 OA
BRANCH  26  27
HETATM   27  C2  UNL     1      74.998 -12.974 -51.172  1.00  0.00     0.255 C 
HETATM   28  C1  UNL     1      73.536 -13.267 -51.206  1.00  0.00     0.126 C 
HETATM   29  O1  UNL     1      75.485 -12.078 -51.920  1.00  0.00    -0.266 OA
ENDBRANCH  26  27
ENDBRANCH   1  26
BRANCH   5  30
HETATM   30  C12 UNL     1      79.200 -16.834 -52.149  1.00  0.00     0.182 C 
BRANCH  30  31
HETATM   31  O5  UNL     1      80.249 -15.978 -51.932  1.00  0.00    -0.390 OA
ATOM     32  H5  UNL     1      80.744 -15.700 -52.695  1.00  0.00     0.210 HD
ENDBRANCH  30  31
BRANCH  30  33
HETATM   33  C13 UNL     1      79.263 -17.648 -53.404  1.00  0.00     0.205 C 
BRANCH  33  34
HETATM   34  O6  UNL     1      79.517 -16.976 -54.561  1.00  0.00    -0.389 OA
ATOM     35  H6  UNL     1      79.793 -17.496 -55.307  1.00  0.00     0.210 HD
ENDBRANCH  33  34
BRANCH  33  36
HETATM   36  C14 UNL     1      80.226 -18.817 -53.280  1.00  0.00     0.347 C 
BRANCH  36  37
HETATM   37  N7  UNL     1      81.104 -18.864 -54.425  1.00  0.00    -0.051 N 
ATOM     38  H73 UNL     1      81.016 -19.741 -54.937  1.00  0.00     0.277 HD
ATOM     39  H72 UNL     1      80.802 -18.229 -55.163  1.00  0.00     0.277 HD
ATOM     40  H71 UNL     1      82.066 -18.685 -54.139  1.00  0.00     0.277 HD
ENDBRANCH  36  37
BRANCH  36  41
HETATM   41  O7  UNL     1      80.958 -18.611 -52.110  1.00  0.00    -0.368 OA
ATOM     42  H7  UNL     1      81.875 -18.621 -52.356  1.00  0.00     0.212 HD
ENDBRANCH  36  41
ENDBRANCH  33  36
ENDBRANCH  30  33
ENDBRANCH   5  30
BRANCH   6  43
HETATM   43  N8  UNL     1      78.173 -13.896 -51.617  1.00  0.00    -0.350 N 
HETATM   44  C16 UNL     1      78.803 -12.876 -50.810  1.00  0.00     0.243 C 
HETATM   45  O8  UNL     1      78.963 -13.041 -49.572  1.00  0.00    -0.272 OA
ATOM     46  H8  UNL     1      78.049 -13.756 -52.620  1.00  0.00     0.163 HD
BRANCH  44  47
HETATM   47  C17 UNL     1      79.284 -11.610 -51.395  1.00  0.00     0.332 C 
BRANCH  47  48
HETATM   48  N9  UNL     1      78.297 -10.996 -52.252  1.00  0.00    -0.071 N 
ATOM     49  H93 UNL     1      78.683 -10.796 -53.174  1.00  0.00     0.274 HD
ATOM     50  H92 UNL     1      77.575 -11.664 -52.520  1.00  0.00     0.274 HD
ATOM     51  H91 UNL     1      77.890 -10.160 -51.832  1.00  0.00     0.274 HD
ENDBRANCH  47  48
ENDBRANCH  44  47
ENDBRANCH   6  43
TORSDOF 16
ENDMDL
MODEL 2
REMARK VINA RESULT: -7.640018880      2.303      3.334
REMARK  16 active torsions:
REMARK  status: ('A' for Active; 'I' for Inactive)
REMARK    1  A    between atoms: C2_2  and  O2_4 
REMARK    2  A    between atoms: O2_4  and  C3_5 
REMARK    3  A    between atoms: C4_6  and  O3_7 
REMARK    4  A    between atoms: C5_9  and  N1_10 
REMARK    5  A    between atoms: C8_15  and  N3_16 
REMARK    6  A    between atoms: N3_16  and  N4_18 
REMARK    7  A    between atoms: C11_28  and  C12_29 
REMARK    8  A    between atoms: C12_29  and  O5_30 
REMARK    9  A    between atoms: C12_29  and  C13_32 
REMARK   10  A    between atoms: C13_32  and  O6_33 
REMARK   11  A    between atoms: C13_32  and  C14_35 
REMARK   12  A    between atoms: C14_35  and  N7_36 
REMARK   13  A    between atoms: C14_35  and  O7_40 
REMARK   14  A    between atoms: C15_42  and  N8_43 
REMARK       I    between atoms: N8_43  and  C16_45 
REMARK   15  A    between atoms: C16_45  and  C17_47 
REMARK   16  A    between atoms: C17_47  and  N9_48 
ROOT
HETATM    1  C3  UNL     1      76.935 -16.963 -49.190  1.00  0.00     0.190 C 
HETATM    2  C4  UNL     1      77.801 -17.826 -48.262  1.00  0.00     0.199 C 
HETATM    3  C5  UNL     1      78.892 -18.487 -49.100  1.00  0.00     0.262 C 
HETATM    4  O4  UNL     1      78.495 -18.720 -50.379  1.00  0.00    -0.353 OA
HETATM    5  C11 UNL     1      78.184 -17.586 -51.149  1.00  0.00     0.181 C 
HETATM    6  C15 UNL     1      77.951 -16.447 -50.246  1.00  0.00     0.148 C 
ENDROOT
BRANCH   3   7
HETATM    7  N1  UNL     1      79.146 -19.776 -48.483  1.00  0.00    -0.297 N 
HETATM    8  C6  UNL     1      78.267 -20.769 -48.250  1.00  0.00     0.188 A 
HETATM    9  N2  UNL     1      78.863 -21.816 -47.661  1.00  0.00    -0.346 N 
HETATM   10  C7  UNL     1      80.158 -21.494 -47.507  1.00  0.00     0.124 A 
ATOM     11  H2  UNL     1      78.417 -22.690 -47.383  1.00  0.00     0.167 HD
HETATM   12  C8  UNL     1      81.255 -22.129 -46.982  1.00  0.00     0.151 A 
HETATM   13  C10 UNL     1      80.325 -20.229 -48.018  1.00  0.00     0.142 A 
HETATM   14  N5  UNL     1      82.445 -21.507 -46.982  1.00  0.00    -0.336 N 
HETATM   15  C9  UNL     1      82.590 -20.267 -47.488  1.00  0.00     0.183 A 
ATOM     16  H5  UNL     1      83.257 -21.984 -46.590  1.00  0.00     0.168 HD
HETATM   17  N6  UNL     1      81.529 -19.626 -48.007  1.00  0.00    -0.336 N 
ATOM     18  H6  UNL     1      81.635 -18.686 -48.391  1.00  0.00     0.168 HD
BRANCH  12  19
HETATM   19  N3  UNL     1      81.147 -23.326 -46.488  1.00  0.00    -0.290 N 
ATOM     20  H3  UNL     1      80.444 -23.528 -45.778  1.00  0.00     0.188 HD
BRANCH  19  21
HETATM   21  N4  UNL     1      82.007 -24.334 -46.939  1.00  0.00    -0.344 N 
ATOM     22  H42 UNL     1      81.905 -24.689 -47.890  1.00  0.00     0.176 HD
ATOM     23  H41 UNL     1      82.722 -24.699 -46.310  1.00  0.00     0.176 HD
ENDBRANCH  19  21
ENDBRANCH  12  19
ENDBRANCH   3   7
BRANCH   2  24
HETATM   24  O3  UNL     1      78.436 -16.977 -47.361  1.00  0.00    -0.388 OA
ATOM     25  H3  UNL     1      79.327 -17.287 -47.248  1.00  0.00     0.210 HD
ENDBRANCH   2  24
BRANCH   1  26
HETATM   26  O2  UNL     1      76.309 -15.921 -48.527  1.00  0.00    -0.311 OA
BRANCH  26  27
HETATM   27  C2  UNL     1      74.905 -15.910 -48.456  1.00  0.00     0.255 C 
HETATM   28  C1  UNL     1      74.153 -16.933 -47.674  1.00  0.00     0.126 C 
HETATM   29  O1  UNL     1      74.284 -15.002 -49.079  1.00  0.00    -0.266 OA
ENDBRANCH  26  27
ENDBRANCH   1  26
BRANCH   5  30
HETATM   30  C12 UNL     1      79.185 -17.452 -52.240  1.00  0.00     0.182 C 
BRANCH  30  31
HETATM   31  O5  UNL     1      80.159 -16.500 -52.077  1.00  0.00    -0.390 OA
ATOM     32  H5  UNL     1      80.025 -15.667 -52.515  1.00  0.00     0.210 HD
ENDBRANCH  30  31
BRANCH  30  33
HETATM   33  C13 UNL     1      78.676 -17.641 -53.635  1.00  0.00     0.205 C 
BRANCH  33  34
HETATM   34  O6  UNL     1      78.382 -16.514 -54.340  1.00  0.00    -0.389 OA
ATOM     35  H6  UNL     1      78.258 -16.614 -55.277  1.00  0.00     0.210 HD
ENDBRANCH  33  34
BRANCH  33  36
HETATM   36  C14 UNL     1      79.592 -18.527 -54.463  1.00  0.00     0.347 C 
BRANCH  36  37
HETATM   37  N7  UNL     1      80.856 -18.705 -53.790  1.00  0.00    -0.051 N 
ATOM     38  H73 UNL     1      81.029 -17.971 -53.103  1.00  0.00     0.277 HD
ATOM     39  H72 UNL     1      80.841 -19.503 -53.156  1.00  0.00     0.277 HD
ATOM     40  H71 UNL     1      81.612 -18.774 -54.471  1.00  0.00     0.277 HD
ENDBRANCH  36  37
BRANCH  36  41
HETATM   41  O7  UNL     1      78.939 -19.752 -54.612  1.00  0.00    -0.368 OA
ATOM     42  H7  UNL     1      78.398 -19.680 -55.389  1.00  0.00     0.212 HD
ENDBRANCH  36  41
ENDBRANCH  33  36
ENDBRANCH  30  33
ENDBRANCH   5  30
BRANCH   6  43
HETATM   43  N8  UNL     1      77.484 -15.218 -50.796  1.00  0.00    -0.350 N 
HETATM   44  C16 UNL     1      78.334 -14.050 -50.739  1.00  0.00     0.243 C 
HETATM   45  O8  UNL     1      79.476 -14.110 -50.213  1.00  0.00    -0.272 OA
ATOM     46  H8  UNL     1      76.561 -15.163 -51.225  1.00  0.00     0.163 HD
BRANCH  44  47
HETATM   47  C17 UNL     1      77.906 -12.750 -51.289  1.00  0.00     0.332 C 
BRANCH  47  48
HETATM   48  N9  UNL     1      77.690 -12.808 -52.716  1.00  0.00    -0.071 N 
ATOM     49  H93 UNL     1      78.121 -13.638 -53.121  1.00  0.00     0.274 HD
ATOM     50  H92 UNL     1      76.714 -13.010 -52.934  1.00  0.00     0.274 HD
ATOM     51  H91 UNL     1      78.006 -11.960 -53.188  1.00  0.00     0.274 HD
ENDBRANCH  47  48
ENDBRANCH  44  47
ENDBRANCH   6  43
TORSDOF 16
ENDMDL
MODEL 3
REMARK VINA RESULT: -7.459848135      7.337      9.401
REMARK  16 active torsions:
REMARK  status: ('A' for Active; 'I' for Inactive)
REMARK    1  A    between atoms: C2_2  and  O2_4 
REMARK    2  A    between atoms: O2_4  and  C3_5 
REMARK    3  A    between atoms: C4_6  and  O3_7 
REMARK    4  A    between atoms: C5_9  and  N1_10 
REMARK    5  A    between atoms: C8_15  and  N3_16 
REMARK    6  A    between atoms: N3_16  and  N4_18 
REMARK    7  A    between atoms: C11_28  and  C12_29 
REMARK    8  A    between atoms: C12_29  and  O5_30 
REMARK    9  A    between atoms: C12_29  and  C13_32 
REMARK   10  A    between atoms: C13_32  and  O6_33 
REMARK   11  A    between atoms: C13_32  and  C14_35 
REMARK   12  A    between atoms: C14_35  and  N7_36 
REMARK   13  A    between atoms: C14_35  and  O7_40 
REMARK   14  A    between atoms: C15_42  and  N8_43 
REMARK       I    between atoms: N8_43  and  C16_45 
REMARK   15  A    between atoms: C16_45  and  C17_47 
REMARK   16  A    between atoms: C17_47  and  N9_48 
ROOT
HETATM    1  C3  UNL     1      79.732 -16.059 -42.455  1.00  0.00     0.190 C 
HETATM    2  C4  UNL     1      80.982 -16.857 -42.852  1.00  0.00     0.199 C 
HETATM    3  C5  UNL     1      81.808 -16.008 -43.815  1.00  0.00     0.262 C 
HETATM    4  O4  UNL     1      81.038 -15.176 -44.565  1.00  0.00    -0.353 OA
HETATM    5  C11 UNL     1      80.315 -14.196 -43.861  1.00  0.00     0.181 C 
HETATM    6  C15 UNL     1      80.237 -14.590 -42.445  1.00  0.00     0.148 C 
ENDROOT
BRANCH   3   7
HETATM    7  N1  UNL     1      82.448 -16.942 -44.724  1.00  0.00    -0.297 N 
HETATM    8  C6  UNL     1      83.765 -17.177 -44.878  1.00  0.00     0.188 A 
HETATM    9  N2  UNL     1      83.985 -18.111 -45.814  1.00  0.00    -0.346 N 
HETATM   10  C7  UNL     1      82.784 -18.490 -46.280  1.00  0.00     0.124 A 
ATOM     11  H2  UNL     1      84.893 -18.466 -46.115  1.00  0.00     0.167 HD
HETATM   12  C8  UNL     1      82.353 -19.388 -47.224  1.00  0.00     0.151 A 
HETATM   13  C10 UNL     1      81.837 -17.761 -45.600  1.00  0.00     0.142 A 
HETATM   14  N5  UNL     1      81.038 -19.528 -47.455  1.00  0.00    -0.336 N 
HETATM   15  C9  UNL     1      80.124 -18.806 -46.778  1.00  0.00     0.183 A 
ATOM     16  H5  UNL     1      80.724 -20.197 -48.158  1.00  0.00     0.168 HD
HETATM   17  N6  UNL     1      80.523 -17.920 -45.849  1.00  0.00    -0.336 N 
ATOM     18  H6  UNL     1      79.834 -17.371 -45.334  1.00  0.00     0.168 HD
BRANCH  12  19
HETATM   19  N3  UNL     1      83.210 -20.099 -47.892  1.00  0.00    -0.290 N 
ATOM     20  H3  UNL     1      83.885 -19.647 -48.509  1.00  0.00     0.188 HD
BRANCH  19  21
HETATM   21  N4  UNL     1      83.197 -21.493 -47.758  1.00  0.00    -0.344 N 
ATOM     22  H42 UNL     1      82.602 -22.049 -48.372  1.00  0.00     0.176 HD
ATOM     23  H41 UNL     1      83.783 -21.931 -47.048  1.00  0.00     0.176 HD
ENDBRANCH  19  21
ENDBRANCH  12  19
ENDBRANCH   3   7
BRANCH   2  24
HETATM   24  O3  UNL     1      81.752 -17.039 -41.707  1.00  0.00    -0.388 OA
ATOM     25  H3  UNL     1      82.637 -17.247 -41.982  1.00  0.00     0.210 HD
ENDBRANCH   2  24
BRANCH   1  26
HETATM   26  O2  UNL     1      79.221 -16.437 -41.224  1.00  0.00    -0.311 OA
BRANCH  26  27
HETATM   27  C2  UNL     1      77.930 -16.986 -41.168  1.00  0.00     0.255 C 
HETATM   28  C1  UNL     1      76.719 -16.128 -41.025  1.00  0.00     0.126 C 
HETATM   29  O1  UNL     1      77.813 -18.243 -41.244  1.00  0.00    -0.266 OA
ENDBRANCH  26  27
ENDBRANCH   1  26
BRANCH   5  30
HETATM   30  C12 UNL     1      80.852 -12.855 -44.211  1.00  0.00     0.182 C 
BRANCH  30  31
HETATM   31  O5  UNL     1      81.169 -12.020 -43.169  1.00  0.00    -0.390 OA
ATOM     32  H5  UNL     1      81.985 -12.190 -42.713  1.00  0.00     0.210 HD
ENDBRANCH  30  31
BRANCH  30  33
HETATM   33  C13 UNL     1      80.264 -12.201 -45.423  1.00  0.00     0.205 C 
BRANCH  33  34
HETATM   34  O6  UNL     1      79.831 -13.025 -46.417  1.00  0.00    -0.389 OA
ATOM     35  H6  UNL     1      79.432 -12.612 -47.174  1.00  0.00     0.210 HD
ENDBRANCH  33  34
BRANCH  33  36
HETATM   36  C14 UNL     1      79.158 -11.223 -45.064  1.00  0.00     0.347 C 
BRANCH  36  37
HETATM   37  N7  UNL     1      78.233 -11.832 -44.138  1.00  0.00    -0.051 N 
ATOM     38  H73 UNL     1      78.202 -12.846 -44.242  1.00  0.00     0.277 HD
ATOM     39  H72 UNL     1      78.573 -11.790 -43.178  1.00  0.00     0.277 HD
ATOM     40  H71 UNL     1      77.309 -11.411 -44.233  1.00  0.00     0.277 HD
ENDBRANCH  36  37
BRANCH  36  41
HETATM   41  O7  UNL     1      79.776 -10.115 -44.483  1.00  0.00    -0.368 OA
ATOM     42  H7  UNL     1      79.255  -9.879 -43.724  1.00  0.00     0.212 HD
ENDBRANCH  36  41
ENDBRANCH  33  36
ENDBRANCH  30  33
ENDBRANCH   5  30
BRANCH   6  43
HETATM   43  N8  UNL     1      79.431 -13.816 -41.560  1.00  0.00    -0.350 N 
HETATM   44  C16 UNL     1      79.928 -13.509 -40.237  1.00  0.00     0.243 C 
HETATM   45  O8  UNL     1      81.059 -13.915 -39.864  1.00  0.00    -0.272 OA
ATOM     46  H8  UNL     1      78.514 -13.482 -41.856  1.00  0.00     0.163 HD
BRANCH  44  47
HETATM   47  C17 UNL     1      79.140 -12.714 -39.277  1.00  0.00     0.332 C 
BRANCH  47  48
HETATM   48  N9  UNL     1      79.636 -12.841 -37.927  1.00  0.00    -0.071 N 
ATOM     49  H93 UNL     1      79.151 -13.583 -37.424  1.00  0.00     0.274 HD
ATOM     50  H92 UNL     1      80.580 -13.229 -37.916  1.00  0.00     0.274 HD
ATOM     51  H91 UNL     1      79.593 -11.959 -37.416  1.00  0.00     0.274 HD
ENDBRANCH  47  48
ENDBRANCH  44  47
ENDBRANCH   6  43
TORSDOF 16
ENDMDL
MODEL 4
REMARK VINA RESULT: -7.451169772      1.048      1.239
REMARK  16 active torsions:
REMARK  status: ('A' for Active; 'I' for Inactive)
REMARK    1  A    between atoms: C2_2  and  O2_4 
REMARK    2  A    between atoms: O2_4  and  C3_5 
REMARK    3  A    between atoms: C4_6  and  O3_7 
REMARK    4  A    between atoms: C5_9  and  N1_10 
REMARK    5  A    between atoms: C8_15  and  N3_16 
REMARK    6  A    between atoms: N3_16  and  N4_18 
REMARK    7  A    between atoms: C11_28  and  C12_29 
REMARK    8  A    between atoms: C12_29  and  O5_30 
REMARK    9  A    between atoms: C12_29  and  C13_32 
REMARK   10  A    between atoms: C13_32  and  O6_33 
REMARK   11  A    between atoms: C13_32  and  C14_35 
REMARK   12  A    between atoms: C14_35  and  N7_36 
REMARK   13  A    between atoms: C14_35  and  O7_40 
REMARK   14  A    between atoms: C15_42  and  N8_43 
REMARK       I    between atoms: N8_43  and  C16_45 
REMARK   15  A    between atoms: C16_45  and  C17_47 
REMARK   16  A    between atoms: C17_47  and  N9_48 
ROOT
HETATM    1  C3  UNL     1      76.206 -15.065 -50.599  1.00  0.00     0.190 C 
HETATM    2  C4  UNL     1      76.050 -16.059 -49.440  1.00  0.00     0.199 C 
HETATM    3  C5  UNL     1      77.004 -17.227 -49.677  1.00  0.00     0.262 C 
HETATM    4  O4  UNL     1      77.216 -17.464 -50.998  1.00  0.00    -0.353 OA
HETATM    5  C11 UNL     1      77.837 -16.430 -51.723  1.00  0.00     0.181 C 
HETATM    6  C15 UNL     1      77.712 -15.176 -50.962  1.00  0.00     0.148 C 
ENDROOT
BRANCH   3   7
HETATM    7  N1  UNL     1      76.348 -18.399 -49.126  1.00  0.00    -0.297 N 
HETATM    8  C6  UNL     1      75.610 -19.317 -49.779  1.00  0.00     0.188 A 
HETATM    9  N2  UNL     1      75.161 -20.262 -48.942  1.00  0.00    -0.346 N 
HETATM   10  C7  UNL     1      75.617 -19.951 -47.717  1.00  0.00     0.124 A 
ATOM     11  H2  UNL     1      74.583 -21.066 -49.187  1.00  0.00     0.167 HD
HETATM   12  C8  UNL     1      75.503 -20.514 -46.472  1.00  0.00     0.151 A 
HETATM   13  C10 UNL     1      76.351 -18.794 -47.840  1.00  0.00     0.142 A 
HETATM   14  N5  UNL     1      76.101 -19.930 -45.421  1.00  0.00    -0.336 N 
HETATM   15  C9  UNL     1      76.817 -18.797 -45.561  1.00  0.00     0.183 A 
ATOM     16  H5  UNL     1      76.012 -20.353 -44.498  1.00  0.00     0.168 HD
HETATM   17  N6  UNL     1      76.943 -18.227 -46.772  1.00  0.00    -0.336 N 
ATOM     18  H6  UNL     1      77.484 -17.370 -46.882  1.00  0.00     0.168 HD
BRANCH  12  19
HETATM   19  N3  UNL     1      74.819 -21.606 -46.305  1.00  0.00    -0.290 N 
ATOM     20  H3  UNL     1      73.912 -21.720 -46.756  1.00  0.00     0.188 HD
BRANCH  19  21
HETATM   21  N4  UNL     1      75.342 -22.626 -45.500  1.00  0.00    -0.344 N 
ATOM     22  H42 UNL     1      76.306 -22.560 -45.172  1.00  0.00     0.176 HD
ATOM     23  H41 UNL     1      74.751 -23.420 -45.254  1.00  0.00     0.176 HD
ENDBRANCH  19  21
ENDBRANCH  12  19
ENDBRANCH   3   7
BRANCH   2  24
HETATM   24  O3  UNL     1      76.466 -15.422 -48.275  1.00  0.00    -0.388 OA
ATOM     25  H3  UNL     1      76.688 -16.094 -47.640  1.00  0.00     0.210 HD
ENDBRANCH   2  24
BRANCH   1  26
HETATM   26  O2  UNL     1      75.855 -13.772 -50.250  1.00  0.00    -0.311 OA
BRANCH  26  27
HETATM   27  C2  UNL     1      74.999 -13.050 -51.099  1.00  0.00     0.255 C 
HETATM   28  C1  UNL     1      73.533 -13.319 -51.145  1.00  0.00     0.126 C 
HETATM   29  O1  UNL     1      75.506 -12.155 -51.834  1.00  0.00    -0.266 OA
ENDBRANCH  26  27
ENDBRANCH   1  26
BRANCH   5  30
HETATM   30  C12 UNL     1      79.184 -16.884 -52.156  1.00  0.00     0.182 C 
BRANCH  30  31
HETATM   31  O5  UNL     1      80.231 -16.026 -51.933  1.00  0.00    -0.390 OA
ATOM     32  H5  UNL     1      80.169 -15.457 -51.175  1.00  0.00     0.210 HD
ENDBRANCH  30  31
BRANCH  30  33
HETATM   33  C13 UNL     1      79.241 -17.677 -53.425  1.00  0.00     0.205 C 
BRANCH  33  34
HETATM   34  O6  UNL     1      79.479 -16.984 -54.573  1.00  0.00    -0.389 OA
ATOM     35  H6  UNL     1      78.743 -16.867 -55.164  1.00  0.00     0.210 HD
ENDBRANCH  33  34
BRANCH  33  36
HETATM   36  C14 UNL     1      80.215 -18.840 -53.330  1.00  0.00     0.347 C 
BRANCH  36  37
HETATM   37  N7  UNL     1      81.072 -18.869 -54.491  1.00  0.00    -0.051 N 
ATOM     38  H73 UNL     1      81.997 -18.489 -54.291  1.00  0.00     0.277 HD
ATOM     39  H72 UNL     1      81.350 -19.818 -54.736  1.00  0.00     0.277 HD
ATOM     40  H71 UNL     1      80.624 -18.389 -55.272  1.00  0.00     0.277 HD
ENDBRANCH  36  37
BRANCH  36  41
HETATM   41  O7  UNL     1      80.967 -18.639 -52.171  1.00  0.00    -0.368 OA
ATOM     42  H7  UNL     1      80.508 -19.084 -51.468  1.00  0.00     0.212 HD
ENDBRANCH  36  41
ENDBRANCH  33  36
ENDBRANCH  30  33
ENDBRANCH   5  30
BRANCH   6  43
HETATM   43  N8  UNL     1      78.148 -13.960 -51.566  1.00  0.00    -0.350 N 
HETATM   44  C16 UNL     1      78.943 -13.033 -50.793  1.00  0.00     0.243 C 
HETATM   45  O8  UNL     1      79.254 -13.290 -49.601  1.00  0.00    -0.272 OA
ATOM     46  H8  UNL     1      77.901 -13.747 -52.532  1.00  0.00     0.163 HD
BRANCH  44  47
HETATM   47  C17 UNL     1      79.421 -11.759 -51.362  1.00  0.00     0.332 C 
BRANCH  47  48
HETATM   48  N9  UNL     1      78.352 -10.991 -51.956  1.00  0.00    -0.071 N 
ATOM     49  H93 UNL     1      77.765 -10.562 -51.241  1.00  0.00     0.274 HD
ATOM     50  H92 UNL     1      78.708 -10.147 -52.402  1.00  0.00     0.274 HD
ATOM     51  H91 UNL     1      77.794 -11.547 -52.605  1.00  0.00     0.274 HD
ENDBRANCH  47  48
ENDBRANCH  44  47
ENDBRANCH   6  43
TORSDOF 16
ENDMDL
MODEL 5
REMARK VINA RESULT: -7.421194546      2.729      4.394
REMARK  16 active torsions:
REMARK  status: ('A' for Active; 'I' for Inactive)
REMARK    1  A    between atoms: C2_2  and  O2_4 
REMARK    2  A    between atoms: O2_4  and  C3_5 
REMARK    3  A    between atoms: C4_6  and  O3_7 
REMARK    4  A    between atoms: C5_9  and  N1_10 
REMARK    5  A    between atoms: C8_15  and  N3_16 
REMARK    6  A    between atoms: N3_16  and  N4_18 
REMARK    7  A    between atoms: C11_28  and  C12_29 
REMARK    8  A    between atoms: C12_29  and  O5_30 
REMARK    9  A    between atoms: C12_29  and  C13_32 
REMARK   10  A    between atoms: C13_32  and  O6_33 
REMARK   11  A    between atoms: C13_32  and  C14_35 
REMARK   12  A    between atoms: C14_35  and  N7_36 
REMARK   13  A    between atoms: C14_35  and  O7_40 
REMARK   14  A    between atoms: C15_42  and  N8_43 
REMARK       I    between atoms: N8_43  and  C16_45 
REMARK   15  A    between atoms: C16_45  and  C17_47 
REMARK   16  A    between atoms: C17_47  and  N9_48 
ROOT
HETATM    1  C3  UNL     1      76.084 -18.539 -49.111  1.00  0.00     0.190 C 
HETATM    2  C4  UNL     1      76.949 -19.193 -48.025  1.00  0.00     0.199 C 
HETATM    3  C5  UNL     1      78.406 -19.145 -48.477  1.00  0.00     0.262 C 
HETATM    4  O4  UNL     1      78.531 -19.195 -49.830  1.00  0.00    -0.353 OA
HETATM    5  C11 UNL     1      77.969 -18.122 -50.546  1.00  0.00     0.181 C 
HETATM    6  C15 UNL     1      77.007 -17.425 -49.678  1.00  0.00     0.148 C 
ENDROOT
BRANCH   3   7
HETATM    7  N1  UNL     1      79.032 -20.341 -47.941  1.00  0.00    -0.297 N 
HETATM    8  C6  UNL     1      78.431 -21.457 -47.489  1.00  0.00     0.188 A 
HETATM    9  N2  UNL     1      79.332 -22.356 -47.067  1.00  0.00    -0.346 N 
HETATM   10  C7  UNL     1      80.545 -21.810 -47.249  1.00  0.00     0.124 A 
ATOM     11  H2  UNL     1      79.134 -23.279 -46.681  1.00  0.00     0.167 HD
HETATM   12  C8  UNL     1      81.834 -22.220 -47.018  1.00  0.00     0.151 A 
HETATM   13  C10 UNL     1      80.351 -20.561 -47.790  1.00  0.00     0.142 A 
HETATM   14  N5  UNL     1      82.856 -21.404 -47.323  1.00  0.00    -0.336 N 
HETATM   15  C9  UNL     1      82.646 -20.183 -47.854  1.00  0.00     0.183 A 
ATOM     16  H5  UNL     1      83.811 -21.715 -47.149  1.00  0.00     0.168 HD
HETATM   17  N6  UNL     1      81.391 -19.760 -48.088  1.00  0.00    -0.336 N 
ATOM     18  H6  UNL     1      81.229 -18.836 -48.490  1.00  0.00     0.168 HD
BRANCH  12  19
HETATM   19  N3  UNL     1      82.069 -23.392 -46.508  1.00  0.00    -0.290 N 
ATOM     20  H3  UNL     1      81.796 -23.599 -45.548  1.00  0.00     0.188 HD
BRANCH  19  21
HETATM   21  N4  UNL     1      82.700 -24.366 -47.290  1.00  0.00    -0.344 N 
ATOM     22  H42 UNL     1      83.511 -24.108 -47.854  1.00  0.00     0.176 HD
ATOM     23  H41 UNL     1      82.340 -25.321 -47.285  1.00  0.00     0.176 HD
ENDBRANCH  19  21
ENDBRANCH  12  19
ENDBRANCH   3   7
BRANCH   2  24
HETATM   24  O3  UNL     1      76.853 -18.412 -46.877  1.00  0.00    -0.388 OA
ATOM     25  H3  UNL     1      75.934 -18.208 -46.741  1.00  0.00     0.210 HD
ENDBRANCH   2  24
BRANCH   1  26
HETATM   26  O2  UNL     1      74.898 -18.024 -48.617  1.00  0.00    -0.311 OA
BRANCH  26  27
HETATM   27  C2  UNL     1      73.847 -18.908 -48.322  1.00  0.00     0.255 C 
HETATM   28  C1  UNL     1      73.016 -18.756 -47.093  1.00  0.00     0.126 C 
HETATM   29  O1  UNL     1      73.615 -19.850 -49.133  1.00  0.00    -0.266 OA
ENDBRANCH  26  27
ENDBRANCH   1  26
BRANCH   5  30
HETATM   30  C12 UNL     1      79.062 -17.344 -51.187  1.00  0.00     0.182 C 
BRANCH  30  31
HETATM   31  O5  UNL     1      78.713 -16.162 -51.789  1.00  0.00    -0.390 OA
ATOM     32  H5  UNL     1      77.862 -16.127 -52.210  1.00  0.00     0.210 HD
ENDBRANCH  30  31
BRANCH  30  33
HETATM   33  C13 UNL     1      80.130 -18.140 -51.869  1.00  0.00     0.205 C 
BRANCH  33  34
HETATM   34  O6  UNL     1      80.881 -18.962 -51.085  1.00  0.00    -0.389 OA
ATOM     35  H6  UNL     1      80.793 -18.856 -50.144  1.00  0.00     0.210 HD
ENDBRANCH  33  34
BRANCH  33  36
HETATM   36  C14 UNL     1      79.589 -18.930 -53.050  1.00  0.00     0.347 C 
BRANCH  36  37
HETATM   37  N7  UNL     1      79.433 -18.068 -54.197  1.00  0.00    -0.051 N 
ATOM     38  H73 UNL     1      78.900 -17.228 -53.973  1.00  0.00     0.277 HD
ATOM     39  H72 UNL     1      80.311 -17.623 -54.462  1.00  0.00     0.277 HD
ATOM     40  H71 UNL     1      79.020 -18.585 -54.973  1.00  0.00     0.277 HD
ENDBRANCH  36  37
BRANCH  36  41
HETATM   41  O7  UNL     1      80.516 -19.939 -53.317  1.00  0.00    -0.368 OA
ATOM     42  H7  UNL     1      80.479 -20.103 -54.251  1.00  0.00     0.212 HD
ENDBRANCH  36  41
ENDBRANCH  33  36
ENDBRANCH  30  33
ENDBRANCH   5  30
BRANCH   6  43
HETATM   43  N8  UNL     1      76.208 -16.383 -50.234  1.00  0.00    -0.350 N 
HETATM   44  C16 UNL     1      76.519 -15.008 -49.916  1.00  0.00     0.243 C 
HETATM   45  O8  UNL     1      77.483 -14.725 -49.158  1.00  0.00    -0.272 OA
ATOM     46  H8  UNL     1      75.427 -16.606 -50.850  1.00  0.00     0.163 HD
BRANCH  44  47
HETATM   47  C17 UNL     1      75.729 -13.888 -50.460  1.00  0.00     0.332 C 
BRANCH  47  48
HETATM   48  N9  UNL     1      74.308 -14.136 -50.386  1.00  0.00    -0.071 N 
ATOM     49  H93 UNL     1      73.775 -13.312 -50.662  1.00  0.00     0.274 HD
ATOM     50  H92 UNL     1      74.007 -14.777 -51.120  1.00  0.00     0.274 HD
ATOM     51  H91 UNL     1      74.023 -14.469 -49.465  1.00  0.00     0.274 HD
ENDBRANCH  47  48
ENDBRANCH  44  47
ENDBRANCH   6  43
TORSDOF 16
ENDMDL
