MODEL 1
REMARK VINA RESULT: -8.786616044      0.000      0.000
REMARK  10 active torsions:
REMARK  status: ('A' for Active; 'I' for Inactive)
REMARK       I    between atoms: C2_2  and  N1_4 
REMARK    1  A    between atoms: N1_4  and  C3_6 
REMARK    2  A    between atoms: C4_7  and  N2_8 
REMARK       I    between atoms: N2_8  and  C5_10 
REMARK    3  A    between atoms: C5_10  and  C6_12 
REMARK    4  A    between atoms: C6_12  and  O3_13 
REMARK    5  A    between atoms: C6_12  and  C7_15 
REMARK    6  A    between atoms: C9_21  and  N5_22 
REMARK    7  A    between atoms: N6_26  and  O5_27 
REMARK    8  A    between atoms: C10_30  and  C11_31 
REMARK    9  A    between atoms: C12_34  and  C13_35 
REMARK   10  A    between atoms: C14_39  and  O12_40 
ROOT
HETATM    1  C3  UNL     1      78.202 -18.713 -48.429  1.00  0.00     0.167 C 
HETATM    2  C4  UNL     1      79.534 -18.921 -49.140  1.00  0.00     0.250 C 
HETATM    3  O6  UNL     1      79.427 -19.762 -50.212  1.00  0.00    -0.342 OA
HETATM    4  C10 UNL     1      79.218 -19.145 -51.429  1.00  0.00     0.298 C 
HETATM    5  C12 UNL     1      77.974 -18.277 -51.405  1.00  0.00     0.295 C 
HETATM    6  O11 UNL     1      78.203 -16.994 -50.981  1.00  0.00    -0.311 OA
HETATM    7  C14 UNL     1      77.459 -16.775 -49.840  1.00  0.00     0.292 C 
HETATM    8  C15 UNL     1      77.160 -18.172 -49.347  1.00  0.00     0.208 C 
HETATM    9  O13 UNL     1      77.098 -18.891 -50.513  1.00  0.00    -0.331 OA
ENDROOT
BRANCH   2  10
HETATM   10  N2  UNL     1      80.492 -19.392 -48.151  1.00  0.00    -0.330 N 
HETATM   11  C5  UNL     1      80.451 -20.671 -47.546  1.00  0.00     0.252 C 
HETATM   12  O2  UNL     1      79.517 -21.456 -47.895  1.00  0.00    -0.270 OA
ATOM     13  H2  UNL     1      81.243 -18.758 -47.876  1.00  0.00     0.165 HD
BRANCH  11  14
HETATM   14  C6  UNL     1      81.441 -21.099 -46.548  1.00  0.00     0.256 C 
BRANCH  14  15
HETATM   15  O3  UNL     1      82.669 -20.491 -46.898  1.00  0.00    -0.382 OA
ATOM     16  H3  UNL     1      83.008 -20.078 -46.113  1.00  0.00     0.210 HD
ENDBRANCH  14  15
BRANCH  14  17
HETATM   17  C7  UNL     1      81.625 -22.579 -46.481  1.00  0.00     0.273 C 
HETATM   18  O4  UNL     1      82.867 -22.892 -47.132  1.00  0.00    -0.298 OA
HETATM   19  C8  UNL     1      83.518 -24.093 -46.866  1.00  0.00     0.231 C 
HETATM   20  N3  UNL     1      84.613 -24.546 -47.644  1.00  0.00    -0.056 NA
HETATM   21  N4  UNL     1      83.139 -24.823 -45.902  1.00  0.00    -0.318 N 
HETATM   22  C9  UNL     1      82.050 -24.462 -45.057  1.00  0.00     0.390 C 
ATOM     23  H4  UNL     1      83.631 -25.699 -45.724  1.00  0.00     0.166 HD
HETATM   24  N6  UNL     1      81.641 -23.087 -45.123  1.00  0.00    -0.118 NA
BRANCH  22  25
HETATM   25  N5  UNL     1      82.471 -24.693 -43.666  1.00  0.00    -0.043 N 
ATOM     26  H53 UNL     1      81.837 -25.308 -43.156  1.00  0.00     0.278 HD
ATOM     27  H52 UNL     1      83.306 -25.275 -43.595  1.00  0.00     0.278 HD
ATOM     28  H51 UNL     1      82.584 -23.781 -43.222  1.00  0.00     0.278 HD
ENDBRANCH  22  25
BRANCH  24  29
HETATM   29  O5  UNL     1      82.377 -22.294 -44.306  1.00  0.00    -0.307 OA
ATOM     30  H5  UNL     1      83.308 -22.439 -44.428  1.00  0.00     0.237 HD
ENDBRANCH  24  29
ENDBRANCH  14  17
ENDBRANCH  11  14
ENDBRANCH   2  10
BRANCH   1  31
HETATM   31  N1  UNL     1      78.424 -17.869 -47.294  1.00  0.00    -0.350 N 
HETATM   32  C2  UNL     1      78.034 -18.200 -45.971  1.00  0.00     0.214 C 
HETATM   33  C1  UNL     1      78.269 -17.317 -44.812  1.00  0.00     0.117 C 
HETATM   34  O1  UNL     1      77.462 -19.292 -45.771  1.00  0.00    -0.274 OA
ATOM     35  H1  UNL     1      78.891 -16.975 -47.447  1.00  0.00     0.163 HD
ENDBRANCH   1  31
BRANCH   4  36
HETATM   36  C11 UNL     1      80.412 -18.438 -51.923  1.00  0.00     0.209 C 
HETATM   37  O7  UNL     1      81.427 -19.073 -52.241  1.00  0.00    -0.646 OA
HETATM   38  O8  UNL     1      80.423 -17.039 -52.041  1.00  0.00    -0.646 OA
ENDBRANCH   4  36
BRANCH   7  39
HETATM   39  O12 UNL     1      76.229 -16.225 -50.260  1.00  0.00    -0.368 OA
ATOM     40  H12 UNL     1      75.841 -15.814 -49.497  1.00  0.00     0.212 HD
ENDBRANCH   7  39
BRANCH   5  41
HETATM   41  C13 UNL     1      77.408 -18.231 -52.778  1.00  0.00     0.242 C 
HETATM   42  O9  UNL     1      77.506 -17.183 -53.453  1.00  0.00    -0.644 OA
HETATM   43  O10 UNL     1      76.771 -19.332 -53.322  1.00  0.00    -0.644 OA
ENDBRANCH   5  41
TORSDOF 10
ENDMDL
MODEL 2
REMARK VINA RESULT: -8.779520981      4.157      9.987
REMARK  10 active torsions:
REMARK  status: ('A' for Active; 'I' for Inactive)
REMARK       I    between atoms: C2_2  and  N1_4 
REMARK    1  A    between atoms: N1_4  and  C3_6 
REMARK    2  A    between atoms: C4_7  and  N2_8 
REMARK       I    between atoms: N2_8  and  C5_10 
REMARK    3  A    between atoms: C5_10  and  C6_12 
REMARK    4  A    between atoms: C6_12  and  O3_13 
REMARK    5  A    between atoms: C6_12  and  C7_15 
REMARK    6  A    between atoms: C9_21  and  N5_22 
REMARK    7  A    between atoms: N6_26  and  O5_27 
REMARK    8  A    between atoms: C10_30  and  C11_31 
REMARK    9  A    between atoms: C12_34  and  C13_35 
REMARK   10  A    between atoms: C14_39  and  O12_40 
ROOT
HETATM    1  C3  UNL     1      81.466 -23.722 -41.968  1.00  0.00     0.167 C 
HETATM    2  C4  UNL     1      81.962 -24.613 -43.100  1.00  0.00     0.250 C 
HETATM    3  O6  UNL     1      83.265 -24.990 -42.933  1.00  0.00    -0.342 OA
HETATM    4  C10 UNL     1      83.453 -26.204 -42.302  1.00  0.00     0.298 C 
HETATM    5  C12 UNL     1      82.794 -26.227 -40.936  1.00  0.00     0.295 C 
HETATM    6  O11 UNL     1      81.485 -26.629 -40.960  1.00  0.00    -0.311 OA
HETATM    7  C14 UNL     1      80.704 -25.596 -40.484  1.00  0.00     0.292 C 
HETATM    8  C15 UNL     1      81.595 -24.386 -40.640  1.00  0.00     0.208 C 
HETATM    9  O13 UNL     1      82.848 -24.916 -40.465  1.00  0.00    -0.331 OA
ENDROOT
BRANCH   2  10
HETATM   10  N2  UNL     1      81.739 -23.901 -44.350  1.00  0.00    -0.330 N 
HETATM   11  C5  UNL     1      82.591 -23.984 -45.478  1.00  0.00     0.252 C 
HETATM   12  O2  UNL     1      83.612 -24.733 -45.389  1.00  0.00    -0.270 OA
ATOM     13  H2  UNL     1      80.916 -23.303 -44.418  1.00  0.00     0.165 HD
BRANCH  11  14
HETATM   14  C6  UNL     1      82.325 -23.243 -46.718  1.00  0.00     0.256 C 
BRANCH  14  15
HETATM   15  O3  UNL     1      83.580 -22.959 -47.306  1.00  0.00    -0.382 OA
ATOM     16  H3  UNL     1      83.454 -22.216 -47.884  1.00  0.00     0.210 HD
ENDBRANCH  14  15
BRANCH  14  17
HETATM   17  C7  UNL     1      81.579 -21.968 -46.508  1.00  0.00     0.273 C 
HETATM   18  O4  UNL     1      81.621 -21.232 -47.741  1.00  0.00    -0.298 OA
HETATM   19  C8  UNL     1      80.684 -20.237 -47.999  1.00  0.00     0.231 C 
HETATM   20  N3  UNL     1      80.819 -19.337 -49.086  1.00  0.00    -0.056 NA
HETATM   21  N4  UNL     1      79.666 -20.112 -47.255  1.00  0.00    -0.318 N 
HETATM   22  C9  UNL     1      79.433 -20.964 -46.137  1.00  0.00     0.390 C 
ATOM     23  H4  UNL     1      78.990 -19.376 -47.463  1.00  0.00     0.166 HD
HETATM   24  N6  UNL     1      80.202 -22.176 -46.108  1.00  0.00    -0.118 NA
BRANCH  22  25
HETATM   25  N5  UNL     1      78.021 -21.380 -46.182  1.00  0.00    -0.043 N 
ATOM     26  H53 UNL     1      77.382 -20.649 -45.872  1.00  0.00     0.278 HD
ATOM     27  H52 UNL     1      77.664 -21.474 -47.133  1.00  0.00     0.278 HD
ATOM     28  H51 UNL     1      77.936 -22.239 -45.639  1.00  0.00     0.278 HD
ENDBRANCH  22  25
BRANCH  24  29
HETATM   29  O5  UNL     1      79.621 -23.168 -46.828  1.00  0.00    -0.307 OA
ATOM     30  H5  UNL     1      78.686 -23.028 -46.919  1.00  0.00     0.237 HD
ENDBRANCH  24  29
ENDBRANCH  14  17
ENDBRANCH  11  14
ENDBRANCH   2  10
BRANCH   1  31
HETATM   31  N1  UNL     1      80.119 -23.334 -42.257  1.00  0.00    -0.350 N 
HETATM   32  C2  UNL     1      79.662 -21.991 -42.254  1.00  0.00     0.214 C 
HETATM   33  C1  UNL     1      78.268 -21.608 -42.553  1.00  0.00     0.117 C 
HETATM   34  O1  UNL     1      80.475 -21.083 -41.985  1.00  0.00    -0.274 OA
ATOM     35  H1  UNL     1      79.446 -24.068 -42.478  1.00  0.00     0.163 HD
ENDBRANCH   1  31
BRANCH   4  36
HETATM   36  C11 UNL     1      83.080 -27.351 -43.148  1.00  0.00     0.209 C 
HETATM   37  O7  UNL     1      81.969 -27.390 -43.693  1.00  0.00    -0.646 OA
HETATM   38  O8  UNL     1      83.973 -28.416 -43.350  1.00  0.00    -0.646 OA
ENDBRANCH   4  36
BRANCH   7  39
HETATM   39  O12 UNL     1      80.556 -25.811 -39.096  1.00  0.00    -0.368 OA
ATOM     40  H12 UNL     1      79.628 -25.735 -38.907  1.00  0.00     0.212 HD
ENDBRANCH   7  39
BRANCH   5  41
HETATM   41  C13 UNL     1      83.561 -27.150 -40.060  1.00  0.00     0.242 C 
HETATM   42  O9  UNL     1      83.004 -27.664 -39.066  1.00  0.00    -0.644 OA
HETATM   43  O10 UNL     1      84.884 -27.451 -40.329  1.00  0.00    -0.644 OA
ENDBRANCH   5  41
TORSDOF 10
ENDMDL
MODEL 3
REMARK VINA RESULT: -8.697197021      1.836      2.469
REMARK  10 active torsions:
REMARK  status: ('A' for Active; 'I' for Inactive)
REMARK       I    between atoms: C2_2  and  N1_4 
REMARK    1  A    between atoms: N1_4  and  C3_6 
REMARK    2  A    between atoms: C4_7  and  N2_8 
REMARK       I    between atoms: N2_8  and  C5_10 
REMARK    3  A    between atoms: C5_10  and  C6_12 
REMARK    4  A    between atoms: C6_12  and  O3_13 
REMARK    5  A    between atoms: C6_12  and  C7_15 
REMARK    6  A    between atoms: C9_21  and  N5_22 
REMARK    7  A    between atoms: N6_26  and  O5_27 
REMARK    8  A    between atoms: C10_30  and  C11_31 
REMARK    9  A    between atoms: C12_34  and  C13_35 
REMARK   10  A    between atoms: C14_39  and  O12_40 
ROOT
HETATM    1  C3  UNL     1      76.492 -19.826 -49.069  1.00  0.00     0.167 C 
HETATM    2  C4  UNL     1      77.949 -20.154 -49.369  1.00  0.00     0.250 C 
HETATM    3  O6  UNL     1      78.169 -20.384 -50.698  1.00  0.00    -0.342 OA
HETATM    4  C10 UNL     1      78.582 -19.288 -51.428  1.00  0.00     0.298 C 
HETATM    5  C12 UNL     1      77.589 -18.146 -51.322  1.00  0.00     0.295 C 
HETATM    6  O11 UNL     1      77.814 -17.314 -50.258  1.00  0.00    -0.311 OA
HETATM    7  C14 UNL     1      76.707 -17.352 -49.435  1.00  0.00     0.292 C 
HETATM    8  C15 UNL     1      76.020 -18.638 -49.836  1.00  0.00     0.208 C 
HETATM    9  O13 UNL     1      76.339 -18.741 -51.166  1.00  0.00    -0.331 OA
ENDROOT
BRANCH   2  10
HETATM   10  N2  UNL     1      78.327 -21.284 -48.533  1.00  0.00    -0.330 N 
HETATM   11  C5  UNL     1      79.066 -21.174 -47.330  1.00  0.00     0.252 C 
HETATM   12  O2  UNL     1      79.417 -20.011 -46.960  1.00  0.00    -0.270 OA
ATOM     13  H2  UNL     1      78.041 -22.215 -48.833  1.00  0.00     0.165 HD
BRANCH  11  14
HETATM   14  C6  UNL     1      79.427 -22.346 -46.521  1.00  0.00     0.256 C 
BRANCH  14  15
HETATM   15  O3  UNL     1      78.678 -22.267 -45.324  1.00  0.00    -0.382 OA
ATOM     16  H3  UNL     1      79.297 -22.317 -44.605  1.00  0.00     0.210 HD
ENDBRANCH  14  15
BRANCH  14  17
HETATM   17  C7  UNL     1      80.880 -22.423 -46.188  1.00  0.00     0.273 C 
HETATM   18  O4  UNL     1      80.990 -22.808 -44.809  1.00  0.00    -0.298 OA
HETATM   19  C8  UNL     1      82.167 -23.372 -44.327  1.00  0.00     0.231 C 
HETATM   20  N3  UNL     1      82.405 -23.554 -42.942  1.00  0.00    -0.056 NA
HETATM   21  N4  UNL     1      83.072 -23.744 -45.133  1.00  0.00    -0.318 N 
HETATM   22  C9  UNL     1      82.935 -23.607 -46.545  1.00  0.00     0.390 C 
ATOM     23  H4  UNL     1      83.927 -24.155 -44.759  1.00  0.00     0.166 HD
HETATM   24  N6  UNL     1      81.602 -23.365 -47.020  1.00  0.00    -0.118 NA
BRANCH  22  25
HETATM   25  N5  UNL     1      83.362 -24.876 -47.157  1.00  0.00    -0.043 N 
ATOM     26  H53 UNL     1      84.105 -24.755 -47.844  1.00  0.00     0.278 HD
ATOM     27  H52 UNL     1      83.873 -25.477 -46.511  1.00  0.00     0.278 HD
ATOM     28  H51 UNL     1      82.532 -25.325 -47.545  1.00  0.00     0.278 HD
ENDBRANCH  22  25
BRANCH  24  29
HETATM   29  O5  UNL     1      80.904 -24.515 -47.188  1.00  0.00    -0.307 OA
ATOM     30  H5  UNL     1      81.410 -25.272 -46.917  1.00  0.00     0.237 HD
ENDBRANCH  24  29
ENDBRANCH  14  17
ENDBRANCH  11  14
ENDBRANCH   2  10
BRANCH   1  31
HETATM   31  N1  UNL     1      76.349 -19.657 -47.655  1.00  0.00    -0.350 N 
HETATM   32  C2  UNL     1      75.359 -20.307 -46.874  1.00  0.00     0.214 C 
HETATM   33  C1  UNL     1      75.225 -20.120 -45.416  1.00  0.00     0.117 C 
HETATM   34  O1  UNL     1      74.559 -21.077 -47.444  1.00  0.00    -0.274 OA
ATOM     35  H1  UNL     1      76.999 -19.030 -47.180  1.00  0.00     0.163 HD
ENDBRANCH   1  31
BRANCH   4  36
HETATM   36  C11 UNL     1      79.965 -18.886 -51.124  1.00  0.00     0.209 C 
HETATM   37  O7  UNL     1      80.500 -19.241 -50.063  1.00  0.00    -0.646 OA
HETATM   38  O8  UNL     1      80.701 -18.098 -52.024  1.00  0.00    -0.646 OA
ENDBRANCH   4  36
BRANCH   7  39
HETATM   39  O12 UNL     1      75.862 -16.299 -49.848  1.00  0.00    -0.368 OA
ATOM     40  H12 UNL     1      76.317 -15.491 -49.645  1.00  0.00     0.212 HD
ENDBRANCH   7  39
BRANCH   5  41
HETATM   41  C13 UNL     1      77.657 -17.347 -52.574  1.00  0.00     0.242 C 
HETATM   42  O9  UNL     1      77.497 -16.108 -52.526  1.00  0.00    -0.644 OA
HETATM   43  O10 UNL     1      77.895 -17.955 -53.794  1.00  0.00    -0.644 OA
ENDBRANCH   5  41
TORSDOF 10
ENDMDL
MODEL 4
REMARK VINA RESULT: -8.578939774      1.921      2.184
REMARK  10 active torsions:
REMARK  status: ('A' for Active; 'I' for Inactive)
REMARK       I    between atoms: C2_2  and  N1_4 
REMARK    1  A    between atoms: N1_4  and  C3_6 
REMARK    2  A    between atoms: C4_7  and  N2_8 
REMARK       I    between atoms: N2_8  and  C5_10 
REMARK    3  A    between atoms: C5_10  and  C6_12 
REMARK    4  A    between atoms: C6_12  and  O3_13 
REMARK    5  A    between atoms: C6_12  and  C7_15 
REMARK    6  A    between atoms: C9_21  and  N5_22 
REMARK    7  A    between atoms: N6_26  and  O5_27 
REMARK    8  A    between atoms: C10_30  and  C11_31 
REMARK    9  A    between atoms: C12_34  and  C13_35 
REMARK   10  A    between atoms: C14_39  and  O12_40 
ROOT
HETATM    1  C3  UNL     1      76.988 -21.290 -48.529  1.00  0.00     0.167 C 
HETATM    2  C4  UNL     1      78.346 -20.676 -48.846  1.00  0.00     0.250 C 
HETATM    3  O6  UNL     1      78.791 -21.011 -50.093  1.00  0.00    -0.342 OA
HETATM    4  C10 UNL     1      78.488 -20.107 -51.092  1.00  0.00     0.298 C 
HETATM    5  C12 UNL     1      76.993 -19.869 -51.190  1.00  0.00     0.295 C 
HETATM    6  O11 UNL     1      76.536 -18.869 -50.373  1.00  0.00    -0.311 OA
HETATM    7  C14 UNL     1      75.628 -19.412 -49.488  1.00  0.00     0.292 C 
HETATM    8  C15 UNL     1      75.950 -20.888 -49.520  1.00  0.00     0.208 C 
HETATM    9  O13 UNL     1      76.391 -21.067 -50.807  1.00  0.00    -0.331 OA
ENDROOT
BRANCH   2  10
HETATM   10  N2  UNL     1      79.268 -21.079 -47.794  1.00  0.00    -0.330 N 
HETATM   11  C5  UNL     1      80.574 -20.556 -47.633  1.00  0.00     0.252 C 
HETATM   12  O2  UNL     1      80.959 -19.675 -48.463  1.00  0.00    -0.270 OA
ATOM     13  H2  UNL     1      78.952 -21.785 -47.128  1.00  0.00     0.165 HD
BRANCH  11  14
HETATM   14  C6  UNL     1      81.469 -20.998 -46.556  1.00  0.00     0.256 C 
BRANCH  14  15
HETATM   15  O3  UNL     1      82.733 -20.413 -46.805  1.00  0.00    -0.382 OA
ATOM     16  H3  UNL     1      83.381 -20.959 -46.375  1.00  0.00     0.210 HD
ENDBRANCH  14  15
BRANCH  14  17
HETATM   17  C7  UNL     1      81.621 -22.480 -46.470  1.00  0.00     0.273 C 
HETATM   18  O4  UNL     1      82.856 -22.829 -47.116  1.00  0.00    -0.298 OA
HETATM   19  C8  UNL     1      83.479 -24.040 -46.834  1.00  0.00     0.231 C 
HETATM   20  N3  UNL     1      84.565 -24.527 -47.605  1.00  0.00    -0.056 NA
HETATM   21  N4  UNL     1      83.084 -24.749 -45.861  1.00  0.00    -0.318 N 
HETATM   22  C9  UNL     1      82.003 -24.353 -45.022  1.00  0.00     0.390 C 
ATOM     23  H4  UNL     1      83.556 -25.634 -45.672  1.00  0.00     0.166 HD
HETATM   24  N6  UNL     1      81.624 -22.971 -45.106  1.00  0.00    -0.118 NA
BRANCH  22  25
HETATM   25  N5  UNL     1      82.418 -24.576 -43.627  1.00  0.00    -0.043 N 
ATOM     26  H53 UNL     1      82.776 -25.517 -43.465  1.00  0.00     0.278 HD
ATOM     27  H52 UNL     1      83.266 -24.067 -43.378  1.00  0.00     0.278 HD
ATOM     28  H51 UNL     1      81.625 -24.344 -43.029  1.00  0.00     0.278 HD
ENDBRANCH  22  25
BRANCH  24  29
HETATM   29  O5  UNL     1      82.377 -22.184 -44.298  1.00  0.00    -0.307 OA
ATOM     30  H5  UNL     1      81.850 -21.780 -43.619  1.00  0.00     0.237 HD
ENDBRANCH  24  29
ENDBRANCH  14  17
ENDBRANCH  11  14
ENDBRANCH   2  10
BRANCH   1  31
HETATM   31  N1  UNL     1      76.632 -20.933 -47.189  1.00  0.00    -0.350 N 
HETATM   32  C2  UNL     1      76.310 -21.872 -46.176  1.00  0.00     0.214 C 
HETATM   33  C1  UNL     1      75.944 -21.486 -44.799  1.00  0.00     0.117 C 
HETATM   34  O1  UNL     1      76.335 -23.088 -46.458  1.00  0.00    -0.274 OA
ATOM     35  H1  UNL     1      76.610 -19.942 -46.948  1.00  0.00     0.163 HD
ENDBRANCH   1  31
BRANCH   4  36
HETATM   36  C11 UNL     1      79.269 -18.862 -50.992  1.00  0.00     0.209 C 
HETATM   37  O7  UNL     1      80.361 -18.762 -51.570  1.00  0.00    -0.646 OA
HETATM   38  O8  UNL     1      78.795 -17.772 -50.245  1.00  0.00    -0.646 OA
ENDBRANCH   4  36
BRANCH   7  39
HETATM   39  O12 UNL     1      74.353 -19.265 -50.078  1.00  0.00    -0.368 OA
ATOM     40  H12 UNL     1      73.924 -20.109 -50.008  1.00  0.00     0.212 HD
ENDBRANCH   7  39
BRANCH   5  41
HETATM   41  C13 UNL     1      76.664 -19.523 -52.598  1.00  0.00     0.242 C 
HETATM   42  O9  UNL     1      75.672 -18.803 -52.841  1.00  0.00    -0.644 OA
HETATM   43  O10 UNL     1      77.440 -19.987 -53.644  1.00  0.00    -0.644 OA
ENDBRANCH   5  41
TORSDOF 10
ENDMDL
MODEL 5
REMARK VINA RESULT: -8.560639415      1.894      2.518
REMARK  10 active torsions:
REMARK  status: ('A' for Active; 'I' for Inactive)
REMARK       I    between atoms: C2_2  and  N1_4 
REMARK    1  A    between atoms: N1_4  and  C3_6 
REMARK    2  A    between atoms: C4_7  and  N2_8 
REMARK       I    between atoms: N2_8  and  C5_10 
REMARK    3  A    between atoms: C5_10  and  C6_12 
REMARK    4  A    between atoms: C6_12  and  O3_13 
REMARK    5  A    between atoms: C6_12  and  C7_15 
REMARK    6  A    between atoms: C9_21  and  N5_22 
REMARK    7  A    between atoms: N6_26  and  O5_27 
REMARK    8  A    between atoms: C10_30  and  C11_31 
REMARK    9  A    between atoms: C12_34  and  C13_35 
REMARK   10  A    between atoms: C14_39  and  O12_40 
ROOT
HETATM    1  C3  UNL     1      76.169 -19.972 -48.206  1.00  0.00     0.167 C 
HETATM    2  C4  UNL     1      77.449 -20.563 -48.783  1.00  0.00     0.250 C 
HETATM    3  O6  UNL     1      77.263 -21.095 -50.028  1.00  0.00    -0.342 OA
HETATM    4  C10 UNL     1      77.539 -20.248 -51.081  1.00  0.00     0.298 C 
HETATM    5  C12 UNL     1      76.715 -18.977 -51.002  1.00  0.00     0.295 C 
HETATM    6  O11 UNL     1      77.300 -17.983 -50.263  1.00  0.00    -0.311 OA
HETATM    7  C14 UNL     1      76.474 -17.687 -49.199  1.00  0.00     0.292 C 
HETATM    8  C15 UNL     1      75.598 -18.914 -49.088  1.00  0.00     0.208 C 
HETATM    9  O13 UNL     1      75.516 -19.338 -50.390  1.00  0.00    -0.331 OA
ENDROOT
BRANCH   2  10
HETATM   10  N2  UNL     1      77.955 -21.536 -47.826  1.00  0.00    -0.330 N 
HETATM   11  C5  UNL     1      79.011 -21.286 -46.916  1.00  0.00     0.252 C 
HETATM   12  O2  UNL     1      79.545 -20.135 -46.939  1.00  0.00    -0.270 OA
ATOM     13  H2  UNL     1      77.520 -22.459 -47.810  1.00  0.00     0.165 HD
BRANCH  11  14
HETATM   14  C6  UNL     1      79.489 -22.303 -45.970  1.00  0.00     0.256 C 
BRANCH  14  15
HETATM   15  O3  UNL     1      79.000 -21.941 -44.693  1.00  0.00    -0.382 OA
ATOM     16  H3  UNL     1      78.080 -22.177 -44.671  1.00  0.00     0.210 HD
ENDBRANCH  14  15
BRANCH  14  17
HETATM   17  C7  UNL     1      80.976 -22.420 -45.913  1.00  0.00     0.273 C 
HETATM   18  O4  UNL     1      81.323 -22.913 -44.610  1.00  0.00    -0.298 OA
HETATM   19  C8  UNL     1      82.554 -23.524 -44.394  1.00  0.00     0.231 C 
HETATM   20  N3  UNL     1      83.033 -23.817 -43.092  1.00  0.00    -0.056 NA
HETATM   21  N4  UNL     1      83.290 -23.840 -45.376  1.00  0.00    -0.318 N 
HETATM   22  C9  UNL     1      82.905 -23.591 -46.725  1.00  0.00     0.390 C 
ATOM     23  H4  UNL     1      84.189 -24.288 -45.195  1.00  0.00     0.166 HD
HETATM   24  N6  UNL     1      81.514 -23.301 -46.931  1.00  0.00    -0.118 NA
BRANCH  22  25
HETATM   25  N5  UNL     1      83.184 -24.812 -47.499  1.00  0.00    -0.043 N 
ATOM     26  H53 UNL     1      84.031 -24.740 -48.061  1.00  0.00     0.278 HD
ATOM     27  H52 UNL     1      83.478 -25.595 -46.914  1.00  0.00     0.278 HD
ATOM     28  H51 UNL     1      82.354 -25.021 -48.054  1.00  0.00     0.278 HD
ENDBRANCH  22  25
BRANCH  24  29
HETATM   29  O5  UNL     1      80.770 -24.427 -47.056  1.00  0.00    -0.307 OA
ATOM     30  H5  UNL     1      79.844 -24.246 -46.942  1.00  0.00     0.237 HD
ENDBRANCH  24  29
ENDBRANCH  14  17
ENDBRANCH  11  14
ENDBRANCH   2  10
BRANCH   1  31
HETATM   31  N1  UNL     1      76.448 -19.492 -46.887  1.00  0.00    -0.350 N 
HETATM   32  C2  UNL     1      75.669 -19.811 -45.745  1.00  0.00     0.214 C 
HETATM   33  C1  UNL     1      75.970 -19.306 -44.391  1.00  0.00     0.117 C 
HETATM   34  O1  UNL     1      74.676 -20.555 -45.887  1.00  0.00    -0.274 OA
ATOM     35  H1  UNL     1      77.257 -18.884 -46.760  1.00  0.00     0.163 HD
ENDBRANCH   1  31
BRANCH   4  36
HETATM   36  C11 UNL     1      78.981 -19.997 -51.250  1.00  0.00     0.209 C 
HETATM   37  O7  UNL     1      79.531 -20.220 -52.337  1.00  0.00    -0.646 OA
HETATM   38  O8  UNL     1      79.754 -19.502 -50.187  1.00  0.00    -0.646 OA
ENDBRANCH   4  36
BRANCH   7  39
HETATM   39  O12 UNL     1      75.635 -16.632 -49.621  1.00  0.00    -0.368 OA
ATOM     40  H12 UNL     1      75.099 -16.396 -48.874  1.00  0.00     0.212 HD
ENDBRANCH   7  39
BRANCH   5  41
HETATM   41  C13 UNL     1      76.490 -18.475 -52.383  1.00  0.00     0.242 C 
HETATM   42  O9  UNL     1      76.703 -17.272 -52.646  1.00  0.00    -0.644 OA
HETATM   43  O10 UNL     1      76.047 -19.322 -53.383  1.00  0.00    -0.644 OA
ENDBRANCH   5  41
TORSDOF 10
ENDMDL
