MODEL 1
REMARK VINA RESULT: -7.981648829      0.000      0.000
REMARK  6 active torsions:
REMARK  status: ('A' for Active; 'I' for Inactive)
REMARK    1  A    between atoms: N4_8  and  N5_9 
REMARK       I    between atoms: N5_9  and  C4_11 
REMARK    2  A    between atoms: C4_11  and  C5_13 
REMARK    3  A    between atoms: C5_13  and  C6_15 
REMARK    4  A    between atoms: C6_15  and  C7_16 
REMARK    5  A    between atoms: C9_20  and  N7_21 
REMARK    6  A    between atoms: C10_26  and  N9_27 
ROOT
HETATM    1  C1  UNL     1     -30.944  17.488   8.076  1.00  0.00     0.163 C 
HETATM    2  N1  UNL     1     -30.335  16.187   8.275  1.00  0.00    -0.277 N 
HETATM    3  C2  UNL     1     -29.135  15.755   7.860  1.00  0.00     0.210 A 
HETATM    4  C3  UNL     1     -28.195  16.556   7.114  1.00  0.00     0.138 C 
HETATM    5  N2  UNL     1     -27.433  17.202   6.539  1.00  0.00    -0.188 NA
HETATM    6  N3  UNL     1     -28.992  14.507   8.267  1.00  0.00    -0.250 N 
ATOM      7  H3  UNL     1     -28.175  13.921   8.096  1.00  0.00     0.191 HD
HETATM    8  N4  UNL     1     -30.078  14.133   8.935  1.00  0.00    -0.136 N 
HETATM    9  C11 UNL     1     -30.923  15.174   8.948  1.00  0.00     0.365 A 
HETATM   10  O3  UNL     1     -32.083  15.269   9.476  1.00  0.00    -0.243 OA
ENDROOT
BRANCH   8  11
HETATM   11  N5  UNL     1     -30.325  12.886   9.532  1.00  0.00    -0.237 N 
HETATM   12  C4  UNL     1     -29.302  12.368  10.371  1.00  0.00     0.307 C 
HETATM   13  O1  UNL     1     -28.216  13.016  10.542  1.00  0.00    -0.263 OA
ATOM     14  H5  UNL     1     -31.194  12.378   9.371  1.00  0.00     0.192 HD
BRANCH  12  15
HETATM   15  C5  UNL     1     -29.539  11.066  11.033  1.00  0.00     0.222 C 
HETATM   16  O2  UNL     1     -28.574  10.295  11.156  1.00  0.00    -0.287 OA
BRANCH  15  17
HETATM   17  C6  UNL     1     -30.924  10.862  11.469  1.00  0.00     0.133 C 
BRANCH  17  18
HETATM   18  C7  UNL     1     -31.390  11.505  12.678  1.00  0.00     0.009 A 
HETATM   19  C8  UNL     1     -30.929  11.323  13.958  1.00  0.00     0.117 A 
HETATM   20  N6  UNL     1     -31.513  11.977  15.002  1.00  0.00    -0.202 N 
HETATM   21  C9  UNL     1     -32.551  12.821  14.859  1.00  0.00     0.677 A 
ATOM     22  H6  UNL     1     -31.145  11.818  15.940  1.00  0.00     0.183 HD
HETATM   23  N8  UNL     1     -33.016  13.011  13.611  1.00  0.00    -0.177 N 
HETATM   24  C10 UNL     1     -32.479  12.398  12.570  1.00  0.00     0.122 A 
ATOM     25  H8  UNL     1     -33.802  13.644  13.464  1.00  0.00     0.185 HD
BRANCH  21  26
HETATM   26  N7  UNL     1     -33.123  13.424  15.874  1.00  0.00    -0.234 N 
ATOM     27  H72 UNL     1     -34.140  13.474  15.931  1.00  0.00     0.174 HD
ATOM     28  H71 UNL     1     -32.595  13.840  16.641  1.00  0.00     0.174 HD
ENDBRANCH  21  26
BRANCH  24  29
HETATM   29  N9  UNL     1     -32.990  12.645  11.411  1.00  0.00    -0.385 N 
ATOM     30  H92 UNL     1     -32.905  11.919  10.700  1.00  0.00     0.157 HD
ATOM     31  H91 UNL     1     -33.454  13.538  11.244  1.00  0.00     0.157 HD
ENDBRANCH  24  29
ENDBRANCH  17  18
ENDBRANCH  15  17
ENDBRANCH  12  15
ENDBRANCH   8  11
TORSDOF 6
ENDMDL
MODEL 2
REMARK VINA RESULT: -7.918359710      1.689      2.833
REMARK  6 active torsions:
REMARK  status: ('A' for Active; 'I' for Inactive)
REMARK    1  A    between atoms: N4_8  and  N5_9 
REMARK       I    between atoms: N5_9  and  C4_11 
REMARK    2  A    between atoms: C4_11  and  C5_13 
REMARK    3  A    between atoms: C5_13  and  C6_15 
REMARK    4  A    between atoms: C6_15  and  C7_16 
REMARK    5  A    between atoms: C9_20  and  N7_21 
REMARK    6  A    between atoms: C10_26  and  N9_27 
ROOT
HETATM    1  C1  UNL     1     -26.472  15.614   9.095  1.00  0.00     0.163 C 
HETATM    2  N1  UNL     1     -27.818  15.075   9.096  1.00  0.00    -0.277 N 
HETATM    3  C2  UNL     1     -28.876  15.468   8.370  1.00  0.00     0.210 A 
HETATM    4  C3  UNL     1     -28.848  16.545   7.409  1.00  0.00     0.138 C 
HETATM    5  N2  UNL     1     -28.822  17.388   6.623  1.00  0.00    -0.188 NA
HETATM    6  N3  UNL     1     -29.896  14.695   8.691  1.00  0.00    -0.250 N 
ATOM      7  H3  UNL     1     -30.834  14.763   8.296  1.00  0.00     0.191 HD
HETATM    8  N4  UNL     1     -29.512  13.815   9.609  1.00  0.00    -0.136 N 
HETATM    9  C11 UNL     1     -28.216  14.042   9.869  1.00  0.00     0.365 A 
HETATM   10  O3  UNL     1     -27.435  13.437  10.680  1.00  0.00    -0.243 OA
ENDROOT
BRANCH   8  11
HETATM   11  N5  UNL     1     -30.294  12.816  10.214  1.00  0.00    -0.237 N 
HETATM   12  C4  UNL     1     -31.609  13.187  10.603  1.00  0.00     0.307 C 
HETATM   13  O1  UNL     1     -32.027  14.378  10.417  1.00  0.00    -0.263 OA
ATOM     14  H5  UNL     1     -29.935  11.874  10.366  1.00  0.00     0.192 HD
BRANCH  12  15
HETATM   15  C5  UNL     1     -32.466  12.153  11.223  1.00  0.00     0.222 C 
HETATM   16  O2  UNL     1     -32.678  11.113  10.578  1.00  0.00    -0.287 OA
BRANCH  15  17
HETATM   17  C6  UNL     1     -32.959  12.507  12.558  1.00  0.00     0.133 C 
BRANCH  17  18
HETATM   18  C7  UNL     1     -32.225  12.071  13.725  1.00  0.00     0.009 A 
HETATM   19  C8  UNL     1     -31.449  10.946  13.858  1.00  0.00     0.117 A 
HETATM   20  N6  UNL     1     -30.857  10.653  15.051  1.00  0.00    -0.202 N 
HETATM   21  C9  UNL     1     -30.985  11.419  16.148  1.00  0.00     0.677 A 
ATOM     22  H6  UNL     1     -30.288   9.809  15.114  1.00  0.00     0.183 HD
HETATM   23  N8  UNL     1     -31.741  12.527  16.036  1.00  0.00    -0.177 N 
HETATM   24  C10 UNL     1     -32.333  12.849  14.899  1.00  0.00     0.122 A 
ATOM     25  H8  UNL     1     -31.861  13.132  16.848  1.00  0.00     0.185 HD
BRANCH  21  26
HETATM   26  N7  UNL     1     -30.433  11.114  17.299  1.00  0.00    -0.234 N 
ATOM     27  H72 UNL     1     -29.434  10.916  17.350  1.00  0.00     0.174 HD
ATOM     28  H71 UNL     1     -30.957  11.082  18.174  1.00  0.00     0.174 HD
ENDBRANCH  21  26
BRANCH  24  29
HETATM   29  N9  UNL     1     -33.037  13.931  14.886  1.00  0.00    -0.385 N 
ATOM     30  H92 UNL     1     -33.793  13.987  14.204  1.00  0.00     0.157 HD
ATOM     31  H91 UNL     1     -32.821  14.681  15.542  1.00  0.00     0.157 HD
ENDBRANCH  24  29
ENDBRANCH  17  18
ENDBRANCH  15  17
ENDBRANCH  12  15
ENDBRANCH   8  11
TORSDOF 6
ENDMDL
MODEL 3
REMARK VINA RESULT: -7.899885810      1.547      1.817
REMARK  6 active torsions:
REMARK  status: ('A' for Active; 'I' for Inactive)
REMARK    1  A    between atoms: N4_8  and  N5_9 
REMARK       I    between atoms: N5_9  and  C4_11 
REMARK    2  A    between atoms: C4_11  and  C5_13 
REMARK    3  A    between atoms: C5_13  and  C6_15 
REMARK    4  A    between atoms: C6_15  and  C7_16 
REMARK    5  A    between atoms: C9_20  and  N7_21 
REMARK    6  A    between atoms: C10_26  and  N9_27 
ROOT
HETATM    1  C1  UNL     1     -31.305  16.246   8.400  1.00  0.00     0.163 C 
HETATM    2  N1  UNL     1     -30.449  15.235   8.992  1.00  0.00    -0.277 N 
HETATM    3  C2  UNL     1     -29.130  15.056   8.825  1.00  0.00     0.210 A 
HETATM    4  C3  UNL     1     -28.295  15.886   7.990  1.00  0.00     0.138 C 
HETATM    5  N2  UNL     1     -27.622  16.563   7.343  1.00  0.00    -0.188 NA
HETATM    6  N3  UNL     1     -28.768  14.019   9.557  1.00  0.00    -0.250 N 
ATOM      7  H3  UNL     1     -27.820  13.649   9.626  1.00  0.00     0.191 HD
HETATM    8  N4  UNL     1     -29.829  13.532  10.189  1.00  0.00    -0.136 N 
HETATM    9  C11 UNL     1     -30.884  14.284   9.845  1.00  0.00     0.365 A 
HETATM   10  O3  UNL     1     -32.104  14.184  10.214  1.00  0.00    -0.243 OA
ENDROOT
BRANCH   8  11
HETATM   11  N5  UNL     1     -29.871  12.434  11.065  1.00  0.00    -0.237 N 
HETATM   12  C4  UNL     1     -29.346  12.641  12.369  1.00  0.00     0.307 C 
HETATM   13  O1  UNL     1     -28.849  13.770  12.695  1.00  0.00    -0.263 OA
ATOM     14  H5  UNL     1     -30.259  11.535  10.780  1.00  0.00     0.192 HD
BRANCH  12  15
HETATM   15  C5  UNL     1     -29.394  11.511  13.324  1.00  0.00     0.222 C 
HETATM   16  O2  UNL     1     -28.334  10.911  13.566  1.00  0.00    -0.287 OA
BRANCH  15  17
HETATM   17  C6  UNL     1     -30.729  11.250  13.873  1.00  0.00     0.133 C 
BRANCH  17  18
HETATM   18  C7  UNL     1     -31.339  12.225  14.749  1.00  0.00     0.009 A 
HETATM   19  C8  UNL     1     -31.005  12.512  16.050  1.00  0.00     0.117 A 
HETATM   20  N6  UNL     1     -31.717  13.434  16.758  1.00  0.00    -0.202 N 
HETATM   21  C9  UNL     1     -32.764  14.109  16.251  1.00  0.00     0.677 A 
ATOM     22  H6  UNL     1     -31.441  13.622  17.721  1.00  0.00     0.183 HD
HETATM   23  N8  UNL     1     -33.105  13.841  14.977  1.00  0.00    -0.177 N 
HETATM   24  C10 UNL     1     -32.443  12.955  14.254  1.00  0.00     0.122 A 
ATOM     25  H8  UNL     1     -33.894  14.334  14.559  1.00  0.00     0.185 HD
BRANCH  21  26
HETATM   26  N7  UNL     1     -33.459  14.976  16.950  1.00  0.00    -0.234 N 
ATOM     27  H72 UNL     1     -33.459  14.928  17.969  1.00  0.00     0.174 HD
ATOM     28  H71 UNL     1     -33.999  15.728  16.521  1.00  0.00     0.174 HD
ENDBRANCH  21  26
BRANCH  24  29
HETATM   29  N9  UNL     1     -32.841  12.766  13.041  1.00  0.00    -0.385 N 
ATOM     30  H92 UNL     1     -32.483  11.944  12.556  1.00  0.00     0.157 HD
ATOM     31  H91 UNL     1     -33.487  13.430  12.613  1.00  0.00     0.157 HD
ENDBRANCH  24  29
ENDBRANCH  17  18
ENDBRANCH  15  17
ENDBRANCH  12  15
ENDBRANCH   8  11
TORSDOF 6
ENDMDL
MODEL 4
REMARK VINA RESULT: -7.777344666      4.583      8.303
REMARK  6 active torsions:
REMARK  status: ('A' for Active; 'I' for Inactive)
REMARK    1  A    between atoms: N4_8  and  N5_9 
REMARK       I    between atoms: N5_9  and  C4_11 
REMARK    2  A    between atoms: C4_11  and  C5_13 
REMARK    3  A    between atoms: C5_13  and  C6_15 
REMARK    4  A    between atoms: C6_15  and  C7_16 
REMARK    5  A    between atoms: C9_20  and  N7_21 
REMARK    6  A    between atoms: C10_26  and  N9_27 
ROOT
HETATM    1  C1  UNL     1     -34.693  17.835  20.018  1.00  0.00     0.163 C 
HETATM    2  N1  UNL     1     -34.601  17.379  18.644  1.00  0.00    -0.277 N 
HETATM    3  C2  UNL     1     -35.551  17.386  17.697  1.00  0.00     0.210 A 
HETATM    4  C3  UNL     1     -36.892  17.881  17.894  1.00  0.00     0.138 C 
HETATM    5  N2  UNL     1     -37.957  18.298  18.041  1.00  0.00    -0.188 NA
HETATM    6  N3  UNL     1     -35.027  16.882  16.596  1.00  0.00    -0.250 N 
ATOM      7  H3  UNL     1     -35.518  16.763  15.710  1.00  0.00     0.191 HD
HETATM    8  N4  UNL     1     -33.760  16.553  16.820  1.00  0.00    -0.136 N 
HETATM    9  C11 UNL     1     -33.482  16.860  18.095  1.00  0.00     0.365 A 
HETATM   10  O3  UNL     1     -32.388  16.719  18.742  1.00  0.00    -0.243 OA
ENDROOT
BRANCH   8  11
HETATM   11  N5  UNL     1     -32.851  15.988  15.909  1.00  0.00    -0.237 N 
HETATM   12  C4  UNL     1     -33.005  14.603  15.633  1.00  0.00     0.307 C 
HETATM   13  O1  UNL     1     -33.920  13.926  16.210  1.00  0.00    -0.263 OA
ATOM     14  H5  UNL     1     -32.117  16.544  15.470  1.00  0.00     0.192 HD
BRANCH  12  15
HETATM   15  C5  UNL     1     -32.078  13.981  14.662  1.00  0.00     0.222 C 
HETATM   16  O2  UNL     1     -30.991  14.547  14.455  1.00  0.00    -0.287 OA
BRANCH  15  17
HETATM   17  C6  UNL     1     -32.583  12.743  14.062  1.00  0.00     0.133 C 
BRANCH  17  18
HETATM   18  C7  UNL     1     -31.740  11.999  13.152  1.00  0.00     0.009 A 
HETATM   19  C8  UNL     1     -30.615  11.271  13.452  1.00  0.00     0.117 A 
HETATM   20  N6  UNL     1     -29.901  10.664  12.462  1.00  0.00    -0.202 N 
HETATM   21  C9  UNL     1     -30.235  10.730  11.161  1.00  0.00     0.677 A 
ATOM     22  H6  UNL     1     -29.071  10.132  12.722  1.00  0.00     0.183 HD
HETATM   23  N8  UNL     1     -31.335  11.440  10.848  1.00  0.00    -0.177 N 
HETATM   24  C10 UNL     1     -32.057  12.044  11.775  1.00  0.00     0.122 A 
ATOM     25  H8  UNL     1     -31.619  11.512   9.871  1.00  0.00     0.185 HD
BRANCH  21  26
HETATM   26  N7  UNL     1     -29.526  10.164  10.214  1.00  0.00    -0.234 N 
ATOM     27  H72 UNL     1     -28.509  10.134  10.285  1.00  0.00     0.174 HD
ATOM     28  H71 UNL     1     -29.946   9.722   9.396  1.00  0.00     0.174 HD
ENDBRANCH  21  26
BRANCH  24  29
HETATM   29  N9  UNL     1     -33.097  12.699  11.381  1.00  0.00    -0.385 N 
ATOM     30  H92 UNL     1     -33.084  13.712  11.503  1.00  0.00     0.157 HD
ATOM     31  H91 UNL     1     -33.882  12.197  10.968  1.00  0.00     0.157 HD
ENDBRANCH  24  29
ENDBRANCH  17  18
ENDBRANCH  15  17
ENDBRANCH  12  15
ENDBRANCH   8  11
TORSDOF 6
ENDMDL
MODEL 5
REMARK VINA RESULT: -7.774024250      2.671      3.988
REMARK  6 active torsions:
REMARK  status: ('A' for Active; 'I' for Inactive)
REMARK    1  A    between atoms: N4_8  and  N5_9 
REMARK       I    between atoms: N5_9  and  C4_11 
REMARK    2  A    between atoms: C4_11  and  C5_13 
REMARK    3  A    between atoms: C5_13  and  C6_15 
REMARK    4  A    between atoms: C6_15  and  C7_16 
REMARK    5  A    between atoms: C9_20  and  N7_21 
REMARK    6  A    between atoms: C10_26  and  N9_27 
ROOT
HETATM    1  C1  UNL     1     -27.244  15.363   9.101  1.00  0.00     0.163 C 
HETATM    2  N1  UNL     1     -28.511  14.854   9.591  1.00  0.00    -0.277 N 
HETATM    3  C2  UNL     1     -29.657  14.678   8.915  1.00  0.00     0.210 A 
HETATM    4  C3  UNL     1     -29.828  14.973   7.513  1.00  0.00     0.138 C 
HETATM    5  N2  UNL     1     -29.960  15.184   6.387  1.00  0.00    -0.188 NA
HETATM    6  N3  UNL     1     -30.550  14.190   9.755  1.00  0.00    -0.250 N 
ATOM      7  H3  UNL     1     -31.514  13.956   9.520  1.00  0.00     0.191 HD
HETATM    8  N4  UNL     1     -29.998  14.050  10.955  1.00  0.00    -0.136 N 
HETATM    9  C11 UNL     1     -28.725  14.461  10.864  1.00  0.00     0.365 A 
HETATM   10  O3  UNL     1     -27.821  14.502  11.767  1.00  0.00    -0.243 OA
ENDROOT
BRANCH   8  11
HETATM   11  N5  UNL     1     -30.607  13.563  12.124  1.00  0.00    -0.237 N 
HETATM   12  C4  UNL     1     -31.004  12.199  12.113  1.00  0.00     0.307 C 
HETATM   13  O1  UNL     1     -30.822  11.481  11.075  1.00  0.00    -0.263 OA
ATOM     14  H5  UNL     1     -30.757  14.159  12.938  1.00  0.00     0.192 HD
BRANCH  12  15
HETATM   15  C5  UNL     1     -31.630  11.649  13.336  1.00  0.00     0.222 C 
HETATM   16  O2  UNL     1     -32.562  10.840  13.196  1.00  0.00    -0.287 OA
BRANCH  15  17
HETATM   17  C6  UNL     1     -31.042  12.147  14.583  1.00  0.00     0.133 C 
BRANCH  17  18
HETATM   18  C7  UNL     1     -29.900  11.466  15.152  1.00  0.00     0.009 A 
HETATM   19  C8  UNL     1     -28.686  11.222  14.558  1.00  0.00     0.117 A 
HETATM   20  N6  UNL     1     -27.723  10.519  15.219  1.00  0.00    -0.202 N 
HETATM   21  C9  UNL     1     -27.886  10.030  16.461  1.00  0.00     0.677 A 
ATOM     22  H6  UNL     1     -26.834  10.357  14.748  1.00  0.00     0.183 HD
HETATM   23  N8  UNL     1     -29.070  10.260  17.059  1.00  0.00    -0.177 N 
HETATM   24  C10 UNL     1     -30.030  10.936  16.455  1.00  0.00     0.122 A 
ATOM     25  H8  UNL     1     -29.229   9.903  18.001  1.00  0.00     0.185 HD
BRANCH  21  26
HETATM   26  N7  UNL     1     -26.962   9.331  17.078  1.00  0.00    -0.234 N 
ATOM     27  H72 UNL     1     -25.983   9.610  17.015  1.00  0.00     0.174 HD
ATOM     28  H71 UNL     1     -27.175   8.515  17.651  1.00  0.00     0.174 HD
ENDBRANCH  21  26
BRANCH  24  29
HETATM   29  N9  UNL     1     -31.131  11.109  17.107  1.00  0.00    -0.385 N 
ATOM     30  H92 UNL     1     -31.130  11.815  17.843  1.00  0.00     0.157 HD
ATOM     31  H91 UNL     1     -31.950  10.549  16.872  1.00  0.00     0.157 HD
ENDBRANCH  24  29
ENDBRANCH  17  18
ENDBRANCH  15  17
ENDBRANCH  12  15
ENDBRANCH   8  11
TORSDOF 6
ENDMDL
