MODEL 1
REMARK VINA RESULT: -8.628407809      0.000      0.000
REMARK  5 active torsions:
REMARK  status: ('A' for Active; 'I' for Inactive)
REMARK    1  A    between atoms: N1_1  and  C1_4 
REMARK    2  A    between atoms: C2_7  and  N3_8 
REMARK    3  A    between atoms: N5_15  and  C5_16 
REMARK    4  A    between atoms: C5_16  and  C6_17 
REMARK    5  A    between atoms: C6_17  and  N6_18 
ROOT
HETATM    1  C1  UNL     1     -30.732  10.573  11.926  1.00  0.00     0.679 A 
HETATM    2  N2  UNL     1     -31.608  11.306  11.224  1.00  0.00    -0.175 N 
ATOM      3  H2  UNL     1     -31.693  11.152  10.220  1.00  0.00     0.186 HD
HETATM    4  C2  UNL     1     -32.376  12.239  11.809  1.00  0.00     0.145 A 
HETATM    5  C3  UNL     1     -32.299  12.485  13.159  1.00  0.00     0.123 A 
HETATM    6  N4  UNL     1     -32.917  13.321  13.999  1.00  0.00    -0.346 N 
ATOM      7  H4  UNL     1     -33.634  14.001  13.749  1.00  0.00     0.167 HD
HETATM    8  C4  UNL     1     -32.426  13.109  15.229  1.00  0.00     0.185 A 
HETATM    9  N5  UNL     1     -31.481  12.123  15.171  1.00  0.00    -0.325 N 
HETATM   10  C11 UNL     1     -31.387  11.722  13.898  1.00  0.00     0.155 A 
HETATM   11  N12 UNL     1     -30.646  10.803  13.251  1.00  0.00    -0.174 N 
ATOM     12  H12 UNL     1     -29.983  10.251  13.794  1.00  0.00     0.186 HD
ENDROOT
BRANCH   9  13
HETATM   13  C5  UNL     1     -30.722  11.621  16.302  1.00  0.00     0.151 C 
BRANCH  13  14
HETATM   14  C6  UNL     1     -29.506  12.490  16.459  1.00  0.00     0.145 C 
BRANCH  14  15
HETATM   15  N6  UNL     1     -28.424  12.179  15.557  1.00  0.00    -0.359 N 
HETATM   16  C7  UNL     1     -28.052  13.090  14.477  1.00  0.00     0.153 C 
HETATM   17  C8  UNL     1     -27.672  12.373  13.225  1.00  0.00     0.221 C 
HETATM   18  O1  UNL     1     -27.607  10.969  13.389  1.00  0.00    -0.277 OA
HETATM   19  N7  UNL     1     -27.310  10.356  14.556  1.00  0.00    -0.247 N 
HETATM   20  C9  UNL     1     -27.717  10.956  15.662  1.00  0.00     0.171 C 
ATOM     21  H7  UNL     1     -26.797   9.474  14.583  1.00  0.00     0.196 HD
HETATM   22  C10 UNL     1     -27.453  10.347  16.947  1.00  0.00     0.183 A 
HETATM   23  N8  UNL     1     -27.544   9.031  17.252  1.00  0.00    -0.266 N 
HETATM   24  N11 UNL     1     -27.056  10.929  18.075  1.00  0.00    -0.266 N 
HETATM   25  N9  UNL     1     -27.202   8.885  18.522  1.00  0.00    -0.226 N 
ATOM     26  H8  UNL     1     -27.825   8.285  16.616  1.00  0.00     0.190 HD
HETATM   27  N10 UNL     1     -26.894  10.049  19.055  1.00  0.00    -0.226 N 
ATOM     28  H9  UNL     1     -27.181   7.995  19.019  1.00  0.00     0.210 HD
ATOM     29  H10 UNL     1     -26.596  10.233  20.013  1.00  0.00     0.210 HD
ATOM     30  H11 UNL     1     -26.894  11.931  18.174  1.00  0.00     0.190 HD
ENDBRANCH  14  15
ENDBRANCH  13  14
ENDBRANCH   9  13
BRANCH   4  31
HETATM   31  N3  UNL     1     -33.229  12.952  11.110  1.00  0.00    -0.383 N 
ATOM     32  H32 UNL     1     -33.491  12.603  10.189  1.00  0.00     0.157 HD
ATOM     33  H31 UNL     1     -33.614  13.823  11.478  1.00  0.00     0.157 HD
ENDBRANCH   4  31
BRANCH   1  34
HETATM   34  N1  UNL     1     -29.987   9.667  11.343  1.00  0.00    -0.234 N 
ATOM     35  H12 UNL     1     -29.037   9.878  11.036  1.00  0.00     0.174 HD
ATOM     36  H11 UNL     1     -30.338   8.723  11.179  1.00  0.00     0.174 HD
ENDBRANCH   1  34
TORSDOF 5
ENDMDL
MODEL 2
REMARK VINA RESULT: -8.245984146      2.473      4.708
REMARK  5 active torsions:
REMARK  status: ('A' for Active; 'I' for Inactive)
REMARK    1  A    between atoms: N1_1  and  C1_4 
REMARK    2  A    between atoms: C2_7  and  N3_8 
REMARK    3  A    between atoms: N5_15  and  C5_16 
REMARK    4  A    between atoms: C5_16  and  C6_17 
REMARK    5  A    between atoms: C6_17  and  N6_18 
ROOT
HETATM    1  C1  UNL     1     -32.321  12.216  11.414  1.00  0.00     0.679 A 
HETATM    2  N2  UNL     1     -32.031  10.987  10.964  1.00  0.00    -0.175 N 
ATOM      3  H2  UNL     1     -32.750  10.454  10.475  1.00  0.00     0.186 HD
HETATM    4  C2  UNL     1     -30.818  10.439  11.139  1.00  0.00     0.145 A 
HETATM    5  C3  UNL     1     -29.815  11.116  11.791  1.00  0.00     0.123 A 
HETATM    6  N4  UNL     1     -28.546  10.841  12.106  1.00  0.00    -0.346 N 
ATOM      7  H4  UNL     1     -28.048   9.977  11.892  1.00  0.00     0.167 HD
HETATM    8  C4  UNL     1     -28.041  11.901  12.754  1.00  0.00     0.185 A 
HETATM    9  N5  UNL     1     -29.005  12.866  12.853  1.00  0.00    -0.325 N 
HETATM   10  C11 UNL     1     -30.112  12.400  12.263  1.00  0.00     0.155 A 
HETATM   11  N12 UNL     1     -31.348  12.891  12.055  1.00  0.00    -0.174 N 
ATOM     12  H12 UNL     1     -31.558  13.827  12.402  1.00  0.00     0.186 HD
ENDROOT
BRANCH   9  13
HETATM   13  C5  UNL     1     -28.837  14.156  13.497  1.00  0.00     0.151 C 
BRANCH  13  14
HETATM   14  C6  UNL     1     -28.527  13.908  14.947  1.00  0.00     0.145 C 
BRANCH  14  15
HETATM   15  N6  UNL     1     -29.338  12.890  15.570  1.00  0.00    -0.359 N 
HETATM   16  C7  UNL     1     -28.733  11.726  16.212  1.00  0.00     0.153 C 
HETATM   17  C8  UNL     1     -29.512  10.474  15.984  1.00  0.00     0.221 C 
HETATM   18  O1  UNL     1     -30.744  10.701  15.326  1.00  0.00    -0.277 OA
HETATM   19  N7  UNL     1     -31.450  11.850  15.415  1.00  0.00    -0.247 N 
HETATM   20  C9  UNL     1     -30.752  12.966  15.539  1.00  0.00     0.171 C 
ATOM     21  H7  UNL     1     -32.469  11.856  15.389  1.00  0.00     0.196 HD
HETATM   22  C10 UNL     1     -31.439  14.237  15.619  1.00  0.00     0.183 A 
HETATM   23  N8  UNL     1     -32.518  14.618  14.896  1.00  0.00    -0.266 N 
HETATM   24  N11 UNL     1     -31.181  15.272  16.412  1.00  0.00    -0.266 N 
HETATM   25  N9  UNL     1     -32.853  15.840  15.280  1.00  0.00    -0.226 N 
ATOM     26  H8  UNL     1     -32.990  14.063  14.181  1.00  0.00     0.190 HD
HETATM   27  N10 UNL     1     -32.037  16.267  16.222  1.00  0.00    -0.226 N 
ATOM     28  H9  UNL     1     -33.633  16.375  14.900  1.00  0.00     0.210 HD
ATOM     29  H10 UNL     1     -32.060  17.168  16.701  1.00  0.00     0.210 HD
ATOM     30  H11 UNL     1     -30.416  15.297  17.086  1.00  0.00     0.190 HD
ENDBRANCH  14  15
ENDBRANCH  13  14
ENDBRANCH   9  13
BRANCH   4  31
HETATM   31  N3  UNL     1     -30.546   9.234  10.695  1.00  0.00    -0.383 N 
ATOM     32  H32 UNL     1     -30.852   8.443  11.262  1.00  0.00     0.157 HD
ATOM     33  H31 UNL     1     -30.048   9.095   9.815  1.00  0.00     0.157 HD
ENDBRANCH   4  31
BRANCH   1  34
HETATM   34  N1  UNL     1     -33.510  12.738  11.237  1.00  0.00    -0.234 N 
ATOM     35  H12 UNL     1     -34.267  12.202  10.812  1.00  0.00     0.174 HD
ATOM     36  H11 UNL     1     -33.710  13.698  11.519  1.00  0.00     0.174 HD
ENDBRANCH   1  34
TORSDOF 5
ENDMDL
MODEL 3
REMARK VINA RESULT: -8.221077526      2.711      5.029
REMARK  5 active torsions:
REMARK  status: ('A' for Active; 'I' for Inactive)
REMARK    1  A    between atoms: N1_1  and  C1_4 
REMARK    2  A    between atoms: C2_7  and  N3_8 
REMARK    3  A    between atoms: N5_15  and  C5_16 
REMARK    4  A    between atoms: C5_16  and  C6_17 
REMARK    5  A    between atoms: C6_17  and  N6_18 
ROOT
HETATM    1  C1  UNL     1     -33.224  15.757  16.015  1.00  0.00     0.679 A 
HETATM    2  N2  UNL     1     -32.954  15.864  17.324  1.00  0.00    -0.175 N 
ATOM      3  H2  UNL     1     -33.678  16.207  17.954  1.00  0.00     0.186 HD
HETATM    4  C2  UNL     1     -31.755  15.532  17.826  1.00  0.00     0.145 A 
HETATM    5  C3  UNL     1     -30.746  15.064  17.019  1.00  0.00     0.123 A 
HETATM    6  N4  UNL     1     -29.487  14.663  17.223  1.00  0.00    -0.346 N 
ATOM      7  H4  UNL     1     -29.004  14.636  18.122  1.00  0.00     0.167 HD
HETATM    8  C4  UNL     1     -28.970  14.303  16.040  1.00  0.00     0.185 A 
HETATM    9  N5  UNL     1     -29.914  14.478  15.067  1.00  0.00    -0.325 N 
HETATM   10  C11 UNL     1     -31.021  14.948  15.652  1.00  0.00     0.155 A 
HETATM   11  N12 UNL     1     -32.244  15.299  15.211  1.00  0.00    -0.174 N 
ATOM     12  H12 UNL     1     -32.440  15.213  14.214  1.00  0.00     0.186 HD
ENDROOT
BRANCH   9  13
HETATM   13  C5  UNL     1     -29.723  14.203  13.654  1.00  0.00     0.151 C 
BRANCH  13  14
HETATM   14  C6  UNL     1     -29.035  12.872  13.535  1.00  0.00     0.145 C 
BRANCH  14  15
HETATM   15  N6  UNL     1     -29.902  11.776  13.175  1.00  0.00    -0.359 N 
HETATM   16  C7  UNL     1     -29.927  11.246  11.814  1.00  0.00     0.153 C 
HETATM   17  C8  UNL     1     -31.301  10.869  11.370  1.00  0.00     0.221 C 
HETATM   18  O1  UNL     1     -32.262  10.963  12.403  1.00  0.00    -0.277 OA
HETATM   19  N7  UNL     1     -31.981  10.803  13.715  1.00  0.00    -0.247 N 
HETATM   20  C9  UNL     1     -30.791  11.210  14.121  1.00  0.00     0.171 C 
ATOM     21  H7  UNL     1     -32.654  10.388  14.360  1.00  0.00     0.196 HD
HETATM   22  C10 UNL     1     -30.428  11.090  15.516  1.00  0.00     0.183 A 
HETATM   23  N8  UNL     1     -31.226  11.337  16.582  1.00  0.00    -0.266 N 
HETATM   24  N11 UNL     1     -29.271  10.702  16.042  1.00  0.00    -0.266 N 
HETATM   25  N9  UNL     1     -30.525  11.090  17.678  1.00  0.00    -0.226 N 
ATOM     26  H8  UNL     1     -32.194  11.656  16.548  1.00  0.00     0.190 HD
HETATM   27  N10 UNL     1     -29.308  10.694  17.369  1.00  0.00    -0.226 N 
ATOM     28  H9  UNL     1     -30.879  11.193  18.629  1.00  0.00     0.210 HD
ATOM     29  H10 UNL     1     -28.558  10.436  18.010  1.00  0.00     0.210 HD
ATOM     30  H11 UNL     1     -28.452  10.442  15.492  1.00  0.00     0.190 HD
ENDBRANCH  14  15
ENDBRANCH  13  14
ENDBRANCH   9  13
BRANCH   4  31
HETATM   31  N3  UNL     1     -31.501  15.643  19.110  1.00  0.00    -0.383 N 
ATOM     32  H32 UNL     1     -31.968  14.992  19.741  1.00  0.00     0.157 HD
ATOM     33  H31 UNL     1     -30.860  16.355  19.462  1.00  0.00     0.157 HD
ENDBRANCH   4  31
BRANCH   1  34
HETATM   34  N1  UNL     1     -34.399  16.086  15.537  1.00  0.00    -0.234 N 
ATOM     35  H12 UNL     1     -35.161  16.368  16.153  1.00  0.00     0.174 HD
ATOM     36  H11 UNL     1     -34.583  16.067  14.534  1.00  0.00     0.174 HD
ENDBRANCH   1  34
TORSDOF 5
ENDMDL
MODEL 4
REMARK VINA RESULT: -8.220864910      1.980      2.759
REMARK  5 active torsions:
REMARK  status: ('A' for Active; 'I' for Inactive)
REMARK    1  A    between atoms: N1_1  and  C1_4 
REMARK    2  A    between atoms: C2_7  and  N3_8 
REMARK    3  A    between atoms: N5_15  and  C5_16 
REMARK    4  A    between atoms: C5_16  and  C6_17 
REMARK    5  A    between atoms: C6_17  and  N6_18 
ROOT
HETATM    1  C1  UNL     1     -30.951  10.391  11.278  1.00  0.00     0.679 A 
HETATM    2  N2  UNL     1     -31.615  11.487  10.882  1.00  0.00    -0.175 N 
ATOM      3  H2  UNL     1     -32.260  11.419  10.094  1.00  0.00     0.186 HD
HETATM    4  C2  UNL     1     -31.454  12.670  11.494  1.00  0.00     0.145 A 
HETATM    5  C3  UNL     1     -30.598  12.812  12.560  1.00  0.00     0.123 A 
HETATM    6  N4  UNL     1     -30.240  13.830  13.349  1.00  0.00    -0.346 N 
ATOM      7  H4  UNL     1     -30.583  14.789  13.284  1.00  0.00     0.167 HD
HETATM    8  C4  UNL     1     -29.352  13.370  14.242  1.00  0.00     0.185 A 
HETATM    9  N5  UNL     1     -29.140  12.038  14.016  1.00  0.00    -0.325 N 
HETATM   10  C11 UNL     1     -29.902  11.673  12.979  1.00  0.00     0.155 A 
HETATM   11  N12 UNL     1     -30.109  10.516  12.322  1.00  0.00    -0.174 N 
ATOM     12  H12 UNL     1     -29.599   9.689  12.631  1.00  0.00     0.186 HD
ENDROOT
BRANCH   9  13
HETATM   13  C5  UNL     1     -28.237  11.192  14.777  1.00  0.00     0.151 C 
BRANCH  13  14
HETATM   14  C6  UNL     1     -29.058  10.428  15.777  1.00  0.00     0.145 C 
BRANCH  14  15
HETATM   15  N6  UNL     1     -29.524  11.211  16.896  1.00  0.00    -0.359 N 
HETATM   16  C7  UNL     1     -30.888  11.731  16.942  1.00  0.00     0.153 C 
HETATM   17  C8  UNL     1     -30.962  13.100  17.530  1.00  0.00     0.221 C 
HETATM   18  O1  UNL     1     -29.725  13.544  18.054  1.00  0.00    -0.277 OA
HETATM   19  N7  UNL     1     -28.771  12.722  18.543  1.00  0.00    -0.247 N 
HETATM   20  C9  UNL     1     -28.656  11.538  17.967  1.00  0.00     0.171 C 
ATOM     21  H7  UNL     1     -28.169  13.002  19.318  1.00  0.00     0.196 HD
HETATM   22  C10 UNL     1     -27.642  10.613  18.423  1.00  0.00     0.183 A 
HETATM   23  N8  UNL     1     -26.370  10.917  18.774  1.00  0.00    -0.266 N 
HETATM   24  N11 UNL     1     -27.741   9.301  18.613  1.00  0.00    -0.266 N 
HETATM   25  N9  UNL     1     -25.775   9.796  19.151  1.00  0.00    -0.226 N 
ATOM     26  H8  UNL     1     -25.946  11.844  18.751  1.00  0.00     0.190 HD
HETATM   27  N10 UNL     1     -26.606   8.779  19.061  1.00  0.00    -0.226 N 
ATOM     28  H9  UNL     1     -24.808   9.730  19.467  1.00  0.00     0.210 HD
ATOM     29  H10 UNL     1     -26.417   7.802  19.287  1.00  0.00     0.210 HD
ATOM     30  H11 UNL     1     -28.587   8.760  18.436  1.00  0.00     0.190 HD
ENDBRANCH  14  15
ENDBRANCH  13  14
ENDBRANCH   9  13
BRANCH   4  31
HETATM   31  N3  UNL     1     -32.108  13.736  11.095  1.00  0.00    -0.383 N 
ATOM     32  H32 UNL     1     -31.631  14.368  10.453  1.00  0.00     0.157 HD
ATOM     33  H31 UNL     1     -33.058  13.923  11.417  1.00  0.00     0.157 HD
ENDBRANCH   4  31
BRANCH   1  34
HETATM   34  N1  UNL     1     -31.117   9.242  10.671  1.00  0.00    -0.234 N 
ATOM     35  H12 UNL     1     -31.873   8.608  10.932  1.00  0.00     0.174 HD
ATOM     36  H11 UNL     1     -30.493   8.949   9.919  1.00  0.00     0.174 HD
ENDBRANCH   1  34
TORSDOF 5
ENDMDL
MODEL 5
REMARK VINA RESULT: -8.109626785      1.800      1.985
REMARK  5 active torsions:
REMARK  status: ('A' for Active; 'I' for Inactive)
REMARK    1  A    between atoms: N1_1  and  C1_4 
REMARK    2  A    between atoms: C2_7  and  N3_8 
REMARK    3  A    between atoms: N5_15  and  C5_16 
REMARK    4  A    between atoms: C5_16  and  C6_17 
REMARK    5  A    between atoms: C6_17  and  N6_18 
ROOT
HETATM    1  C1  UNL     1     -30.455  10.694  11.143  1.00  0.00     0.679 A 
HETATM    2  N2  UNL     1     -31.450  11.467  10.685  1.00  0.00    -0.175 N 
ATOM      3  H2  UNL     1     -31.624  11.510   9.681  1.00  0.00     0.186 HD
HETATM    4  C2  UNL     1     -32.223  12.188  11.513  1.00  0.00     0.145 A 
HETATM    5  C3  UNL     1     -32.028  12.164  12.873  1.00  0.00     0.123 A 
HETATM    6  N4  UNL     1     -32.619  12.754  13.918  1.00  0.00    -0.346 N 
ATOM      7  H4  UNL     1     -33.407  13.400  13.875  1.00  0.00     0.167 HD
HETATM    8  C4  UNL     1     -31.992  12.347  15.031  1.00  0.00     0.185 A 
HETATM    9  N5  UNL     1     -30.987  11.485  14.690  1.00  0.00    -0.325 N 
HETATM   10  C11 UNL     1     -30.992  11.359  13.358  1.00  0.00     0.155 A 
HETATM   11  N12 UNL     1     -30.253  10.661  12.475  1.00  0.00    -0.174 N 
ATOM     12  H12 UNL     1     -29.500  10.076  12.833  1.00  0.00     0.186 HD
ENDROOT
BRANCH   9  13
HETATM   13  C5  UNL     1     -30.082  10.841  15.625  1.00  0.00     0.151 C 
BRANCH  13  14
HETATM   14  C6  UNL     1     -30.303  11.459  16.976  1.00  0.00     0.145 C 
BRANCH  14  15
HETATM   15  N6  UNL     1     -29.331  12.460  17.346  1.00  0.00    -0.359 N 
HETATM   16  C7  UNL     1     -29.696  13.872  17.441  1.00  0.00     0.153 C 
HETATM   17  C8  UNL     1     -28.622  14.778  16.938  1.00  0.00     0.221 C 
HETATM   18  O1  UNL     1     -27.426  14.093  16.616  1.00  0.00    -0.277 OA
HETATM   19  N7  UNL     1     -27.027  12.947  17.210  1.00  0.00    -0.247 N 
HETATM   20  C9  UNL     1     -27.980  12.110  17.585  1.00  0.00     0.171 C 
ATOM     21  H7  UNL     1     -26.040  12.738  17.361  1.00  0.00     0.196 HD
HETATM   22  C10 UNL     1     -27.627  10.853  18.207  1.00  0.00     0.183 A 
HETATM   23  N8  UNL     1     -26.609  10.033  17.852  1.00  0.00    -0.266 N 
HETATM   24  N11 UNL     1     -28.196  10.254  19.248  1.00  0.00    -0.266 N 
HETATM   25  N9  UNL     1     -26.613   9.000  18.680  1.00  0.00    -0.226 N 
ATOM     26  H8  UNL     1     -25.956  10.184  17.083  1.00  0.00     0.190 HD
HETATM   27  N10 UNL     1     -27.589   9.115  19.557  1.00  0.00    -0.226 N 
ATOM     28  H9  UNL     1     -25.953   8.224  18.644  1.00  0.00     0.210 HD
ATOM     29  H10 UNL     1     -27.826   8.468  20.309  1.00  0.00     0.210 HD
ATOM     30  H11 UNL     1     -29.003  10.625  19.749  1.00  0.00     0.190 HD
ENDBRANCH  14  15
ENDBRANCH  13  14
ENDBRANCH   9  13
BRANCH   4  31
HETATM   31  N3  UNL     1     -33.193  12.943  11.052  1.00  0.00    -0.383 N 
ATOM     32  H32 UNL     1     -33.270  13.045  10.040  1.00  0.00     0.157 HD
ATOM     33  H31 UNL     1     -33.844  13.410  11.683  1.00  0.00     0.157 HD
ENDBRANCH   4  31
BRANCH   1  34
HETATM   34  N1  UNL     1     -29.708   9.996  10.324  1.00  0.00    -0.234 N 
ATOM     35  H12 UNL     1     -28.733  10.245  10.154  1.00  0.00     0.174 HD
ATOM     36  H11 UNL     1     -30.081   9.185   9.832  1.00  0.00     0.174 HD
ENDBRANCH   1  34
TORSDOF 5
ENDMDL
