MODEL 1
REMARK VINA RESULT: -8.877223219      0.000      0.000
REMARK  8 active torsions:
REMARK  status: ('A' for Active; 'I' for Inactive)
REMARK    1  A    between atoms: N1_1  and  C1_4 
REMARK    2  A    between atoms: C2_7  and  S1_8 
REMARK    3  A    between atoms: S1_8  and  C3_9 
REMARK    4  A    between atoms: N6_16  and  O1_17 
REMARK    5  A    between atoms: C4_21  and  N8_22 
REMARK    6  A    between atoms: N8_22  and  C5_24 
REMARK    7  A    between atoms: C8_27  and  C9_28 
REMARK    8  A    between atoms: C9_28  and  N9_29 
ROOT
HETATM    1  C1  UNL     1     -31.295  11.964  16.128  1.00  0.00     0.692 A 
HETATM    2  N2  UNL     1     -30.788  11.996  14.884  1.00  0.00    -0.169 N 
ATOM      3  H2  UNL     1     -30.031  11.363  14.624  1.00  0.00     0.186 HD
HETATM    4  C2  UNL     1     -31.282  12.868  13.978  1.00  0.00     0.182 A 
HETATM    5  N7  UNL     1     -32.266  13.681  14.335  1.00  0.00    -0.169 N 
ATOM      6  H7  UNL     1     -32.629  14.333  13.639  1.00  0.00     0.186 HD
HETATM    7  C4  UNL     1     -32.825  13.697  15.588  1.00  0.00     0.695 A 
HETATM    8  N10 UNL     1     -32.305  12.817  16.451  1.00  0.00    -0.023 N 
ATOM      9  H10 UNL     1     -32.682  12.785  17.398  1.00  0.00     0.203 HD
ENDROOT
BRANCH   7  10
HETATM   10  N8  UNL     1     -33.734  14.493  15.810  1.00  0.00    -0.221 N 
ATOM     11  H8  UNL     1     -34.424  14.402  15.065  1.00  0.00     0.178 HD
BRANCH  10  12
HETATM   12  C5  UNL     1     -34.172  15.460  16.681  1.00  0.00     0.100 C 
HETATM   13  C6  UNL     1     -33.142  16.012  17.642  1.00  0.00     0.026 C 
HETATM   14  C7  UNL     1     -33.852  17.173  18.282  1.00  0.00     0.008 C 
HETATM   15  C8  UNL     1     -35.037  17.500  17.442  1.00  0.00     0.013 C 
HETATM   16  C10 UNL     1     -34.823  16.697  16.161  1.00  0.00     0.032 C 
BRANCH  15  17
HETATM   17  C9  UNL     1     -36.351  17.101  18.034  1.00  0.00     0.234 C 
BRANCH  17  18
HETATM   18  N9  UNL     1     -37.408  18.022  17.671  1.00  0.00    -0.079 N 
ATOM     19  H93 UNL     1     -37.123  18.990  17.820  1.00  0.00     0.274 HD
ATOM     20  H92 UNL     1     -37.546  18.049  16.661  1.00  0.00     0.274 HD
ATOM     21  H91 UNL     1     -38.279  17.812  18.159  1.00  0.00     0.274 HD
ENDBRANCH  17  18
ENDBRANCH  15  17
ENDBRANCH  10  12
ENDBRANCH   7  10
BRANCH   4  22
HETATM   22  S1  UNL     1     -30.553  12.848  12.346  1.00  0.00    -0.011 SA
BRANCH  22  23
HETATM   23  C3  UNL     1     -30.622  11.191  11.666  1.00  0.00     0.214 A 
HETATM   24  N3  UNL     1     -29.733  10.200  11.787  1.00  0.00    -0.261 N 
HETATM   25  N4  UNL     1     -30.215   9.173  11.115  1.00  0.00    -0.224 N 
ATOM     26  H3  UNL     1     -28.852  10.231  12.300  1.00  0.00     0.191 HD
HETATM   27  N5  UNL     1     -31.373   9.461  10.569  1.00  0.00    -0.199 N 
ATOM     28  H4  UNL     1     -29.748   8.270  11.030  1.00  0.00     0.210 HD
HETATM   29  N6  UNL     1     -31.619  10.723  10.919  1.00  0.00    -0.122 N 
ATOM     30  H5  UNL     1     -31.959   8.850  10.000  1.00  0.00     0.212 HD
BRANCH  29  31
HETATM   31  O1  UNL     1     -32.759  11.403  10.534  1.00  0.00    -0.265 OA
ATOM     32  H1  UNL     1     -33.212  11.334   9.702  1.00  0.00     0.247 HD
ENDBRANCH  29  31
ENDBRANCH  22  23
ENDBRANCH   4  22
BRANCH   1  33
HETATM   33  N1  UNL     1     -30.823  11.132  16.995  1.00  0.00    -0.234 N 
ATOM     34  H12 UNL     1     -31.249  10.215  17.130  1.00  0.00     0.174 HD
ATOM     35  H11 UNL     1     -30.013  11.389  17.558  1.00  0.00     0.174 HD
ENDBRANCH   1  33
TORSDOF 8
ENDMDL
MODEL 2
REMARK VINA RESULT: -8.723217763      2.488      6.050
REMARK  8 active torsions:
REMARK  status: ('A' for Active; 'I' for Inactive)
REMARK    1  A    between atoms: N1_1  and  C1_4 
REMARK    2  A    between atoms: C2_7  and  S1_8 
REMARK    3  A    between atoms: S1_8  and  C3_9 
REMARK    4  A    between atoms: N6_16  and  O1_17 
REMARK    5  A    between atoms: C4_21  and  N8_22 
REMARK    6  A    between atoms: N8_22  and  C5_24 
REMARK    7  A    between atoms: C8_27  and  C9_28 
REMARK    8  A    between atoms: C9_28  and  N9_29 
ROOT
HETATM    1  C1  UNL     1     -32.831  13.811  15.593  1.00  0.00     0.692 A 
HETATM    2  N2  UNL     1     -32.389  13.767  14.325  1.00  0.00    -0.169 N 
ATOM      3  H2  UNL     1     -32.851  14.322  13.604  1.00  0.00     0.186 HD
HETATM    4  C2  UNL     1     -31.332  12.988  14.007  1.00  0.00     0.182 A 
HETATM    5  N7  UNL     1     -30.746  12.275  14.959  1.00  0.00    -0.169 N 
ATOM      6  H7  UNL     1     -29.949  11.693  14.702  1.00  0.00     0.186 HD
HETATM    7  C4  UNL     1     -31.151  12.277  16.270  1.00  0.00     0.695 A 
HETATM    8  N10 UNL     1     -32.199  13.063  16.538  1.00  0.00    -0.023 N 
ATOM      9  H10 UNL     1     -32.542  13.104  17.498  1.00  0.00     0.203 HD
ENDROOT
BRANCH   7  10
HETATM   10  N8  UNL     1     -30.533  11.578  17.070  1.00  0.00    -0.221 N 
ATOM     11  H8  UNL     1     -31.093  11.497  17.918  1.00  0.00     0.178 HD
BRANCH  10  12
HETATM   12  C5  UNL     1     -29.374  10.865  17.254  1.00  0.00     0.100 C 
HETATM   13  C6  UNL     1     -28.749  10.271  16.011  1.00  0.00     0.026 C 
HETATM   14  C7  UNL     1     -27.419   9.766  16.500  1.00  0.00     0.008 C 
HETATM   15  C8  UNL     1     -27.148  10.402  17.818  1.00  0.00     0.013 C 
HETATM   16  C10 UNL     1     -28.206  11.497  17.932  1.00  0.00     0.032 C 
BRANCH  15  17
HETATM   17  C9  UNL     1     -27.289   9.487  18.993  1.00  0.00     0.234 C 
BRANCH  17  18
HETATM   18  N9  UNL     1     -26.003   9.049  19.493  1.00  0.00    -0.079 N 
ATOM     19  H93 UNL     1     -25.308   9.014  18.747  1.00  0.00     0.274 HD
ATOM     20  H92 UNL     1     -25.571   9.761  20.081  1.00  0.00     0.274 HD
ATOM     21  H91 UNL     1     -26.069   8.155  19.981  1.00  0.00     0.274 HD
ENDBRANCH  17  18
ENDBRANCH  15  17
ENDBRANCH  10  12
ENDBRANCH   7  10
BRANCH   4  22
HETATM   22  S1  UNL     1     -30.807  12.985  12.299  1.00  0.00    -0.011 SA
BRANCH  22  23
HETATM   23  C3  UNL     1     -30.743  11.303  11.682  1.00  0.00     0.214 A 
HETATM   24  N3  UNL     1     -29.798  10.376  11.877  1.00  0.00    -0.261 N 
HETATM   25  N4  UNL     1     -30.187   9.297  11.227  1.00  0.00    -0.224 N 
ATOM     26  H3  UNL     1     -28.943  10.484  12.423  1.00  0.00     0.191 HD
HETATM   27  N5  UNL     1     -31.336   9.489  10.626  1.00  0.00    -0.199 N 
ATOM     28  H4  UNL     1     -29.660   8.423  11.196  1.00  0.00     0.210 HD
HETATM   29  N6  UNL     1     -31.675  10.744  10.915  1.00  0.00    -0.122 N 
ATOM     30  H5  UNL     1     -31.858   8.821  10.058  1.00  0.00     0.212 HD
BRANCH  29  31
HETATM   31  O1  UNL     1     -32.840  11.334  10.460  1.00  0.00    -0.265 OA
ATOM     32  H1  UNL     1     -33.666  11.399  10.923  1.00  0.00     0.247 HD
ENDBRANCH  29  31
ENDBRANCH  22  23
ENDBRANCH   4  22
BRANCH   1  33
HETATM   33  N1  UNL     1     -33.841  14.555  15.899  1.00  0.00    -0.234 N 
ATOM     34  H12 UNL     1     -34.255  15.187  15.214  1.00  0.00     0.174 HD
ATOM     35  H11 UNL     1     -34.237  14.515  16.838  1.00  0.00     0.174 HD
ENDBRANCH   1  33
TORSDOF 8
ENDMDL
MODEL 3
REMARK VINA RESULT: -8.364700536      5.054      7.414
REMARK  8 active torsions:
REMARK  status: ('A' for Active; 'I' for Inactive)
REMARK    1  A    between atoms: N1_1  and  C1_4 
REMARK    2  A    between atoms: C2_7  and  S1_8 
REMARK    3  A    between atoms: S1_8  and  C3_9 
REMARK    4  A    between atoms: N6_16  and  O1_17 
REMARK    5  A    between atoms: C4_21  and  N8_22 
REMARK    6  A    between atoms: N8_22  and  C5_24 
REMARK    7  A    between atoms: C8_27  and  C9_28 
REMARK    8  A    between atoms: C9_28  and  N9_29 
ROOT
HETATM    1  C1  UNL     1     -30.534  10.424  11.250  1.00  0.00     0.692 A 
HETATM    2  N2  UNL     1     -29.799  10.342  12.371  1.00  0.00    -0.169 N 
ATOM      3  H2  UNL     1     -29.660   9.439  12.826  1.00  0.00     0.186 HD
HETATM    4  C2  UNL     1     -29.242  11.456  12.894  1.00  0.00     0.182 A 
HETATM    5  N7  UNL     1     -29.434  12.619  12.288  1.00  0.00    -0.169 N 
ATOM      6  H7  UNL     1     -29.006  13.450  12.696  1.00  0.00     0.186 HD
HETATM    7  C4  UNL     1     -30.174  12.767  11.142  1.00  0.00     0.695 A 
HETATM    8  N10 UNL     1     -30.705  11.638  10.660  1.00  0.00    -0.023 N 
ATOM      9  H10 UNL     1     -31.265  11.690   9.809  1.00  0.00     0.203 HD
ENDROOT
BRANCH   7  10
HETATM   10  N8  UNL     1     -30.286  13.894  10.664  1.00  0.00    -0.221 N 
ATOM     11  H8  UNL     1     -31.014  14.387  11.180  1.00  0.00     0.178 HD
BRANCH  10  12
HETATM   12  C5  UNL     1     -29.801  14.740   9.697  1.00  0.00     0.100 C 
HETATM   13  C6  UNL     1     -28.295  14.861   9.607  1.00  0.00     0.026 C 
HETATM   14  C7  UNL     1     -28.086  15.654   8.346  1.00  0.00     0.008 C 
HETATM   15  C8  UNL     1     -29.357  15.620   7.571  1.00  0.00     0.013 C 
HETATM   16  C10 UNL     1     -30.196  14.553   8.272  1.00  0.00     0.032 C 
BRANCH  15  17
HETATM   17  C9  UNL     1     -30.127  16.902   7.578  1.00  0.00     0.234 C 
BRANCH  17  18
HETATM   18  N9  UNL     1     -31.535  16.687   7.321  1.00  0.00    -0.079 N 
ATOM     19  H93 UNL     1     -31.842  17.192   6.489  1.00  0.00     0.274 HD
ATOM     20  H92 UNL     1     -31.713  15.734   7.004  1.00  0.00     0.274 HD
ATOM     21  H91 UNL     1     -32.110  16.922   8.130  1.00  0.00     0.274 HD
ENDBRANCH  17  18
ENDBRANCH  15  17
ENDBRANCH  10  12
ENDBRANCH   7  10
BRANCH   4  22
HETATM   22  S1  UNL     1     -28.280  11.261  14.387  1.00  0.00    -0.011 SA
BRANCH  22  23
HETATM   23  C3  UNL     1     -29.361  11.260  15.816  1.00  0.00     0.214 A 
HETATM   24  N3  UNL     1     -29.108  11.687  17.058  1.00  0.00    -0.261 N 
HETATM   25  N4  UNL     1     -30.205  11.483  17.761  1.00  0.00    -0.224 N 
ATOM     26  H3  UNL     1     -28.235  12.093  17.396  1.00  0.00     0.191 HD
HETATM   27  N5  UNL     1     -31.149  10.945  17.027  1.00  0.00    -0.199 N 
ATOM     28  H4  UNL     1     -30.305  11.714  18.750  1.00  0.00     0.210 HD
HETATM   29  N6  UNL     1     -30.613  10.809  15.815  1.00  0.00    -0.122 N 
ATOM     30  H5  UNL     1     -32.091  10.686  17.321  1.00  0.00     0.212 HD
BRANCH  29  31
HETATM   31  O1  UNL     1     -31.301  10.271  14.743  1.00  0.00    -0.265 OA
ATOM     32  H1  UNL     1     -31.365  10.632  13.867  1.00  0.00     0.247 HD
ENDBRANCH  29  31
ENDBRANCH  22  23
ENDBRANCH   4  22
BRANCH   1  33
HETATM   33  N1  UNL     1     -31.067   9.360  10.748  1.00  0.00    -0.234 N 
ATOM     34  H12 UNL     1     -30.994   8.461  11.224  1.00  0.00     0.174 HD
ATOM     35  H11 UNL     1     -31.571   9.411   9.863  1.00  0.00     0.174 HD
ENDBRANCH   1  33
TORSDOF 8
ENDMDL
MODEL 4
REMARK VINA RESULT: -8.348987205      2.606      6.106
REMARK  8 active torsions:
REMARK  status: ('A' for Active; 'I' for Inactive)
REMARK    1  A    between atoms: N1_1  and  C1_4 
REMARK    2  A    between atoms: C2_7  and  S1_8 
REMARK    3  A    between atoms: S1_8  and  C3_9 
REMARK    4  A    between atoms: N6_16  and  O1_17 
REMARK    5  A    between atoms: C4_21  and  N8_22 
REMARK    6  A    between atoms: N8_22  and  C5_24 
REMARK    7  A    between atoms: C8_27  and  C9_28 
REMARK    8  A    between atoms: C9_28  and  N9_29 
ROOT
HETATM    1  C1  UNL     1     -32.811  13.883  15.793  1.00  0.00     0.692 A 
HETATM    2  N2  UNL     1     -32.592  13.861  14.468  1.00  0.00    -0.169 N 
ATOM      3  H2  UNL     1     -33.059  14.537  13.862  1.00  0.00     0.186 HD
HETATM    4  C2  UNL     1     -31.754  12.944  13.938  1.00  0.00     0.182 A 
HETATM    5  N7  UNL     1     -31.157  12.076  14.742  1.00  0.00    -0.169 N 
ATOM      6  H7  UNL     1     -30.526  11.390  14.327  1.00  0.00     0.186 HD
HETATM    7  C4  UNL     1     -31.340  12.047  16.102  1.00  0.00     0.695 A 
HETATM    8  N10 UNL     1     -32.177  12.972  16.581  1.00  0.00    -0.023 N 
ATOM      9  H10 UNL     1     -32.350  12.997  17.586  1.00  0.00     0.203 HD
ENDROOT
BRANCH   7  10
HETATM   10  N8  UNL     1     -30.734  11.197  16.752  1.00  0.00    -0.221 N 
ATOM     11  H8  UNL     1     -31.418  10.657  17.282  1.00  0.00     0.178 HD
BRANCH  10  12
HETATM   12  C5  UNL     1     -29.486  10.700  17.035  1.00  0.00     0.100 C 
HETATM   13  C6  UNL     1     -28.734  10.080  15.878  1.00  0.00     0.026 C 
HETATM   14  C7  UNL     1     -27.359   9.849  16.443  1.00  0.00     0.008 C 
HETATM   15  C8  UNL     1     -27.235  10.659  17.685  1.00  0.00     0.013 C 
HETATM   16  C10 UNL     1     -28.454  11.579  17.657  1.00  0.00     0.032 C 
BRANCH  15  17
HETATM   17  C9  UNL     1     -27.273   9.867  18.954  1.00  0.00     0.234 C 
BRANCH  17  18
HETATM   18  N9  UNL     1     -25.970   9.338  19.298  1.00  0.00    -0.079 N 
ATOM     19  H93 UNL     1     -25.688   9.626  20.235  1.00  0.00     0.274 HD
ATOM     20  H92 UNL     1     -26.007   8.329  19.444  1.00  0.00     0.274 HD
ATOM     21  H91 UNL     1     -25.264   9.586  18.605  1.00  0.00     0.274 HD
ENDBRANCH  17  18
ENDBRANCH  15  17
ENDBRANCH  10  12
ENDBRANCH   7  10
BRANCH   4  22
HETATM   22  S1  UNL     1     -31.518  12.982  12.167  1.00  0.00    -0.011 SA
BRANCH  22  23
HETATM   23  C3  UNL     1     -31.156  11.334  11.564  1.00  0.00     0.214 A 
HETATM   24  N3  UNL     1     -31.894  10.554  10.766  1.00  0.00    -0.261 N 
HETATM   25  N4  UNL     1     -31.218   9.434  10.599  1.00  0.00    -0.224 N 
ATOM     26  H3  UNL     1     -32.803  10.781  10.365  1.00  0.00     0.191 HD
HETATM   27  N5  UNL     1     -30.081   9.461  11.252  1.00  0.00    -0.199 N 
ATOM     28  H4  UNL     1     -31.538   8.647  10.034  1.00  0.00     0.210 HD
HETATM   29  N6  UNL     1     -30.051  10.650  11.852  1.00  0.00    -0.122 N 
ATOM     30  H5  UNL     1     -29.372   8.728  11.293  1.00  0.00     0.212 HD
BRANCH  29  31
HETATM   31  O1  UNL     1     -29.000  11.067  12.648  1.00  0.00    -0.265 OA
ATOM     32  H1  UNL     1     -28.108  11.239  12.371  1.00  0.00     0.247 HD
ENDBRANCH  29  31
ENDBRANCH  22  23
ENDBRANCH   4  22
BRANCH   1  33
HETATM   33  N1  UNL     1     -33.613  14.758  16.301  1.00  0.00    -0.234 N 
ATOM     34  H12 UNL     1     -33.375  15.255  17.158  1.00  0.00     0.174 HD
ATOM     35  H11 UNL     1     -34.501  14.961  15.842  1.00  0.00     0.174 HD
ENDBRANCH   1  33
TORSDOF 8
ENDMDL
MODEL 5
REMARK VINA RESULT: -8.330796939      3.740      7.570
REMARK  8 active torsions:
REMARK  status: ('A' for Active; 'I' for Inactive)
REMARK    1  A    between atoms: N1_1  and  C1_4 
REMARK    2  A    between atoms: C2_7  and  S1_8 
REMARK    3  A    between atoms: S1_8  and  C3_9 
REMARK    4  A    between atoms: N6_16  and  O1_17 
REMARK    5  A    between atoms: C4_21  and  N8_22 
REMARK    6  A    between atoms: N8_22  and  C5_24 
REMARK    7  A    between atoms: C8_27  and  C9_28 
REMARK    8  A    between atoms: C9_28  and  N9_29 
ROOT
HETATM    1  C1  UNL     1     -30.815  10.325  11.135  1.00  0.00     0.692 A 
HETATM    2  N2  UNL     1     -31.136  10.497  12.429  1.00  0.00    -0.169 N 
ATOM      3  H2  UNL     1     -31.644   9.768  12.930  1.00  0.00     0.186 HD
HETATM    4  C2  UNL     1     -30.785  11.637  13.063  1.00  0.00     0.182 A 
HETATM    5  N7  UNL     1     -30.125  12.571  12.394  1.00  0.00    -0.169 N 
ATOM      6  H7  UNL     1     -29.866  13.425  12.888  1.00  0.00     0.186 HD
HETATM    7  C4  UNL     1     -29.769  12.455  11.073  1.00  0.00     0.695 A 
HETATM    8  N10 UNL     1     -30.137  11.311  10.487  1.00  0.00    -0.023 N 
ATOM      9  H10 UNL     1     -29.899  11.170   9.505  1.00  0.00     0.203 HD
ENDROOT
BRANCH   7  10
HETATM   10  N8  UNL     1     -29.157  13.384  10.552  1.00  0.00    -0.221 N 
ATOM     11  H8  UNL     1     -28.210  13.390  10.929  1.00  0.00     0.178 HD
BRANCH  10  12
HETATM   12  C5  UNL     1     -29.266  14.417   9.654  1.00  0.00     0.100 C 
HETATM   13  C6  UNL     1     -27.967  15.009   9.154  1.00  0.00     0.026 C 
HETATM   14  C7  UNL     1     -28.408  15.931   8.050  1.00  0.00     0.008 C 
HETATM   15  C8  UNL     1     -29.804  15.566   7.684  1.00  0.00     0.013 C 
HETATM   16  C10 UNL     1     -30.044  14.236   8.395  1.00  0.00     0.032 C 
BRANCH  15  17
HETATM   17  C9  UNL     1     -30.844  16.539   8.144  1.00  0.00     0.234 C 
BRANCH  17  18
HETATM   18  N9  UNL     1     -31.852  16.769   7.130  1.00  0.00    -0.079 N 
ATOM     19  H93 UNL     1     -32.509  17.494   7.418  1.00  0.00     0.274 HD
ATOM     20  H92 UNL     1     -31.455  17.228   6.311  1.00  0.00     0.274 HD
ATOM     21  H91 UNL     1     -32.337  15.908   6.874  1.00  0.00     0.274 HD
ENDBRANCH  17  18
ENDBRANCH  15  17
ENDBRANCH  10  12
ENDBRANCH   7  10
BRANCH   4  22
HETATM   22  S1  UNL     1     -31.249  11.788  14.782  1.00  0.00    -0.011 SA
BRANCH  22  23
HETATM   23  C3  UNL     1     -32.141  13.320  15.042  1.00  0.00     0.214 A 
HETATM   24  N3  UNL     1     -33.387  13.497  15.494  1.00  0.00    -0.261 N 
HETATM   25  N4  UNL     1     -33.604  14.798  15.514  1.00  0.00    -0.224 N 
ATOM     26  H3  UNL     1     -34.043  12.767  15.772  1.00  0.00     0.191 HD
HETATM   27  N5  UNL     1     -32.554  15.462  15.094  1.00  0.00    -0.199 N 
ATOM     28  H4  UNL     1     -34.477  15.231  15.816  1.00  0.00     0.210 HD
HETATM   29  N6  UNL     1     -31.646  14.532  14.802  1.00  0.00    -0.122 N 
ATOM     30  H5  UNL     1     -32.454  16.475  15.010  1.00  0.00     0.212 HD
BRANCH  29  31
HETATM   31  O1  UNL     1     -30.385  14.834  14.321  1.00  0.00    -0.265 OA
ATOM     32  H1  UNL     1     -30.171  15.201  13.472  1.00  0.00     0.247 HD
ENDBRANCH  29  31
ENDBRANCH  22  23
ENDBRANCH   4  22
BRANCH   1  33
HETATM   33  N1  UNL     1     -31.151   9.237  10.527  1.00  0.00    -0.234 N 
ATOM     34  H12 UNL     1     -32.070   9.138  10.095  1.00  0.00     0.174 HD
ATOM     35  H11 UNL     1     -30.493   8.460  10.473  1.00  0.00     0.174 HD
ENDBRANCH   1  33
TORSDOF 8
ENDMDL
