MODEL 1
REMARK VINA RESULT: -7.069260439      0.000      0.000
REMARK  9 active torsions:
REMARK  status: ('A' for Active; 'I' for Inactive)
REMARK    1  A    between atoms: N1_2  and  C2_5 
REMARK    2  A    between atoms: C2_5  and  O1_6 
REMARK    3  A    between atoms: C2_5  and  N2_8 
REMARK    4  A    between atoms: N2_8  and  C3_10 
REMARK    5  A    between atoms: C5_12  and  N3_13 
REMARK    6  A    between atoms: N3_13  and  C6_15 
REMARK    7  A    between atoms: C6_15  and  C7_16 
REMARK    8  A    between atoms: C7_16  and  N4_17 
REMARK    9  A    between atoms: C8_23  and  N6_24 
ROOT
HETATM    1  C3  UNL     1     -30.617  13.081  16.848  1.00  0.00     0.140 A 
HETATM    2  C4  UNL     1     -31.798  13.837  16.639  1.00  0.00     0.100 A 
HETATM    3  C5  UNL     1     -32.591  13.512  15.525  1.00  0.00     0.135 A 
HETATM    4  N5  UNL     1     -33.715  14.215  15.312  1.00  0.00    -0.176 N 
ATOM      5  H5  UNL     1     -34.298  13.988  14.506  1.00  0.00     0.186 HD
HETATM    6  C8  UNL     1     -34.093  15.213  16.137  1.00  0.00     0.679 A 
HETATM    7  N7  UNL     1     -33.332  15.510  17.194  1.00  0.00    -0.173 N 
ATOM      8  H7  UNL     1     -33.626  16.265  17.813  1.00  0.00     0.186 HD
HETATM    9  C9  UNL     1     -32.189  14.852  17.475  1.00  0.00     0.178 A 
HETATM   10  N8  UNL     1     -31.442  15.169  18.549  1.00  0.00    -0.067 N 
HETATM   11  N9  UNL     1     -31.627  16.083  19.457  1.00  0.00    -0.273 N 
ATOM     12  H9  UNL     1     -32.407  16.739  19.505  1.00  0.00     0.189 HD
HETATM   13  C10 UNL     1     -30.595  16.002  20.327  1.00  0.00     0.216 A 
HETATM   14  N10 UNL     1     -29.802  15.009  19.893  1.00  0.00    -0.184 N 
ATOM     15  H10 UNL     1     -28.938  14.708  20.343  1.00  0.00     0.185 HD
HETATM   16  C11 UNL     1     -30.327  14.465  18.758  1.00  0.00     0.709 A 
HETATM   17  N11 UNL     1     -29.919  13.452  17.942  1.00  0.00    -0.170 N 
HETATM   18  C12 UNL     1     -28.706  12.775  18.287  1.00  0.00     0.177 C 
ENDROOT
BRANCH   1  19
HETATM   19  N2  UNL     1     -30.353  12.193  16.025  1.00  0.00    -0.326 N 
ATOM     20  H2  UNL     1     -31.212  11.729  15.730  1.00  0.00     0.165 HD
BRANCH  19  21
HETATM   21  C2  UNL     1     -29.274  11.630  15.380  1.00  0.00     0.427 C 
BRANCH  21  22
HETATM   22  N1  UNL     1     -29.236  10.162  15.511  1.00  0.00    -0.035 N 
HETATM   23  C1  UNL     1     -28.229   9.742  16.455  1.00  0.00     0.272 C 
ATOM     24  H12 UNL     1     -29.111   9.710  14.606  1.00  0.00     0.281 HD
ATOM     25  H11 UNL     1     -30.153   9.786  15.752  1.00  0.00     0.281 HD
ENDBRANCH  21  22
BRANCH  21  26
HETATM   26  O1  UNL     1     -29.288  11.827  13.960  1.00  0.00    -0.354 OA
ATOM     27  H1  UNL     1     -29.455  12.758  13.875  1.00  0.00     0.214 HD
ENDBRANCH  21  26
ENDBRANCH  19  21
ENDBRANCH   1  19
BRANCH   3  28
HETATM   28  N3  UNL     1     -32.171  12.563  14.810  1.00  0.00    -0.373 N 
ATOM     29  H3  UNL     1     -31.313  12.094  15.100  1.00  0.00     0.161 HD
BRANCH  28  30
HETATM   30  C6  UNL     1     -32.808  12.106  13.632  1.00  0.00     0.148 C 
BRANCH  30  31
HETATM   31  C7  UNL     1     -32.282  12.736  12.362  1.00  0.00     0.249 C 
BRANCH  31  32
HETATM   32  N4  UNL     1     -33.351  12.761  11.393  1.00  0.00    -0.078 N 
ATOM     33  H43 UNL     1     -33.015  12.657  10.435  1.00  0.00     0.274 HD
ATOM     34  H42 UNL     1     -33.933  11.924  11.427  1.00  0.00     0.274 HD
ATOM     35  H41 UNL     1     -33.887  13.618  11.530  1.00  0.00     0.274 HD
ENDBRANCH  31  32
ENDBRANCH  30  31
ENDBRANCH  28  30
ENDBRANCH   3  28
BRANCH   6  36
HETATM   36  N6  UNL     1     -35.191  15.854  15.877  1.00  0.00    -0.234 N 
ATOM     37  H62 UNL     1     -35.929  15.452  15.299  1.00  0.00     0.174 HD
ATOM     38  H61 UNL     1     -35.314  16.790  16.262  1.00  0.00     0.174 HD
ENDBRANCH   6  36
TORSDOF 9
ENDMDL
MODEL 2
REMARK VINA RESULT: -6.786331121      5.460      7.917
REMARK  9 active torsions:
REMARK  status: ('A' for Active; 'I' for Inactive)
REMARK    1  A    between atoms: N1_2  and  C2_5 
REMARK    2  A    between atoms: C2_5  and  O1_6 
REMARK    3  A    between atoms: C2_5  and  N2_8 
REMARK    4  A    between atoms: N2_8  and  C3_10 
REMARK    5  A    between atoms: C5_12  and  N3_13 
REMARK    6  A    between atoms: N3_13  and  C6_15 
REMARK    7  A    between atoms: C6_15  and  C7_16 
REMARK    8  A    between atoms: C7_16  and  N4_17 
REMARK    9  A    between atoms: C8_23  and  N6_24 
ROOT
HETATM    1  C3  UNL     1     -28.153  13.650  10.245  1.00  0.00     0.140 A 
HETATM    2  C4  UNL     1     -29.010  14.514   9.518  1.00  0.00     0.100 A 
HETATM    3  C5  UNL     1     -30.396  14.305   9.634  1.00  0.00     0.135 A 
HETATM    4  N5  UNL     1     -31.225  15.115   8.956  1.00  0.00    -0.176 N 
ATOM      5  H5  UNL     1     -32.232  14.972   9.032  1.00  0.00     0.186 HD
HETATM    6  C8  UNL     1     -30.758  16.113   8.176  1.00  0.00     0.679 A 
HETATM    7  N7  UNL     1     -29.439  16.301   8.076  1.00  0.00    -0.173 N 
ATOM      8  H7  UNL     1     -29.096  17.059   7.486  1.00  0.00     0.186 HD
HETATM    9  C9  UNL     1     -28.543  15.531   8.725  1.00  0.00     0.178 A 
HETATM   10  N8  UNL     1     -27.219  15.745   8.611  1.00  0.00    -0.067 N 
HETATM   11  N9  UNL     1     -26.572  16.641   7.922  1.00  0.00    -0.273 N 
ATOM     12  H9  UNL     1     -26.985  17.361   7.329  1.00  0.00     0.189 HD
HETATM   13  C10 UNL     1     -25.253  16.441   8.138  1.00  0.00     0.216 A 
HETATM   14  N10 UNL     1     -25.154  15.397   8.977  1.00  0.00    -0.184 N 
ATOM     15  H10 UNL     1     -24.280  15.006   9.327  1.00  0.00     0.185 HD
HETATM   16  C11 UNL     1     -26.400  14.939   9.290  1.00  0.00     0.709 A 
HETATM   17  N11 UNL     1     -26.840  13.923  10.085  1.00  0.00    -0.170 N 
HETATM   18  C12 UNL     1     -25.854  13.139  10.763  1.00  0.00     0.177 C 
ENDROOT
BRANCH   1  19
HETATM   19  N2  UNL     1     -28.681  12.757  10.923  1.00  0.00    -0.326 N 
ATOM     20  H2  UNL     1     -29.411  13.157  11.513  1.00  0.00     0.165 HD
BRANCH  19  21
HETATM   21  C2  UNL     1     -28.601  11.399  11.138  1.00  0.00     0.427 C 
BRANCH  21  22
HETATM   22  N1  UNL     1     -29.086  11.005  12.473  1.00  0.00    -0.035 N 
HETATM   23  C1  UNL     1     -28.698  11.963  13.480  1.00  0.00     0.272 C 
ATOM     24  H12 UNL     1     -28.781  10.063  12.717  1.00  0.00     0.281 HD
ATOM     25  H11 UNL     1     -30.094  10.851  12.473  1.00  0.00     0.281 HD
ENDBRANCH  21  22
BRANCH  21  26
HETATM   26  O1  UNL     1     -29.426  10.628  10.255  1.00  0.00    -0.354 OA
ATOM     27  H1  UNL     1     -29.657  11.253   9.578  1.00  0.00     0.214 HD
ENDBRANCH  21  26
ENDBRANCH  19  21
ENDBRANCH   1  19
BRANCH   3  28
HETATM   28  N3  UNL     1     -30.747  13.358  10.387  1.00  0.00    -0.373 N 
ATOM     29  H3  UNL     1     -30.014  12.819  10.846  1.00  0.00     0.161 HD
BRANCH  28  30
HETATM   30  C6  UNL     1     -32.091  12.992  10.638  1.00  0.00     0.148 C 
BRANCH  30  31
HETATM   31  C7  UNL     1     -32.354  12.552  12.062  1.00  0.00     0.249 C 
BRANCH  31  32
HETATM   32  N4  UNL     1     -32.023  13.646  12.942  1.00  0.00    -0.078 N 
ATOM     33  H43 UNL     1     -31.963  13.360  13.919  1.00  0.00     0.274 HD
ATOM     34  H42 UNL     1     -31.060  13.963  12.832  1.00  0.00     0.274 HD
ATOM     35  H41 UNL     1     -32.702  14.394  12.793  1.00  0.00     0.274 HD
ENDBRANCH  31  32
ENDBRANCH  30  31
ENDBRANCH  28  30
ENDBRANCH   3  28
BRANCH   6  36
HETATM   36  N6  UNL     1     -31.611  16.861   7.546  1.00  0.00    -0.234 N 
ATOM     37  H62 UNL     1     -31.788  16.758   6.546  1.00  0.00     0.174 HD
ATOM     38  H61 UNL     1     -32.117  17.573   8.071  1.00  0.00     0.174 HD
ENDBRANCH   6  36
TORSDOF 9
ENDMDL
MODEL 3
REMARK VINA RESULT: -6.771588241      1.533      4.195
REMARK  9 active torsions:
REMARK  status: ('A' for Active; 'I' for Inactive)
REMARK    1  A    between atoms: N1_2  and  C2_5 
REMARK    2  A    between atoms: C2_5  and  O1_6 
REMARK    3  A    between atoms: C2_5  and  N2_8 
REMARK    4  A    between atoms: N2_8  and  C3_10 
REMARK    5  A    between atoms: C5_12  and  N3_13 
REMARK    6  A    between atoms: N3_13  and  C6_15 
REMARK    7  A    between atoms: C6_15  and  C7_16 
REMARK    8  A    between atoms: C7_16  and  N4_17 
REMARK    9  A    between atoms: C8_23  and  N6_24 
ROOT
HETATM    1  C3  UNL     1     -32.012  13.413  16.402  1.00  0.00     0.140 A 
HETATM    2  C4  UNL     1     -30.833  13.162  17.148  1.00  0.00     0.100 A 
HETATM    3  C5  UNL     1     -30.040  12.067  16.761  1.00  0.00     0.135 A 
HETATM    4  N5  UNL     1     -28.917  11.815  17.453  1.00  0.00    -0.176 N 
ATOM      5  H5  UNL     1     -28.333  11.022  17.182  1.00  0.00     0.186 HD
HETATM    6  C8  UNL     1     -28.540  12.583  18.497  1.00  0.00     0.679 A 
HETATM    7  N7  UNL     1     -29.302  13.621  18.851  1.00  0.00    -0.173 N 
ATOM      8  H7  UNL     1     -29.009  14.197  19.641  1.00  0.00     0.186 HD
HETATM    9  C9  UNL     1     -30.443  13.940  18.208  1.00  0.00     0.178 A 
HETATM   10  N8  UNL     1     -31.191  14.994  18.583  1.00  0.00    -0.067 N 
HETATM   11  N9  UNL     1     -31.007  15.850  19.548  1.00  0.00    -0.273 N 
ATOM     12  H9  UNL     1     -30.229  15.860  20.207  1.00  0.00     0.189 HD
HETATM   13  C10 UNL     1     -32.039  16.723  19.514  1.00  0.00     0.216 A 
HETATM   14  N10 UNL     1     -32.830  16.346  18.496  1.00  0.00    -0.184 N 
ATOM     15  H10 UNL     1     -33.693  16.813  18.219  1.00  0.00     0.185 HD
HETATM   16  C11 UNL     1     -32.304  15.243  17.891  1.00  0.00     0.709 A 
HETATM   17  N11 UNL     1     -32.711  14.486  16.832  1.00  0.00    -0.170 N 
HETATM   18  C12 UNL     1     -33.922  14.868  16.173  1.00  0.00     0.177 C 
ENDROOT
BRANCH   1  19
HETATM   19  N2  UNL     1     -32.275  12.642  15.468  1.00  0.00    -0.326 N 
ATOM     20  H2  UNL     1     -32.028  11.687  15.729  1.00  0.00     0.165 HD
BRANCH  19  21
HETATM   21  C2  UNL     1     -32.793  12.657  14.192  1.00  0.00     0.427 C 
BRANCH  21  22
HETATM   22  N1  UNL     1     -32.023  13.518  13.277  1.00  0.00    -0.035 N 
HETATM   23  C1  UNL     1     -32.151  13.082  11.908  1.00  0.00     0.272 C 
ATOM     24  H12 UNL     1     -31.045  13.582  13.559  1.00  0.00     0.281 HD
ATOM     25  H11 UNL     1     -32.283  14.499  13.382  1.00  0.00     0.281 HD
ENDBRANCH  21  22
BRANCH  21  26
HETATM   26  O1  UNL     1     -32.755  11.379  13.542  1.00  0.00    -0.354 OA
ATOM     27  H1  UNL     1     -33.467  11.436  12.917  1.00  0.00     0.214 HD
ENDBRANCH  21  26
ENDBRANCH  19  21
ENDBRANCH   1  19
BRANCH   3  28
HETATM   28  N3  UNL     1     -30.458  11.407  15.773  1.00  0.00    -0.373 N 
ATOM     29  H3  UNL     1     -31.451  11.465  15.550  1.00  0.00     0.161 HD
BRANCH  28  30
HETATM   30  C6  UNL     1     -29.644  10.591  14.953  1.00  0.00     0.148 C 
BRANCH  30  31
HETATM   31  C7  UNL     1     -29.271  11.224  13.631  1.00  0.00     0.249 C 
BRANCH  31  32
HETATM   32  N4  UNL     1     -29.919  10.483  12.575  1.00  0.00    -0.078 N 
ATOM     33  H43 UNL     1     -29.362   9.692  12.251  1.00  0.00     0.274 HD
ATOM     34  H42 UNL     1     -30.729   9.957  12.905  1.00  0.00     0.274 HD
ATOM     35  H41 UNL     1     -30.153  11.133  11.824  1.00  0.00     0.274 HD
ENDBRANCH  31  32
ENDBRANCH  30  31
ENDBRANCH  28  30
ENDBRANCH   3  28
BRANCH   6  36
HETATM   36  N6  UNL     1     -27.444  12.286  19.124  1.00  0.00    -0.234 N 
ATOM     37  H62 UNL     1     -27.413  11.576  19.856  1.00  0.00     0.174 HD
ATOM     38  H61 UNL     1     -26.589  12.782  18.875  1.00  0.00     0.174 HD
ENDBRANCH   6  36
TORSDOF 9
ENDMDL
MODEL 4
REMARK VINA RESULT: -6.745630552      1.965      4.889
REMARK  9 active torsions:
REMARK  status: ('A' for Active; 'I' for Inactive)
REMARK    1  A    between atoms: N1_2  and  C2_5 
REMARK    2  A    between atoms: C2_5  and  O1_6 
REMARK    3  A    between atoms: C2_5  and  N2_8 
REMARK    4  A    between atoms: N2_8  and  C3_10 
REMARK    5  A    between atoms: C5_12  and  N3_13 
REMARK    6  A    between atoms: N3_13  and  C6_15 
REMARK    7  A    between atoms: C6_15  and  C7_16 
REMARK    8  A    between atoms: C7_16  and  N4_17 
REMARK    9  A    between atoms: C8_23  and  N6_24 
ROOT
HETATM    1  C3  UNL     1     -30.864  13.434  17.536  1.00  0.00     0.140 A 
HETATM    2  C4  UNL     1     -31.430  13.081  16.285  1.00  0.00     0.100 A 
HETATM    3  C5  UNL     1     -32.501  13.861  15.813  1.00  0.00     0.135 A 
HETATM    4  N5  UNL     1     -33.050  13.545  14.629  1.00  0.00    -0.176 N 
ATOM      5  H5  UNL     1     -33.828  14.103  14.277  1.00  0.00     0.186 HD
HETATM    6  C8  UNL     1     -32.598  12.507  13.894  1.00  0.00     0.679 A 
HETATM    7  N7  UNL     1     -31.578  11.777  14.353  1.00  0.00    -0.173 N 
ATOM      8  H7  UNL     1     -31.243  10.996  13.790  1.00  0.00     0.186 HD
HETATM    9  C9  UNL     1     -30.975  12.030  15.532  1.00  0.00     0.178 A 
HETATM   10  N8  UNL     1     -29.946  11.280  15.970  1.00  0.00    -0.067 N 
HETATM   11  N9  UNL     1     -29.366  10.252  15.421  1.00  0.00    -0.273 N 
ATOM     12  H9  UNL     1     -29.609   9.828  14.526  1.00  0.00     0.189 HD
HETATM   13  C10 UNL     1     -28.382   9.850  16.256  1.00  0.00     0.216 A 
HETATM   14  N10 UNL     1     -28.409  10.681  17.312  1.00  0.00    -0.184 N 
ATOM     15  H10 UNL     1     -27.783  10.631  18.114  1.00  0.00     0.185 HD
HETATM   16  C11 UNL     1     -29.402  11.600  17.146  1.00  0.00     0.709 A 
HETATM   17  N11 UNL     1     -29.837  12.641  17.912  1.00  0.00    -0.170 N 
HETATM   18  C12 UNL     1     -29.159  12.879  19.150  1.00  0.00     0.177 C 
ENDROOT
BRANCH   1  19
HETATM   19  N2  UNL     1     -31.359  14.397  18.139  1.00  0.00    -0.326 N 
ATOM     20  H2  UNL     1     -32.376  14.356  18.078  1.00  0.00     0.165 HD
BRANCH  19  21
HETATM   21  C2  UNL     1     -30.980  15.504  18.865  1.00  0.00     0.427 C 
BRANCH  21  22
HETATM   22  N1  UNL     1     -30.021  16.357  18.141  1.00  0.00    -0.035 N 
HETATM   23  C1  UNL     1     -28.867  16.660  18.951  1.00  0.00     0.272 C 
ATOM     24  H12 UNL     1     -30.466  17.206  17.793  1.00  0.00     0.281 HD
ATOM     25  H11 UNL     1     -29.752  15.942  17.248  1.00  0.00     0.281 HD
ENDBRANCH  21  22
BRANCH  21  26
HETATM   26  O1  UNL     1     -32.062  16.402  19.148  1.00  0.00    -0.354 OA
ATOM     27  H1  UNL     1     -32.756  16.086  18.583  1.00  0.00     0.214 HD
ENDBRANCH  21  26
ENDBRANCH  19  21
ENDBRANCH   1  19
BRANCH   3  28
HETATM   28  N3  UNL     1     -32.857  14.814  16.557  1.00  0.00    -0.373 N 
ATOM     29  H3  UNL     1     -32.563  14.790  17.533  1.00  0.00     0.161 HD
BRANCH  28  30
HETATM   30  C6  UNL     1     -33.635  15.915  16.130  1.00  0.00     0.148 C 
BRANCH  30  31
HETATM   31  C7  UNL     1     -35.127  15.705  16.264  1.00  0.00     0.249 C 
BRANCH  31  32
HETATM   32  N4  UNL     1     -35.683  16.839  16.963  1.00  0.00    -0.078 N 
ATOM     33  H43 UNL     1     -36.342  16.566  17.692  1.00  0.00     0.274 HD
ATOM     34  H42 UNL     1     -35.000  17.305  17.561  1.00  0.00     0.274 HD
ATOM     35  H41 UNL     1     -36.096  17.468  16.275  1.00  0.00     0.274 HD
ENDBRANCH  31  32
ENDBRANCH  30  31
ENDBRANCH  28  30
ENDBRANCH   3  28
BRANCH   6  36
HETATM   36  N6  UNL     1     -33.171  12.254  12.758  1.00  0.00    -0.234 N 
ATOM     37  H62 UNL     1     -34.131  11.914  12.699  1.00  0.00     0.174 HD
ATOM     38  H61 UNL     1     -32.640  12.400  11.899  1.00  0.00     0.174 HD
ENDBRANCH   6  36
TORSDOF 9
ENDMDL
MODEL 5
REMARK VINA RESULT: -6.717546613      1.361      1.366
REMARK  9 active torsions:
REMARK  status: ('A' for Active; 'I' for Inactive)
REMARK    1  A    between atoms: N1_2  and  C2_5 
REMARK    2  A    between atoms: C2_5  and  O1_6 
REMARK    3  A    between atoms: C2_5  and  N2_8 
REMARK    4  A    between atoms: N2_8  and  C3_10 
REMARK    5  A    between atoms: C5_12  and  N3_13 
REMARK    6  A    between atoms: N3_13  and  C6_15 
REMARK    7  A    between atoms: C6_15  and  C7_16 
REMARK    8  A    between atoms: C7_16  and  N4_17 
REMARK    9  A    between atoms: C8_23  and  N6_24 
ROOT
HETATM    1  C3  UNL     1     -29.913  13.298  15.660  1.00  0.00     0.140 A 
HETATM    2  C4  UNL     1     -31.162  13.923  15.899  1.00  0.00     0.100 A 
HETATM    3  C5  UNL     1     -32.285  13.413  15.224  1.00  0.00     0.135 A 
HETATM    4  N5  UNL     1     -33.478  13.991  15.439  1.00  0.00    -0.176 N 
ATOM      5  H5  UNL     1     -34.300  13.629  14.954  1.00  0.00     0.186 HD
HETATM    6  C8  UNL     1     -33.617  15.037  16.280  1.00  0.00     0.679 A 
HETATM    7  N7  UNL     1     -32.542  15.510  16.916  1.00  0.00    -0.173 N 
ATOM      8  H7  UNL     1     -32.657  16.300  17.550  1.00  0.00     0.186 HD
HETATM    9  C9  UNL     1     -31.311  14.986  16.753  1.00  0.00     0.178 A 
HETATM   10  N8  UNL     1     -30.244  15.479  17.409  1.00  0.00    -0.067 N 
HETATM   11  N9  UNL     1     -30.165  16.468  18.254  1.00  0.00    -0.273 N 
ATOM     12  H9  UNL     1     -30.936  17.056  18.569  1.00  0.00     0.189 HD
HETATM   13  C10 UNL     1     -28.872  16.570  18.634  1.00  0.00     0.216 A 
HETATM   14  N10 UNL     1     -28.201  15.606  17.982  1.00  0.00    -0.184 N 
ATOM     15  H10 UNL     1     -27.200  15.430  18.064  1.00  0.00     0.185 HD
HETATM   16  C11 UNL     1     -29.062  14.900  17.195  1.00  0.00     0.709 A 
HETATM   17  N11 UNL     1     -28.889  13.842  16.352  1.00  0.00    -0.170 N 
HETATM   18  C12 UNL     1     -27.567  13.311  16.219  1.00  0.00     0.177 C 
ENDROOT
BRANCH   1  19
HETATM   19  N2  UNL     1     -29.890  12.351  14.860  1.00  0.00    -0.326 N 
ATOM     20  H2  UNL     1     -30.513  12.545  14.077  1.00  0.00     0.165 HD
BRANCH  19  21
HETATM   21  C2  UNL     1     -29.295  11.121  14.688  1.00  0.00     0.427 C 
BRANCH  21  22
HETATM   22  N1  UNL     1     -29.511  10.219  15.834  1.00  0.00    -0.035 N 
HETATM   23  C1  UNL     1     -28.265   9.859  16.465  1.00  0.00     0.272 C 
ATOM     24  H12 UNL     1     -30.045   9.394  15.563  1.00  0.00     0.281 HD
ATOM     25  H11 UNL     1     -30.167  10.619  16.504  1.00  0.00     0.281 HD
ENDBRANCH  21  22
BRANCH  21  26
HETATM   26  O1  UNL     1     -29.827  10.375  13.585  1.00  0.00    -0.354 OA
ATOM     27  H1  UNL     1     -30.765  10.481  13.689  1.00  0.00     0.214 HD
ENDBRANCH  21  26
ENDBRANCH  19  21
ENDBRANCH   1  19
BRANCH   3  28
HETATM   28  N3  UNL     1     -32.070  12.432  14.464  1.00  0.00    -0.373 N 
ATOM     29  H3  UNL     1     -31.265  11.840  14.667  1.00  0.00     0.161 HD
BRANCH  28  30
HETATM   30  C6  UNL     1     -32.870  12.094  13.346  1.00  0.00     0.148 C 
BRANCH  30  31
HETATM   31  C7  UNL     1     -32.282  12.514  12.018  1.00  0.00     0.249 C 
BRANCH  31  32
HETATM   32  N4  UNL     1     -33.368  12.826  11.120  1.00  0.00    -0.078 N 
ATOM     33  H43 UNL     1     -34.260  12.928  11.603  1.00  0.00     0.274 HD
ATOM     34  H42 UNL     1     -33.307  13.772  10.742  1.00  0.00     0.274 HD
ATOM     35  H41 UNL     1     -33.396  12.113  10.390  1.00  0.00     0.274 HD
ENDBRANCH  31  32
ENDBRANCH  30  31
ENDBRANCH  28  30
ENDBRANCH   3  28
BRANCH   6  36
HETATM   36  N6  UNL     1     -34.797  15.550  16.444  1.00  0.00    -0.234 N 
ATOM     37  H62 UNL     1     -35.569  15.018  16.849  1.00  0.00     0.174 HD
ATOM     38  H61 UNL     1     -34.955  16.516  16.157  1.00  0.00     0.174 HD
ENDBRANCH   6  36
TORSDOF 9
ENDMDL
