MODEL 1
REMARK VINA RESULT: -4.757891756      0.000      0.000
REMARK  3 active torsions:
REMARK  status: ('A' for Active; 'I' for Inactive)
REMARK    1  A    between atoms: C2_2  and  C3_3 
REMARK    2  A    between atoms: C3_3  and  C4_4 
REMARK    3  A    between atoms: C4_4  and  N1_5 
ROOT
HETATM    1  N1  UNL     1       7.591   6.666  -2.473  1.00  0.00    -0.217 NA
HETATM    2  C5  UNL     1       7.880   7.584  -3.518  1.00  0.00     0.148 C 
HETATM    3  C6  UNL     1       6.834   8.644  -3.554  1.00  0.00     0.171 C 
HETATM    4  N2  UNL     1       5.555   7.941  -3.715  1.00  0.00    -0.128 NA
HETATM    5  N3  UNL     1       5.322   7.254  -2.562  1.00  0.00    -0.132 NA
HETATM    6  C7  UNL     1       4.412   8.047  -1.736  1.00  0.00     0.146 C 
HETATM    7  C8  UNL     1       4.879   9.470  -1.580  1.00  0.00     0.093 C 
HETATM    8  S1  UNL     1       6.684   9.463  -1.916  1.00  0.00    -0.144 SA
HETATM    9  N4  UNL     1       6.357   6.708  -1.915  1.00  0.00    -0.266 N 
ATOM     10  H4  UNL     1       6.214   6.316  -0.984  1.00  0.00     0.197 HD
ENDROOT
BRANCH   1  11
HETATM   11  C4  UNL     1       8.567   6.641  -1.397  1.00  0.00     0.114 C 
BRANCH  11  12
HETATM   12  C3  UNL     1       9.972   6.422  -1.849  1.00  0.00     0.016 C 
BRANCH  12  13
HETATM   13  C2  UNL     1      10.790   5.590  -0.909  1.00  0.00    -0.003 C 
HETATM   14  C1  UNL     1      11.927   6.421  -0.382  1.00  0.00     0.005 C 
ENDBRANCH  12  13
ENDBRANCH  11  12
ENDBRANCH   1  11
TORSDOF 3
ENDMDL
MODEL 2
REMARK VINA RESULT: -4.652925730      0.804      1.048
REMARK  3 active torsions:
REMARK  status: ('A' for Active; 'I' for Inactive)
REMARK    1  A    between atoms: C2_2  and  C3_3 
REMARK    2  A    between atoms: C3_3  and  C4_4 
REMARK    3  A    between atoms: C4_4  and  N1_5 
ROOT
HETATM    1  N1  UNL     1       7.675   6.728  -2.644  1.00  0.00    -0.217 NA
HETATM    2  C5  UNL     1       7.904   7.582  -3.756  1.00  0.00     0.148 C 
HETATM    3  C6  UNL     1       6.869   8.654  -3.782  1.00  0.00     0.171 C 
HETATM    4  N2  UNL     1       5.575   7.961  -3.820  1.00  0.00    -0.128 NA
HETATM    5  N3  UNL     1       5.411   7.342  -2.618  1.00  0.00    -0.132 NA
HETATM    6  C7  UNL     1       4.566   8.192  -1.780  1.00  0.00     0.146 C 
HETATM    7  C8  UNL     1       5.057   9.615  -1.734  1.00  0.00     0.093 C 
HETATM    8  S1  UNL     1       6.835   9.564  -2.187  1.00  0.00    -0.144 SA
HETATM    9  N4  UNL     1       6.481   6.818  -2.010  1.00  0.00    -0.266 N 
ATOM     10  H4  UNL     1       6.396   6.480  -1.051  1.00  0.00     0.197 HD
ENDROOT
BRANCH   1  11
HETATM   11  C4  UNL     1       8.719   6.749  -1.634  1.00  0.00     0.114 C 
BRANCH  11  12
HETATM   12  C3  UNL     1       8.217   6.677  -0.231  1.00  0.00     0.016 C 
BRANCH  12  13
HETATM   13  C2  UNL     1       9.259   6.275   0.768  1.00  0.00    -0.003 C 
HETATM   14  C1  UNL     1      10.531   5.939   0.039  1.00  0.00     0.005 C 
ENDBRANCH  12  13
ENDBRANCH  11  12
ENDBRANCH   1  11
TORSDOF 3
ENDMDL
MODEL 3
REMARK VINA RESULT: -4.544065675      5.859      7.031
REMARK  3 active torsions:
REMARK  status: ('A' for Active; 'I' for Inactive)
REMARK    1  A    between atoms: C2_2  and  C3_3 
REMARK    2  A    between atoms: C3_3  and  C4_4 
REMARK    3  A    between atoms: C4_4  and  N1_5 
ROOT
HETATM    1  N1  UNL     1      13.426   4.754  -0.846  1.00  0.00    -0.217 NA
HETATM    2  C5  UNL     1      14.334   5.830  -0.654  1.00  0.00     0.148 C 
HETATM    3  C6  UNL     1      13.793   6.759   0.378  1.00  0.00     0.171 C 
HETATM    4  N2  UNL     1      12.470   7.173  -0.109  1.00  0.00    -0.128 NA
HETATM    5  N3  UNL     1      11.659   6.080  -0.059  1.00  0.00    -0.132 NA
HETATM    6  C7  UNL     1      10.871   6.154   1.171  1.00  0.00     0.146 C 
HETATM    7  C8  UNL     1      11.730   6.400   2.383  1.00  0.00     0.093 C 
HETATM    8  S1  UNL     1      13.426   5.857   1.936  1.00  0.00    -0.144 SA
HETATM    9  N4  UNL     1      12.175   4.879  -0.339  1.00  0.00    -0.266 N 
ATOM     10  H4  UNL     1      11.618   4.042  -0.168  1.00  0.00     0.197 HD
ENDROOT
BRANCH   1  11
HETATM   11  C4  UNL     1      13.937   3.450  -0.456  1.00  0.00     0.114 C 
BRANCH  11  12
HETATM   12  C3  UNL     1      14.438   2.623  -1.593  1.00  0.00     0.016 C 
BRANCH  12  13
HETATM   13  C2  UNL     1      13.470   2.504  -2.730  1.00  0.00    -0.003 C 
HETATM   14  C1  UNL     1      14.000   1.506  -3.722  1.00  0.00     0.005 C 
ENDBRANCH  12  13
ENDBRANCH  11  12
ENDBRANCH   1  11
TORSDOF 3
ENDMDL
MODEL 4
REMARK VINA RESULT: -4.337757229      1.826      4.529
REMARK  3 active torsions:
REMARK  status: ('A' for Active; 'I' for Inactive)
REMARK    1  A    between atoms: C2_2  and  C3_3 
REMARK    2  A    between atoms: C3_3  and  C4_4 
REMARK    3  A    between atoms: C4_4  and  N1_5 
ROOT
HETATM    1  N1  UNL     1       6.224   8.357  -3.914  1.00  0.00    -0.217 NA
HETATM    2  C5  UNL     1       4.989   8.130  -3.249  1.00  0.00     0.148 C 
HETATM    3  C6  UNL     1       5.248   7.535  -1.908  1.00  0.00     0.171 C 
HETATM    4  N2  UNL     1       6.027   6.314  -2.154  1.00  0.00    -0.128 NA
HETATM    5  N3  UNL     1       7.250   6.699  -2.612  1.00  0.00    -0.132 NA
HETATM    6  C7  UNL     1       8.184   6.678  -1.486  1.00  0.00     0.146 C 
HETATM    7  C8  UNL     1       7.654   7.430  -0.294  1.00  0.00     0.093 C 
HETATM    8  S1  UNL     1       6.391   8.597  -0.936  1.00  0.00    -0.144 SA
HETATM    9  N4  UNL     1       7.335   7.768  -3.409  1.00  0.00    -0.266 N 
ATOM     10  H4  UNL     1       8.253   8.148  -3.642  1.00  0.00     0.197 HD
ENDROOT
BRANCH   1  11
HETATM   11  C4  UNL     1       6.534   9.755  -4.164  1.00  0.00     0.114 C 
BRANCH  11  12
HETATM   12  C3  UNL     1       5.363  10.673  -4.045  1.00  0.00     0.016 C 
BRANCH  12  13
HETATM   13  C2  UNL     1       5.702  12.021  -3.487  1.00  0.00    -0.003 C 
HETATM   14  C1  UNL     1       6.918  11.896  -2.612  1.00  0.00     0.005 C 
ENDBRANCH  12  13
ENDBRANCH  11  12
ENDBRANCH   1  11
TORSDOF 3
ENDMDL
MODEL 5
REMARK VINA RESULT: -4.311117359      5.801      7.378
REMARK  3 active torsions:
REMARK  status: ('A' for Active; 'I' for Inactive)
REMARK    1  A    between atoms: C2_2  and  C3_3 
REMARK    2  A    between atoms: C3_3  and  C4_4 
REMARK    3  A    between atoms: C4_4  and  N1_5 
ROOT
HETATM    1  N1  UNL     1      12.638   6.643   2.051  1.00  0.00    -0.217 NA
HETATM    2  C5  UNL     1      12.198   7.466   0.980  1.00  0.00     0.148 C 
HETATM    3  C6  UNL     1      12.487   6.793  -0.317  1.00  0.00     0.171 C 
HETATM    4  N2  UNL     1      13.932   6.531  -0.321  1.00  0.00    -0.128 NA
HETATM    5  N3  UNL     1      14.175   5.586   0.630  1.00  0.00    -0.132 NA
HETATM    6  C7  UNL     1      14.266   4.286  -0.035  1.00  0.00     0.146 C 
HETATM    7  C8  UNL     1      13.094   4.029  -0.944  1.00  0.00     0.093 C 
HETATM    8  S1  UNL     1      11.736   5.117  -0.361  1.00  0.00    -0.144 SA
HETATM    9  N4  UNL     1      13.459   5.605   1.758  1.00  0.00    -0.266 N 
ATOM     10  H4  UNL     1      13.532   4.825   2.411  1.00  0.00     0.197 HD
ENDROOT
BRANCH   1  11
HETATM   11  C4  UNL     1      11.577   6.144   2.910  1.00  0.00     0.114 C 
BRANCH  11  12
HETATM   12  C3  UNL     1      10.273   6.852   2.749  1.00  0.00     0.016 C 
BRANCH  12  13
HETATM   13  C2  UNL     1       9.122   5.943   2.447  1.00  0.00    -0.003 C 
HETATM   14  C1  UNL     1       8.414   6.442   1.218  1.00  0.00     0.005 C 
ENDBRANCH  12  13
ENDBRANCH  11  12
ENDBRANCH   1  11
TORSDOF 3
ENDMDL
