MODEL 1
REMARK VINA RESULT: -5.263417698      0.000      0.000
REMARK  4 active torsions:
REMARK  status: ('A' for Active; 'I' for Inactive)
REMARK    1  A    between atoms: N1_1  and  C1_5 
REMARK    2  A    between atoms: C1_5  and  C2_6 
REMARK    3  A    between atoms: C5_9  and  C6_10 
REMARK    4  A    between atoms: C6_10  and  N2_11 
ROOT
HETATM    1  C2  UNL     1      14.052   2.392  -1.991  1.00  0.00     0.211 C 
HETATM    2  C3  UNL     1      12.609   2.652  -2.390  1.00  0.00     0.037 C 
HETATM    3  C4  UNL     1      12.174   3.748  -1.452  1.00  0.00     0.037 C 
HETATM    4  C5  UNL     1      13.406   4.072  -0.682  1.00  0.00     0.204 C 
HETATM    5  N3  UNL     1      14.494   3.700  -1.533  1.00  0.00    -0.064 N 
ATOM      6  H31 UNL     1      14.724   4.368  -2.269  1.00  0.00     0.278 HD
ATOM      7  H32 UNL     1      15.417   3.723  -1.099  1.00  0.00     0.278 HD
ENDROOT
BRANCH   4   8
HETATM    8  C6  UNL     1      13.358   5.547  -0.343  1.00  0.00     0.149 C 
BRANCH   8   9
HETATM    9  N2  UNL     1      12.855   5.660   0.977  1.00  0.00    -0.406 N 
HETATM   10  C7  UNL     1      13.789   5.814   2.036  1.00  0.00     0.143 C 
HETATM   11  C8  UNL     1      13.811   7.229   2.591  1.00  0.00     0.187 C 
HETATM   12  O1  UNL     1      12.533   7.727   2.747  1.00  0.00    -0.388 OA
HETATM   13  C9  UNL     1      11.757   7.690   1.619  1.00  0.00     0.187 C 
HETATM   14  C10 UNL     1      11.592   6.261   1.162  1.00  0.00     0.143 C 
ENDBRANCH   8   9
ENDBRANCH   4   8
BRANCH   1  15
HETATM   15  C1  UNL     1      14.825   1.880  -3.151  1.00  0.00     0.262 C 
BRANCH  15  16
HETATM   16  N1  UNL     1      14.456   2.406  -4.420  1.00  0.00    -0.077 N 
ATOM     17  H13 UNL     1      13.544   2.859  -4.357  1.00  0.00     0.274 HD
ATOM     18  H12 UNL     1      15.043   3.210  -4.647  1.00  0.00     0.274 HD
ATOM     19  H11 UNL     1      14.462   1.742  -5.194  1.00  0.00     0.274 HD
ENDBRANCH  15  16
ENDBRANCH   1  15
TORSDOF 4
ENDMDL
MODEL 2
REMARK VINA RESULT: -5.141399325      2.165      2.912
REMARK  4 active torsions:
REMARK  status: ('A' for Active; 'I' for Inactive)
REMARK    1  A    between atoms: N1_1  and  C1_5 
REMARK    2  A    between atoms: C1_5  and  C2_6 
REMARK    3  A    between atoms: C5_9  and  C6_10 
REMARK    4  A    between atoms: C6_10  and  N2_11 
ROOT
HETATM    1  C2  UNL     1      13.732   2.610  -2.982  1.00  0.00     0.211 C 
HETATM    2  C3  UNL     1      14.414   2.546  -1.625  1.00  0.00     0.037 C 
HETATM    3  C4  UNL     1      13.582   3.462  -0.766  1.00  0.00     0.037 C 
HETATM    4  C5  UNL     1      12.471   3.885  -1.663  1.00  0.00     0.204 C 
HETATM    5  N3  UNL     1      12.340   2.835  -2.626  1.00  0.00    -0.064 N 
ATOM      6  H31 UNL     1      11.829   2.011  -2.309  1.00  0.00     0.278 HD
ATOM      7  H32 UNL     1      11.714   3.033  -3.407  1.00  0.00     0.278 HD
ENDROOT
BRANCH   4   8
HETATM    8  C6  UNL     1      11.244   4.097  -0.802  1.00  0.00     0.149 C 
BRANCH   8   9
HETATM    9  N2  UNL     1      11.065   5.496  -0.661  1.00  0.00    -0.406 N 
HETATM   10  C7  UNL     1      10.167   6.145  -1.549  1.00  0.00     0.143 C 
HETATM   11  C8  UNL     1       8.864   6.541  -0.873  1.00  0.00     0.187 C 
HETATM   12  O1  UNL     1       9.090   7.091   0.372  1.00  0.00    -0.388 OA
HETATM   13  C9  UNL     1       9.829   6.313   1.222  1.00  0.00     0.187 C 
HETATM   14  C10 UNL     1      11.193   6.060   0.626  1.00  0.00     0.143 C 
ENDBRANCH   8   9
ENDBRANCH   4   8
BRANCH   1  15
HETATM   15  C1  UNL     1      13.953   1.348  -3.732  1.00  0.00     0.262 C 
BRANCH  15  16
HETATM   16  N1  UNL     1      15.045   1.355  -4.645  1.00  0.00    -0.077 N 
ATOM     17  H13 UNL     1      14.894   2.066  -5.362  1.00  0.00     0.274 HD
ATOM     18  H12 UNL     1      15.877   1.730  -4.189  1.00  0.00     0.274 HD
ATOM     19  H11 UNL     1      15.262   0.460  -5.083  1.00  0.00     0.274 HD
ENDBRANCH  15  16
ENDBRANCH   1  15
TORSDOF 4
ENDMDL
MODEL 3
REMARK VINA RESULT: -5.122474493      3.837      5.615
REMARK  4 active torsions:
REMARK  status: ('A' for Active; 'I' for Inactive)
REMARK    1  A    between atoms: N1_1  and  C1_5 
REMARK    2  A    between atoms: C1_5  and  C2_6 
REMARK    3  A    between atoms: C5_9  and  C6_10 
REMARK    4  A    between atoms: C6_10  and  N2_11 
ROOT
HETATM    1  C2  UNL     1       8.443   6.549  -2.053  1.00  0.00     0.211 C 
HETATM    2  C3  UNL     1       8.332   6.937  -0.588  1.00  0.00     0.037 C 
HETATM    3  C4  UNL     1       9.582   6.363   0.027  1.00  0.00     0.037 C 
HETATM    4  C5  UNL     1      10.323   5.793  -1.132  1.00  0.00     0.204 C 
HETATM    5  N3  UNL     1       9.882   6.540  -2.269  1.00  0.00    -0.064 N 
ATOM      6  H31 UNL     1      10.315   7.456  -2.387  1.00  0.00     0.278 HD
ATOM      7  H32 UNL     1      10.187   6.181  -3.174  1.00  0.00     0.278 HD
ENDROOT
BRANCH   4   8
HETATM    8  C6  UNL     1      11.802   5.924  -0.836  1.00  0.00     0.149 C 
BRANCH   8   9
HETATM    9  N2  UNL     1      12.271   4.642  -0.454  1.00  0.00    -0.406 N 
HETATM   10  C7  UNL     1      11.840   3.521  -1.211  1.00  0.00     0.143 C 
HETATM   11  C8  UNL     1      12.936   2.967  -2.106  1.00  0.00     0.187 C 
HETATM   12  O1  UNL     1      14.143   2.901  -1.440  1.00  0.00    -0.388 OA
HETATM   13  C9  UNL     1      14.560   4.080  -0.882  1.00  0.00     0.187 C 
HETATM   14  C10 UNL     1      13.549   4.547   0.137  1.00  0.00     0.143 C 
ENDBRANCH   8   9
ENDBRANCH   4   8
BRANCH   1  15
HETATM   15  C1  UNL     1       7.725   7.531  -2.905  1.00  0.00     0.262 C 
BRANCH  15  16
HETATM   16  N1  UNL     1       8.136   7.585  -4.266  1.00  0.00    -0.077 N 
ATOM     17  H13 UNL     1       8.616   8.466  -4.450  1.00  0.00     0.274 HD
ATOM     18  H12 UNL     1       8.897   6.925  -4.426  1.00  0.00     0.274 HD
ATOM     19  H11 UNL     1       7.399   7.439  -4.956  1.00  0.00     0.274 HD
ENDBRANCH  15  16
ENDBRANCH   1  15
TORSDOF 4
ENDMDL
MODEL 4
REMARK VINA RESULT: -5.094210061      1.677      2.589
REMARK  4 active torsions:
REMARK  status: ('A' for Active; 'I' for Inactive)
REMARK    1  A    between atoms: N1_1  and  C1_5 
REMARK    2  A    between atoms: C1_5  and  C2_6 
REMARK    3  A    between atoms: C5_9  and  C6_10 
REMARK    4  A    between atoms: C6_10  and  N2_11 
ROOT
HETATM    1  C2  UNL     1      13.020   2.473  -3.930  1.00  0.00     0.211 C 
HETATM    2  C3  UNL     1      14.001   1.427  -3.428  1.00  0.00     0.037 C 
HETATM    3  C4  UNL     1      14.546   2.032  -2.160  1.00  0.00     0.037 C 
HETATM    4  C5  UNL     1      13.778   3.298  -2.007  1.00  0.00     0.204 C 
HETATM    5  N3  UNL     1      12.544   3.079  -2.696  1.00  0.00    -0.064 N 
ATOM      6  H31 UNL     1      11.845   2.541  -2.184  1.00  0.00     0.278 HD
ATOM      7  H32 UNL     1      11.955   3.904  -2.812  1.00  0.00     0.278 HD
ENDROOT
BRANCH   4   8
HETATM    8  C6  UNL     1      13.625   3.563  -0.524  1.00  0.00     0.149 C 
BRANCH   8   9
HETATM    9  N2  UNL     1      13.511   4.965  -0.355  1.00  0.00    -0.406 N 
HETATM   10  C7  UNL     1      12.210   5.533  -0.355  1.00  0.00     0.143 C 
HETATM   11  C8  UNL     1      11.761   5.959   1.033  1.00  0.00     0.187 C 
HETATM   12  O1  UNL     1      12.774   6.604   1.714  1.00  0.00    -0.388 OA
HETATM   13  C9  UNL     1      13.946   5.902   1.806  1.00  0.00     0.187 C 
HETATM   14  C10 UNL     1      14.485   5.626   0.424  1.00  0.00     0.143 C 
ENDBRANCH   8   9
ENDBRANCH   4   8
BRANCH   1  15
HETATM   15  C1  UNL     1      11.943   1.832  -4.727  1.00  0.00     0.262 C 
BRANCH  15  16
HETATM   16  N1  UNL     1      10.830   2.661  -5.040  1.00  0.00    -0.077 N 
ATOM     17  H13 UNL     1      11.143   3.620  -5.196  1.00  0.00     0.274 HD
ATOM     18  H12 UNL     1      10.475   2.431  -5.968  1.00  0.00     0.274 HD
ATOM     19  H11 UNL     1      10.066   2.651  -4.364  1.00  0.00     0.274 HD
ENDBRANCH  15  16
ENDBRANCH   1  15
TORSDOF 4
ENDMDL
MODEL 5
REMARK VINA RESULT: -5.023759022      3.687      5.185
REMARK  4 active torsions:
REMARK  status: ('A' for Active; 'I' for Inactive)
REMARK    1  A    between atoms: N1_1  and  C1_5 
REMARK    2  A    between atoms: C1_5  and  C2_6 
REMARK    3  A    between atoms: C5_9  and  C6_10 
REMARK    4  A    between atoms: C6_10  and  N2_11 
ROOT
HETATM    1  C2  UNL     1       8.397   6.556  -2.148  1.00  0.00     0.211 C 
HETATM    2  C3  UNL     1       8.116   6.887  -0.692  1.00  0.00     0.037 C 
HETATM    3  C4  UNL     1       9.407   6.542   0.006  1.00  0.00     0.037 C 
HETATM    4  C5  UNL     1      10.318   6.143  -1.102  1.00  0.00     0.204 C 
HETATM    5  N3  UNL     1       9.824   6.817  -2.262  1.00  0.00    -0.064 N 
ATOM      6  H31 UNL     1      10.085   7.801  -2.343  1.00  0.00     0.278 HD
ATOM      7  H32 UNL     1      10.251   6.539  -3.146  1.00  0.00     0.278 HD
ENDROOT
BRANCH   4   8
HETATM    8  C6  UNL     1      11.724   6.539  -0.702  1.00  0.00     0.149 C 
BRANCH   8   9
HETATM    9  N2  UNL     1      12.272   5.462   0.037  1.00  0.00    -0.406 N 
HETATM   10  C7  UNL     1      12.698   4.311  -0.678  1.00  0.00     0.143 C 
HETATM   11  C8  UNL     1      14.211   4.205  -0.763  1.00  0.00     0.187 C 
HETATM   12  O1  UNL     1      14.804   4.498   0.449  1.00  0.00    -0.388 OA
HETATM   13  C9  UNL     1      14.459   5.711   0.982  1.00  0.00     0.187 C 
HETATM   14  C10 UNL     1      12.970   5.754   1.228  1.00  0.00     0.143 C 
ENDBRANCH   8   9
ENDBRANCH   4   8
BRANCH   1  15
HETATM   15  C1  UNL     1       7.568   7.405  -3.041  1.00  0.00     0.262 C 
BRANCH  15  16
HETATM   16  N1  UNL     1       8.153   7.737  -4.294  1.00  0.00    -0.077 N 
ATOM     17  H13 UNL     1       7.753   7.154  -5.030  1.00  0.00     0.274 HD
ATOM     18  H12 UNL     1       7.830   8.657  -4.596  1.00  0.00     0.274 HD
ATOM     19  H11 UNL     1       9.171   7.697  -4.333  1.00  0.00     0.274 HD
ENDBRANCH  15  16
ENDBRANCH   1  15
TORSDOF 4
ENDMDL
