MODEL 1
REMARK VINA RESULT: -10.571793799      0.000      0.000
REMARK  4 active torsions:
REMARK  status: ('A' for Active; 'I' for Inactive)
REMARK    1  A    between atoms: C2_3  and  C3_4 
REMARK    2  A    between atoms: N1_5  and  C4_7 
REMARK    3  A    between atoms: N3_14  and  C8_16 
REMARK    4  A    between atoms: C8_16  and  C9_17 
ROOT
HETATM    1  C4  UNL     1     -37.625  -4.612   3.104  1.00  0.00     0.683 A 
HETATM    2  N2  UNL     1     -38.176  -4.495   4.342  1.00  0.00    -0.200 N 
ATOM      3  H2  UNL     1     -39.039  -3.966   4.462  1.00  0.00     0.183 HD
HETATM    4  C5  UNL     1     -37.594  -5.072   5.413  1.00  0.00     0.133 A 
HETATM    5  C6  UNL     1     -36.422  -5.804   5.287  1.00  0.00     0.094 A 
HETATM    6 CL2  UNL     1     -35.681  -6.498   6.717  1.00  0.00    -0.079 Cl
HETATM    7  C7  UNL     1     -35.858  -5.938   4.044  1.00  0.00     0.144 A 
HETATM    8  N3  UNL     1     -34.664  -6.285   3.790  1.00  0.00    -0.348 N 
ATOM      9  H3  UNL     1     -34.414  -6.351   2.804  1.00  0.00     0.167 HD
HETATM   10  N4  UNL     1     -36.476  -5.340   2.968  1.00  0.00    -0.175 N 
ATOM     11  H4  UNL     1     -36.062  -5.443   2.041  1.00  0.00     0.186 HD
ENDROOT
BRANCH   1  12
HETATM   12  N1  UNL     1     -37.973  -3.841   2.250  1.00  0.00    -0.201 N 
HETATM   13  C3  UNL     1     -37.900  -2.860   1.305  1.00  0.00     0.119 C 
ATOM     14  H1  UNL     1     -38.967  -4.065   2.199  1.00  0.00     0.183 HD
BRANCH  13  15
HETATM   15  C2  UNL     1     -39.302  -2.727   0.756  1.00  0.00     0.004 A 
HETATM   16  C1  UNL     1     -40.292  -2.078   1.515  1.00  0.00     0.068 A 
HETATM   17 CL1  UNL     1     -39.849  -1.580   3.109  1.00  0.00    -0.082 Cl
HETATM   18  C17 UNL     1     -41.585  -1.890   0.978  1.00  0.00     0.063 A 
HETATM   19  C16 UNL     1     -41.848  -2.342  -0.277  1.00  0.00    -0.028 A 
HETATM   20 CL3  UNL     1     -42.824  -1.138   1.987  1.00  0.00    -0.082 Cl
HETATM   21  C15 UNL     1     -40.885  -2.962  -1.032  1.00  0.00    -0.049 A 
HETATM   22  C18 UNL     1     -43.146  -2.413  -1.067  1.00  0.00     0.041 C 
HETATM   23  C14 UNL     1     -39.644  -3.131  -0.478  1.00  0.00     0.022 A 
HETATM   24  C20 UNL     1     -41.393  -3.222  -2.432  1.00  0.00     0.039 C 
HETATM   25  C19 UNL     1     -42.610  -2.265  -2.468  1.00  0.00     0.009 C 
ENDBRANCH  13  15
ENDBRANCH   1  12
BRANCH   8  26
HETATM   26  C8  UNL     1     -33.650  -6.587   4.709  1.00  0.00     0.122 C 
BRANCH  26  27
HETATM   27  C9  UNL     1     -32.448  -5.708   4.362  1.00  0.00     0.061 C 
HETATM   28  C10 UNL     1     -31.405  -5.566   5.386  1.00  0.00     0.066 C 
HETATM   29  C11 UNL     1     -30.078  -6.035   4.740  1.00  0.00     0.009 C 
HETATM   30  C12 UNL     1     -30.468  -7.231   3.943  1.00  0.00     0.027 C 
HETATM   31  C13 UNL     1     -31.240  -6.773   2.725  1.00  0.00     0.175 C 
HETATM   32  O1  UNL     1     -32.140  -5.735   3.033  1.00  0.00    -0.354 OA
ENDBRANCH  26  27
ENDBRANCH   8  26
TORSDOF 4
ENDMDL
MODEL 2
REMARK VINA RESULT: -10.336854192      1.972      2.441
REMARK  4 active torsions:
REMARK  status: ('A' for Active; 'I' for Inactive)
REMARK    1  A    between atoms: C2_3  and  C3_4 
REMARK    2  A    between atoms: N1_5  and  C4_7 
REMARK    3  A    between atoms: N3_14  and  C8_16 
REMARK    4  A    between atoms: C8_16  and  C9_17 
ROOT
HETATM    1  C4  UNL     1     -38.191  -4.151   2.927  1.00  0.00     0.683 A 
HETATM    2  N2  UNL     1     -38.838  -3.886   4.095  1.00  0.00    -0.200 N 
ATOM      3  H2  UNL     1     -39.635  -3.252   4.097  1.00  0.00     0.183 HD
HETATM    4  C5  UNL     1     -38.435  -4.455   5.249  1.00  0.00     0.133 A 
HETATM    5  C6  UNL     1     -37.356  -5.327   5.283  1.00  0.00     0.094 A 
HETATM    6 CL2  UNL     1     -36.845  -6.006   6.818  1.00  0.00    -0.079 Cl
HETATM    7  C7  UNL     1     -36.699  -5.610   4.114  1.00  0.00     0.144 A 
HETATM    8  N3  UNL     1     -35.540  -6.112   4.002  1.00  0.00    -0.348 N 
ATOM      9  H3  UNL     1     -35.208  -6.274   3.051  1.00  0.00     0.167 HD
HETATM   10  N4  UNL     1     -37.134  -5.016   2.949  1.00  0.00    -0.175 N 
ATOM     11  H4  UNL     1     -36.651  -5.230   2.076  1.00  0.00     0.186 HD
ENDROOT
BRANCH   1  12
HETATM   12  N1  UNL     1     -38.359  -3.402   2.001  1.00  0.00    -0.201 N 
HETATM   13  C3  UNL     1     -38.147  -2.369   1.137  1.00  0.00     0.119 C 
ATOM     14  H1  UNL     1     -39.213  -3.795   1.605  1.00  0.00     0.183 HD
BRANCH  13  15
HETATM   15  C2  UNL     1     -39.271  -2.452   0.129  1.00  0.00     0.004 A 
HETATM   16  C1  UNL     1     -39.055  -3.084  -1.108  1.00  0.00     0.068 A 
HETATM   17 CL1  UNL     1     -37.446  -3.621  -1.439  1.00  0.00    -0.082 Cl
HETATM   18  C17 UNL     1     -40.121  -3.226  -2.025  1.00  0.00     0.063 A 
HETATM   19  C16 UNL     1     -41.347  -2.747  -1.686  1.00  0.00    -0.028 A 
HETATM   20 CL3  UNL     1     -39.798  -3.959  -3.599  1.00  0.00    -0.082 Cl
HETATM   21  C15 UNL     1     -41.572  -2.143  -0.475  1.00  0.00    -0.049 A 
HETATM   22  C18 UNL     1     -42.635  -2.625  -2.489  1.00  0.00     0.041 C 
HETATM   23  C14 UNL     1     -40.515  -2.018   0.386  1.00  0.00     0.022 A 
HETATM   24  C20 UNL     1     -43.043  -1.845  -0.294  1.00  0.00     0.039 C 
HETATM   25  C19 UNL     1     -43.649  -2.766  -1.383  1.00  0.00     0.009 C 
ENDBRANCH  13  15
ENDBRANCH   1  12
BRANCH   8  26
HETATM   26  C8  UNL     1     -34.662  -6.470   5.034  1.00  0.00     0.122 C 
BRANCH  26  27
HETATM   27  C9  UNL     1     -33.339  -6.876   4.382  1.00  0.00     0.061 C 
HETATM   28  C10 UNL     1     -32.624  -5.846   3.619  1.00  0.00     0.066 C 
HETATM   29  C11 UNL     1     -31.214  -5.723   4.246  1.00  0.00     0.009 C 
HETATM   30  C12 UNL     1     -31.461  -5.816   5.712  1.00  0.00     0.027 C 
HETATM   31  C13 UNL     1     -31.811  -7.248   6.055  1.00  0.00     0.175 C 
HETATM   32  O1  UNL     1     -32.667  -7.824   5.099  1.00  0.00    -0.354 OA
ENDBRANCH  26  27
ENDBRANCH   8  26
TORSDOF 4
ENDMDL
MODEL 3
REMARK VINA RESULT: -10.310510722      1.505      2.086
REMARK  4 active torsions:
REMARK  status: ('A' for Active; 'I' for Inactive)
REMARK    1  A    between atoms: C2_3  and  C3_4 
REMARK    2  A    between atoms: N1_5  and  C4_7 
REMARK    3  A    between atoms: N3_14  and  C8_16 
REMARK    4  A    between atoms: C8_16  and  C9_17 
ROOT
HETATM    1  C4  UNL     1     -37.640  -4.646   3.085  1.00  0.00     0.683 A 
HETATM    2  N2  UNL     1     -38.193  -4.506   4.320  1.00  0.00    -0.200 N 
ATOM      3  H2  UNL     1     -39.058  -3.977   4.428  1.00  0.00     0.183 HD
HETATM    4  C5  UNL     1     -37.610  -5.058   5.403  1.00  0.00     0.133 A 
HETATM    5  C6  UNL     1     -36.435  -5.788   5.293  1.00  0.00     0.094 A 
HETATM    6 CL2  UNL     1     -35.693  -6.448   6.739  1.00  0.00    -0.079 Cl
HETATM    7  C7  UNL     1     -35.869  -5.945   4.054  1.00  0.00     0.144 A 
HETATM    8  N3  UNL     1     -34.674  -6.293   3.808  1.00  0.00    -0.348 N 
ATOM      9  H3  UNL     1     -34.423  -6.379   2.824  1.00  0.00     0.167 HD
HETATM   10  N4  UNL     1     -36.489  -5.372   2.965  1.00  0.00    -0.175 N 
ATOM     11  H4  UNL     1     -36.074  -5.494   2.041  1.00  0.00     0.186 HD
ENDROOT
BRANCH   1  12
HETATM   12  N1  UNL     1     -37.991  -3.894   2.215  1.00  0.00    -0.201 N 
HETATM   13  C3  UNL     1     -37.911  -3.022   1.169  1.00  0.00     0.119 C 
ATOM     14  H1  UNL     1     -39.002  -3.934   2.339  1.00  0.00     0.183 HD
BRANCH  13  15
HETATM   15  C2  UNL     1     -39.343  -2.677   0.826  1.00  0.00     0.004 A 
HETATM   16  C1  UNL     1     -39.834  -2.931  -0.466  1.00  0.00     0.068 A 
HETATM   17 CL1  UNL     1     -38.698  -3.519  -1.629  1.00  0.00    -0.082 Cl
HETATM   18  C17 UNL     1     -41.189  -2.675  -0.771  1.00  0.00     0.063 A 
HETATM   19  C16 UNL     1     -42.001  -2.186   0.203  1.00  0.00    -0.028 A 
HETATM   20 CL3  UNL     1     -41.754  -2.936  -2.424  1.00  0.00    -0.082 Cl
HETATM   21  C15 UNL     1     -41.536  -1.949   1.472  1.00  0.00    -0.049 A 
HETATM   22  C18 UNL     1     -43.439  -1.689   0.158  1.00  0.00     0.041 C 
HETATM   23  C14 UNL     1     -40.216  -2.205   1.731  1.00  0.00     0.022 A 
HETATM   24  C20 UNL     1     -42.672  -1.559   2.390  1.00  0.00     0.039 C 
HETATM   25  C19 UNL     1     -43.884  -2.040   1.554  1.00  0.00     0.009 C 
ENDBRANCH  13  15
ENDBRANCH   1  12
BRANCH   8  26
HETATM   26  C8  UNL     1     -33.660  -6.572   4.734  1.00  0.00     0.122 C 
BRANCH  26  27
HETATM   27  C9  UNL     1     -32.457  -5.704   4.363  1.00  0.00     0.061 C 
HETATM   28  C10 UNL     1     -31.440  -5.490   5.401  1.00  0.00     0.066 C 
HETATM   29  C11 UNL     1     -30.094  -5.984   4.816  1.00  0.00     0.009 C 
HETATM   30  C12 UNL     1     -30.454  -7.230   4.084  1.00  0.00     0.027 C 
HETATM   31  C13 UNL     1     -31.201  -6.854   2.823  1.00  0.00     0.175 C 
HETATM   32  O1  UNL     1     -32.116  -5.808   3.046  1.00  0.00    -0.354 OA
ENDBRANCH  26  27
ENDBRANCH   8  26
TORSDOF 4
ENDMDL
MODEL 4
REMARK VINA RESULT: -10.097391256      5.672      8.086
REMARK  4 active torsions:
REMARK  status: ('A' for Active; 'I' for Inactive)
REMARK    1  A    between atoms: C2_3  and  C3_4 
REMARK    2  A    between atoms: N1_5  and  C4_7 
REMARK    3  A    between atoms: N3_14  and  C8_16 
REMARK    4  A    between atoms: C8_16  and  C9_17 
ROOT
HETATM    1  C4  UNL     1     -39.877  -2.196   4.356  1.00  0.00     0.683 A 
HETATM    2  N2  UNL     1     -39.639  -3.211   5.231  1.00  0.00    -0.200 N 
ATOM      3  H2  UNL     1     -38.948  -3.924   4.999  1.00  0.00     0.183 HD
HETATM    4  C5  UNL     1     -40.306  -3.284   6.400  1.00  0.00     0.133 A 
HETATM    5  C6  UNL     1     -41.251  -2.330   6.750  1.00  0.00     0.094 A 
HETATM    6 CL2  UNL     1     -42.123  -2.495   8.262  1.00  0.00    -0.079 Cl
HETATM    7  C7  UNL     1     -41.497  -1.296   5.883  1.00  0.00     0.144 A 
HETATM    8  N3  UNL     1     -42.512  -0.536   5.883  1.00  0.00    -0.348 N 
ATOM      9  H3  UNL     1     -42.527   0.198   5.175  1.00  0.00     0.167 HD
HETATM   10  N4  UNL     1     -40.798  -1.245   4.697  1.00  0.00    -0.175 N 
ATOM     11  H4  UNL     1     -40.973  -0.474   4.053  1.00  0.00     0.186 HD
ENDROOT
BRANCH   1  12
HETATM   12  N1  UNL     1     -39.519  -2.330   3.217  1.00  0.00    -0.201 N 
HETATM   13  C3  UNL     1     -38.690  -2.523   2.151  1.00  0.00     0.119 C 
ATOM     14  H1  UNL     1     -40.414  -2.244   2.735  1.00  0.00     0.183 HD
BRANCH  13  15
HETATM   15  C2  UNL     1     -39.591  -2.516   0.936  1.00  0.00     0.004 A 
HETATM   16  C1  UNL     1     -39.116  -3.013  -0.290  1.00  0.00     0.068 A 
HETATM   17 CL1  UNL     1     -37.456  -3.491  -0.346  1.00  0.00    -0.082 Cl
HETATM   18  C17 UNL     1     -39.976  -3.074  -1.409  1.00  0.00     0.063 A 
HETATM   19  C16 UNL     1     -41.260  -2.648  -1.275  1.00  0.00    -0.028 A 
HETATM   20 CL3  UNL     1     -39.326  -3.634  -2.952  1.00  0.00    -0.082 Cl
HETATM   21  C15 UNL     1     -41.738  -2.176  -0.079  1.00  0.00    -0.049 A 
HETATM   22  C18 UNL     1     -42.369  -2.461  -2.301  1.00  0.00     0.041 C 
HETATM   23  C14 UNL     1     -40.875  -2.128   0.983  1.00  0.00     0.022 A 
HETATM   24  C20 UNL     1     -43.225  -1.919  -0.165  1.00  0.00     0.039 C 
HETATM   25  C19 UNL     1     -43.575  -2.729  -1.437  1.00  0.00     0.009 C 
ENDBRANCH  13  15
ENDBRANCH   1  12
BRANCH   8  26
HETATM   26  C8  UNL     1     -43.616  -0.588   6.745  1.00  0.00     0.122 C 
BRANCH  26  27
HETATM   27  C9  UNL     1     -44.838  -0.941   5.895  1.00  0.00     0.061 C 
HETATM   28  C10 UNL     1     -44.664  -0.931   4.437  1.00  0.00     0.066 C 
HETATM   29  C11 UNL     1     -45.057  -2.341   3.931  1.00  0.00     0.009 C 
HETATM   30  C12 UNL     1     -44.480  -3.263   4.948  1.00  0.00     0.027 C 
HETATM   31  C13 UNL     1     -45.303  -3.166   6.214  1.00  0.00     0.175 C 
HETATM   32  O1  UNL     1     -45.664  -1.838   6.506  1.00  0.00    -0.354 OA
ENDBRANCH  26  27
ENDBRANCH   8  26
TORSDOF 4
ENDMDL
MODEL 5
REMARK VINA RESULT: -9.951464229      1.235      1.596
REMARK  4 active torsions:
REMARK  status: ('A' for Active; 'I' for Inactive)
REMARK    1  A    between atoms: C2_3  and  C3_4 
REMARK    2  A    between atoms: N1_5  and  C4_7 
REMARK    3  A    between atoms: N3_14  and  C8_16 
REMARK    4  A    between atoms: C8_16  and  C9_17 
ROOT
HETATM    1  C4  UNL     1     -38.584  -4.029   3.698  1.00  0.00     0.683 A 
HETATM    2  N2  UNL     1     -39.061  -3.608   4.901  1.00  0.00    -0.200 N 
ATOM      3  H2  UNL     1     -39.811  -2.919   4.932  1.00  0.00     0.183 HD
HETATM    4  C5  UNL     1     -38.553  -4.092   6.052  1.00  0.00     0.133 A 
HETATM    5  C6  UNL     1     -37.534  -5.035   6.048  1.00  0.00     0.094 A 
HETATM    6 CL2  UNL     1     -36.878  -5.601   7.573  1.00  0.00    -0.079 Cl
HETATM    7  C7  UNL     1     -37.048  -5.476   4.844  1.00  0.00     0.144 A 
HETATM    8  N3  UNL     1     -35.945  -6.071   4.647  1.00  0.00    -0.348 N 
ATOM      9  H3  UNL     1     -35.746  -6.346   3.686  1.00  0.00     0.167 HD
HETATM   10  N4  UNL     1     -37.588  -4.965   3.684  1.00  0.00    -0.175 N 
ATOM     11  H4  UNL     1     -37.233  -5.296   2.787  1.00  0.00     0.186 HD
ENDROOT
BRANCH   1  12
HETATM   12  N1  UNL     1     -38.820  -3.362   2.727  1.00  0.00    -0.201 N 
HETATM   13  C3  UNL     1     -38.626  -2.493   1.693  1.00  0.00     0.119 C 
ATOM     14  H1  UNL     1     -39.801  -3.600   2.579  1.00  0.00     0.183 HD
BRANCH  13  15
HETATM   15  C2  UNL     1     -39.948  -2.437   0.963  1.00  0.00     0.004 A 
HETATM   16  C1  UNL     1     -41.044  -1.779   1.550  1.00  0.00     0.068 A 
HETATM   17 CL1  UNL     1     -40.823  -1.180   3.155  1.00  0.00    -0.082 Cl
HETATM   18  C17 UNL     1     -42.261  -1.664   0.842  1.00  0.00     0.063 A 
HETATM   19  C16 UNL     1     -42.348  -2.193  -0.407  1.00  0.00    -0.028 A 
HETATM   20 CL3  UNL     1     -43.639  -0.897   1.638  1.00  0.00    -0.082 Cl
HETATM   21  C15 UNL     1     -41.280  -2.822  -0.995  1.00  0.00    -0.049 A 
HETATM   22  C18 UNL     1     -43.531  -2.350  -1.351  1.00  0.00     0.041 C 
HETATM   23  C14 UNL     1     -40.118  -2.920  -0.278  1.00  0.00     0.022 A 
HETATM   24  C20 UNL     1     -41.596  -3.176  -2.431  1.00  0.00     0.039 C 
HETATM   25  C19 UNL     1     -42.822  -2.263  -2.678  1.00  0.00     0.009 C 
ENDBRANCH  13  15
ENDBRANCH   1  12
BRANCH   8  26
HETATM   26  C8  UNL     1     -34.969  -6.393   5.599  1.00  0.00     0.122 C 
BRANCH  26  27
HETATM   27  C9  UNL     1     -33.722  -6.843   4.835  1.00  0.00     0.061 C 
HETATM   28  C10 UNL     1     -33.257  -5.977   3.744  1.00  0.00     0.066 C 
HETATM   29  C11 UNL     1     -31.792  -5.597   4.069  1.00  0.00     0.009 C 
HETATM   30  C12 UNL     1     -31.800  -5.349   5.537  1.00  0.00     0.027 C 
HETATM   31  C13 UNL     1     -31.924  -6.676   6.253  1.00  0.00     0.175 C 
HETATM   32  O1  UNL     1     -32.843  -7.533   5.618  1.00  0.00    -0.354 OA
ENDBRANCH  26  27
ENDBRANCH   8  26
TORSDOF 4
ENDMDL
