MODEL 1
REMARK VINA RESULT: -8.174901789      0.000      0.000
REMARK  5 active torsions:
REMARK  status: ('A' for Active; 'I' for Inactive)
REMARK    1  A    between atoms: C2_2  and  C4_5 
REMARK    2  A    between atoms: C6_12  and  C7_13 
REMARK    3  A    between atoms: C7_13  and  C8_14 
REMARK    4  A    between atoms: C8_14  and  C9_15 
REMARK       I    between atoms: C9_15  and  N3_17 
REMARK    5  A    between atoms: N4_20  and  C12_21 
ROOT
HETATM    1  C9  UNL     1     -45.319  -0.942   3.111  1.00  0.00     0.220 C 
HETATM    2  O2  UNL     1     -46.090  -1.082   2.120  1.00  0.00    -0.273 OA
HETATM    3  N3  UNL     1     -43.999  -1.462   3.102  1.00  0.00    -0.349 N 
HETATM    4  C10 UNL     1     -43.556  -2.162   1.905  1.00  0.00     0.145 C 
HETATM    5  C11 UNL     1     -42.045  -2.149   1.790  1.00  0.00     0.143 C 
HETATM    6  N4  UNL     1     -41.439  -2.652   3.031  1.00  0.00    -0.378 N 
HETATM    7  C18 UNL     1     -42.233  -2.619   4.226  1.00  0.00     0.143 C 
HETATM    8  C19 UNL     1     -43.082  -1.341   4.194  1.00  0.00     0.145 C 
ENDROOT
BRANCH   1   9
HETATM    9  C8  UNL     1     -45.830  -0.202   4.326  1.00  0.00     0.108 C 
BRANCH   9  10
HETATM   10  C7  UNL     1     -46.694  -1.111   5.129  1.00  0.00     0.056 C 
BRANCH  10  11
HETATM   11  C6  UNL     1     -46.081  -1.787   6.268  1.00  0.00     0.037 A 
HETATM   12  C4  UNL     1     -45.846  -1.270   7.513  1.00  0.00     0.060 A 
HETATM   13  N1  UNL     1     -45.205  -2.278   8.190  1.00  0.00    -0.299 N 
HETATM   14  N2  UNL     1     -45.061  -3.335   7.419  1.00  0.00    -0.266 N 
ATOM     15  H1  UNL     1     -44.884  -2.216   9.157  1.00  0.00     0.186 HD
HETATM   16  C5  UNL     1     -45.578  -3.095   6.229  1.00  0.00     0.268 A 
ATOM     17  H2  UNL     1     -44.615  -4.209   7.699  1.00  0.00     0.190 HD
HETATM   18  O1  UNL     1     -45.647  -3.844   5.202  1.00  0.00    -0.266 OA
BRANCH  12  19
HETATM   19  C2  UNL     1     -46.179   0.001   8.157  1.00  0.00     0.074 C 
HETATM   20  C1  UNL     1     -45.088   1.017   7.829  1.00  0.00     0.039 C 
HETATM   21  C3  UNL     1     -46.020  -0.240   9.670  1.00  0.00     0.039 C 
HETATM   22 CL1  UNL     1     -47.769   0.655   7.889  1.00  0.00    -0.113 Cl
ENDBRANCH  12  19
ENDBRANCH  10  11
ENDBRANCH   9  10
ENDBRANCH   1   9
BRANCH   6  23
HETATM   23  C12 UNL     1     -40.112  -3.125   2.929  1.00  0.00     0.033 A 
HETATM   24  C13 UNL     1     -39.275  -2.806   1.897  1.00  0.00     0.053 A 
HETATM   25  C14 UNL     1     -37.978  -3.283   1.805  1.00  0.00     0.037 A 
HETATM   26 CL2  UNL     1     -36.933  -2.856   0.470  1.00  0.00    -0.084 Cl
HETATM   27  C15 UNL     1     -37.477  -4.117   2.782  1.00  0.00     0.048 A 
HETATM   28  C16 UNL     1     -38.308  -4.454   3.840  1.00  0.00     0.037 A 
HETATM   29 CL3  UNL     1     -37.656  -5.506   5.061  1.00  0.00    -0.084 Cl
HETATM   30  C17 UNL     1     -39.618  -3.956   3.906  1.00  0.00     0.053 A 
ENDBRANCH   6  23
TORSDOF 5
ENDMDL
MODEL 2
REMARK VINA RESULT: -8.167778646      1.809      2.403
REMARK  5 active torsions:
REMARK  status: ('A' for Active; 'I' for Inactive)
REMARK    1  A    between atoms: C2_2  and  C4_5 
REMARK    2  A    between atoms: C6_12  and  C7_13 
REMARK    3  A    between atoms: C7_13  and  C8_14 
REMARK    4  A    between atoms: C8_14  and  C9_15 
REMARK       I    between atoms: C9_15  and  N3_17 
REMARK    5  A    between atoms: N4_20  and  C12_21 
ROOT
HETATM    1  C9  UNL     1     -45.336  -0.766   2.691  1.00  0.00     0.220 C 
HETATM    2  O2  UNL     1     -46.440  -0.716   2.078  1.00  0.00    -0.273 OA
HETATM    3  N3  UNL     1     -44.152  -1.212   2.050  1.00  0.00    -0.349 N 
HETATM    4  C10 UNL     1     -44.248  -1.608   0.652  1.00  0.00     0.145 C 
HETATM    5  C11 UNL     1     -42.904  -1.502  -0.040  1.00  0.00     0.143 C 
HETATM    6  N4  UNL     1     -41.886  -2.242   0.718  1.00  0.00    -0.378 N 
HETATM    7  C18 UNL     1     -42.144  -2.511   2.104  1.00  0.00     0.143 C 
HETATM    8  C19 UNL     1     -42.876  -1.297   2.693  1.00  0.00     0.145 C 
ENDROOT
BRANCH   1   9
HETATM    9  C8  UNL     1     -45.294  -0.338   4.142  1.00  0.00     0.108 C 
BRANCH   9  10
HETATM   10  C7  UNL     1     -46.368  -1.045   4.895  1.00  0.00     0.056 C 
BRANCH  10  11
HETATM   11  C6  UNL     1     -45.976  -1.771   6.099  1.00  0.00     0.037 A 
HETATM   12  C4  UNL     1     -45.891  -1.280   7.373  1.00  0.00     0.060 A 
HETATM   13  N1  UNL     1     -45.426  -2.336   8.119  1.00  0.00    -0.299 N 
HETATM   14  N2  UNL     1     -45.245  -3.395   7.358  1.00  0.00    -0.266 N 
ATOM     15  H1  UNL     1     -45.247  -2.304   9.123  1.00  0.00     0.186 HD
HETATM   16  C5  UNL     1     -45.565  -3.111   6.110  1.00  0.00     0.268 A 
ATOM     17  H2  UNL     1     -44.907  -4.301   7.685  1.00  0.00     0.190 HD
HETATM   18  O1  UNL     1     -45.534  -3.846   5.071  1.00  0.00    -0.266 OA
BRANCH  12  19
HETATM   19  C2  UNL     1     -46.225   0.006   7.984  1.00  0.00     0.074 C 
HETATM   20  C1  UNL     1     -45.057   0.966   7.775  1.00  0.00     0.039 C 
HETATM   21  C3  UNL     1     -46.235  -0.241   9.504  1.00  0.00     0.039 C 
HETATM   22 CL1  UNL     1     -47.744   0.737   7.555  1.00  0.00    -0.113 Cl
ENDBRANCH  12  19
ENDBRANCH  10  11
ENDBRANCH   9  10
ENDBRANCH   1   9
BRANCH   6  23
HETATM   23  C12 UNL     1     -40.729  -2.622   0.002  1.00  0.00     0.033 A 
HETATM   24  C13 UNL     1     -40.754  -3.052  -1.296  1.00  0.00     0.053 A 
HETATM   25  C14 UNL     1     -39.613  -3.429  -1.986  1.00  0.00     0.037 A 
HETATM   26 CL2  UNL     1     -39.680  -3.975  -3.644  1.00  0.00    -0.084 Cl
HETATM   27  C15 UNL     1     -38.382  -3.378  -1.366  1.00  0.00     0.048 A 
HETATM   28  C16 UNL     1     -38.332  -2.944  -0.049  1.00  0.00     0.037 A 
HETATM   29 CL3  UNL     1     -36.771  -2.887   0.712  1.00  0.00    -0.084 Cl
HETATM   30  C17 UNL     1     -39.505  -2.569   0.624  1.00  0.00     0.053 A 
ENDBRANCH   6  23
TORSDOF 5
ENDMDL
MODEL 3
REMARK VINA RESULT: -8.166019966      0.130      1.689
REMARK  5 active torsions:
REMARK  status: ('A' for Active; 'I' for Inactive)
REMARK    1  A    between atoms: C2_2  and  C4_5 
REMARK    2  A    between atoms: C6_12  and  C7_13 
REMARK    3  A    between atoms: C7_13  and  C8_14 
REMARK    4  A    between atoms: C8_14  and  C9_15 
REMARK       I    between atoms: C9_15  and  N3_17 
REMARK    5  A    between atoms: N4_20  and  C12_21 
ROOT
HETATM    1  C9  UNL     1     -45.333  -0.884   3.028  1.00  0.00     0.220 C 
HETATM    2  O2  UNL     1     -46.071  -0.986   2.008  1.00  0.00    -0.273 OA
HETATM    3  N3  UNL     1     -44.020  -1.421   3.050  1.00  0.00    -0.349 N 
HETATM    4  C10 UNL     1     -43.544  -2.092   1.849  1.00  0.00     0.145 C 
HETATM    5  C11 UNL     1     -42.030  -2.095   1.787  1.00  0.00     0.143 C 
HETATM    6  N4  UNL     1     -41.474  -2.641   3.033  1.00  0.00    -0.378 N 
HETATM    7  C18 UNL     1     -42.308  -2.632   4.201  1.00  0.00     0.143 C 
HETATM    8  C19 UNL     1     -43.141  -1.342   4.176  1.00  0.00     0.145 C 
ENDROOT
BRANCH   1   9
HETATM    9  C8  UNL     1     -45.877  -0.172   4.247  1.00  0.00     0.108 C 
BRANCH   9  10
HETATM   10  C7  UNL     1     -46.739  -1.109   5.020  1.00  0.00     0.056 C 
BRANCH  10  11
HETATM   11  C6  UNL     1     -46.121  -1.827   6.131  1.00  0.00     0.037 A 
HETATM   12  C4  UNL     1     -45.833  -1.339   7.376  1.00  0.00     0.060 A 
HETATM   13  N1  UNL     1     -45.212  -2.382   8.020  1.00  0.00    -0.299 N 
HETATM   14  N2  UNL     1     -45.130  -3.431   7.229  1.00  0.00    -0.266 N 
ATOM     15  H1  UNL     1     -44.864  -2.348   8.978  1.00  0.00     0.186 HD
HETATM   16  C5  UNL     1     -45.670  -3.152   6.058  1.00  0.00     0.268 A 
ATOM     17  H2  UNL     1     -44.711  -4.325   7.483  1.00  0.00     0.190 HD
HETATM   18  O1  UNL     1     -45.796  -3.880   5.021  1.00  0.00    -0.266 OA
BRANCH  12  19
HETATM   19  C2  UNL     1     -46.100  -0.068   8.050  1.00  0.00     0.074 C 
HETATM   20  C1  UNL     1     -44.995   0.921   7.684  1.00  0.00     0.039 C 
HETATM   21  C3  UNL     1     -45.879  -0.332   9.550  1.00  0.00     0.039 C 
HETATM   22 CL1  UNL     1     -47.679   0.635   7.860  1.00  0.00    -0.113 Cl
ENDBRANCH  12  19
ENDBRANCH  10  11
ENDBRANCH   9  10
ENDBRANCH   1   9
BRANCH   6  23
HETATM   23  C12 UNL     1     -40.150  -3.128   2.963  1.00  0.00     0.033 A 
HETATM   24  C13 UNL     1     -39.602  -3.959   3.901  1.00  0.00     0.053 A 
HETATM   25  C14 UNL     1     -38.300  -4.425   3.825  1.00  0.00     0.037 A 
HETATM   26 CL2  UNL     1     -37.631  -5.486   5.042  1.00  0.00    -0.084 Cl
HETATM   27  C15 UNL     1     -37.494  -4.054   2.770  1.00  0.00     0.048 A 
HETATM   28  C16 UNL     1     -38.028  -3.212   1.806  1.00  0.00     0.037 A 
HETATM   29 CL3  UNL     1     -36.994  -2.758   0.484  1.00  0.00    -0.084 Cl
HETATM   30  C17 UNL     1     -39.350  -2.756   1.909  1.00  0.00     0.053 A 
ENDBRANCH   6  23
TORSDOF 5
ENDMDL
MODEL 4
REMARK VINA RESULT: -8.122103128      3.198      4.066
REMARK  5 active torsions:
REMARK  status: ('A' for Active; 'I' for Inactive)
REMARK    1  A    between atoms: C2_2  and  C4_5 
REMARK    2  A    between atoms: C6_12  and  C7_13 
REMARK    3  A    between atoms: C7_13  and  C8_14 
REMARK    4  A    between atoms: C8_14  and  C9_15 
REMARK       I    between atoms: C9_15  and  N3_17 
REMARK    5  A    between atoms: N4_20  and  C12_21 
ROOT
HETATM    1  C9  UNL     1     -45.634  -1.264   0.495  1.00  0.00     0.220 C 
HETATM    2  O2  UNL     1     -46.623  -1.565  -0.232  1.00  0.00    -0.273 OA
HETATM    3  N3  UNL     1     -44.311  -1.627   0.134  1.00  0.00    -0.349 N 
HETATM    4  C10 UNL     1     -44.126  -2.355  -1.112  1.00  0.00     0.145 C 
HETATM    5  C11 UNL     1     -42.720  -2.175  -1.649  1.00  0.00     0.143 C 
HETATM    6  N4  UNL     1     -41.736  -2.513  -0.611  1.00  0.00    -0.378 N 
HETATM    7  C18 UNL     1     -42.167  -2.486   0.758  1.00  0.00     0.143 C 
HETATM    8  C19 UNL     1     -43.154  -1.321   0.919  1.00  0.00     0.145 C 
ENDROOT
BRANCH   1   9
HETATM    9  C8  UNL     1     -45.884  -0.502   1.777  1.00  0.00     0.108 C 
BRANCH   9  10
HETATM   10  C7  UNL     1     -45.972  -1.462   2.912  1.00  0.00     0.056 C 
BRANCH  10  11
HETATM   11  C6  UNL     1     -45.804  -0.926   4.259  1.00  0.00     0.037 A 
HETATM   12  C4  UNL     1     -44.760  -1.143   5.116  1.00  0.00     0.060 A 
HETATM   13  N1  UNL     1     -45.108  -0.470   6.262  1.00  0.00    -0.299 N 
HETATM   14  N2  UNL     1     -46.276   0.118   6.116  1.00  0.00    -0.266 N 
ATOM     15  H1  UNL     1     -44.539  -0.432   7.108  1.00  0.00     0.186 HD
HETATM   16  C5  UNL     1     -46.753  -0.124   4.910  1.00  0.00     0.268 A 
ATOM     17  H2  UNL     1     -46.743   0.678   6.829  1.00  0.00     0.190 HD
HETATM   18  O1  UNL     1     -47.842   0.255   4.370  1.00  0.00    -0.266 OA
BRANCH  12  19
HETATM   19  C2  UNL     1     -43.481  -1.843   4.992  1.00  0.00     0.074 C 
HETATM   20  C1  UNL     1     -42.890  -2.034   6.387  1.00  0.00     0.039 C 
HETATM   21  C3  UNL     1     -42.521  -0.848   4.314  1.00  0.00     0.039 C 
HETATM   22 CL1  UNL     1     -43.451  -3.320   4.074  1.00  0.00    -0.113 Cl
ENDBRANCH  12  19
ENDBRANCH  10  11
ENDBRANCH   9  10
ENDBRANCH   1   9
BRANCH   6  23
HETATM   23  C12 UNL     1     -40.437  -2.835  -1.065  1.00  0.00     0.033 A 
HETATM   24  C13 UNL     1     -40.163  -3.234  -2.344  1.00  0.00     0.053 A 
HETATM   25  C14 UNL     1     -38.887  -3.555  -2.774  1.00  0.00     0.037 A 
HETATM   26 CL2  UNL     1     -38.571  -4.062  -4.416  1.00  0.00    -0.084 Cl
HETATM   27  C15 UNL     1     -37.823  -3.477  -1.901  1.00  0.00     0.048 A 
HETATM   28  C16 UNL     1     -38.076  -3.073  -0.598  1.00  0.00     0.037 A 
HETATM   29 CL3  UNL     1     -36.720  -2.982   0.486  1.00  0.00    -0.084 Cl
HETATM   30  C17 UNL     1     -39.380  -2.755  -0.190  1.00  0.00     0.053 A 
ENDBRANCH   6  23
TORSDOF 5
ENDMDL
MODEL 5
REMARK VINA RESULT: -8.105747705      1.707      2.610
REMARK  5 active torsions:
REMARK  status: ('A' for Active; 'I' for Inactive)
REMARK    1  A    between atoms: C2_2  and  C4_5 
REMARK    2  A    between atoms: C6_12  and  C7_13 
REMARK    3  A    between atoms: C7_13  and  C8_14 
REMARK    4  A    between atoms: C8_14  and  C9_15 
REMARK       I    between atoms: C9_15  and  N3_17 
REMARK    5  A    between atoms: N4_20  and  C12_21 
ROOT
HETATM    1  C9  UNL     1     -45.722  -0.510   2.813  1.00  0.00     0.220 C 
HETATM    2  O2  UNL     1     -46.768  -0.333   2.127  1.00  0.00    -0.273 OA
HETATM    3  N3  UNL     1     -44.528  -1.008   2.230  1.00  0.00    -0.349 N 
HETATM    4  C10 UNL     1     -44.545  -1.303   0.804  1.00  0.00     0.145 C 
HETATM    5  C11 UNL     1     -43.148  -1.261   0.219  1.00  0.00     0.143 C 
HETATM    6  N4  UNL     1     -42.249  -2.127   0.996  1.00  0.00    -0.378 N 
HETATM    7  C18 UNL     1     -42.633  -2.463   2.337  1.00  0.00     0.143 C 
HETATM    8  C19 UNL     1     -43.316  -1.235   2.955  1.00  0.00     0.145 C 
ENDROOT
BRANCH   1   9
HETATM    9  C8  UNL     1     -45.760  -0.181   4.289  1.00  0.00     0.108 C 
BRANCH   9  10
HETATM   10  C7  UNL     1     -46.654  -1.148   4.986  1.00  0.00     0.056 C 
BRANCH  10  11
HETATM   11  C6  UNL     1     -46.116  -1.837   6.155  1.00  0.00     0.037 A 
HETATM   12  C4  UNL     1     -45.971  -1.337   7.420  1.00  0.00     0.060 A 
HETATM   13  N1  UNL     1     -45.370  -2.351   8.125  1.00  0.00    -0.299 N 
HETATM   14  N2  UNL     1     -45.166  -3.396   7.350  1.00  0.00    -0.266 N 
ATOM     15  H1  UNL     1     -45.117  -2.302   9.112  1.00  0.00     0.186 HD
HETATM   16  C5  UNL     1     -45.602  -3.141   6.131  1.00  0.00     0.268 A 
ATOM     17  H2  UNL     1     -44.735  -4.271   7.647  1.00  0.00     0.190 HD
HETATM   18  O1  UNL     1     -45.594  -3.875   5.090  1.00  0.00    -0.266 OA
BRANCH  12  19
HETATM   19  C2  UNL     1     -46.356  -0.079   8.058  1.00  0.00     0.074 C 
HETATM   20  C1  UNL     1     -45.263   0.956   7.801  1.00  0.00     0.039 C 
HETATM   21  C3  UNL     1     -46.276  -0.335   9.575  1.00  0.00     0.039 C 
HETATM   22 CL1  UNL     1     -47.938   0.557   7.710  1.00  0.00    -0.113 Cl
ENDBRANCH  12  19
ENDBRANCH  10  11
ENDBRANCH   9  10
ENDBRANCH   1   9
BRANCH   6  23
HETATM   23  C12 UNL     1     -41.072  -2.551   0.340  1.00  0.00     0.033 A 
HETATM   24  C13 UNL     1     -39.847  -2.599   0.945  1.00  0.00     0.053 A 
HETATM   25  C14 UNL     1     -38.699  -3.010   0.289  1.00  0.00     0.037 A 
HETATM   26 CL2  UNL     1     -37.148  -3.059   1.092  1.00  0.00    -0.084 Cl
HETATM   27  C15 UNL     1     -38.759  -3.396  -1.033  1.00  0.00     0.048 A 
HETATM   28  C16 UNL     1     -39.992  -3.357  -1.669  1.00  0.00     0.037 A 
HETATM   29 CL3  UNL     1     -40.045  -3.849  -3.335  1.00  0.00    -0.084 Cl
HETATM   30  C17 UNL     1     -41.138  -2.935  -0.978  1.00  0.00     0.053 A 
ENDBRANCH   6  23
TORSDOF 5
ENDMDL
