MODEL 1
REMARK VINA RESULT: -8.830749464      0.000      0.000
REMARK  5 active torsions:
REMARK  status: ('A' for Active; 'I' for Inactive)
REMARK    1  A    between atoms: C5_5  and  C6_6 
REMARK    2  A    between atoms: C6_6  and  N1_7 
REMARK       I    between atoms: N1_7  and  C7_9 
REMARK    3  A    between atoms: C7_9  and  C8_11 
REMARK    4  A    between atoms: C11_14  and  C12_15 
REMARK    5  A    between atoms: C12_15  and  N2_16 
ROOT
HETATM    1  C6  UNL     1      -8.352  12.307  -1.240  1.00  0.00     0.161 C 
ENDROOT
BRANCH   1   2
HETATM    2  C5  UNL     1      -9.400  12.271  -2.302  1.00  0.00    -0.040 A 
HETATM    3  C4  UNL     1     -10.592  12.909  -2.149  1.00  0.00     0.019 A 
HETATM    4  C3  UNL     1     -11.536  12.845  -3.153  1.00  0.00    -0.017 A 
HETATM    5  C2  UNL     1     -12.800  13.603  -2.836  1.00  0.00     0.057 C 
HETATM    6  C21 UNL     1     -11.328  12.152  -4.330  1.00  0.00     0.075 A 
HETATM    7  C1  UNL     1     -12.704  15.008  -3.299  1.00  0.00     0.018 C 
HETATM    8  C26 UNL     1     -13.997  12.848  -3.261  1.00  0.00     0.116 C 
HETATM    9  C23 UNL     1     -14.374  12.849  -4.673  1.00  0.00     0.011 C 
HETATM   10  C27 UNL     1     -15.175  13.372  -2.424  1.00  0.00     0.053 C 
HETATM   11  F1  UNL     1     -13.823  11.528  -2.812  1.00  0.00    -0.242 F 
HETATM   12  C22 UNL     1     -13.259  12.921  -5.681  1.00  0.00     0.187 C 
HETATM   13  C24 UNL     1     -15.388  13.908  -5.071  1.00  0.00     0.020 C 
HETATM   14  C25 UNL     1     -15.063  11.500  -4.962  1.00  0.00     0.020 C 
HETATM   15  O3  UNL     1     -12.204  12.011  -5.422  1.00  0.00    -0.350 OA
HETATM   16  C20 UNL     1     -10.130  11.505  -4.494  1.00  0.00     0.038 A 
HETATM   17  C19 UNL     1      -9.184  11.567  -3.492  1.00  0.00     0.011 A 
ENDBRANCH   1   2
BRANCH   1  18
HETATM   18  N1  UNL     1      -8.088  11.011  -0.695  1.00  0.00    -0.356 N 
HETATM   19  C7  UNL     1      -8.800  10.446   0.395  1.00  0.00     0.222 C 
HETATM   20  O1  UNL     1      -9.711  11.123   0.908  1.00  0.00    -0.273 OA
ATOM     21  H1  UNL     1      -7.341  10.458  -1.116  1.00  0.00     0.162 HD
BRANCH  19  22
HETATM   22  C8  UNL     1      -8.499   9.093   0.935  1.00  0.00     0.078 C 
HETATM   23  C9  UNL     1      -7.430   9.245   1.947  1.00  0.00     0.014 C 
HETATM   24  C10 UNL     1      -7.799   9.183   3.372  1.00  0.00     0.007 C 
HETATM   25  C11 UNL     1      -8.986   8.358   3.731  1.00  0.00     0.014 C 
HETATM   26  C17 UNL     1     -10.127   8.519   2.797  1.00  0.00     0.007 C 
HETATM   27  C18 UNL     1      -9.779   8.486   1.351  1.00  0.00     0.014 C 
BRANCH  25  28
HETATM   28  C12 UNL     1      -8.622   6.893   3.946  1.00  0.00     0.277 C 
BRANCH  28  29
HETATM   29  N2  UNL     1      -9.617   6.204   4.714  1.00  0.00     0.092 N 
HETATM   30  C13 UNL     1      -9.083   5.549   5.878  1.00  0.00     0.298 C 
HETATM   31  C14 UNL     1     -10.219   4.743   6.493  1.00  0.00     0.198 C 
HETATM   32  O2  UNL     1     -11.447   5.065   5.902  1.00  0.00    -0.388 OA
HETATM   33  C15 UNL     1     -11.489   4.711   4.553  1.00  0.00     0.198 C 
HETATM   34  C16 UNL     1     -10.207   5.166   3.886  1.00  0.00     0.298 C 
ENDBRANCH  28  29
ENDBRANCH  25  28
ENDBRANCH  19  22
ENDBRANCH   1  18
TORSDOF 5
ENDMDL
MODEL 2
REMARK VINA RESULT: -8.590903173      1.461      2.233
REMARK  5 active torsions:
REMARK  status: ('A' for Active; 'I' for Inactive)
REMARK    1  A    between atoms: C5_5  and  C6_6 
REMARK    2  A    between atoms: C6_6  and  N1_7 
REMARK       I    between atoms: N1_7  and  C7_9 
REMARK    3  A    between atoms: C7_9  and  C8_11 
REMARK    4  A    between atoms: C11_14  and  C12_15 
REMARK    5  A    between atoms: C12_15  and  N2_16 
ROOT
HETATM    1  C6  UNL     1      -8.046  10.871   0.041  1.00  0.00     0.161 C 
ENDROOT
BRANCH   1   2
HETATM    2  C5  UNL     1      -8.787  11.118  -1.232  1.00  0.00    -0.040 A 
HETATM    3  C4  UNL     1      -9.821  11.999  -1.294  1.00  0.00     0.019 A 
HETATM    4  C3  UNL     1     -10.483  12.193  -2.489  1.00  0.00    -0.017 A 
HETATM    5  C2  UNL     1     -11.601  13.200  -2.399  1.00  0.00     0.057 C 
HETATM    6  C21 UNL     1     -10.141  11.523  -3.648  1.00  0.00     0.075 A 
HETATM    7  C1  UNL     1     -11.105  14.567  -2.689  1.00  0.00     0.018 C 
HETATM    8  C26 UNL     1     -12.788  12.752  -3.157  1.00  0.00     0.116 C 
HETATM    9  C23 UNL     1     -12.799  12.900  -4.611  1.00  0.00     0.011 C 
HETATM   10  C27 UNL     1     -14.000  13.489  -2.565  1.00  0.00     0.053 C 
HETATM   11  F1  UNL     1     -13.006  11.408  -2.810  1.00  0.00    -0.242 F 
HETATM   12  C22 UNL     1     -11.481  12.764  -5.325  1.00  0.00     0.187 C 
HETATM   13  C24 UNL     1     -13.442  14.175  -5.127  1.00  0.00     0.020 C 
HETATM   14  C25 UNL     1     -13.660  11.753  -5.179  1.00  0.00     0.020 C 
HETATM   15  O3  UNL     1     -10.733  11.630  -4.921  1.00  0.00    -0.350 OA
HETATM   16  C20 UNL     1      -9.100  10.632  -3.595  1.00  0.00     0.038 A 
HETATM   17  C19 UNL     1      -8.436  10.436  -2.403  1.00  0.00     0.011 A 
ENDBRANCH   1   2
BRANCH   1  18
HETATM   18  N1  UNL     1      -8.879  10.291   1.049  1.00  0.00    -0.356 N 
HETATM   19  C7  UNL     1      -8.404   9.444   2.084  1.00  0.00     0.222 C 
HETATM   20  O1  UNL     1      -7.186   9.189   2.114  1.00  0.00    -0.273 OA
ATOM     21  H1  UNL     1      -9.877  10.501   1.022  1.00  0.00     0.162 HD
BRANCH  19  22
HETATM   22  C8  UNL     1      -9.301   8.860   3.117  1.00  0.00     0.078 C 
HETATM   23  C9  UNL     1     -10.455   8.255   2.415  1.00  0.00     0.014 C 
HETATM   24  C10 UNL     1     -10.496   6.788   2.269  1.00  0.00     0.007 C 
HETATM   25  C11 UNL     1      -9.818   5.982   3.322  1.00  0.00     0.014 C 
HETATM   26  C17 UNL     1      -8.506   6.531   3.740  1.00  0.00     0.007 C 
HETATM   27  C18 UNL     1      -8.476   7.998   3.985  1.00  0.00     0.014 C 
BRANCH  25  28
HETATM   28  C12 UNL     1     -10.733   5.710   4.513  1.00  0.00     0.277 C 
BRANCH  28  29
HETATM   29  N2  UNL     1      -9.987   5.432   5.705  1.00  0.00     0.092 N 
HETATM   30  C13 UNL     1      -9.758   4.028   5.917  1.00  0.00     0.298 C 
HETATM   31  C14 UNL     1      -9.100   3.889   7.283  1.00  0.00     0.198 C 
HETATM   32  O2  UNL     1      -8.715   5.136   7.790  1.00  0.00    -0.388 OA
HETATM   33  C15 UNL     1      -9.811   5.963   8.039  1.00  0.00     0.198 C 
HETATM   34  C16 UNL     1     -10.747   5.908   6.849  1.00  0.00     0.298 C 
ENDBRANCH  28  29
ENDBRANCH  25  28
ENDBRANCH  19  22
ENDBRANCH   1  18
TORSDOF 5
ENDMDL
MODEL 3
REMARK VINA RESULT: -8.436608218      1.354      1.708
REMARK  5 active torsions:
REMARK  status: ('A' for Active; 'I' for Inactive)
REMARK    1  A    between atoms: C5_5  and  C6_6 
REMARK    2  A    between atoms: C6_6  and  N1_7 
REMARK       I    between atoms: N1_7  and  C7_9 
REMARK    3  A    between atoms: C7_9  and  C8_11 
REMARK    4  A    between atoms: C11_14  and  C12_15 
REMARK    5  A    between atoms: C12_15  and  N2_16 
ROOT
HETATM    1  C6  UNL     1      -8.114  12.592  -0.824  1.00  0.00     0.161 C 
ENDROOT
BRANCH   1   2
HETATM    2  C5  UNL     1      -8.915  12.935  -2.037  1.00  0.00    -0.040 A 
HETATM    3  C4  UNL     1     -10.178  12.462  -2.214  1.00  0.00     0.019 A 
HETATM    4  C3  UNL     1     -10.881  12.798  -3.353  1.00  0.00    -0.017 A 
HETATM    5  C2  UNL     1     -12.264  12.202  -3.402  1.00  0.00     0.057 C 
HETATM    6  C21 UNL     1     -10.355  13.607  -4.343  1.00  0.00     0.075 A 
HETATM    7  C1  UNL     1     -13.254  13.110  -2.773  1.00  0.00     0.018 C 
HETATM    8  C26 UNL     1     -12.587  11.710  -4.757  1.00  0.00     0.116 C 
HETATM    9  C23 UNL     1     -12.986  12.668  -5.785  1.00  0.00     0.011 C 
HETATM   10  C27 UNL     1     -13.692  10.653  -4.597  1.00  0.00     0.053 C 
HETATM   11  F1  UNL     1     -11.474  10.972  -5.195  1.00  0.00    -0.242 F 
HETATM   12  C22 UNL     1     -12.370  14.040  -5.721  1.00  0.00     0.187 C 
HETATM   13  C24 UNL     1     -14.484  12.873  -5.933  1.00  0.00     0.020 C 
HETATM   14  C25 UNL     1     -12.518  12.104  -7.142  1.00  0.00     0.020 C 
HETATM   15  O3  UNL     1     -10.964  14.020  -5.543  1.00  0.00    -0.350 OA
HETATM   16  C20 UNL     1      -9.082  14.087  -4.174  1.00  0.00     0.038 A 
HETATM   17  C19 UNL     1      -8.377  13.754  -3.036  1.00  0.00     0.011 A 
ENDBRANCH   1   2
BRANCH   1  18
HETATM   18  N1  UNL     1      -8.217  11.207  -0.481  1.00  0.00    -0.356 N 
HETATM   19  C7  UNL     1      -7.768  10.656   0.747  1.00  0.00     0.222 C 
HETATM   20  O1  UNL     1      -7.251  11.427   1.576  1.00  0.00    -0.273 OA
ATOM     21  H1  UNL     1      -8.641  10.576  -1.162  1.00  0.00     0.162 HD
BRANCH  19  22
HETATM   22  C8  UNL     1      -7.893   9.209   1.070  1.00  0.00     0.078 C 
HETATM   23  C9  UNL     1      -7.334   9.006   2.426  1.00  0.00     0.014 C 
HETATM   24  C10 UNL     1      -8.270   8.825   3.550  1.00  0.00     0.007 C 
HETATM   25  C11 UNL     1      -9.591   8.212   3.241  1.00  0.00     0.014 C 
HETATM   26  C17 UNL     1     -10.207   8.723   1.993  1.00  0.00     0.007 C 
HETATM   27  C18 UNL     1      -9.294   8.818   0.822  1.00  0.00     0.014 C 
BRANCH  25  28
HETATM   28  C12 UNL     1      -9.538   6.688   3.275  1.00  0.00     0.277 C 
BRANCH  28  29
HETATM   29  N2  UNL     1     -10.113   6.161   4.477  1.00  0.00     0.092 N 
HETATM   30  C13 UNL     1      -9.134   5.839   5.481  1.00  0.00     0.298 C 
HETATM   31  C14 UNL     1      -9.877   5.154   6.620  1.00  0.00     0.198 C 
HETATM   32  O2  UNL     1     -11.264   5.261   6.457  1.00  0.00    -0.388 OA
HETATM   33  C15 UNL     1     -11.713   4.584   5.322  1.00  0.00     0.198 C 
HETATM   34  C16 UNL     1     -10.806   4.924   4.158  1.00  0.00     0.298 C 
ENDBRANCH  28  29
ENDBRANCH  25  28
ENDBRANCH  19  22
ENDBRANCH   1  18
TORSDOF 5
ENDMDL
MODEL 4
REMARK VINA RESULT: -8.304723763      4.561      6.718
REMARK  5 active torsions:
REMARK  status: ('A' for Active; 'I' for Inactive)
REMARK    1  A    between atoms: C5_5  and  C6_6 
REMARK    2  A    between atoms: C6_6  and  N1_7 
REMARK       I    between atoms: N1_7  and  C7_9 
REMARK    3  A    between atoms: C7_9  and  C8_11 
REMARK    4  A    between atoms: C11_14  and  C12_15 
REMARK    5  A    between atoms: C12_15  and  N2_16 
ROOT
HETATM    1  C6  UNL     1      -9.529  10.860   0.255  1.00  0.00     0.161 C 
ENDROOT
BRANCH   1   2
HETATM    2  C5  UNL     1      -8.157  11.032  -0.309  1.00  0.00    -0.040 A 
HETATM    3  C4  UNL     1      -7.525  10.021  -0.964  1.00  0.00     0.019 A 
HETATM    4  C3  UNL     1      -6.255  10.219  -1.465  1.00  0.00    -0.017 A 
HETATM    5  C2  UNL     1      -5.691   9.010  -2.166  1.00  0.00     0.057 C 
HETATM    6  C21 UNL     1      -5.579  11.418  -1.332  1.00  0.00     0.075 A 
HETATM    7  C1  UNL     1      -6.038   9.024  -3.607  1.00  0.00     0.018 C 
HETATM    8  C26 UNL     1      -4.265   8.814  -1.831  1.00  0.00     0.116 C 
HETATM    9  C23 UNL     1      -3.260   9.642  -2.494  1.00  0.00     0.011 C 
HETATM   10  C27 UNL     1      -3.946   7.332  -2.085  1.00  0.00     0.053 C 
HETATM   11  F1  UNL     1      -4.154   8.950  -0.437  1.00  0.00    -0.242 F 
HETATM   12  C22 UNL     1      -3.657  11.049  -2.853  1.00  0.00     0.187 C 
HETATM   13  C24 UNL     1      -2.641   9.035  -3.741  1.00  0.00     0.020 C 
HETATM   14  C25 UNL     1      -2.088   9.817  -1.506  1.00  0.00     0.020 C 
HETATM   15  O3  UNL     1      -4.291  11.745  -1.794  1.00  0.00    -0.350 OA
HETATM   16  C20 UNL     1      -6.208  12.442  -0.673  1.00  0.00     0.038 A 
HETATM   17  C19 UNL     1      -7.478  12.248  -0.172  1.00  0.00     0.011 A 
ENDBRANCH   1   2
BRANCH   1  18
HETATM   18  N1  UNL     1      -9.506  10.327   1.582  1.00  0.00    -0.356 N 
HETATM   19  C7  UNL     1      -9.704   8.956   1.892  1.00  0.00     0.222 C 
HETATM   20  O1  UNL     1      -9.911   8.170   0.949  1.00  0.00    -0.273 OA
ATOM     21  H1  UNL     1      -9.336  10.972   2.354  1.00  0.00     0.162 HD
BRANCH  19  22
HETATM   22  C8  UNL     1      -9.671   8.436   3.286  1.00  0.00     0.078 C 
HETATM   23  C9  UNL     1     -10.624   7.306   3.361  1.00  0.00     0.014 C 
HETATM   24  C10 UNL     1     -10.086   5.934   3.369  1.00  0.00     0.007 C 
HETATM   25  C11 UNL     1      -8.728   5.741   3.949  1.00  0.00     0.014 C 
HETATM   26  C17 UNL     1      -7.757   6.790   3.553  1.00  0.00     0.007 C 
HETATM   27  C18 UNL     1      -8.259   8.188   3.634  1.00  0.00     0.014 C 
BRANCH  25  28
HETATM   28  C12 UNL     1      -8.773   5.540   5.461  1.00  0.00     0.277 C 
BRANCH  28  29
HETATM   29  N2  UNL     1     -10.118   5.457   5.947  1.00  0.00     0.092 N 
HETATM   30  C13 UNL     1     -10.255   5.885   7.314  1.00  0.00     0.298 C 
HETATM   31  C14 UNL     1     -11.692   5.593   7.727  1.00  0.00     0.198 C 
HETATM   32  O2  UNL     1     -12.475   5.237   6.622  1.00  0.00    -0.388 OA
HETATM   33  C15 UNL     1     -12.053   4.040   6.043  1.00  0.00     0.198 C 
HETATM   34  C16 UNL     1     -10.545   4.069   5.900  1.00  0.00     0.298 C 
ENDBRANCH  28  29
ENDBRANCH  25  28
ENDBRANCH  19  22
ENDBRANCH   1  18
TORSDOF 5
ENDMDL
MODEL 5
REMARK VINA RESULT: -8.271711467      3.247      4.679
REMARK  5 active torsions:
REMARK  status: ('A' for Active; 'I' for Inactive)
REMARK    1  A    between atoms: C5_5  and  C6_6 
REMARK    2  A    between atoms: C6_6  and  N1_7 
REMARK       I    between atoms: N1_7  and  C7_9 
REMARK    3  A    between atoms: C7_9  and  C8_11 
REMARK    4  A    between atoms: C11_14  and  C12_15 
REMARK    5  A    between atoms: C12_15  and  N2_16 
ROOT
HETATM    1  C6  UNL     1      -6.850   9.576   0.755  1.00  0.00     0.161 C 
ENDROOT
BRANCH   1   2
HETATM    2  C5  UNL     1      -7.575  10.103  -0.440  1.00  0.00    -0.040 A 
HETATM    3  C4  UNL     1      -7.095   9.925  -1.700  1.00  0.00     0.019 A 
HETATM    4  C3  UNL     1      -7.793  10.433  -2.776  1.00  0.00    -0.017 A 
HETATM    5  C2  UNL     1      -7.137  10.152  -4.103  1.00  0.00     0.057 C 
HETATM    6  C21 UNL     1      -8.979  11.128  -2.635  1.00  0.00     0.075 A 
HETATM    7  C1  UNL     1      -7.613   8.865  -4.666  1.00  0.00     0.018 C 
HETATM    8  C26 UNL     1      -7.205  11.329  -4.995  1.00  0.00     0.116 C 
HETATM    9  C23 UNL     1      -8.455  11.617  -5.696  1.00  0.00     0.011 C 
HETATM   10  C27 UNL     1      -6.073  11.177  -6.023  1.00  0.00     0.053 C 
HETATM   11  F1  UNL     1      -6.819  12.440  -4.227  1.00  0.00    -0.242 F 
HETATM   12  C22 UNL     1      -9.736  11.259  -4.992  1.00  0.00     0.187 C 
HETATM   13  C24 UNL     1      -8.556  11.045  -7.099  1.00  0.00     0.020 C 
HETATM   14  C25 UNL     1      -8.534  13.147  -5.876  1.00  0.00     0.020 C 
HETATM   15  O3  UNL     1      -9.781  11.694  -3.644  1.00  0.00    -0.350 OA
HETATM   16  C20 UNL     1      -9.470  11.314  -1.368  1.00  0.00     0.038 A 
HETATM   17  C19 UNL     1      -8.776  10.806  -0.290  1.00  0.00     0.011 A 
ENDBRANCH   1   2
BRANCH   1  18
HETATM   18  N1  UNL     1      -7.722   8.894   1.661  1.00  0.00    -0.356 N 
HETATM   19  C7  UNL     1      -7.946   9.295   3.003  1.00  0.00     0.222 C 
HETATM   20  O1  UNL     1      -7.344  10.303   3.418  1.00  0.00    -0.273 OA
ATOM     21  H1  UNL     1      -8.213   8.068   1.319  1.00  0.00     0.162 HD
BRANCH  19  22
HETATM   22  C8  UNL     1      -8.862   8.561   3.917  1.00  0.00     0.078 C 
HETATM   23  C9  UNL     1     -10.168   8.435   3.231  1.00  0.00     0.014 C 
HETATM   24  C10 UNL     1     -10.525   7.132   2.640  1.00  0.00     0.007 C 
HETATM   25  C11 UNL     1      -9.952   5.916   3.280  1.00  0.00     0.014 C 
HETATM   26  C17 UNL     1      -8.526   6.058   3.659  1.00  0.00     0.007 C 
HETATM   27  C18 UNL     1      -8.171   7.330   4.345  1.00  0.00     0.014 C 
BRANCH  25  28
HETATM   28  C12 UNL     1     -10.809   5.422   4.442  1.00  0.00     0.277 C 
BRANCH  28  29
HETATM   29  N2  UNL     1     -10.041   5.266   5.642  1.00  0.00     0.092 N 
HETATM   30  C13 UNL     1      -9.779   3.890   5.973  1.00  0.00     0.298 C 
HETATM   31  C14 UNL     1      -9.099   3.885   7.335  1.00  0.00     0.198 C 
HETATM   32  O2  UNL     1      -8.733   5.180   7.724  1.00  0.00    -0.388 OA
HETATM   33  C15 UNL     1      -9.843   6.004   7.917  1.00  0.00     0.198 C 
HETATM   34  C16 UNL     1     -10.794   5.825   6.751  1.00  0.00     0.298 C 
ENDBRANCH  28  29
ENDBRANCH  25  28
ENDBRANCH  19  22
ENDBRANCH   1  18
TORSDOF 5
ENDMDL
