MODEL 1
REMARK VINA RESULT: -8.962150062      0.000      0.000
REMARK  7 active torsions:
REMARK  status: ('A' for Active; 'I' for Inactive)
REMARK    1  A    between atoms: C6_7  and  O2_8 
REMARK    2  A    between atoms: N1_17  and  C14_18 
REMARK    3  A    between atoms: C14_18  and  C15_19 
REMARK    4  A    between atoms: C21_25  and  C22_26 
REMARK    5  A    between atoms: C22_26  and  C23_27 
REMARK    6  A    between atoms: C23_27  and  C24_28 
REMARK    7  A    between atoms: C24_28  and  O3_29 
ROOT
HETATM    1  C1  UNL     1     -10.616   4.879   3.650  1.00  0.00     0.015 C 
HETATM    2  C2  UNL     1     -10.546   6.369   4.004  1.00  0.00     0.011 C 
HETATM    3  C3  UNL     1     -11.105   7.046   2.815  1.00  0.00     0.012 C 
HETATM    4  C4  UNL     1     -10.537   8.017   2.170  1.00  0.00     0.064 C 
HETATM    5  O1  UNL     1     -10.759   8.853   1.055  1.00  0.00    -0.311 OA
HETATM    6  C5  UNL     1      -9.525   9.409   0.658  1.00  0.00     0.116 A 
HETATM    7  C6  UNL     1      -9.043  10.224  -0.344  1.00  0.00     0.100 A 
HETATM    8  C7  UNL     1      -7.676  10.527  -0.430  1.00  0.00     0.040 A 
HETATM    9  C8  UNL     1      -6.777   9.998   0.512  1.00  0.00     0.011 A 
HETATM   10  C9  UNL     1      -7.229   9.191   1.524  1.00  0.00    -0.046 A 
HETATM   11  C10 UNL     1      -8.573   8.970   1.516  1.00  0.00     0.001 A 
HETATM   12  C11 UNL     1      -9.226   8.453   2.712  1.00  0.00     0.049 C 
HETATM   13  C12 UNL     1      -9.446   9.603   3.680  1.00  0.00     0.066 C 
HETATM   14  C13 UNL     1      -8.142  10.094   4.206  1.00  0.00     0.065 C 
HETATM   15  N1  UNL     1      -7.312   9.059   4.619  1.00  0.00    -0.368 N 
HETATM   16  C18 UNL     1      -7.096   7.984   3.705  1.00  0.00     0.098 C 
HETATM   17  C19 UNL     1      -6.363   8.551   2.520  1.00  0.00     0.065 C 
HETATM   18  C20 UNL     1      -8.400   7.350   3.263  1.00  0.00     0.034 C 
HETATM   19  C21 UNL     1      -9.186   6.784   4.420  1.00  0.00     0.000 C 
ENDROOT
BRANCH  19  20
HETATM   20  C22 UNL     1      -8.453   5.749   5.216  1.00  0.00     0.009 C 
BRANCH  20  21
HETATM   21  C23 UNL     1      -9.359   5.082   6.207  1.00  0.00     0.043 C 
BRANCH  21  22
HETATM   22  C24 UNL     1      -8.960   5.491   7.620  1.00  0.00     0.189 C 
HETATM   23 BR1  UNL     1     -10.519   6.155   8.552  1.00  0.00    -0.062 Br
BRANCH  22  24
HETATM   24  O3  UNL     1      -7.994   6.485   7.616  1.00  0.00    -0.385 OA
ATOM     25  H3  UNL     1      -8.275   7.253   8.099  1.00  0.00     0.211 HD
ENDBRANCH  22  24
ENDBRANCH  21  22
ENDBRANCH  20  21
ENDBRANCH  19  20
BRANCH  15  26
HETATM   26  C14 UNL     1      -6.368   9.243   5.636  1.00  0.00     0.068 C 
BRANCH  26  27
HETATM   27  C15 UNL     1      -4.932   8.951   5.292  1.00  0.00     0.024 A 
HETATM   28  C16 UNL     1      -4.035   9.979   4.739  1.00  0.00     0.010 A 
HETATM   29  C17 UNL     1      -3.875   9.603   6.190  1.00  0.00     0.010 A 
ENDBRANCH  26  27
ENDBRANCH  15  26
BRANCH   7  30
HETATM   30  O2  UNL     1      -9.908  10.751  -1.278  1.00  0.00    -0.358 OA
ATOM     31  H2  UNL     1      -9.922  11.687  -1.437  1.00  0.00     0.217 HD
ENDBRANCH   7  30
TORSDOF 7
ENDMDL
MODEL 2
REMARK VINA RESULT: -8.403221990      4.064      7.879
REMARK  7 active torsions:
REMARK  status: ('A' for Active; 'I' for Inactive)
REMARK    1  A    between atoms: C6_7  and  O2_8 
REMARK    2  A    between atoms: N1_17  and  C14_18 
REMARK    3  A    between atoms: C14_18  and  C15_19 
REMARK    4  A    between atoms: C21_25  and  C22_26 
REMARK    5  A    between atoms: C22_26  and  C23_27 
REMARK    6  A    between atoms: C23_27  and  C24_28 
REMARK    7  A    between atoms: C24_28  and  O3_29 
ROOT
HETATM    1  C1  UNL     1      -4.186   7.669  -2.176  1.00  0.00     0.015 C 
HETATM    2  C2  UNL     1      -4.381   9.036  -1.512  1.00  0.00     0.011 C 
HETATM    3  C3  UNL     1      -3.888   8.839  -0.133  1.00  0.00     0.012 C 
HETATM    4  C4  UNL     1      -4.540   9.142   0.946  1.00  0.00     0.064 C 
HETATM    5  O1  UNL     1      -4.395   9.093   2.349  1.00  0.00    -0.311 OA
HETATM    6  C5  UNL     1      -5.674   9.192   2.935  1.00  0.00     0.116 A 
HETATM    7  C6  UNL     1      -6.228   9.153   4.198  1.00  0.00     0.100 A 
HETATM    8  C7  UNL     1      -7.617   9.245   4.376  1.00  0.00     0.040 A 
HETATM    9  C8  UNL     1      -8.463   9.379   3.262  1.00  0.00     0.011 A 
HETATM   10  C9  UNL     1      -7.939   9.427   1.996  1.00  0.00    -0.046 A 
HETATM   11  C10 UNL     1      -6.581   9.337   1.940  1.00  0.00     0.001 A 
HETATM   12  C11 UNL     1      -5.881   9.739   0.727  1.00  0.00     0.049 C 
HETATM   13  C12 UNL     1      -5.756  11.253   0.718  1.00  0.00     0.066 C 
HETATM   14  C13 UNL     1      -7.095  11.882   0.546  1.00  0.00     0.065 C 
HETATM   15  N1  UNL     1      -7.831  11.295  -0.475  1.00  0.00    -0.368 N 
HETATM   16  C18 UNL     1      -7.959   9.872  -0.460  1.00  0.00     0.098 C 
HETATM   17  C19 UNL     1      -8.742   9.511   0.772  1.00  0.00     0.065 C 
HETATM   18  C20 UNL     1      -6.607   9.186  -0.444  1.00  0.00     0.034 C 
HETATM   19  C21 UNL     1      -5.770   9.534  -1.650  1.00  0.00     0.000 C 
ENDROOT
BRANCH  19  20
HETATM   20  C22 UNL     1      -6.409   9.195  -2.962  1.00  0.00     0.009 C 
BRANCH  20  21
HETATM   21  C23 UNL     1      -6.064  10.209  -4.013  1.00  0.00     0.043 C 
BRANCH  21  22
HETATM   22  C24 UNL     1      -7.081  10.135  -5.146  1.00  0.00     0.189 C 
HETATM   23 BR1  UNL     1      -8.845   9.874  -4.398  1.00  0.00    -0.062 Br
BRANCH  22  24
HETATM   24  O3  UNL     1      -6.811   9.088  -6.014  1.00  0.00    -0.385 OA
ATOM     25  H3  UNL     1      -7.571   8.857  -6.535  1.00  0.00     0.211 HD
ENDBRANCH  22  24
ENDBRANCH  21  22
ENDBRANCH  20  21
ENDBRANCH  19  20
BRANCH  15  26
HETATM   26  C14 UNL     1      -8.783  12.021  -1.199  1.00  0.00     0.068 C 
BRANCH  26  27
HETATM   27  C15 UNL     1      -8.328  13.319  -1.811  1.00  0.00     0.024 A 
HETATM   28  C16 UNL     1      -7.317  13.370  -2.878  1.00  0.00     0.010 A 
HETATM   29  C17 UNL     1      -8.761  13.574  -3.258  1.00  0.00     0.010 A 
ENDBRANCH  26  27
ENDBRANCH  15  26
BRANCH   7  30
HETATM   30  O2  UNL     1      -5.416   9.021   5.302  1.00  0.00    -0.358 OA
ATOM     31  H2  UNL     1      -5.796   9.007   6.171  1.00  0.00     0.217 HD
ENDBRANCH   7  30
TORSDOF 7
ENDMDL
MODEL 3
REMARK VINA RESULT: -8.379924125      4.073      7.915
REMARK  7 active torsions:
REMARK  status: ('A' for Active; 'I' for Inactive)
REMARK    1  A    between atoms: C6_7  and  O2_8 
REMARK    2  A    between atoms: N1_17  and  C14_18 
REMARK    3  A    between atoms: C14_18  and  C15_19 
REMARK    4  A    between atoms: C21_25  and  C22_26 
REMARK    5  A    between atoms: C22_26  and  C23_27 
REMARK    6  A    between atoms: C23_27  and  C24_28 
REMARK    7  A    between atoms: C24_28  and  O3_29 
ROOT
HETATM    1  C1  UNL     1      -4.150   7.642  -1.995  1.00  0.00     0.015 C 
HETATM    2  C2  UNL     1      -4.409   9.011  -1.358  1.00  0.00     0.011 C 
HETATM    3  C3  UNL     1      -4.172   8.786   0.083  1.00  0.00     0.012 C 
HETATM    4  C4  UNL     1      -4.991   9.108   1.036  1.00  0.00     0.064 C 
HETATM    5  O1  UNL     1      -5.096   9.044   2.442  1.00  0.00    -0.311 OA
HETATM    6  C5  UNL     1      -6.453   9.188   2.798  1.00  0.00     0.116 A 
HETATM    7  C6  UNL     1      -7.221   9.162   3.943  1.00  0.00     0.100 A 
HETATM    8  C7  UNL     1      -8.615   9.306   3.877  1.00  0.00     0.040 A 
HETATM    9  C8  UNL     1      -9.248   9.479   2.635  1.00  0.00     0.011 A 
HETATM   10  C9  UNL     1      -8.509   9.515   1.480  1.00  0.00    -0.046 A 
HETATM   11  C10 UNL     1      -7.166   9.373   1.661  1.00  0.00     0.001 A 
HETATM   12  C11 UNL     1      -6.251   9.756   0.594  1.00  0.00     0.049 C 
HETATM   13  C12 UNL     1      -6.071  11.264   0.626  1.00  0.00     0.066 C 
HETATM   14  C13 UNL     1      -7.336  11.945   0.231  1.00  0.00     0.065 C 
HETATM   15  N1  UNL     1      -7.903  11.392  -0.910  1.00  0.00    -0.368 N 
HETATM   16  C18 UNL     1      -8.083   9.975  -0.936  1.00  0.00     0.098 C 
HETATM   17  C19 UNL     1      -9.082   9.637   0.136  1.00  0.00     0.065 C 
HETATM   18  C20 UNL     1      -6.780   9.239  -0.693  1.00  0.00     0.034 C 
HETATM   19  C21 UNL     1      -5.734   9.562  -1.730  1.00  0.00     0.000 C 
ENDROOT
BRANCH  19  20
HETATM   20  C22 UNL     1      -6.145   9.256  -3.137  1.00  0.00     0.009 C 
BRANCH  20  21
HETATM   21  C23 UNL     1      -6.179  10.498  -3.977  1.00  0.00     0.043 C 
BRANCH  21  22
HETATM   22  C24 UNL     1      -7.077  10.272  -5.187  1.00  0.00     0.189 C 
HETATM   23 BR1  UNL     1      -8.876   9.904  -4.582  1.00  0.00    -0.062 Br
BRANCH  22  24
HETATM   24  O3  UNL     1      -6.645   9.203  -5.957  1.00  0.00    -0.385 OA
ATOM     25  H3  UNL     1      -6.164   8.567  -5.440  1.00  0.00     0.211 HD
ENDBRANCH  22  24
ENDBRANCH  21  22
ENDBRANCH  20  21
ENDBRANCH  19  20
BRANCH  15  26
HETATM   26  C14 UNL     1      -8.686  12.158  -1.780  1.00  0.00     0.068 C 
BRANCH  26  27
HETATM   27  C15 UNL     1     -10.109  12.420  -1.364  1.00  0.00     0.024 A 
HETATM   28  C16 UNL     1     -10.832  13.636  -1.769  1.00  0.00     0.010 A 
HETATM   29  C17 UNL     1     -11.164  12.345  -2.472  1.00  0.00     0.010 A 
ENDBRANCH  26  27
ENDBRANCH  15  26
BRANCH   7  30
HETATM   30  O2  UNL     1      -6.619   8.993   5.170  1.00  0.00    -0.358 OA
ATOM     31  H2  UNL     1      -7.067   9.270   5.960  1.00  0.00     0.217 HD
ENDBRANCH   7  30
TORSDOF 7
ENDMDL
MODEL 4
REMARK VINA RESULT: -8.346357976      3.158      4.705
REMARK  7 active torsions:
REMARK  status: ('A' for Active; 'I' for Inactive)
REMARK    1  A    between atoms: C6_7  and  O2_8 
REMARK    2  A    between atoms: N1_17  and  C14_18 
REMARK    3  A    between atoms: C14_18  and  C15_19 
REMARK    4  A    between atoms: C21_25  and  C22_26 
REMARK    5  A    between atoms: C22_26  and  C23_27 
REMARK    6  A    between atoms: C23_27  and  C24_28 
REMARK    7  A    between atoms: C24_28  and  O3_29 
ROOT
HETATM    1  C1  UNL     1      -7.599   8.490   4.380  1.00  0.00     0.015 C 
HETATM    2  C2  UNL     1      -7.215   9.766   3.623  1.00  0.00     0.011 C 
HETATM    3  C3  UNL     1      -8.261   9.897   2.588  1.00  0.00     0.012 C 
HETATM    4  C4  UNL     1      -8.044  10.067   1.320  1.00  0.00     0.064 C 
HETATM    5  O1  UNL     1      -8.754  10.217   0.110  1.00  0.00    -0.311 OA
HETATM    6  C5  UNL     1      -7.882   9.927  -0.960  1.00  0.00     0.116 A 
HETATM    7  C6  UNL     1      -7.943   9.831  -2.335  1.00  0.00     0.100 A 
HETATM    8  C7  UNL     1      -6.816   9.454  -3.080  1.00  0.00     0.040 A 
HETATM    9  C8  UNL     1      -5.604   9.169  -2.429  1.00  0.00     0.011 A 
HETATM   10  C9  UNL     1      -5.512   9.264  -1.064  1.00  0.00    -0.046 A 
HETATM   11  C10 UNL     1      -6.663   9.644  -0.442  1.00  0.00     0.001 A 
HETATM   12  C11 UNL     1      -6.614  10.135   0.929  1.00  0.00     0.049 C 
HETATM   13  C12 UNL     1      -6.173  11.589   0.908  1.00  0.00     0.066 C 
HETATM   14  C13 UNL     1      -4.753  11.693   0.473  1.00  0.00     0.065 C 
HETATM   15  N1  UNL     1      -3.928  10.784   1.124  1.00  0.00    -0.368 N 
HETATM   16  C18 UNL     1      -4.337   9.415   1.133  1.00  0.00     0.098 C 
HETATM   17  C19 UNL     1      -4.309   8.935  -0.292  1.00  0.00     0.065 C 
HETATM   18  C20 UNL     1      -5.725   9.246   1.719  1.00  0.00     0.034 C 
HETATM   19  C21 UNL     1      -5.813   9.734   3.143  1.00  0.00     0.000 C 
ENDROOT
BRANCH  19  20
HETATM   20  C22 UNL     1      -4.864   9.060   4.085  1.00  0.00     0.009 C 
BRANCH  20  21
HETATM   21  C23 UNL     1      -3.856  10.029   4.627  1.00  0.00     0.043 C 
BRANCH  21  22
HETATM   22  C24 UNL     1      -3.712   9.828   6.131  1.00  0.00     0.189 C 
HETATM   23 BR1  UNL     1      -1.837   9.639   6.569  1.00  0.00    -0.062 Br
BRANCH  22  24
HETATM   24  O3  UNL     1      -4.381   8.694   6.566  1.00  0.00    -0.385 OA
ATOM     25  H3  UNL     1      -5.233   8.905   6.930  1.00  0.00     0.211 HD
ENDBRANCH  22  24
ENDBRANCH  21  22
ENDBRANCH  20  21
ENDBRANCH  19  20
BRANCH  15  26
HETATM   26  C14 UNL     1      -2.574  11.055   1.346  1.00  0.00     0.068 C 
BRANCH  26  27
HETATM   27  C15 UNL     1      -2.251  12.242   2.212  1.00  0.00     0.024 A 
HETATM   28  C16 UNL     1      -1.245  12.179   3.285  1.00  0.00     0.010 A 
HETATM   29  C17 UNL     1      -0.873  12.879   2.003  1.00  0.00     0.010 A 
ENDBRANCH  26  27
ENDBRANCH  15  26
BRANCH   7  30
HETATM   30  O2  UNL     1      -9.123  10.105  -2.991  1.00  0.00    -0.358 OA
ATOM     31  H2  UNL     1      -9.952   9.854  -2.601  1.00  0.00     0.217 HD
ENDBRANCH   7  30
TORSDOF 7
ENDMDL
MODEL 5
REMARK VINA RESULT: -8.170753078      3.448      6.073
REMARK  7 active torsions:
REMARK  status: ('A' for Active; 'I' for Inactive)
REMARK    1  A    between atoms: C6_7  and  O2_8 
REMARK    2  A    between atoms: N1_17  and  C14_18 
REMARK    3  A    between atoms: C14_18  and  C15_19 
REMARK    4  A    between atoms: C21_25  and  C22_26 
REMARK    5  A    between atoms: C22_26  and  C23_27 
REMARK    6  A    between atoms: C23_27  and  C24_28 
REMARK    7  A    between atoms: C24_28  and  O3_29 
ROOT
HETATM    1  C1  UNL     1      -7.279   9.170   5.554  1.00  0.00     0.015 C 
HETATM    2  C2  UNL     1      -6.556   8.781   4.261  1.00  0.00     0.011 C 
HETATM    3  C3  UNL     1      -5.168   9.244   4.474  1.00  0.00     0.012 C 
HETATM    4  C4  UNL     1      -4.493   9.989   3.654  1.00  0.00     0.064 C 
HETATM    5  O1  UNL     1      -3.225  10.596   3.537  1.00  0.00    -0.311 OA
HETATM    6  C5  UNL     1      -3.308  11.629   2.581  1.00  0.00     0.116 A 
HETATM    7  C6  UNL     1      -2.491  12.606   2.054  1.00  0.00     0.100 A 
HETATM    8  C7  UNL     1      -2.979  13.520   1.107  1.00  0.00     0.040 A 
HETATM    9  C8  UNL     1      -4.317  13.447   0.683  1.00  0.00     0.011 A 
HETATM   10  C9  UNL     1      -5.151  12.480   1.185  1.00  0.00    -0.046 A 
HETATM   11  C10 UNL     1      -4.571  11.644   2.090  1.00  0.00     0.001 A 
HETATM   12  C11 UNL     1      -5.212  10.377   2.415  1.00  0.00     0.049 C 
HETATM   13  C12 UNL     1      -4.890   9.375   1.320  1.00  0.00     0.066 C 
HETATM   14  C13 UNL     1      -5.561   9.764   0.049  1.00  0.00     0.065 C 
HETATM   15  N1  UNL     1      -6.896  10.102   0.233  1.00  0.00    -0.368 N 
HETATM   16  C18 UNL     1      -7.197  11.053   1.255  1.00  0.00     0.098 C 
HETATM   17  C19 UNL     1      -6.572  12.358   0.845  1.00  0.00     0.065 C 
HETATM   18  C20 UNL     1      -6.665  10.616   2.606  1.00  0.00     0.034 C 
HETATM   19  C21 UNL     1      -7.245   9.298   3.055  1.00  0.00     0.000 C 
ENDROOT
BRANCH  19  20
HETATM   20  C22 UNL     1      -8.739   9.285   3.157  1.00  0.00     0.009 C 
BRANCH  20  21
HETATM   21  C23 UNL     1      -9.339   8.271   2.229  1.00  0.00     0.043 C 
BRANCH  21  22
HETATM   22  C24 UNL     1     -10.155   7.264   3.032  1.00  0.00     0.189 C 
HETATM   23 BR1  UNL     1      -9.026   5.767   3.505  1.00  0.00    -0.062 Br
BRANCH  22  24
HETATM   24  O3  UNL     1     -11.239   6.787   2.311  1.00  0.00    -0.385 OA
ATOM     25  H3  UNL     1     -12.036   7.263   2.515  1.00  0.00     0.211 HD
ENDBRANCH  22  24
ENDBRANCH  21  22
ENDBRANCH  20  21
ENDBRANCH  19  20
BRANCH  15  26
HETATM   26  C14 UNL     1      -7.841   9.923  -0.782  1.00  0.00     0.068 C 
BRANCH  26  27
HETATM   27  C15 UNL     1      -7.475  10.428  -2.151  1.00  0.00     0.024 A 
HETATM   28  C16 UNL     1      -7.150   9.518  -3.261  1.00  0.00     0.010 A 
HETATM   29  C17 UNL     1      -8.502  10.183  -3.261  1.00  0.00     0.010 A 
ENDBRANCH  26  27
ENDBRANCH  15  26
BRANCH   7  30
HETATM   30  O2  UNL     1      -1.177  12.695   2.458  1.00  0.00    -0.358 OA
ATOM     31  H2  UNL     1      -0.970  12.984   3.339  1.00  0.00     0.217 HD
ENDBRANCH   7  30
TORSDOF 7
ENDMDL
