MODEL 1
REMARK VINA RESULT: -7.385580119      0.000      0.000
REMARK  6 active torsions:
REMARK  status: ('A' for Active; 'I' for Inactive)
REMARK    1  A    between atoms: C3_3  and  C4_4 
REMARK    2  A    between atoms: N1_9  and  C9_10 
REMARK    3  A    between atoms: C9_10  and  C10_11 
REMARK    4  A    between atoms: C10_11  and  C11_12 
REMARK    5  A    between atoms: C21_24  and  C22_25 
REMARK    6  A    between atoms: C26_30  and  C27_31 
ROOT
HETATM    1  C11 UNL     1      -8.347  10.666  -5.284  1.00  0.00     0.053 C 
HETATM    2  C12 UNL     1      -7.700   9.425  -4.926  1.00  0.00     0.069 C 
HETATM    3  N2  UNL     1      -7.177   8.435  -4.662  1.00  0.00    -0.196 NA
HETATM    4  C13 UNL     1      -8.733  10.899  -6.697  1.00  0.00     0.025 C 
HETATM    5  C14 UNL     1     -10.136  11.286  -6.204  1.00  0.00     0.004 C 
HETATM    6  C15 UNL     1      -9.817  10.593  -4.898  1.00  0.00     0.025 C 
ENDROOT
BRANCH   1   7
HETATM    7  C10 UNL     1      -7.746  11.868  -4.536  1.00  0.00     0.069 C 
BRANCH   7   8
HETATM    8  C9  UNL     1      -7.562  11.395  -3.100  1.00  0.00     0.060 C 
BRANCH   8   9
HETATM    9  N1  UNL     1      -7.926  12.405  -2.205  1.00  0.00    -0.383 N 
HETATM   10  C4  UNL     1      -7.759  12.261  -0.814  1.00  0.00     0.136 C 
HETATM   11  C5  UNL     1      -8.811  11.273  -0.353  1.00  0.00    -0.044 C 
HETATM   12  C6  UNL     1     -10.120  12.037  -0.324  1.00  0.00     0.039 C 
HETATM   13  C16 UNL     1      -8.561  10.353   0.707  1.00  0.00    -0.024 A 
HETATM   14  C7  UNL     1     -10.376  12.436  -1.786  1.00  0.00     0.024 C 
HETATM   15  C8  UNL     1      -9.184  13.072  -2.417  1.00  0.00     0.123 C 
HETATM   16  C17 UNL     1      -9.567   9.389   0.699  1.00  0.00     0.015 A 
HETATM   17  C21 UNL     1      -7.605  10.188   1.689  1.00  0.00    -0.036 A 
HETATM   18  C18 UNL     1      -9.605   8.356   1.597  1.00  0.00     0.043 A 
HETATM   19  C19 UNL     1      -8.649   8.219   2.551  1.00  0.00     0.117 A 
HETATM   20  F1  UNL     1      -8.646   7.202   3.463  1.00  0.00    -0.206 F 
HETATM   21  C20 UNL     1      -7.630   9.155   2.597  1.00  0.00     0.051 A 
BRANCH  10  22
HETATM   22  C3  UNL     1      -6.531  11.960  -0.155  1.00  0.00     0.115 C 
HETATM   23  C2  UNL     1      -5.767  13.267  -0.023  1.00  0.00     0.019 C 
HETATM   24  C1  UNL     1      -4.587  13.483  -0.849  1.00  0.00     0.013 C 
HETATM   25  C22 UNL     1      -5.566  13.334   1.467  1.00  0.00    -0.009 C 
HETATM   26  C23 UNL     1      -4.584  14.432   1.789  1.00  0.00     0.021 C 
HETATM   27  C24 UNL     1      -5.072  11.980   1.858  1.00  0.00     0.034 C 
HETATM   28  C25 UNL     1      -4.685  11.041   0.751  1.00  0.00     0.124 C 
HETATM   29  N3  UNL     1      -5.538  11.039  -0.400  1.00  0.00    -0.377 N 
HETATM   30  C26 UNL     1      -5.325  10.328  -1.501  1.00  0.00     0.171 C 
BRANCH  30  31
HETATM   31  C27 UNL     1      -4.235   9.333  -1.493  1.00  0.00     0.214 C 
HETATM   32  O1  UNL     1      -3.111   9.679  -2.015  1.00  0.00    -0.644 OA
HETATM   33  O2  UNL     1      -4.253   8.063  -0.997  1.00  0.00    -0.644 OA
ENDBRANCH  30  31
ENDBRANCH  10  22
ENDBRANCH   8   9
ENDBRANCH   7   8
ENDBRANCH   1   7
TORSDOF 6
ENDMDL
MODEL 2
REMARK VINA RESULT: -7.213234025      0.869      1.294
REMARK  6 active torsions:
REMARK  status: ('A' for Active; 'I' for Inactive)
REMARK    1  A    between atoms: C3_3  and  C4_4 
REMARK    2  A    between atoms: N1_9  and  C9_10 
REMARK    3  A    between atoms: C9_10  and  C10_11 
REMARK    4  A    between atoms: C10_11  and  C11_12 
REMARK    5  A    between atoms: C21_24  and  C22_25 
REMARK    6  A    between atoms: C26_30  and  C27_31 
ROOT
HETATM    1  C11 UNL     1      -8.527  10.574  -5.007  1.00  0.00     0.053 C 
HETATM    2  C12 UNL     1      -9.962  10.744  -5.014  1.00  0.00     0.069 C 
HETATM    3  N2  UNL     1     -11.106  10.863  -5.007  1.00  0.00    -0.196 NA
HETATM    4  C13 UNL     1      -7.958   9.255  -4.639  1.00  0.00     0.025 C 
HETATM    5  C14 UNL     1      -7.097   9.321  -5.910  1.00  0.00     0.004 C 
HETATM    6  C15 UNL     1      -8.038  10.384  -6.434  1.00  0.00     0.025 C 
ENDROOT
BRANCH   1   7
HETATM    7  C10 UNL     1      -7.803  11.809  -4.444  1.00  0.00     0.069 C 
BRANCH   7   8
HETATM    8  C9  UNL     1      -7.410  11.430  -3.022  1.00  0.00     0.060 C 
BRANCH   8   9
HETATM    9  N1  UNL     1      -7.804  12.428  -2.127  1.00  0.00    -0.383 N 
HETATM   10  C4  UNL     1      -7.659  12.277  -0.735  1.00  0.00     0.136 C 
HETATM   11  C5  UNL     1      -8.704  11.269  -0.298  1.00  0.00    -0.044 C 
HETATM   12  C6  UNL     1     -10.024  12.013  -0.287  1.00  0.00     0.039 C 
HETATM   13  C16 UNL     1      -8.458  10.346   0.760  1.00  0.00    -0.024 A 
HETATM   14  C7  UNL     1     -10.261  12.419  -1.750  1.00  0.00     0.024 C 
HETATM   15  C8  UNL     1      -9.068  13.077  -2.355  1.00  0.00     0.123 C 
HETATM   16  C17 UNL     1      -9.449   9.367   0.728  1.00  0.00     0.015 A 
HETATM   17  C21 UNL     1      -7.516  10.188   1.757  1.00  0.00    -0.036 A 
HETATM   18  C18 UNL     1      -9.486   8.327   1.617  1.00  0.00     0.043 A 
HETATM   19  C19 UNL     1      -8.545   8.198   2.586  1.00  0.00     0.117 A 
HETATM   20  F1  UNL     1      -8.541   7.174   3.492  1.00  0.00    -0.206 F 
HETATM   21  C20 UNL     1      -7.541   9.148   2.657  1.00  0.00     0.051 A 
BRANCH  10  22
HETATM   22  C3  UNL     1      -6.438  11.989  -0.056  1.00  0.00     0.115 C 
HETATM   23  C2  UNL     1      -5.679  13.301   0.064  1.00  0.00     0.019 C 
HETATM   24  C1  UNL     1      -4.490  13.507  -0.751  1.00  0.00     0.013 C 
HETATM   25  C22 UNL     1      -5.495  13.391   1.555  1.00  0.00    -0.009 C 
HETATM   26  C23 UNL     1      -4.521  14.497   1.872  1.00  0.00     0.021 C 
HETATM   27  C24 UNL     1      -5.002  12.044   1.973  1.00  0.00     0.034 C 
HETATM   28  C25 UNL     1      -4.600  11.090   0.885  1.00  0.00     0.124 C 
HETATM   29  N3  UNL     1      -5.439  11.068  -0.276  1.00  0.00    -0.377 N 
HETATM   30  C26 UNL     1      -5.212  10.340  -1.362  1.00  0.00     0.171 C 
BRANCH  30  31
HETATM   31  C27 UNL     1      -4.119   9.349  -1.326  1.00  0.00     0.214 C 
HETATM   32  O1  UNL     1      -2.992   9.687  -1.848  1.00  0.00    -0.644 OA
HETATM   33  O2  UNL     1      -4.137   8.089  -0.805  1.00  0.00    -0.644 OA
ENDBRANCH  30  31
ENDBRANCH  10  22
ENDBRANCH   8   9
ENDBRANCH   7   8
ENDBRANCH   1   7
TORSDOF 6
ENDMDL
MODEL 3
REMARK VINA RESULT: -6.929450067      2.468      5.053
REMARK  6 active torsions:
REMARK  status: ('A' for Active; 'I' for Inactive)
REMARK    1  A    between atoms: C3_3  and  C4_4 
REMARK    2  A    between atoms: N1_9  and  C9_10 
REMARK    3  A    between atoms: C9_10  and  C10_11 
REMARK    4  A    between atoms: C10_11  and  C11_12 
REMARK    5  A    between atoms: C21_24  and  C22_25 
REMARK    6  A    between atoms: C26_30  and  C27_31 
ROOT
HETATM    1  C11 UNL     1      -9.750  14.229  -2.770  1.00  0.00     0.053 C 
HETATM    2  C12 UNL     1      -8.699  14.998  -2.144  1.00  0.00     0.069 C 
HETATM    3  N2  UNL     1      -7.865  15.599  -1.627  1.00  0.00    -0.196 NA
HETATM    4  C13 UNL     1     -10.825  13.654  -1.925  1.00  0.00     0.025 C 
HETATM    5  C14 UNL     1     -11.851  14.266  -2.892  1.00  0.00     0.004 C 
HETATM    6  C15 UNL     1     -10.758  15.179  -3.400  1.00  0.00     0.025 C 
ENDROOT
BRANCH   1   7
HETATM    7  C10 UNL     1      -9.215  13.330  -3.897  1.00  0.00     0.069 C 
BRANCH   7   8
HETATM    8  C9  UNL     1      -8.212  12.400  -3.226  1.00  0.00     0.060 C 
BRANCH   8   9
HETATM    9  N1  UNL     1      -8.736  11.109  -3.128  1.00  0.00    -0.383 N 
HETATM   10  C4  UNL     1      -8.107  10.108  -2.363  1.00  0.00     0.136 C 
HETATM   11  C5  UNL     1      -6.861   9.702  -3.124  1.00  0.00    -0.044 C 
HETATM   12  C6  UNL     1      -7.334   8.822  -4.263  1.00  0.00     0.039 C 
HETATM   13  C16 UNL     1      -5.663   9.322  -2.451  1.00  0.00    -0.024 A 
HETATM   14  C7  UNL     1      -8.208   9.739  -5.134  1.00  0.00     0.024 C 
HETATM   15  C8  UNL     1      -9.219  10.485  -4.331  1.00  0.00     0.123 C 
HETATM   16  C17 UNL     1      -4.623   9.306  -3.379  1.00  0.00     0.015 A 
HETATM   17  C21 UNL     1      -5.298   8.990  -1.162  1.00  0.00    -0.036 A 
HETATM   18  C18 UNL     1      -3.337   8.986  -3.038  1.00  0.00     0.043 A 
HETATM   19  C19 UNL     1      -3.007   8.664  -1.761  1.00  0.00     0.117 A 
HETATM   20  F1  UNL     1      -1.736   8.342  -1.377  1.00  0.00    -0.206 F 
HETATM   21  C20 UNL     1      -4.009   8.666  -0.805  1.00  0.00     0.051 A 
BRANCH  10  22
HETATM   22  C3  UNL     1      -7.783  10.205  -0.978  1.00  0.00     0.115 C 
HETATM   23  C2  UNL     1      -9.092  10.117  -0.209  1.00  0.00     0.019 C 
HETATM   24  C1  UNL     1      -9.617  11.313   0.435  1.00  0.00     0.013 C 
HETATM   25  C22 UNL     1      -8.821   8.936   0.684  1.00  0.00    -0.009 C 
HETATM   26  C23 UNL     1      -9.904   8.843   1.728  1.00  0.00     0.021 C 
HETATM   27  C24 UNL     1      -7.470   9.187   1.269  1.00  0.00     0.034 C 
HETATM   28  C25 UNL     1      -6.867  10.545   1.051  1.00  0.00     0.124 C 
HETATM   29  N3  UNL     1      -7.053  11.117  -0.249  1.00  0.00    -0.377 N 
HETATM   30  C26 UNL     1      -6.650  12.329  -0.610  1.00  0.00     0.171 C 
BRANCH  30  31
HETATM   31  C27 UNL     1      -5.798  13.091   0.323  1.00  0.00     0.214 C 
HETATM   32  O1  UNL     1      -4.522  12.990   0.183  1.00  0.00    -0.644 OA
HETATM   33  O2  UNL     1      -6.183  13.908   1.345  1.00  0.00    -0.644 OA
ENDBRANCH  30  31
ENDBRANCH  10  22
ENDBRANCH   8   9
ENDBRANCH   7   8
ENDBRANCH   1   7
TORSDOF 6
ENDMDL
MODEL 4
REMARK VINA RESULT: -6.902846793      1.170      1.603
REMARK  6 active torsions:
REMARK  status: ('A' for Active; 'I' for Inactive)
REMARK    1  A    between atoms: C3_3  and  C4_4 
REMARK    2  A    between atoms: N1_9  and  C9_10 
REMARK    3  A    between atoms: C9_10  and  C10_11 
REMARK    4  A    between atoms: C10_11  and  C11_12 
REMARK    5  A    between atoms: C21_24  and  C22_25 
REMARK    6  A    between atoms: C26_30  and  C27_31 
ROOT
HETATM    1  C11 UNL     1      -5.971  10.681  -4.849  1.00  0.00     0.053 C 
HETATM    2  C12 UNL     1      -6.703   9.438  -4.773  1.00  0.00     0.069 C 
HETATM    3  N2  UNL     1      -7.270   8.439  -4.700  1.00  0.00    -0.196 NA
HETATM    4  C13 UNL     1      -4.499  10.664  -4.672  1.00  0.00     0.025 C 
HETATM    5  C14 UNL     1      -4.379  11.490  -5.962  1.00  0.00     0.004 C 
HETATM    6  C15 UNL     1      -5.788  11.065  -6.309  1.00  0.00     0.025 C 
ENDROOT
BRANCH   1   7
HETATM    7  C10 UNL     1      -6.725  11.837  -4.172  1.00  0.00     0.069 C 
BRANCH   7   8
HETATM    8  C9  UNL     1      -7.323  11.238  -2.905  1.00  0.00     0.060 C 
BRANCH   8   9
HETATM    9  N1  UNL     1      -7.774  12.252  -2.054  1.00  0.00    -0.383 N 
HETATM   10  C4  UNL     1      -7.657  12.153  -0.654  1.00  0.00     0.136 C 
HETATM   11  C5  UNL     1      -8.676  11.124  -0.207  1.00  0.00    -0.044 C 
HETATM   12  C6  UNL     1     -10.021  11.819  -0.253  1.00  0.00     0.039 C 
HETATM   13  C16 UNL     1      -8.424  10.247   0.887  1.00  0.00    -0.024 A 
HETATM   14  C7  UNL     1     -10.237  12.167  -1.735  1.00  0.00     0.024 C 
HETATM   15  C8  UNL     1      -9.054  12.846  -2.335  1.00  0.00     0.123 C 
HETATM   16  C17 UNL     1      -9.378   9.232   0.866  1.00  0.00     0.015 A 
HETATM   17  C21 UNL     1      -7.501  10.157   1.911  1.00  0.00    -0.036 A 
HETATM   18  C18 UNL     1      -9.400   8.222   1.790  1.00  0.00     0.043 A 
HETATM   19  C19 UNL     1      -8.479   8.160   2.785  1.00  0.00     0.117 A 
HETATM   20  F1  UNL     1      -8.461   7.169   3.725  1.00  0.00    -0.206 F 
HETATM   21  C20 UNL     1      -7.511   9.148   2.846  1.00  0.00     0.051 A 
BRANCH  10  22
HETATM   22  C3  UNL     1      -6.444  11.933   0.062  1.00  0.00     0.115 C 
HETATM   23  C2  UNL     1      -5.701  13.259   0.093  1.00  0.00     0.019 C 
HETATM   24  C1  UNL     1      -4.502  13.418  -0.719  1.00  0.00     0.013 C 
HETATM   25  C22 UNL     1      -5.542  13.465   1.575  1.00  0.00    -0.009 C 
HETATM   26  C23 UNL     1      -4.585  14.604   1.820  1.00  0.00     0.021 C 
HETATM   27  C24 UNL     1      -5.040  12.161   2.102  1.00  0.00     0.034 C 
HETATM   28  C25 UNL     1      -4.611  11.131   1.096  1.00  0.00     0.124 C 
HETATM   29  N3  UNL     1      -5.432  11.010  -0.072  1.00  0.00    -0.377 N 
HETATM   30  C26 UNL     1      -5.179  10.204  -1.096  1.00  0.00     0.171 C 
BRANCH  30  31
HETATM   31  C27 UNL     1      -4.076   9.233  -0.969  1.00  0.00     0.214 C 
HETATM   32  O1  UNL     1      -3.006   9.454  -1.649  1.00  0.00    -0.644 OA
HETATM   33  O2  UNL     1      -4.031   8.100  -0.211  1.00  0.00    -0.644 OA
ENDBRANCH  30  31
ENDBRANCH  10  22
ENDBRANCH   8   9
ENDBRANCH   7   8
ENDBRANCH   1   7
TORSDOF 6
ENDMDL
MODEL 5
REMARK VINA RESULT: -6.718939815      2.998      6.152
REMARK  6 active torsions:
REMARK  status: ('A' for Active; 'I' for Inactive)
REMARK    1  A    between atoms: C3_3  and  C4_4 
REMARK    2  A    between atoms: N1_9  and  C9_10 
REMARK    3  A    between atoms: C9_10  and  C10_11 
REMARK    4  A    between atoms: C10_11  and  C11_12 
REMARK    5  A    between atoms: C21_24  and  C22_25 
REMARK    6  A    between atoms: C26_30  and  C27_31 
ROOT
HETATM    1  C11 UNL     1      -8.854   8.364   2.802  1.00  0.00     0.053 C 
HETATM    2  C12 UNL     1      -8.362   7.115   3.336  1.00  0.00     0.069 C 
HETATM    3  N2  UNL     1      -7.967   6.113   3.741  1.00  0.00    -0.196 NA
HETATM    4  C13 UNL     1      -9.416   8.392   1.430  1.00  0.00     0.025 C 
HETATM    5  C14 UNL     1     -10.645   9.121   1.997  1.00  0.00     0.004 C 
HETATM    6  C15 UNL     1     -10.237   8.641   3.371  1.00  0.00     0.025 C 
ENDROOT
BRANCH   1   7
HETATM    7  C10 UNL     1      -7.960   9.552   3.196  1.00  0.00     0.069 C 
BRANCH   7   8
HETATM    8  C9  UNL     1      -7.330  10.028   1.893  1.00  0.00     0.060 C 
BRANCH   8   9
HETATM    9  N1  UNL     1      -6.207  10.817   2.156  1.00  0.00    -0.383 N 
HETATM   10  C4  UNL     1      -5.210  11.037   1.186  1.00  0.00     0.136 C 
HETATM   11  C5  UNL     1      -4.445   9.736   1.051  1.00  0.00    -0.044 C 
HETATM   12  C6  UNL     1      -3.538   9.656   2.263  1.00  0.00     0.039 C 
HETATM   13  C16 UNL     1      -3.913   9.306  -0.200  1.00  0.00    -0.024 A 
HETATM   14  C7  UNL     1      -4.492   9.584   3.466  1.00  0.00     0.024 C 
HETATM   15  C8  UNL     1      -5.542  10.642   3.420  1.00  0.00     0.123 C 
HETATM   16  C17 UNL     1      -3.547   7.967  -0.085  1.00  0.00     0.015 A 
HETATM   17  C21 UNL     1      -3.692   9.866  -1.442  1.00  0.00    -0.036 A 
HETATM   18  C18 UNL     1      -3.008   7.259  -1.125  1.00  0.00     0.043 A 
HETATM   19  C19 UNL     1      -2.802   7.836  -2.336  1.00  0.00     0.117 A 
HETATM   20  F1  UNL     1      -2.271   7.166  -3.402  1.00  0.00    -0.206 F 
HETATM   21  C20 UNL     1      -3.151   9.166  -2.496  1.00  0.00     0.051 A 
BRANCH  10  22
HETATM   22  C3  UNL     1      -5.426  11.575  -0.117  1.00  0.00     0.115 C 
HETATM   23  C2  UNL     1      -5.348  13.088   0.011  1.00  0.00     0.019 C 
HETATM   24  C1  UNL     1      -6.570  13.872  -0.106  1.00  0.00     0.013 C 
HETATM   25  C22 UNL     1      -4.251  13.403  -0.970  1.00  0.00    -0.009 C 
HETATM   26  C23 UNL     1      -4.197  14.892  -1.198  1.00  0.00     0.021 C 
HETATM   27  C24 UNL     1      -4.596  12.638  -2.206  1.00  0.00     0.034 C 
HETATM   28  C25 UNL     1      -5.956  12.001  -2.264  1.00  0.00     0.124 C 
HETATM   29  N3  UNL     1      -6.418  11.391  -1.053  1.00  0.00    -0.377 N 
HETATM   30  C26 UNL     1      -7.613  10.835  -0.892  1.00  0.00     0.171 C 
BRANCH  30  31
HETATM   31  C27 UNL     1      -8.476  10.672  -2.077  1.00  0.00     0.214 C 
HETATM   32  O1  UNL     1      -9.465  11.486  -2.211  1.00  0.00    -0.644 OA
HETATM   33  O2  UNL     1      -8.372   9.753  -3.079  1.00  0.00    -0.644 OA
ENDBRANCH  30  31
ENDBRANCH  10  22
ENDBRANCH   8   9
ENDBRANCH   7   8
ENDBRANCH   1   7
TORSDOF 6
ENDMDL
