MODEL 1
REMARK VINA RESULT: -7.879910413      0.000      0.000
REMARK  5 active torsions:
REMARK  status: ('A' for Active; 'I' for Inactive)
REMARK    1  A    between atoms: C2_2  and  C3_3 
REMARK    2  A    between atoms: C3_3  and  S1_4 
REMARK    3  A    between atoms: S1_4  and  C4_7 
REMARK    4  A    between atoms: C5_12  and  N3_13 
REMARK    5  A    between atoms: C6_15  and  C7_16 
ROOT
HETATM    1  N3  UNL     1     -17.536  14.743  30.293  1.00  0.00    -0.344 N 
ATOM      2  H3  UNL     1     -18.157  13.951  30.459  1.00  0.00     0.167 HD
HETATM    3  C6  UNL     1     -16.686  14.604  29.240  1.00  0.00     0.103 C 
ENDROOT
BRANCH   1   4
HETATM    4  C5  UNL     1     -17.673  15.740  31.120  1.00  0.00     0.166 A 
HETATM    5  N2  UNL     1     -16.873  16.779  31.378  1.00  0.00    -0.278 N 
HETATM    6  N1  UNL     1     -17.237  17.632  32.245  1.00  0.00    -0.282 N 
ATOM      7  H2  UNL     1     -15.985  16.885  30.889  1.00  0.00     0.189 HD
HETATM    8  C4  UNL     1     -18.387  17.498  32.883  1.00  0.00     0.188 A 
ATOM      9  H1  UNL     1     -16.636  18.430  32.451  1.00  0.00     0.188 HD
HETATM   10  S3  UNL     1     -18.974  16.052  32.186  1.00  0.00    -0.021 SA
BRANCH   8  11
HETATM   11  S1  UNL     1     -19.095  18.544  34.112  1.00  0.00     0.199 S 
HETATM   12  O1  UNL     1     -18.543  19.937  33.922  1.00  0.00    -0.221 OA
HETATM   13  O2  UNL     1     -20.571  18.603  34.025  1.00  0.00    -0.221 OA
BRANCH  11  14
HETATM   14  C3  UNL     1     -18.553  17.982  35.710  1.00  0.00     0.147 C 
BRANCH  14  15
HETATM   15  C2  UNL     1     -17.040  18.182  35.818  1.00  0.00     0.011 C 
HETATM   16  C1  UNL     1     -16.689  19.323  36.734  1.00  0.00     0.006 C 
ENDBRANCH  14  15
ENDBRANCH  11  14
ENDBRANCH   8  11
ENDBRANCH   1   4
BRANCH   3  17
HETATM   17  C7  UNL     1     -16.465  13.326  28.509  1.00  0.00     0.010 A 
HETATM   18  C8  UNL     1     -15.140  13.178  28.026  1.00  0.00    -0.008 A 
HETATM   19  C9  UNL     1     -13.988  14.102  28.153  1.00  0.00     0.057 C 
HETATM   20  S2  UNL     1     -15.146  11.686  27.256  1.00  0.00    -0.093 SA
HETATM   21  C10 UNL     1     -16.769  11.238  27.519  1.00  0.00     0.024 A 
HETATM   22  C11 UNL     1     -17.508  10.109  27.160  1.00  0.00     0.044 A 
HETATM   23  C14 UNL     1     -17.286  12.301  28.229  1.00  0.00     0.069 A 
HETATM   24  C12 UNL     1     -18.847  10.007  27.516  1.00  0.00     0.147 A 
HETATM   25  O3  UNL     1     -19.294  11.028  28.182  1.00  0.00    -0.287 OA
HETATM   26  C13 UNL     1     -18.645  12.099  28.539  1.00  0.00     0.300 A 
HETATM   27  O4  UNL     1     -19.351  12.915  29.177  1.00  0.00    -0.259 OA
ENDBRANCH   3  17
TORSDOF 5
ENDMDL
MODEL 2
REMARK VINA RESULT: -7.872434944      2.516      3.411
REMARK  5 active torsions:
REMARK  status: ('A' for Active; 'I' for Inactive)
REMARK    1  A    between atoms: C2_2  and  C3_3 
REMARK    2  A    between atoms: C3_3  and  S1_4 
REMARK    3  A    between atoms: S1_4  and  C4_7 
REMARK    4  A    between atoms: C5_12  and  N3_13 
REMARK    5  A    between atoms: C6_15  and  C7_16 
ROOT
HETATM    1  N3  UNL     1     -17.409  16.063  31.783  1.00  0.00    -0.344 N 
ATOM      2  H3  UNL     1     -16.496  15.678  32.024  1.00  0.00     0.167 HD
HETATM    3  C6  UNL     1     -18.034  15.466  30.732  1.00  0.00     0.103 C 
ENDROOT
BRANCH   1   4
HETATM    4  C5  UNL     1     -17.808  17.055  32.528  1.00  0.00     0.166 A 
HETATM    5  N2  UNL     1     -17.396  18.324  32.590  1.00  0.00    -0.278 N 
HETATM    6  N1  UNL     1     -17.955  19.110  33.415  1.00  0.00    -0.282 N 
ATOM      7  H2  UNL     1     -16.645  18.656  31.985  1.00  0.00     0.189 HD
HETATM    8  C4  UNL     1     -18.929  18.684  34.201  1.00  0.00     0.188 A 
ATOM      9  H1  UNL     1     -17.650  20.082  33.471  1.00  0.00     0.188 HD
HETATM   10  S3  UNL     1     -19.039  17.049  33.716  1.00  0.00    -0.021 SA
BRANCH   8  11
HETATM   11  S1  UNL     1     -19.843  19.582  35.410  1.00  0.00     0.199 S 
HETATM   12  O1  UNL     1     -19.645  21.057  35.153  1.00  0.00    -0.221 OA
HETATM   13  O2  UNL     1     -21.292  19.284  35.362  1.00  0.00    -0.221 OA
BRANCH  11  14
HETATM   14  C3  UNL     1     -19.154  19.234  37.012  1.00  0.00     0.147 C 
BRANCH  14  15
HETATM   15  C2  UNL     1     -17.727  18.711  36.834  1.00  0.00     0.011 C 
HETATM   16  C1  UNL     1     -16.706  19.805  36.989  1.00  0.00     0.006 C 
ENDBRANCH  14  15
ENDBRANCH  11  14
ENDBRANCH   8  11
ENDBRANCH   1   4
BRANCH   3  17
HETATM   17  C7  UNL     1     -17.378  14.491  29.817  1.00  0.00     0.010 A 
HETATM   18  C8  UNL     1     -18.200  13.379  29.501  1.00  0.00    -0.008 A 
HETATM   19  C9  UNL     1     -19.579  13.076  29.951  1.00  0.00     0.057 C 
HETATM   20  S2  UNL     1     -17.254  12.446  28.476  1.00  0.00    -0.093 SA
HETATM   21  C10 UNL     1     -15.850  13.410  28.429  1.00  0.00     0.024 A 
HETATM   22  C11 UNL     1     -14.626  13.267  27.771  1.00  0.00     0.044 A 
HETATM   23  C14 UNL     1     -16.164  14.477  29.244  1.00  0.00     0.069 A 
HETATM   24  C12 UNL     1     -13.637  14.232  27.918  1.00  0.00     0.147 A 
HETATM   25  O3  UNL     1     -13.973  15.218  28.693  1.00  0.00    -0.287 OA
HETATM   26  C13 UNL     1     -15.098  15.394  29.325  1.00  0.00     0.300 A 
HETATM   27  O4  UNL     1     -15.125  16.449  30.000  1.00  0.00    -0.259 OA
ENDBRANCH   3  17
TORSDOF 5
ENDMDL
MODEL 3
REMARK VINA RESULT: -7.828828466      0.924      1.060
REMARK  5 active torsions:
REMARK  status: ('A' for Active; 'I' for Inactive)
REMARK    1  A    between atoms: C2_2  and  C3_3 
REMARK    2  A    between atoms: C3_3  and  S1_4 
REMARK    3  A    between atoms: S1_4  and  C4_7 
REMARK    4  A    between atoms: C5_12  and  N3_13 
REMARK    5  A    between atoms: C6_15  and  C7_16 
ROOT
HETATM    1  N3  UNL     1     -17.260  14.911  29.742  1.00  0.00    -0.344 N 
ATOM      2  H3  UNL     1     -18.000  14.723  29.066  1.00  0.00     0.167 HD
HETATM    3  C6  UNL     1     -16.084  14.264  29.512  1.00  0.00     0.103 C 
ENDROOT
BRANCH   1   4
HETATM    4  C5  UNL     1     -17.577  15.734  30.701  1.00  0.00     0.166 A 
HETATM    5  N2  UNL     1     -16.907  16.764  31.228  1.00  0.00    -0.278 N 
HETATM    6  N1  UNL     1     -17.441  17.423  32.172  1.00  0.00    -0.282 N 
ATOM      7  H2  UNL     1     -15.983  17.016  30.877  1.00  0.00     0.189 HD
HETATM    8  C4  UNL     1     -18.638  17.098  32.630  1.00  0.00     0.188 A 
ATOM      9  H1  UNL     1     -16.941  18.211  32.583  1.00  0.00     0.188 HD
HETATM   10  S3  UNL     1     -19.011  15.761  31.633  1.00  0.00    -0.021 SA
BRANCH   8  11
HETATM   11  S1  UNL     1     -19.570  17.858  33.919  1.00  0.00     0.199 S 
HETATM   12  O1  UNL     1     -20.868  18.358  33.331  1.00  0.00    -0.221 OA
HETATM   13  O2  UNL     1     -19.879  16.922  35.022  1.00  0.00    -0.221 OA
BRANCH  11  14
HETATM   14  C3  UNL     1     -18.676  19.283  34.496  1.00  0.00     0.147 C 
BRANCH  14  15
HETATM   15  C2  UNL     1     -17.928  18.913  35.778  1.00  0.00     0.011 C 
HETATM   16  C1  UNL     1     -16.534  18.422  35.492  1.00  0.00     0.006 C 
ENDBRANCH  14  15
ENDBRANCH  11  14
ENDBRANCH   8  11
ENDBRANCH   1   4
BRANCH   3  17
HETATM   17  C7  UNL     1     -15.915  13.173  28.513  1.00  0.00     0.010 A 
HETATM   18  C8  UNL     1     -14.677  13.232  27.824  1.00  0.00    -0.008 A 
HETATM   19  C9  UNL     1     -13.570  14.207  27.967  1.00  0.00     0.057 C 
HETATM   20  S2  UNL     1     -14.725  11.921  26.777  1.00  0.00    -0.093 SA
HETATM   21  C10 UNL     1     -16.260  11.296  27.177  1.00  0.00     0.024 A 
HETATM   22  C11 UNL     1     -16.985  10.199  26.707  1.00  0.00     0.044 A 
HETATM   23  C14 UNL     1     -16.713  12.156  28.153  1.00  0.00     0.069 A 
HETATM   24  C12 UNL     1     -18.244   9.919  27.225  1.00  0.00     0.147 A 
HETATM   25  O3  UNL     1     -18.633  10.753  28.141  1.00  0.00    -0.287 OA
HETATM   26  C13 UNL     1     -17.993  11.785  28.610  1.00  0.00     0.300 A 
HETATM   27  O4  UNL     1     -18.632  12.402  29.495  1.00  0.00    -0.259 OA
ENDBRANCH   3  17
TORSDOF 5
ENDMDL
MODEL 4
REMARK VINA RESULT: -7.784819596      2.718      3.681
REMARK  5 active torsions:
REMARK  status: ('A' for Active; 'I' for Inactive)
REMARK    1  A    between atoms: C2_2  and  C3_3 
REMARK    2  A    between atoms: C3_3  and  S1_4 
REMARK    3  A    between atoms: S1_4  and  C4_7 
REMARK    4  A    between atoms: C5_12  and  N3_13 
REMARK    5  A    between atoms: C6_15  and  C7_16 
ROOT
HETATM    1  N3  UNL     1     -17.581  16.010  31.663  1.00  0.00    -0.344 N 
ATOM      2  H3  UNL     1     -16.607  15.820  31.901  1.00  0.00     0.167 HD
HETATM    3  C6  UNL     1     -18.077  15.286  30.623  1.00  0.00     0.103 C 
ENDROOT
BRANCH   1   4
HETATM    4  C5  UNL     1     -18.168  16.910  32.399  1.00  0.00     0.166 A 
HETATM    5  N2  UNL     1     -19.427  17.358  32.395  1.00  0.00    -0.278 N 
HETATM    6  N1  UNL     1     -19.760  18.257  33.227  1.00  0.00    -0.282 N 
ATOM      7  H2  UNL     1     -20.109  16.984  31.736  1.00  0.00     0.189 HD
HETATM    8  C4  UNL     1     -18.879  18.746  34.083  1.00  0.00     0.188 A 
ATOM      9  H1  UNL     1     -20.718  18.607  33.235  1.00  0.00     0.188 HD
HETATM   10  S3  UNL     1     -17.487  17.848  33.657  1.00  0.00    -0.021 SA
BRANCH   8  11
HETATM   11  S1  UNL     1     -19.107  19.984  35.315  1.00  0.00     0.199 S 
HETATM   12  O1  UNL     1     -17.750  20.365  35.859  1.00  0.00    -0.221 OA
HETATM   13  O2  UNL     1     -19.762  21.200  34.783  1.00  0.00    -0.221 OA
BRANCH  11  14
HETATM   14  C3  UNL     1     -20.028  19.276  36.662  1.00  0.00     0.147 C 
BRANCH  14  15
HETATM   15  C2  UNL     1     -19.752  17.773  36.714  1.00  0.00     0.011 C 
HETATM   16  C1  UNL     1     -18.607  17.444  37.633  1.00  0.00     0.006 C 
ENDBRANCH  14  15
ENDBRANCH  11  14
ENDBRANCH   8  11
ENDBRANCH   1   4
BRANCH   3  17
HETATM   17  C7  UNL     1     -17.242  14.452  29.714  1.00  0.00     0.010 A 
HETATM   18  C8  UNL     1     -17.887  13.260  29.298  1.00  0.00    -0.008 A 
HETATM   19  C9  UNL     1     -19.238  12.757  29.640  1.00  0.00     0.057 C 
HETATM   20  S2  UNL     1     -16.764  12.510  28.301  1.00  0.00    -0.093 SA
HETATM   21  C10 UNL     1     -15.500  13.651  28.390  1.00  0.00     0.024 A 
HETATM   22  C11 UNL     1     -14.231  13.701  27.811  1.00  0.00     0.044 A 
HETATM   23  C14 UNL     1     -16.004  14.624  29.225  1.00  0.00     0.069 A 
HETATM   24  C12 UNL     1     -13.389  14.778  28.064  1.00  0.00     0.147 A 
HETATM   25  O3  UNL     1     -13.901  15.671  28.855  1.00  0.00    -0.287 OA
HETATM   26  C13 UNL     1     -15.077  15.667  29.416  1.00  0.00     0.300 A 
HETATM   27  O4  UNL     1     -15.285  16.675  30.131  1.00  0.00    -0.259 OA
ENDBRANCH   3  17
TORSDOF 5
ENDMDL
MODEL 5
REMARK VINA RESULT: -7.773764987      2.871      4.078
REMARK  5 active torsions:
REMARK  status: ('A' for Active; 'I' for Inactive)
REMARK    1  A    between atoms: C2_2  and  C3_3 
REMARK    2  A    between atoms: C3_3  and  S1_4 
REMARK    3  A    between atoms: S1_4  and  C4_7 
REMARK    4  A    between atoms: C5_12  and  N3_13 
REMARK    5  A    between atoms: C6_15  and  C7_16 
ROOT
HETATM    1  N3  UNL     1     -18.258  15.020  30.879  1.00  0.00    -0.344 N 
ATOM      2  H3  UNL     1     -17.341  15.101  31.317  1.00  0.00     0.167 HD
HETATM    3  C6  UNL     1     -18.300  14.259  29.752  1.00  0.00     0.103 C 
ENDROOT
BRANCH   1   4
HETATM    4  C5  UNL     1     -19.220  15.661  31.481  1.00  0.00     0.166 A 
HETATM    5  N2  UNL     1     -19.357  16.956  31.780  1.00  0.00    -0.278 N 
HETATM    6  N1  UNL     1     -20.407  17.338  32.381  1.00  0.00    -0.282 N 
ATOM      7  H2  UNL     1     -18.629  17.626  31.530  1.00  0.00     0.189 HD
HETATM    8  C4  UNL     1     -21.352  16.473  32.708  1.00  0.00     0.188 A 
ATOM      9  H1  UNL     1     -20.523  18.325  32.615  1.00  0.00     0.188 HD
HETATM   10  S3  UNL     1     -20.678  15.021  32.108  1.00  0.00    -0.021 SA
BRANCH   8  11
HETATM   11  S1  UNL     1     -22.879  16.768  33.536  1.00  0.00     0.199 S 
HETATM   12  O1  UNL     1     -23.206  18.238  33.415  1.00  0.00    -0.221 OA
HETATM   13  O2  UNL     1     -23.996  15.987  32.960  1.00  0.00    -0.221 OA
BRANCH  11  14
HETATM   14  C3  UNL     1     -22.659  16.423  35.266  1.00  0.00     0.147 C 
BRANCH  14  15
HETATM   15  C2  UNL     1     -21.509  17.279  35.799  1.00  0.00     0.011 C 
HETATM   16  C1  UNL     1     -20.368  16.437  36.301  1.00  0.00     0.006 C 
ENDBRANCH  14  15
ENDBRANCH  11  14
ENDBRANCH   8  11
ENDBRANCH   1   4
BRANCH   3  17
HETATM   17  C7  UNL     1     -17.092  13.765  29.035  1.00  0.00     0.010 A 
HETATM   18  C8  UNL     1     -17.273  12.485  28.450  1.00  0.00    -0.008 A 
HETATM   19  C9  UNL     1     -18.469  11.609  28.463  1.00  0.00     0.057 C 
HETATM   20  S2  UNL     1     -15.800  12.157  27.714  1.00  0.00    -0.093 SA
HETATM   21  C10 UNL     1     -14.958  13.582  28.119  1.00  0.00     0.024 A 
HETATM   22  C11 UNL     1     -13.661  14.023  27.845  1.00  0.00     0.044 A 
HETATM   23  C14 UNL     1     -15.879  14.306  28.844  1.00  0.00     0.069 A 
HETATM   24  C12 UNL     1     -13.230  15.259  28.312  1.00  0.00     0.147 A 
HETATM   25  O3  UNL     1     -14.128  15.908  28.990  1.00  0.00    -0.287 OA
HETATM   26  C13 UNL     1     -15.345  15.538  29.269  1.00  0.00     0.300 A 
HETATM   27  O4  UNL     1     -15.975  16.384  29.945  1.00  0.00    -0.259 OA
ENDBRANCH   3  17
TORSDOF 5
ENDMDL
