MODEL 1
REMARK VINA RESULT: -9.768579992      0.000      0.000
REMARK  15 active torsions:
REMARK  status: ('A' for Active; 'I' for Inactive)
REMARK    1  A    between atoms: C2_2  and  C3_3 
REMARK    2  A    between atoms: C3_3  and  O2_5 
REMARK    3  A    between atoms: O2_5  and  C4_6 
REMARK    4  A    between atoms: C4_6  and  C5_7 
REMARK    5  A    between atoms: C8_11  and  O4_12 
REMARK    6  A    between atoms: C9_14  and  C10_15 
REMARK    7  A    between atoms: C10_15  and  C11_16 
REMARK    8  A    between atoms: C12_17  and  C14_19 
REMARK    9  A    between atoms: C14_19  and  C15_20 
REMARK   10  A    between atoms: C15_20  and  C16_21 
REMARK   11  A    between atoms: C16_21  and  O6_23 
REMARK   12  A    between atoms: C22_30  and  O8_31 
REMARK   13  A    between atoms: O8_31  and  C23_32 
REMARK   14  A    between atoms: C23_32  and  C24_34 
REMARK   15  A    between atoms: C24_34  and  C26_36 
ROOT
HETATM    1  C5  UNL     1       7.444   2.240  19.977  1.00  0.00     0.177 C 
HETATM    2  C6  UNL     1       8.513   1.657  20.844  1.00  0.00     0.210 C 
HETATM    3  O3  UNL     1       8.048   0.886  21.921  1.00  0.00    -0.343 OA
HETATM    4  C7  UNL     1       6.842   1.152  22.575  1.00  0.00     0.137 A 
HETATM    5  C8  UNL     1       6.591   0.663  23.860  1.00  0.00     0.111 A 
HETATM    6  C9  UNL     1       5.392   0.948  24.469  1.00  0.00     0.016 A 
HETATM    7  C18 UNL     1       4.463   1.712  23.794  1.00  0.00     0.093 A 
HETATM    8  C19 UNL     1       4.745   2.186  22.511  1.00  0.00     0.037 A 
HETATM    9  C20 UNL     1       5.942   1.905  21.895  1.00  0.00     0.118 A 
HETATM   10  O7  UNL     1       6.204   2.374  20.639  1.00  0.00    -0.338 OA
HETATM   11  C21 UNL     1       3.716   2.976  21.898  1.00  0.00     0.053 A 
HETATM   12  C22 UNL     1       2.523   3.280  22.476  1.00  0.00     0.092 A 
HETATM   13  C28 UNL     1       2.240   2.780  23.810  1.00  0.00     0.109 A 
HETATM   14  C29 UNL     1       2.094   3.968  24.773  1.00  0.00     0.053 C 
HETATM   15  C30 UNL     1       0.999   1.892  23.895  1.00  0.00     0.053 C 
HETATM   16  O10 UNL     1       3.270   1.999  24.390  1.00  0.00    -0.333 OA
ENDROOT
BRANCH   6  17
HETATM   17  C10 UNL     1       5.152   0.411  25.829  1.00  0.00     0.072 C 
BRANCH  17  18
HETATM   18  C11 UNL     1       3.996  -0.511  25.893  1.00  0.00    -0.020 C 
HETATM   19  C12 UNL     1       4.101  -1.766  26.303  1.00  0.00    -0.087 C 
HETATM   20  C13 UNL     1       5.428  -2.292  26.719  1.00  0.00     0.043 C 
BRANCH  19  21
HETATM   21  C14 UNL     1       2.896  -2.662  26.354  1.00  0.00     0.043 C 
BRANCH  21  22
HETATM   22  C15 UNL     1       1.641  -1.837  26.365  1.00  0.00     0.115 C 
BRANCH  22  23
HETATM   23  C16 UNL     1       0.878  -2.080  25.111  1.00  0.00     0.258 C 
HETATM   24  O5  UNL     1       1.079  -1.360  24.102  1.00  0.00    -0.265 OA
BRANCH  23  25
HETATM   25  O6  UNL     1      -0.064  -3.107  25.041  1.00  0.00    -0.326 OA
HETATM   26  C17 UNL     1      -0.082  -4.055  26.096  1.00  0.00     0.213 C 
ENDBRANCH  23  25
ENDBRANCH  22  23
ENDBRANCH  21  22
ENDBRANCH  19  21
ENDBRANCH  17  18
ENDBRANCH   6  17
BRANCH   5  27
HETATM   27  O4  UNL     1       7.542  -0.091  24.497  1.00  0.00    -0.357 OA
ATOM     28  H4  UNL     1       7.297  -0.626  25.243  1.00  0.00     0.217 HD
ENDBRANCH   5  27
BRANCH  12  29
HETATM   29  O8  UNL     1       1.744   4.051  21.653  1.00  0.00    -0.280 OA
BRANCH  29  30
HETATM   30  C23 UNL     1       0.777   3.829  20.777  1.00  0.00     0.267 C 
HETATM   31  O9  UNL     1       0.543   2.649  20.447  1.00  0.00    -0.264 OA
BRANCH  30  32
HETATM   32  C24 UNL     1      -0.079   4.869  20.133  1.00  0.00     0.081 C 
HETATM   33  C25 UNL     1       0.361   5.044  18.696  1.00  0.00     0.020 C 
BRANCH  32  34
HETATM   34  C26 UNL     1      -1.533   4.479  20.144  1.00  0.00     0.010 C 
HETATM   35  C27 UNL     1      -2.279   5.556  20.902  1.00  0.00     0.006 C 
ENDBRANCH  32  34
ENDBRANCH  30  32
ENDBRANCH  29  30
ENDBRANCH  12  29
BRANCH   1  36
HETATM   36  C4  UNL     1       7.247   1.345  18.771  1.00  0.00     0.213 C 
BRANCH  36  37
HETATM   37  O2  UNL     1       7.948   0.120  18.928  1.00  0.00    -0.319 OA
BRANCH  37  38
HETATM   38  C3  UNL     1       8.823  -0.316  17.946  1.00  0.00     0.258 C 
HETATM   39  O1  UNL     1      10.046  -0.085  18.105  1.00  0.00    -0.265 OA
BRANCH  38  40
HETATM   40  C2  UNL     1       8.312  -1.035  16.744  1.00  0.00     0.106 C 
HETATM   41  C1  UNL     1       8.935  -0.432  15.522  1.00  0.00     0.015 C 
ENDBRANCH  38  40
ENDBRANCH  37  38
ENDBRANCH  36  37
ENDBRANCH   1  36
TORSDOF 15
ENDMDL
MODEL 2
REMARK VINA RESULT: -9.636492896      0.999      1.435
REMARK  15 active torsions:
REMARK  status: ('A' for Active; 'I' for Inactive)
REMARK    1  A    between atoms: C2_2  and  C3_3 
REMARK    2  A    between atoms: C3_3  and  O2_5 
REMARK    3  A    between atoms: O2_5  and  C4_6 
REMARK    4  A    between atoms: C4_6  and  C5_7 
REMARK    5  A    between atoms: C8_11  and  O4_12 
REMARK    6  A    between atoms: C9_14  and  C10_15 
REMARK    7  A    between atoms: C10_15  and  C11_16 
REMARK    8  A    between atoms: C12_17  and  C14_19 
REMARK    9  A    between atoms: C14_19  and  C15_20 
REMARK   10  A    between atoms: C15_20  and  C16_21 
REMARK   11  A    between atoms: C16_21  and  O6_23 
REMARK   12  A    between atoms: C22_30  and  O8_31 
REMARK   13  A    between atoms: O8_31  and  C23_32 
REMARK   14  A    between atoms: C23_32  and  C24_34 
REMARK   15  A    between atoms: C24_34  and  C26_36 
ROOT
HETATM    1  C5  UNL     1       7.110   1.925  19.772  1.00  0.00     0.177 C 
HETATM    2  C6  UNL     1       8.179   1.271  20.587  1.00  0.00     0.210 C 
HETATM    3  O3  UNL     1       7.720   0.569  21.713  1.00  0.00    -0.343 OA
HETATM    4  C7  UNL     1       6.587   0.957  22.434  1.00  0.00     0.137 A 
HETATM    5  C8  UNL     1       6.380   0.523  23.745  1.00  0.00     0.111 A 
HETATM    6  C9  UNL     1       5.253   0.927  24.421  1.00  0.00     0.016 A 
HETATM    7  C18 UNL     1       4.350   1.754  23.784  1.00  0.00     0.093 A 
HETATM    8  C19 UNL     1       4.588   2.170  22.472  1.00  0.00     0.037 A 
HETATM    9  C20 UNL     1       5.713   1.770  21.790  1.00  0.00     0.118 A 
HETATM   10  O7  UNL     1       5.932   2.183  20.506  1.00  0.00    -0.338 OA
HETATM   11  C21 UNL     1       3.594   3.033  21.902  1.00  0.00     0.053 A 
HETATM   12  C22 UNL     1       2.472   3.455  22.545  1.00  0.00     0.092 A 
HETATM   13  C28 UNL     1       2.234   3.014  23.908  1.00  0.00     0.109 A 
HETATM   14  C29 UNL     1       2.256   4.233  24.842  1.00  0.00     0.053 C 
HETATM   15  C30 UNL     1       0.929   2.242  24.098  1.00  0.00     0.053 C 
HETATM   16  O10 UNL     1       3.228   2.160  24.444  1.00  0.00    -0.333 OA
ENDROOT
BRANCH   6  17
HETATM   17  C10 UNL     1       5.056   0.446  25.808  1.00  0.00     0.072 C 
BRANCH  17  18
HETATM   18  C11 UNL     1       3.911  -0.481  25.945  1.00  0.00    -0.020 C 
HETATM   19  C12 UNL     1       4.051  -1.748  26.307  1.00  0.00    -0.087 C 
HETATM   20  C13 UNL     1       5.409  -2.281  26.593  1.00  0.00     0.043 C 
BRANCH  19  21
HETATM   21  C14 UNL     1       2.855  -2.648  26.435  1.00  0.00     0.043 C 
BRANCH  21  22
HETATM   22  C15 UNL     1       1.592  -1.835  26.405  1.00  0.00     0.115 C 
BRANCH  22  23
HETATM   23  C16 UNL     1       0.932  -1.998  25.082  1.00  0.00     0.258 C 
HETATM   24  O5  UNL     1       1.104  -1.139  24.182  1.00  0.00    -0.265 OA
BRANCH  23  25
HETATM   25  O6  UNL     1       0.117  -3.102  24.826  1.00  0.00    -0.326 OA
HETATM   26  C17 UNL     1      -0.192  -3.956  25.915  1.00  0.00     0.213 C 
ENDBRANCH  23  25
ENDBRANCH  22  23
ENDBRANCH  21  22
ENDBRANCH  19  21
ENDBRANCH  17  18
ENDBRANCH   6  17
BRANCH   5  27
HETATM   27  O4  UNL     1       7.301  -0.297  24.344  1.00  0.00    -0.357 OA
ATOM     28  H4  UNL     1       7.273  -1.234  24.184  1.00  0.00     0.217 HD
ENDBRANCH   5  27
BRANCH  12  29
HETATM   29  O8  UNL     1       1.710   4.272  21.750  1.00  0.00    -0.280 OA
BRANCH  29  30
HETATM   30  C23 UNL     1       0.864   4.102  20.746  1.00  0.00     0.267 C 
HETATM   31  O9  UNL     1       0.498   5.110  20.110  1.00  0.00    -0.264 OA
BRANCH  30  32
HETATM   32  C24 UNL     1       0.294   2.800  20.290  1.00  0.00     0.081 C 
HETATM   33  C25 UNL     1      -0.953   2.503  21.093  1.00  0.00     0.020 C 
BRANCH  32  34
HETATM   34  C26 UNL     1      -0.073   2.833  18.831  1.00  0.00     0.010 C 
HETATM   35  C27 UNL     1       0.992   2.060  18.084  1.00  0.00     0.006 C 
ENDBRANCH  32  34
ENDBRANCH  30  32
ENDBRANCH  29  30
ENDBRANCH  12  29
BRANCH   1  36
HETATM   36  C4  UNL     1       6.758   1.023  18.608  1.00  0.00     0.213 C 
BRANCH  36  37
HETATM   37  O2  UNL     1       7.889   0.275  18.185  1.00  0.00    -0.319 OA
BRANCH  37  38
HETATM   38  C3  UNL     1       7.834  -0.482  17.026  1.00  0.00     0.258 C 
HETATM   39  O1  UNL     1       6.730  -0.987  16.707  1.00  0.00    -0.265 OA
BRANCH  38  40
HETATM   40  C2  UNL     1       9.056  -0.683  16.196  1.00  0.00     0.106 C 
HETATM   41  C1  UNL     1       8.837  -0.051  14.855  1.00  0.00     0.015 C 
ENDBRANCH  38  40
ENDBRANCH  37  38
ENDBRANCH  36  37
ENDBRANCH   1  36
TORSDOF 15
ENDMDL
MODEL 3
REMARK VINA RESULT: -8.035473490      7.998     14.011
REMARK  15 active torsions:
REMARK  status: ('A' for Active; 'I' for Inactive)
REMARK    1  A    between atoms: C2_2  and  C3_3 
REMARK    2  A    between atoms: C3_3  and  O2_5 
REMARK    3  A    between atoms: O2_5  and  C4_6 
REMARK    4  A    between atoms: C4_6  and  C5_7 
REMARK    5  A    between atoms: C8_11  and  O4_12 
REMARK    6  A    between atoms: C9_14  and  C10_15 
REMARK    7  A    between atoms: C10_15  and  C11_16 
REMARK    8  A    between atoms: C12_17  and  C14_19 
REMARK    9  A    between atoms: C14_19  and  C15_20 
REMARK   10  A    between atoms: C15_20  and  C16_21 
REMARK   11  A    between atoms: C16_21  and  O6_23 
REMARK   12  A    between atoms: C22_30  and  O8_31 
REMARK   13  A    between atoms: O8_31  and  C23_32 
REMARK   14  A    between atoms: C23_32  and  C24_34 
REMARK   15  A    between atoms: C24_34  and  C26_36 
ROOT
HETATM    1  C5  UNL     1       6.278   1.761  14.415  1.00  0.00     0.177 C 
HETATM    2  C6  UNL     1       5.625   1.110  13.238  1.00  0.00     0.210 C 
HETATM    3  O3  UNL     1       5.996   1.635  11.990  1.00  0.00    -0.343 OA
HETATM    4  C7  UNL     1       6.333   2.979  11.806  1.00  0.00     0.137 A 
HETATM    5  C8  UNL     1       6.298   3.568  10.539  1.00  0.00     0.111 A 
HETATM    6  C9  UNL     1       6.637   4.893  10.401  1.00  0.00     0.016 A 
HETATM    7  C18 UNL     1       7.005   5.611  11.520  1.00  0.00     0.093 A 
HETATM    8  C19 UNL     1       7.029   4.992  12.771  1.00  0.00     0.037 A 
HETATM    9  C20 UNL     1       6.692   3.667  12.918  1.00  0.00     0.118 A 
HETATM   10  O7  UNL     1       6.721   3.074  14.149  1.00  0.00    -0.338 OA
HETATM   11  C21 UNL     1       7.419   5.826  13.872  1.00  0.00     0.053 A 
HETATM   12  C22 UNL     1       7.754   7.140  13.769  1.00  0.00     0.092 A 
HETATM   13  C28 UNL     1       7.728   7.773  12.461  1.00  0.00     0.109 A 
HETATM   14  C29 UNL     1       6.658   8.875  12.457  1.00  0.00     0.053 C 
HETATM   15  C30 UNL     1       9.070   8.354  12.020  1.00  0.00     0.053 C 
HETATM   16  O10 UNL     1       7.344   6.926  11.393  1.00  0.00    -0.333 OA
ENDROOT
BRANCH   6  17
HETATM   17  C10 UNL     1       6.597   5.488   9.044  1.00  0.00     0.072 C 
BRANCH  17  18
HETATM   18  C11 UNL     1       7.937   5.627   8.431  1.00  0.00    -0.020 C 
HETATM   19  C12 UNL     1       8.439   6.795   8.061  1.00  0.00    -0.087 C 
HETATM   20  C13 UNL     1       7.640   8.032   8.259  1.00  0.00     0.043 C 
BRANCH  19  21
HETATM   21  C14 UNL     1       9.807   6.883   7.445  1.00  0.00     0.043 C 
BRANCH  21  22
HETATM   22  C15 UNL     1      10.770   6.014   8.201  1.00  0.00     0.115 C 
BRANCH  22  23
HETATM   23  C16 UNL     1      11.491   6.837   9.210  1.00  0.00     0.258 C 
HETATM   24  O5  UNL     1      11.378   8.087   9.200  1.00  0.00    -0.265 OA
BRANCH  23  25
HETATM   25  O6  UNL     1      12.297   6.231  10.175  1.00  0.00    -0.326 OA
HETATM   26  C17 UNL     1      13.271   5.303   9.728  1.00  0.00     0.213 C 
ENDBRANCH  23  25
ENDBRANCH  22  23
ENDBRANCH  21  22
ENDBRANCH  19  21
ENDBRANCH  17  18
ENDBRANCH   6  17
BRANCH   5  27
HETATM   27  O4  UNL     1       5.925   2.820   9.453  1.00  0.00    -0.357 OA
ATOM     28  H4  UNL     1       6.436   2.864   8.652  1.00  0.00     0.217 HD
ENDBRANCH   5  27
BRANCH  12  29
HETATM   29  O8  UNL     1       8.081   7.677  14.987  1.00  0.00    -0.280 OA
BRANCH  29  30
HETATM   30  C23 UNL     1       8.589   8.821  15.417  1.00  0.00     0.267 C 
HETATM   31  O9  UNL     1       7.800   9.739  15.714  1.00  0.00    -0.264 OA
BRANCH  30  32
HETATM   32  C24 UNL     1      10.041   9.127  15.585  1.00  0.00     0.081 C 
HETATM   33  C25 UNL     1      10.382  10.350  14.765  1.00  0.00     0.020 C 
BRANCH  32  34
HETATM   34  C26 UNL     1      10.389   9.403  17.024  1.00  0.00     0.010 C 
HETATM   35  C27 UNL     1      11.832   8.993  17.222  1.00  0.00     0.006 C 
ENDBRANCH  32  34
ENDBRANCH  30  32
ENDBRANCH  29  30
ENDBRANCH  12  29
BRANCH   1  36
HETATM   36  C4  UNL     1       7.473   0.930  14.835  1.00  0.00     0.213 C 
BRANCH  36  37
HETATM   37  O2  UNL     1       7.082  -0.114  15.715  1.00  0.00    -0.319 OA
BRANCH  37  38
HETATM   38  C3  UNL     1       7.682  -0.244  16.957  1.00  0.00     0.258 C 
HETATM   39  O1  UNL     1       7.123   0.301  17.939  1.00  0.00    -0.265 OA
BRANCH  38  40
HETATM   40  C2  UNL     1       8.954  -1.009  17.105  1.00  0.00     0.106 C 
HETATM   41  C1  UNL     1       9.847  -0.278  18.059  1.00  0.00     0.015 C 
ENDBRANCH  38  40
ENDBRANCH  37  38
ENDBRANCH  36  37
ENDBRANCH   1  36
TORSDOF 15
ENDMDL
MODEL 4
REMARK VINA RESULT: -8.017842211      8.617     13.957
REMARK  15 active torsions:
REMARK  status: ('A' for Active; 'I' for Inactive)
REMARK    1  A    between atoms: C2_2  and  C3_3 
REMARK    2  A    between atoms: C3_3  and  O2_5 
REMARK    3  A    between atoms: O2_5  and  C4_6 
REMARK    4  A    between atoms: C4_6  and  C5_7 
REMARK    5  A    between atoms: C8_11  and  O4_12 
REMARK    6  A    between atoms: C9_14  and  C10_15 
REMARK    7  A    between atoms: C10_15  and  C11_16 
REMARK    8  A    between atoms: C12_17  and  C14_19 
REMARK    9  A    between atoms: C14_19  and  C15_20 
REMARK   10  A    between atoms: C15_20  and  C16_21 
REMARK   11  A    between atoms: C16_21  and  O6_23 
REMARK   12  A    between atoms: C22_30  and  O8_31 
REMARK   13  A    between atoms: O8_31  and  C23_32 
REMARK   14  A    between atoms: C23_32  and  C24_34 
REMARK   15  A    between atoms: C24_34  and  C26_36 
ROOT
HETATM    1  C5  UNL     1       6.207   2.016  14.313  1.00  0.00     0.177 C 
HETATM    2  C6  UNL     1       5.581   1.393  13.107  1.00  0.00     0.210 C 
HETATM    3  O3  UNL     1       6.017   1.914  11.878  1.00  0.00    -0.343 OA
HETATM    4  C7  UNL     1       6.401   3.248  11.717  1.00  0.00     0.137 A 
HETATM    5  C8  UNL     1       6.433   3.844  10.454  1.00  0.00     0.111 A 
HETATM    6  C9  UNL     1       6.817   5.159  10.338  1.00  0.00     0.016 A 
HETATM    7  C18 UNL     1       7.161   5.860  11.475  1.00  0.00     0.093 A 
HETATM    8  C19 UNL     1       7.118   5.234  12.722  1.00  0.00     0.037 A 
HETATM    9  C20 UNL     1       6.735   3.918  12.847  1.00  0.00     0.118 A 
HETATM   10  O7  UNL     1       6.698   3.318  14.073  1.00  0.00    -0.338 OA
HETATM   11  C21 UNL     1       7.488   6.049  13.843  1.00  0.00     0.053 A 
HETATM   12  C22 UNL     1       7.866   7.353  13.762  1.00  0.00     0.092 A 
HETATM   13  C28 UNL     1       7.909   7.994  12.459  1.00  0.00     0.109 A 
HETATM   14  C29 UNL     1       6.874   9.128  12.421  1.00  0.00     0.053 C 
HETATM   15  C30 UNL     1       9.285   8.538  12.075  1.00  0.00     0.053 C 
HETATM   16  O10 UNL     1       7.544   7.165  11.371  1.00  0.00    -0.333 OA
ENDROOT
BRANCH   6  17
HETATM   17  C10 UNL     1       6.848   5.764   8.985  1.00  0.00     0.072 C 
BRANCH  17  18
HETATM   18  C11 UNL     1       6.119   7.049   8.906  1.00  0.00    -0.020 C 
HETATM   19  C12 UNL     1       5.663   7.547   7.766  1.00  0.00    -0.087 C 
HETATM   20  C13 UNL     1       5.885   6.800   6.500  1.00  0.00     0.043 C 
BRANCH  19  21
HETATM   21  C14 UNL     1       4.925   8.855   7.739  1.00  0.00     0.043 C 
BRANCH  21  22
HETATM   22  C15 UNL     1       5.758   9.931   8.375  1.00  0.00     0.115 C 
BRANCH  22  23
HETATM   23  C16 UNL     1       4.939  10.661   9.379  1.00  0.00     0.258 C 
HETATM   24  O5  UNL     1       5.333  11.764   9.832  1.00  0.00    -0.265 OA
BRANCH  23  25
HETATM   25  O6  UNL     1       3.728  10.132   9.827  1.00  0.00    -0.326 OA
HETATM   26  C17 UNL     1       3.382  10.342  11.187  1.00  0.00     0.213 C 
ENDBRANCH  23  25
ENDBRANCH  22  23
ENDBRANCH  21  22
ENDBRANCH  19  21
ENDBRANCH  17  18
ENDBRANCH   6  17
BRANCH   5  27
HETATM   27  O4  UNL     1       6.082   3.114   9.348  1.00  0.00    -0.357 OA
ATOM     28  H4  UNL     1       6.662   2.432   9.030  1.00  0.00     0.217 HD
ENDBRANCH   5  27
BRANCH  12  29
HETATM   29  O8  UNL     1       8.159   7.873  14.996  1.00  0.00    -0.280 OA
BRANCH  29  30
HETATM   30  C23 UNL     1       8.648   9.014  15.456  1.00  0.00     0.267 C 
HETATM   31  O9  UNL     1       7.847   9.932  15.719  1.00  0.00    -0.264 OA
BRANCH  30  32
HETATM   32  C24 UNL     1      10.090   9.316  15.697  1.00  0.00     0.081 C 
HETATM   33  C25 UNL     1      10.520  10.428  14.766  1.00  0.00     0.020 C 
BRANCH  32  34
HETATM   34  C26 UNL     1      10.338   9.757  17.115  1.00  0.00     0.010 C 
HETATM   35  C27 UNL     1      11.722   9.279  17.496  1.00  0.00     0.006 C 
ENDBRANCH  32  34
ENDBRANCH  30  32
ENDBRANCH  29  30
ENDBRANCH  12  29
BRANCH   1  36
HETATM   36  C4  UNL     1       7.358   1.148  14.774  1.00  0.00     0.213 C 
BRANCH  36  37
HETATM   37  O2  UNL     1       7.153   0.695  16.104  1.00  0.00    -0.319 OA
BRANCH  37  38
HETATM   38  C3  UNL     1       7.196  -0.658  16.397  1.00  0.00     0.258 C 
HETATM   39  O1  UNL     1       6.106  -1.270  16.508  1.00  0.00    -0.265 OA
BRANCH  38  40
HETATM   40  C2  UNL     1       8.504  -1.352  16.572  1.00  0.00     0.106 C 
HETATM   41  C1  UNL     1       9.273  -0.664  17.658  1.00  0.00     0.015 C 
ENDBRANCH  38  40
ENDBRANCH  37  38
ENDBRANCH  36  37
ENDBRANCH   1  36
TORSDOF 15
ENDMDL
MODEL 5
REMARK VINA RESULT: -7.996388621      8.238     14.189
REMARK  15 active torsions:
REMARK  status: ('A' for Active; 'I' for Inactive)
REMARK    1  A    between atoms: C2_2  and  C3_3 
REMARK    2  A    between atoms: C3_3  and  O2_5 
REMARK    3  A    between atoms: O2_5  and  C4_6 
REMARK    4  A    between atoms: C4_6  and  C5_7 
REMARK    5  A    between atoms: C8_11  and  O4_12 
REMARK    6  A    between atoms: C9_14  and  C10_15 
REMARK    7  A    between atoms: C10_15  and  C11_16 
REMARK    8  A    between atoms: C12_17  and  C14_19 
REMARK    9  A    between atoms: C14_19  and  C15_20 
REMARK   10  A    between atoms: C15_20  and  C16_21 
REMARK   11  A    between atoms: C16_21  and  O6_23 
REMARK   12  A    between atoms: C22_30  and  O8_31 
REMARK   13  A    between atoms: O8_31  and  C23_32 
REMARK   14  A    between atoms: C23_32  and  C24_34 
REMARK   15  A    between atoms: C24_34  and  C26_36 
ROOT
HETATM    1  C5  UNL     1       6.216   1.995  14.302  1.00  0.00     0.177 C 
HETATM    2  C6  UNL     1       5.610   1.364  13.090  1.00  0.00     0.210 C 
HETATM    3  O3  UNL     1       6.037   1.904  11.866  1.00  0.00    -0.343 OA
HETATM    4  C7  UNL     1       6.390   3.248  11.715  1.00  0.00     0.137 A 
HETATM    5  C8  UNL     1       6.413   3.853  10.456  1.00  0.00     0.111 A 
HETATM    6  C9  UNL     1       6.765   5.178  10.350  1.00  0.00     0.016 A 
HETATM    7  C18 UNL     1       7.089   5.879  11.494  1.00  0.00     0.093 A 
HETATM    8  C19 UNL     1       7.056   5.243  12.737  1.00  0.00     0.037 A 
HETATM    9  C20 UNL     1       6.704   3.918  12.851  1.00  0.00     0.118 A 
HETATM   10  O7  UNL     1       6.677   3.309  14.073  1.00  0.00    -0.338 OA
HETATM   11  C21 UNL     1       7.403   6.060  13.864  1.00  0.00     0.053 A 
HETATM   12  C22 UNL     1       7.749   7.373  13.793  1.00  0.00     0.092 A 
HETATM   13  C28 UNL     1       7.782   8.023  12.495  1.00  0.00     0.109 A 
HETATM   14  C29 UNL     1       6.720   9.132  12.460  1.00  0.00     0.053 C 
HETATM   15  C30 UNL     1       9.146   8.602  12.120  1.00  0.00     0.053 C 
HETATM   16  O10 UNL     1       7.440   7.193  11.399  1.00  0.00    -0.333 OA
ENDROOT
BRANCH   6  17
HETATM   17  C10 UNL     1       6.787   5.792   9.002  1.00  0.00     0.072 C 
BRANCH  17  18
HETATM   18  C11 UNL     1       8.151   6.124   8.537  1.00  0.00    -0.020 C 
HETATM   19  C12 UNL     1       8.706   5.558   7.475  1.00  0.00    -0.087 C 
HETATM   20  C13 UNL     1       7.942   4.542   6.705  1.00  0.00     0.043 C 
BRANCH  19  21
HETATM   21  C14 UNL     1      10.095   5.932   7.041  1.00  0.00     0.043 C 
BRANCH  21  22
HETATM   22  C15 UNL     1      10.907   4.695   6.786  1.00  0.00     0.115 C 
BRANCH  22  23
HETATM   23  C16 UNL     1      12.024   4.626   7.766  1.00  0.00     0.258 C 
HETATM   24  O5  UNL     1      12.219   5.574   8.566  1.00  0.00    -0.265 OA
BRANCH  23  25
HETATM   25  O6  UNL     1      12.865   3.513   7.807  1.00  0.00    -0.326 OA
HETATM   26  C17 UNL     1      13.828   3.455   8.847  1.00  0.00     0.213 C 
ENDBRANCH  23  25
ENDBRANCH  22  23
ENDBRANCH  21  22
ENDBRANCH  19  21
ENDBRANCH  17  18
ENDBRANCH   6  17
BRANCH   5  27
HETATM   27  O4  UNL     1       6.083   3.122   9.345  1.00  0.00    -0.357 OA
ATOM     28  H4  UNL     1       6.633   2.395   9.078  1.00  0.00     0.217 HD
ENDBRANCH   5  27
BRANCH  12  29
HETATM   29  O8  UNL     1       8.026   7.891  15.032  1.00  0.00    -0.280 OA
BRANCH  29  30
HETATM   30  C23 UNL     1       8.606   8.986  15.497  1.00  0.00     0.267 C 
HETATM   31  O9  UNL     1       7.874   9.908  15.909  1.00  0.00    -0.264 OA
BRANCH  30  32
HETATM   32  C24 UNL     1      10.076   9.233  15.578  1.00  0.00     0.081 C 
HETATM   33  C25 UNL     1      10.377  10.596  14.996  1.00  0.00     0.020 C 
BRANCH  32  34
HETATM   34  C26 UNL     1      10.568   9.201  17.001  1.00  0.00     0.010 C 
HETATM   35  C27 UNL     1      11.464  10.407  17.192  1.00  0.00     0.006 C 
ENDBRANCH  32  34
ENDBRANCH  30  32
ENDBRANCH  29  30
ENDBRANCH  12  29
BRANCH   1  36
HETATM   36  C4  UNL     1       7.386   1.151  14.762  1.00  0.00     0.213 C 
BRANCH  36  37
HETATM   37  O2  UNL     1       7.188   0.686  16.089  1.00  0.00    -0.319 OA
BRANCH  37  38
HETATM   38  C3  UNL     1       7.210  -0.671  16.366  1.00  0.00     0.258 C 
HETATM   39  O1  UNL     1       6.113  -1.277  16.421  1.00  0.00    -0.265 OA
BRANCH  38  40
HETATM   40  C2  UNL     1       8.506  -1.375  16.589  1.00  0.00     0.106 C 
HETATM   41  C1  UNL     1       9.266  -0.657  17.662  1.00  0.00     0.015 C 
ENDBRANCH  38  40
ENDBRANCH  37  38
ENDBRANCH  36  37
ENDBRANCH   1  36
TORSDOF 15
ENDMDL
