MODEL 1
REMARK VINA RESULT: -7.510493008      0.000      0.000
REMARK  12 active torsions:
REMARK  status: ('A' for Active; 'I' for Inactive)
REMARK    1  A    between atoms: O1_2  and  C2_3 
REMARK    2  A    between atoms: C2_3  and  C3_4 
REMARK    3  A    between atoms: C3_4  and  C4_5 
REMARK    4  A    between atoms: C3_4  and  C15_19 
REMARK    5  A    between atoms: C5_6  and  C6_7 
REMARK    6  A    between atoms: C8_9  and  O2_10 
REMARK    7  A    between atoms: C10_12  and  O3_13 
REMARK    8  A    between atoms: C12_15  and  O4_16 
REMARK    9  A    between atoms: C15_19  and  C16_20 
REMARK   10  A    between atoms: C18_22  and  O5_23 
REMARK   11  A    between atoms: C21_26  and  O6_27 
REMARK   12  A    between atoms: C24_32  and  O8_33 
ROOT
HETATM    1  C15 UNL     1       2.551   3.217  23.119  1.00  0.00     0.034 C 
HETATM    2  C26 UNL     1       2.060   3.112  21.598  1.00  0.00     0.022 C 
HETATM    3  C27 UNL     1       0.698   2.715  22.126  1.00  0.00     0.045 C 
HETATM    4  C28 UNL     1       1.541   2.176  23.333  1.00  0.00     0.102 A 
HETATM    5  C29 UNL     1       0.779   1.912  24.493  1.00  0.00     0.019 A 
HETATM    6  C30 UNL     1       0.654   0.569  24.667  1.00  0.00     0.081 A 
HETATM    7  C31 UNL     1       1.372  -0.093  23.605  1.00  0.00     0.283 A 
HETATM    8  O9  UNL     1       1.447  -1.361  23.463  1.00  0.00    -0.260 OA
HETATM    9  O10 UNL     1       1.930   0.868  22.822  1.00  0.00    -0.301 OA
ENDROOT
BRANCH   1  10
HETATM   10  C3  UNL     1       2.522   4.606  23.552  1.00  0.00     0.048 C 
BRANCH  10  11
HETATM   11  C2  UNL     1       3.348   5.678  22.943  1.00  0.00     0.176 C 
BRANCH  11  12
HETATM   12  O1  UNL     1       4.195   6.414  23.675  1.00  0.00    -0.395 OA
HETATM   13  C1  UNL     1       4.066   7.780  23.542  1.00  0.00     0.201 C 
ENDBRANCH  11  12
ENDBRANCH  10  11
BRANCH  10  14
HETATM   14  C4  UNL     1       2.806   4.831  25.038  1.00  0.00    -0.018 C 
HETATM   15  C5  UNL     1       1.997   5.607  25.741  1.00  0.00     0.008 C 
BRANCH  15  16
HETATM   16  C6  UNL     1       2.202   5.862  27.144  1.00  0.00    -0.031 A 
HETATM   17  C7  UNL     1       1.336   5.432  28.129  1.00  0.00     0.051 A 
HETATM   18  C8  UNL     1       1.575   5.722  29.477  1.00  0.00     0.105 A 
HETATM   19  C10 UNL     1       2.704   6.453  29.798  1.00  0.00     0.135 A 
HETATM   20  C12 UNL     1       3.560   6.876  28.810  1.00  0.00     0.105 A 
HETATM   21  C14 UNL     1       3.312   6.584  27.503  1.00  0.00     0.051 A 
BRANCH  18  22
HETATM   22  O2  UNL     1       0.740   5.313  30.471  1.00  0.00    -0.353 OA
HETATM   23  C9  UNL     1      -0.446   5.982  30.891  1.00  0.00     0.210 C 
ENDBRANCH  18  22
BRANCH  19  24
HETATM   24  O3  UNL     1       2.928   6.733  31.157  1.00  0.00    -0.351 OA
HETATM   25  C11 UNL     1       2.512   8.024  31.582  1.00  0.00     0.210 C 
ENDBRANCH  19  24
BRANCH  20  26
HETATM   26  O4  UNL     1       4.683   7.609  29.205  1.00  0.00    -0.353 OA
HETATM   27  C13 UNL     1       4.903   8.908  28.686  1.00  0.00     0.210 C 
ENDBRANCH  20  26
ENDBRANCH  15  16
ENDBRANCH  10  14
ENDBRANCH   1  10
BRANCH   1  28
HETATM   28  C16 UNL     1       3.943   2.636  23.161  1.00  0.00    -0.008 A 
HETATM   29  C17 UNL     1       4.689   2.913  21.985  1.00  0.00     0.048 A 
HETATM   30  C18 UNL     1       5.905   2.338  21.714  1.00  0.00     0.084 A 
HETATM   31  C20 UNL     1       6.434   1.446  22.619  1.00  0.00     0.070 A 
HETATM   32  C21 UNL     1       7.603   0.705  22.654  1.00  0.00     0.197 A 
HETATM   33  C23 UNL     1       5.756   1.151  23.756  1.00  0.00     0.038 A 
HETATM   34  O7  UNL     1       7.613   0.003  23.768  1.00  0.00    -0.299 OA
HETATM   35  C22 UNL     1       6.513   0.244  24.463  1.00  0.00     0.160 A 
HETATM   36  C24 UNL     1       4.504   1.770  24.001  1.00  0.00     0.088 A 
BRANCH  30  37
HETATM   37  O5  UNL     1       6.612   2.616  20.576  1.00  0.00    -0.355 OA
HETATM   38  C19 UNL     1       7.588   3.605  20.545  1.00  0.00     0.210 C 
ENDBRANCH  30  37
BRANCH  32  39
HETATM   39  O6  UNL     1       8.570   0.737  21.650  1.00  0.00    -0.340 OA
ATOM     40  H6  UNL     1       9.489   0.916  21.809  1.00  0.00     0.220 HD
ENDBRANCH  32  39
BRANCH  36  41
HETATM   41  O8  UNL     1       3.963   1.384  25.193  1.00  0.00    -0.354 OA
HETATM   42  C25 UNL     1       4.005   0.126  25.788  1.00  0.00     0.210 C 
ENDBRANCH  36  41
ENDBRANCH   1  28
TORSDOF 12
ENDMDL
MODEL 2
REMARK VINA RESULT: -7.410697143     12.031     16.674
REMARK  12 active torsions:
REMARK  status: ('A' for Active; 'I' for Inactive)
REMARK    1  A    between atoms: O1_2  and  C2_3 
REMARK    2  A    between atoms: C2_3  and  C3_4 
REMARK    3  A    between atoms: C3_4  and  C4_5 
REMARK    4  A    between atoms: C3_4  and  C15_19 
REMARK    5  A    between atoms: C5_6  and  C6_7 
REMARK    6  A    between atoms: C8_9  and  O2_10 
REMARK    7  A    between atoms: C10_12  and  O3_13 
REMARK    8  A    between atoms: C12_15  and  O4_16 
REMARK    9  A    between atoms: C15_19  and  C16_20 
REMARK   10  A    between atoms: C18_22  and  O5_23 
REMARK   11  A    between atoms: C21_26  and  O6_27 
REMARK   12  A    between atoms: C24_32  and  O8_33 
ROOT
HETATM    1  C15 UNL     1       7.232   7.031  12.286  1.00  0.00     0.034 C 
HETATM    2  C26 UNL     1       6.011   8.047  12.491  1.00  0.00     0.022 C 
HETATM    3  C27 UNL     1       5.763   7.959  11.001  1.00  0.00     0.045 C 
HETATM    4  C28 UNL     1       7.301   7.656  10.962  1.00  0.00     0.102 A 
HETATM    5  C29 UNL     1       7.745   7.095   9.744  1.00  0.00     0.019 A 
HETATM    6  C30 UNL     1       8.449   8.021   9.038  1.00  0.00     0.081 A 
HETATM    7  C31 UNL     1       8.500   9.237   9.814  1.00  0.00     0.283 A 
HETATM    8  O9  UNL     1       9.077  10.313   9.435  1.00  0.00    -0.260 OA
HETATM    9  O10 UNL     1       7.839   9.011  10.980  1.00  0.00    -0.301 OA
ENDROOT
BRANCH   1  10
HETATM   10  C3  UNL     1       6.812   5.681  12.626  1.00  0.00     0.048 C 
BRANCH  10  11
HETATM   11  C2  UNL     1       7.295   4.941  13.819  1.00  0.00     0.176 C 
BRANCH  11  12
HETATM   12  O1  UNL     1       7.817   3.711  13.720  1.00  0.00    -0.395 OA
HETATM   13  C1  UNL     1       7.056   2.695  14.257  1.00  0.00     0.201 C 
ENDBRANCH  11  12
ENDBRANCH  10  11
BRANCH  10  14
HETATM   14  C4  UNL     1       7.029   4.635  11.531  1.00  0.00    -0.018 C 
HETATM   15  C5  UNL     1       5.988   3.972  11.055  1.00  0.00     0.008 C 
BRANCH  15  16
HETATM   16  C6  UNL     1       6.117   2.976  10.022  1.00  0.00    -0.031 A 
HETATM   17  C7  UNL     1       6.214   1.623  10.279  1.00  0.00     0.051 A 
HETATM   18  C8  UNL     1       6.355   0.699   9.238  1.00  0.00     0.105 A 
HETATM   19  C10 UNL     1       6.394   1.177   7.940  1.00  0.00     0.135 A 
HETATM   20  C12 UNL     1       6.296   2.525   7.696  1.00  0.00     0.105 A 
HETATM   21  C14 UNL     1       6.159   3.411   8.722  1.00  0.00     0.051 A 
BRANCH  18  22
HETATM   22  O2  UNL     1       6.454  -0.641   9.459  1.00  0.00    -0.353 OA
HETATM   23  C9  UNL     1       7.590  -1.315   9.993  1.00  0.00     0.210 C 
ENDBRANCH  18  22
BRANCH  19  24
HETATM   24  O3  UNL     1       6.534   0.234   6.908  1.00  0.00    -0.351 OA
HETATM   25  C11 UNL     1       7.871  -0.002   6.486  1.00  0.00     0.210 C 
ENDBRANCH  19  24
BRANCH  20  26
HETATM   26  O4  UNL     1       6.341   2.940   6.361  1.00  0.00    -0.353 OA
HETATM   27  C13 UNL     1       5.853   4.217   5.996  1.00  0.00     0.210 C 
ENDBRANCH  20  26
ENDBRANCH  15  16
ENDBRANCH  10  14
ENDBRANCH   1  10
BRANCH   1  28
HETATM   28  C16 UNL     1       8.350   7.521  13.174  1.00  0.00    -0.008 A 
HETATM   29  C17 UNL     1       7.900   8.413  14.182  1.00  0.00     0.048 A 
HETATM   30  C18 UNL     1       8.751   9.128  14.988  1.00  0.00     0.084 A 
HETATM   31  C20 UNL     1      10.108   8.981  14.815  1.00  0.00     0.070 A 
HETATM   32  C21 UNL     1      11.214   9.536  15.436  1.00  0.00     0.197 A 
HETATM   33  C23 UNL     1      10.584   8.139  13.863  1.00  0.00     0.038 A 
HETATM   34  O7  UNL     1      12.296   9.041  14.874  1.00  0.00    -0.299 OA
HETATM   35  C22 UNL     1      11.958   8.191  13.917  1.00  0.00     0.160 A 
HETATM   36  C24 UNL     1       9.671   7.416  13.054  1.00  0.00     0.088 A 
BRANCH  30  37
HETATM   37  O5  UNL     1       8.301   9.984  15.956  1.00  0.00    -0.355 OA
HETATM   38  C19 UNL     1       7.869  11.270  15.651  1.00  0.00     0.210 C 
ENDBRANCH  30  37
BRANCH  32  39
HETATM   39  O6  UNL     1      11.133  10.461  16.477  1.00  0.00    -0.340 OA
ATOM     40  H6  UNL     1      11.891  10.838  16.907  1.00  0.00     0.220 HD
ENDBRANCH  32  39
BRANCH  36  41
HETATM   41  O8  UNL     1      10.307   6.601  12.163  1.00  0.00    -0.354 OA
HETATM   42  C25 UNL     1      11.164   6.963  11.127  1.00  0.00     0.210 C 
ENDBRANCH  36  41
ENDBRANCH   1  28
TORSDOF 12
ENDMDL
MODEL 3
REMARK VINA RESULT: -7.400447968     11.563     16.621
REMARK  12 active torsions:
REMARK  status: ('A' for Active; 'I' for Inactive)
REMARK    1  A    between atoms: O1_2  and  C2_3 
REMARK    2  A    between atoms: C2_3  and  C3_4 
REMARK    3  A    between atoms: C3_4  and  C4_5 
REMARK    4  A    between atoms: C3_4  and  C15_19 
REMARK    5  A    between atoms: C5_6  and  C6_7 
REMARK    6  A    between atoms: C8_9  and  O2_10 
REMARK    7  A    between atoms: C10_12  and  O3_13 
REMARK    8  A    between atoms: C12_15  and  O4_16 
REMARK    9  A    between atoms: C15_19  and  C16_20 
REMARK   10  A    between atoms: C18_22  and  O5_23 
REMARK   11  A    between atoms: C21_26  and  O6_27 
REMARK   12  A    between atoms: C24_32  and  O8_33 
ROOT
HETATM    1  C15 UNL     1      10.770   9.397  13.734  1.00  0.00     0.034 C 
HETATM    2  C26 UNL     1      11.737   8.177  14.111  1.00  0.00     0.022 C 
HETATM    3  C27 UNL     1      12.141   8.953  15.345  1.00  0.00     0.045 C 
HETATM    4  C28 UNL     1      11.778  10.187  14.448  1.00  0.00     0.102 A 
HETATM    5  C29 UNL     1      11.607  11.390  15.168  1.00  0.00     0.019 A 
HETATM    6  C30 UNL     1      12.668  12.214  14.947  1.00  0.00     0.081 A 
HETATM    7  C31 UNL     1      13.569  11.555  14.034  1.00  0.00     0.283 A 
HETATM    8  O9  UNL     1      14.675  12.049  13.626  1.00  0.00    -0.260 OA
HETATM    9  O10 UNL     1      13.023  10.353  13.710  1.00  0.00    -0.301 OA
ENDROOT
BRANCH   1  10
HETATM   10  C3  UNL     1       9.407   9.090  14.143  1.00  0.00     0.048 C 
BRANCH  10  11
HETATM   11  C2  UNL     1       9.031   8.677  15.517  1.00  0.00     0.176 C 
BRANCH  11  12
HETATM   12  O1  UNL     1       8.782   9.578  16.479  1.00  0.00    -0.395 OA
HETATM   13  C1  UNL     1       8.024  10.664  16.097  1.00  0.00     0.201 C 
ENDBRANCH  11  12
ENDBRANCH  10  11
BRANCH  10  14
HETATM   14  C4  UNL     1       8.706   8.013  13.315  1.00  0.00    -0.018 C 
HETATM   15  C5  UNL     1       8.260   6.922  13.917  1.00  0.00     0.008 C 
BRANCH  15  16
HETATM   16  C6  UNL     1       7.588   5.868  13.200  1.00  0.00    -0.031 A 
HETATM   17  C7  UNL     1       7.410   5.874  11.831  1.00  0.00     0.051 A 
HETATM   18  C8  UNL     1       6.734   4.831  11.187  1.00  0.00     0.105 A 
HETATM   19  C10 UNL     1       6.247   3.792  11.960  1.00  0.00     0.135 A 
HETATM   20  C12 UNL     1       6.430   3.797  13.322  1.00  0.00     0.105 A 
HETATM   21  C14 UNL     1       7.091   4.820  13.932  1.00  0.00     0.051 A 
BRANCH  18  22
HETATM   22  O2  UNL     1       6.541   4.807   9.840  1.00  0.00    -0.353 OA
HETATM   23  C9  UNL     1       7.115   5.712   8.901  1.00  0.00     0.210 C 
ENDBRANCH  18  22
BRANCH  19  24
HETATM   24  O3  UNL     1       5.573   2.753  11.296  1.00  0.00    -0.351 OA
HETATM   25  C11 UNL     1       6.394   1.671  10.880  1.00  0.00     0.210 C 
ENDBRANCH  19  24
BRANCH  20  26
HETATM   26  O4  UNL     1       5.914   2.715  14.042  1.00  0.00    -0.353 OA
HETATM   27  C13 UNL     1       6.784   1.729  14.566  1.00  0.00     0.210 C 
ENDBRANCH  20  26
ENDBRANCH  15  16
ENDBRANCH  10  14
ENDBRANCH   1  10
BRANCH   1  28
HETATM   28  C16 UNL     1      10.887   9.592  12.243  1.00  0.00    -0.008 A 
HETATM   29  C17 UNL     1      11.594   8.538  11.605  1.00  0.00     0.048 A 
HETATM   30  C18 UNL     1      11.985   8.584  10.290  1.00  0.00     0.084 A 
HETATM   31  C20 UNL     1      11.684   9.702   9.547  1.00  0.00     0.070 A 
HETATM   32  C21 UNL     1      11.925  10.067   8.233  1.00  0.00     0.197 A 
HETATM   33  C23 UNL     1      11.010  10.734  10.114  1.00  0.00     0.038 A 
HETATM   34  O7  UNL     1      11.413  11.263   8.035  1.00  0.00    -0.299 OA
HETATM   35  C22 UNL     1      10.850  11.702   9.149  1.00  0.00     0.160 A 
HETATM   36  C24 UNL     1      10.620  10.645  11.475  1.00  0.00     0.088 A 
BRANCH  30  37
HETATM   37  O5  UNL     1      12.666   7.560   9.690  1.00  0.00    -0.355 OA
HETATM   38  C19 UNL     1      12.369   6.229   9.959  1.00  0.00     0.210 C 
ENDBRANCH  30  37
BRANCH  32  39
HETATM   39  O6  UNL     1      12.603   9.260   7.319  1.00  0.00    -0.340 OA
ATOM     40  H6  UNL     1      13.543   9.289   7.187  1.00  0.00     0.220 HD
ENDBRANCH  32  39
BRANCH  36  41
HETATM   41  O8  UNL     1       9.936  11.751  11.887  1.00  0.00    -0.354 OA
HETATM   42  C25 UNL     1       8.558  11.914  12.007  1.00  0.00     0.210 C 
ENDBRANCH  36  41
ENDBRANCH   1  28
TORSDOF 12
ENDMDL
MODEL 4
REMARK VINA RESULT: -7.379538992     11.576     16.542
REMARK  12 active torsions:
REMARK  status: ('A' for Active; 'I' for Inactive)
REMARK    1  A    between atoms: O1_2  and  C2_3 
REMARK    2  A    between atoms: C2_3  and  C3_4 
REMARK    3  A    between atoms: C3_4  and  C4_5 
REMARK    4  A    between atoms: C3_4  and  C15_19 
REMARK    5  A    between atoms: C5_6  and  C6_7 
REMARK    6  A    between atoms: C8_9  and  O2_10 
REMARK    7  A    between atoms: C10_12  and  O3_13 
REMARK    8  A    between atoms: C12_15  and  O4_16 
REMARK    9  A    between atoms: C15_19  and  C16_20 
REMARK   10  A    between atoms: C18_22  and  O5_23 
REMARK   11  A    between atoms: C21_26  and  O6_27 
REMARK   12  A    between atoms: C24_32  and  O8_33 
ROOT
HETATM    1  C15 UNL     1      10.755   9.401  13.671  1.00  0.00     0.034 C 
HETATM    2  C26 UNL     1      11.727   8.179  14.028  1.00  0.00     0.022 C 
HETATM    3  C27 UNL     1      12.172   8.963  15.243  1.00  0.00     0.045 C 
HETATM    4  C28 UNL     1      11.787  10.192  14.347  1.00  0.00     0.102 A 
HETATM    5  C29 UNL     1      11.644  11.402  15.062  1.00  0.00     0.019 A 
HETATM    6  C30 UNL     1      12.701  12.219  14.802  1.00  0.00     0.081 A 
HETATM    7  C31 UNL     1      13.571  11.549  13.866  1.00  0.00     0.283 A 
HETATM    8  O9  UNL     1      14.665  12.035  13.420  1.00  0.00    -0.260 OA
HETATM    9  O10 UNL     1      13.010  10.347  13.569  1.00  0.00    -0.301 OA
ENDROOT
BRANCH   1  10
HETATM   10  C3  UNL     1       9.404   9.103  14.124  1.00  0.00     0.048 C 
BRANCH  10  11
HETATM   11  C2  UNL     1       9.062   8.747  15.523  1.00  0.00     0.176 C 
BRANCH  11  12
HETATM   12  O1  UNL     1       8.830   9.687  16.451  1.00  0.00    -0.395 OA
HETATM   13  C1  UNL     1       8.014  10.726  16.057  1.00  0.00     0.201 C 
ENDBRANCH  11  12
ENDBRANCH  10  11
BRANCH  10  14
HETATM   14  C4  UNL     1       8.691   7.987  13.359  1.00  0.00    -0.018 C 
HETATM   15  C5  UNL     1       8.193   6.960  14.028  1.00  0.00     0.008 C 
BRANCH  15  16
HETATM   16  C6  UNL     1       7.507   5.875  13.374  1.00  0.00    -0.031 A 
HETATM   17  C7  UNL     1       7.032   4.764  14.042  1.00  0.00     0.051 A 
HETATM   18  C8  UNL     1       6.387   3.730  13.354  1.00  0.00     0.105 A 
HETATM   19  C10 UNL     1       6.238   3.850  11.984  1.00  0.00     0.135 A 
HETATM   20  C12 UNL     1       6.715   4.959  11.330  1.00  0.00     0.105 A 
HETATM   21  C14 UNL     1       7.340   5.957  12.015  1.00  0.00     0.051 A 
BRANCH  18  22
HETATM   22  O2  UNL     1       5.908   2.622  13.983  1.00  0.00    -0.353 OA
HETATM   23  C9  UNL     1       6.696   1.601  14.588  1.00  0.00     0.210 C 
ENDBRANCH  18  22
BRANCH  19  24
HETATM   24  O3  UNL     1       5.587   2.802  11.311  1.00  0.00    -0.351 OA
HETATM   25  C11 UNL     1       6.438   1.761  10.852  1.00  0.00     0.210 C 
ENDBRANCH  19  24
BRANCH  20  26
HETATM   26  O4  UNL     1       6.530   5.016   9.945  1.00  0.00    -0.353 OA
HETATM   27  C13 UNL     1       6.945   6.157   9.218  1.00  0.00     0.210 C 
ENDBRANCH  20  26
ENDBRANCH  15  16
ENDBRANCH  10  14
ENDBRANCH   1  10
BRANCH   1  28
HETATM   28  C16 UNL     1      10.826   9.583  12.175  1.00  0.00    -0.008 A 
HETATM   29  C17 UNL     1      11.523   8.529  11.526  1.00  0.00     0.048 A 
HETATM   30  C18 UNL     1      11.875   8.566  10.200  1.00  0.00     0.084 A 
HETATM   31  C20 UNL     1      11.544   9.675   9.456  1.00  0.00     0.070 A 
HETATM   32  C21 UNL     1      11.743  10.029   8.133  1.00  0.00     0.197 A 
HETATM   33  C23 UNL     1      10.879  10.706  10.034  1.00  0.00     0.038 A 
HETATM   34  O7  UNL     1      11.216  11.220   7.939  1.00  0.00    -0.299 OA
HETATM   35  C22 UNL     1      10.682  11.665   9.066  1.00  0.00     0.160 A 
HETATM   36  C24 UNL     1      10.529  10.627  11.406  1.00  0.00     0.088 A 
BRANCH  30  37
HETATM   37  O5  UNL     1      12.545   7.541   9.589  1.00  0.00    -0.355 OA
HETATM   38  C19 UNL     1      12.364   6.218   9.973  1.00  0.00     0.210 C 
ENDBRANCH  30  37
BRANCH  32  39
HETATM   39  O6  UNL     1      12.400   9.219   7.206  1.00  0.00    -0.340 OA
ATOM     40  H6  UNL     1      11.950   8.670   6.575  1.00  0.00     0.220 HD
ENDBRANCH  32  39
BRANCH  36  41
HETATM   41  O8  UNL     1       9.849  11.732  11.829  1.00  0.00    -0.354 OA
HETATM   42  C25 UNL     1       8.474  11.886  11.986  1.00  0.00     0.210 C 
ENDBRANCH  36  41
ENDBRANCH   1  28
TORSDOF 12
ENDMDL
MODEL 5
REMARK VINA RESULT: -7.377325199     11.951     16.734
REMARK  12 active torsions:
REMARK  status: ('A' for Active; 'I' for Inactive)
REMARK    1  A    between atoms: O1_2  and  C2_3 
REMARK    2  A    between atoms: C2_3  and  C3_4 
REMARK    3  A    between atoms: C3_4  and  C4_5 
REMARK    4  A    between atoms: C3_4  and  C15_19 
REMARK    5  A    between atoms: C5_6  and  C6_7 
REMARK    6  A    between atoms: C8_9  and  O2_10 
REMARK    7  A    between atoms: C10_12  and  O3_13 
REMARK    8  A    between atoms: C12_15  and  O4_16 
REMARK    9  A    between atoms: C15_19  and  C16_20 
REMARK   10  A    between atoms: C18_22  and  O5_23 
REMARK   11  A    between atoms: C21_26  and  O6_27 
REMARK   12  A    between atoms: C24_32  and  O8_33 
ROOT
HETATM    1  C15 UNL     1       7.233   7.019  12.257  1.00  0.00     0.034 C 
HETATM    2  C26 UNL     1       5.988   7.983  12.551  1.00  0.00     0.022 C 
HETATM    3  C27 UNL     1       5.703   7.974  11.065  1.00  0.00     0.045 C 
HETATM    4  C28 UNL     1       7.248   7.721  10.970  1.00  0.00     0.102 A 
HETATM    5  C29 UNL     1       7.676   7.245   9.710  1.00  0.00     0.019 A 
HETATM    6  C30 UNL     1       8.333   8.232   9.043  1.00  0.00     0.081 A 
HETATM    7  C31 UNL     1       8.369   9.402   9.887  1.00  0.00     0.283 A 
HETATM    8  O9  UNL     1       8.903  10.516   9.558  1.00  0.00    -0.260 OA
HETATM    9  O10 UNL     1       7.746   9.089  11.054  1.00  0.00    -0.301 OA
ENDROOT
BRANCH   1  10
HETATM   10  C3  UNL     1       6.862   5.639  12.528  1.00  0.00     0.048 C 
BRANCH  10  11
HETATM   11  C2  UNL     1       7.422   4.837  13.644  1.00  0.00     0.176 C 
BRANCH  11  12
HETATM   12  O1  UNL     1       6.687   3.922  14.290  1.00  0.00    -0.395 OA
HETATM   13  C1  UNL     1       7.115   2.618  14.169  1.00  0.00     0.201 C 
ENDBRANCH  11  12
ENDBRANCH  10  11
BRANCH  10  14
HETATM   14  C4  UNL     1       7.046   4.672  11.357  1.00  0.00    -0.018 C 
HETATM   15  C5  UNL     1       6.062   3.848  11.037  1.00  0.00     0.008 C 
BRANCH  15  16
HETATM   16  C6  UNL     1       6.164   2.913   9.945  1.00  0.00    -0.031 A 
HETATM   17  C7  UNL     1       6.214   3.296   8.620  1.00  0.00     0.051 A 
HETATM   18  C8  UNL     1       6.298   2.345   7.597  1.00  0.00     0.105 A 
HETATM   19  C10 UNL     1       6.328   1.007   7.949  1.00  0.00     0.135 A 
HETATM   20  C12 UNL     1       6.278   0.638   9.271  1.00  0.00     0.105 A 
HETATM   21  C14 UNL     1       6.198   1.577  10.254  1.00  0.00     0.051 A 
BRANCH  18  22
HETATM   22  O2  UNL     1       6.347   2.689   6.281  1.00  0.00    -0.353 OA
HETATM   23  C9  UNL     1       5.927   3.934   5.730  1.00  0.00     0.210 C 
ENDBRANCH  18  22
BRANCH  19  24
HETATM   24  O3  UNL     1       6.413   0.067   6.909  1.00  0.00    -0.351 OA
HETATM   25  C11 UNL     1       5.173  -0.498   6.505  1.00  0.00     0.210 C 
ENDBRANCH  19  24
BRANCH  20  26
HETATM   26  O4  UNL     1       6.314  -0.731   9.557  1.00  0.00    -0.353 OA
HETATM   27  C13 UNL     1       7.538  -1.353   9.901  1.00  0.00     0.210 C 
ENDBRANCH  20  26
ENDBRANCH  15  16
ENDBRANCH  10  14
ENDBRANCH   1  10
BRANCH   1  28
HETATM   28  C16 UNL     1       8.359   7.491  13.143  1.00  0.00    -0.008 A 
HETATM   29  C17 UNL     1       7.916   8.350  14.184  1.00  0.00     0.048 A 
HETATM   30  C18 UNL     1       8.773   9.047  14.999  1.00  0.00     0.084 A 
HETATM   31  C20 UNL     1      10.128   8.916  14.803  1.00  0.00     0.070 A 
HETATM   32  C21 UNL     1      11.238   9.462  15.425  1.00  0.00     0.197 A 
HETATM   33  C23 UNL     1      10.597   8.107  13.821  1.00  0.00     0.038 A 
HETATM   34  O7  UNL     1      12.316   8.992  14.834  1.00  0.00    -0.299 OA
HETATM   35  C22 UNL     1      11.972   8.168  13.857  1.00  0.00     0.160 A 
HETATM   36  C24 UNL     1       9.679   7.400  13.003  1.00  0.00     0.088 A 
BRANCH  30  37
HETATM   37  O5  UNL     1       8.329   9.870  15.998  1.00  0.00    -0.355 OA
HETATM   38  C19 UNL     1       7.912  11.171  15.742  1.00  0.00     0.210 C 
ENDBRANCH  30  37
BRANCH  32  39
HETATM   39  O6  UNL     1      11.164  10.354  16.495  1.00  0.00    -0.340 OA
ATOM     40  H6  UNL     1      11.844  10.984  16.703  1.00  0.00     0.220 HD
ENDBRANCH  32  39
BRANCH  36  41
HETATM   41  O8  UNL     1      10.308   6.617  12.079  1.00  0.00    -0.354 OA
HETATM   42  C25 UNL     1      11.091   7.022  11.001  1.00  0.00     0.210 C 
ENDBRANCH  36  41
ENDBRANCH   1  28
TORSDOF 12
ENDMDL
