MODEL 1
REMARK VINA RESULT: -7.361548851      0.000      0.000
REMARK  12 active torsions:
REMARK  status: ('A' for Active; 'I' for Inactive)
REMARK    1  A    between atoms: O1_2  and  C2_3 
REMARK    2  A    between atoms: C4_5  and  O2_6 
REMARK    3  A    between atoms: C5_8  and  C6_9 
REMARK    4  A    between atoms: C7_11  and  C8_12 
REMARK    5  A    between atoms: C9_13  and  C10_14 
REMARK    6  A    between atoms: C10_14  and  C11_15 
REMARK    7  A    between atoms: C17_24  and  C18_25 
REMARK    8  A    between atoms: C19_26  and  C20_27 
REMARK    9  A    between atoms: C22_29  and  O6_30 
REMARK   10  A    between atoms: C24_32  and  O7_33 
REMARK   11  A    between atoms: C26_35  and  O8_36 
REMARK   12  A    between atoms: C29_39  and  O9_40 
ROOT
HETATM    1  C11 UNL     1       4.098  12.025  11.197  1.00  0.00     0.127 C 
HETATM    2  C12 UNL     1       3.041  12.103  12.179  1.00  0.00     0.059 C 
HETATM    3  N1  UNL     1       2.190  12.148  12.961  1.00  0.00    -0.197 NA
ENDROOT
BRANCH   1   4
HETATM    4  C10 UNL     1       5.396  12.646  11.728  1.00  0.00     0.041 C 
BRANCH   4   5
HETATM    5  C9  UNL     1       6.393  11.589  12.024  1.00  0.00    -0.026 C 
HETATM    6  C8  UNL     1       6.552  10.553  11.210  1.00  0.00     0.018 C 
BRANCH   6   7
HETATM    7  C7  UNL     1       7.581   9.534  11.588  1.00  0.00     0.176 C 
HETATM    8  O3  UNL     1       7.816   9.577  12.910  1.00  0.00    -0.354 OA
HETATM    9  C6  UNL     1       8.277   8.254  13.401  1.00  0.00     0.170 C 
HETATM   10  C17 UNL     1       8.253   7.463  12.181  1.00  0.00     0.056 C 
HETATM   11  C15 UNL     1       7.081   8.129  11.388  1.00  0.00     0.032 C 
HETATM   12  C14 UNL     1       7.179   7.928   9.930  1.00  0.00     0.192 C 
HETATM   13  C16 UNL     1       5.768   7.912  12.002  1.00  0.00     0.022 C 
HETATM   14  O5  UNL     1       8.340   8.616   9.594  1.00  0.00    -0.318 OA
HETATM   15  C13 UNL     1       8.674   9.543  10.607  1.00  0.00     0.298 C 
HETATM   16  O4  UNL     1       9.753  10.169  10.514  1.00  0.00    -0.261 OA
BRANCH   9  17
HETATM   17  C5  UNL     1       9.495   8.654  14.094  1.00  0.00     0.038 A 
HETATM   18  C4  UNL     1      10.749   8.397  13.606  1.00  0.00     0.080 A 
HETATM   19  C3  UNL     1      11.937   8.635  14.310  1.00  0.00     0.074 A 
HETATM   20  C2  UNL     1      11.892   9.152  15.558  1.00  0.00     0.073 A 
HETATM   21  C31 UNL     1      10.676   9.425  16.097  1.00  0.00     0.074 A 
HETATM   22  C29 UNL     1       9.492   9.182  15.389  1.00  0.00     0.082 A 
BRANCH  18  23
HETATM   23  O2  UNL     1      10.930   7.879  12.367  1.00  0.00    -0.360 OA
ATOM     24  H2  UNL     1      10.377   8.265  11.698  1.00  0.00     0.217 HD
ENDBRANCH  18  23
BRANCH  20  25
HETATM   25  O1  UNL     1      13.027   9.411  16.297  1.00  0.00    -0.356 OA
HETATM   26  C1  UNL     1      13.097  10.023  17.543  1.00  0.00     0.210 C 
ENDBRANCH  20  25
BRANCH  22  27
HETATM   27  O9  UNL     1       8.350   9.498  16.093  1.00  0.00    -0.355 OA
HETATM   28  C30 UNL     1       7.868  10.781  16.302  1.00  0.00     0.210 C 
ENDBRANCH  22  27
ENDBRANCH   9  17
BRANCH  10  29
HETATM   29  C18 UNL     1       7.840   6.053  12.165  1.00  0.00    -0.017 C 
HETATM   30  C19 UNL     1       7.737   5.156  13.069  1.00  0.00     0.008 C 
BRANCH  30  31
HETATM   31  C20 UNL     1       7.296   3.789  12.804  1.00  0.00    -0.031 A 
HETATM   32  C21 UNL     1       6.657   3.497  11.589  1.00  0.00     0.051 A 
HETATM   33  C22 UNL     1       6.216   2.249  11.239  1.00  0.00     0.105 A 
HETATM   34  C24 UNL     1       6.409   1.202  12.136  1.00  0.00     0.135 A 
HETATM   35  C26 UNL     1       7.034   1.464  13.338  1.00  0.00     0.105 A 
HETATM   36  C28 UNL     1       7.464   2.729  13.653  1.00  0.00     0.051 A 
BRANCH  33  37
HETATM   37  O6  UNL     1       5.585   1.954  10.044  1.00  0.00    -0.353 OA
HETATM   38  C23 UNL     1       6.109   2.341   8.788  1.00  0.00     0.210 C 
ENDBRANCH  33  37
BRANCH  34  39
HETATM   39  O7  UNL     1       5.973  -0.048  11.800  1.00  0.00    -0.351 OA
HETATM   40  C25 UNL     1       6.479  -0.866  10.777  1.00  0.00     0.210 C 
ENDBRANCH  34  39
BRANCH  35  41
HETATM   41  O8  UNL     1       7.219   0.400  14.223  1.00  0.00    -0.353 OA
HETATM   42  C27 UNL     1       7.018   0.487  15.602  1.00  0.00     0.210 C 
ENDBRANCH  35  41
ENDBRANCH  30  31
ENDBRANCH  10  29
ENDBRANCH   6   7
ENDBRANCH   4   5
ENDBRANCH   1   4
TORSDOF 12
ENDMDL
MODEL 2
REMARK VINA RESULT: -6.967974878      4.100     10.327
REMARK  12 active torsions:
REMARK  status: ('A' for Active; 'I' for Inactive)
REMARK    1  A    between atoms: O1_2  and  C2_3 
REMARK    2  A    between atoms: C4_5  and  O2_6 
REMARK    3  A    between atoms: C5_8  and  C6_9 
REMARK    4  A    between atoms: C7_11  and  C8_12 
REMARK    5  A    between atoms: C9_13  and  C10_14 
REMARK    6  A    between atoms: C10_14  and  C11_15 
REMARK    7  A    between atoms: C17_24  and  C18_25 
REMARK    8  A    between atoms: C19_26  and  C20_27 
REMARK    9  A    between atoms: C22_29  and  O6_30 
REMARK   10  A    between atoms: C24_32  and  O7_33 
REMARK   11  A    between atoms: C26_35  and  O8_36 
REMARK   12  A    between atoms: C29_39  and  O9_40 
ROOT
HETATM    1  C11 UNL     1       6.948   0.181  17.428  1.00  0.00     0.127 C 
HETATM    2  C12 UNL     1       8.268  -0.364  17.214  1.00  0.00     0.059 C 
HETATM    3  N1  UNL     1       9.325  -0.807  17.060  1.00  0.00    -0.197 NA
ENDROOT
BRANCH   1   4
HETATM    4  C10 UNL     1       6.011  -0.156  16.261  1.00  0.00     0.041 C 
BRANCH   4   5
HETATM    5  C9  UNL     1       6.573   0.348  14.984  1.00  0.00    -0.026 C 
HETATM    6  C8  UNL     1       5.783   0.649  13.962  1.00  0.00     0.018 C 
BRANCH   6   7
HETATM    7  C7  UNL     1       6.437   1.150  12.712  1.00  0.00     0.176 C 
HETATM    8  O3  UNL     1       5.840   0.621  11.631  1.00  0.00    -0.354 OA
HETATM    9  C6  UNL     1       5.984   1.524  10.461  1.00  0.00     0.170 C 
HETATM   10  C17 UNL     1       6.727   2.634  11.037  1.00  0.00     0.056 C 
HETATM   11  C15 UNL     1       6.222   2.627  12.518  1.00  0.00     0.032 C 
HETATM   12  C14 UNL     1       7.175   3.244  13.458  1.00  0.00     0.192 C 
HETATM   13  C16 UNL     1       4.813   3.008  12.652  1.00  0.00     0.022 C 
HETATM   14  O5  UNL     1       8.274   2.393  13.399  1.00  0.00    -0.318 OA
HETATM   15  C13 UNL     1       7.896   1.136  12.874  1.00  0.00     0.298 C 
HETATM   16  O4  UNL     1       8.788   0.289  12.651  1.00  0.00    -0.261 OA
BRANCH   9  17
HETATM   17  C5  UNL     1       6.533   0.589   9.488  1.00  0.00     0.038 A 
HETATM   18  C4  UNL     1       6.937  -0.678   9.817  1.00  0.00     0.080 A 
HETATM   19  C3  UNL     1       7.601  -1.549   8.943  1.00  0.00     0.074 A 
HETATM   20  C2  UNL     1       7.884  -1.157   7.681  1.00  0.00     0.073 A 
HETATM   21  C31 UNL     1       7.510   0.092   7.298  1.00  0.00     0.074 A 
HETATM   22  C29 UNL     1       6.849   0.958   8.177  1.00  0.00     0.082 A 
BRANCH  18  23
HETATM   23  O2  UNL     1       6.712  -1.191  11.050  1.00  0.00    -0.360 OA
ATOM     24  H2  UNL     1       6.616  -2.136  11.069  1.00  0.00     0.217 HD
ENDBRANCH  18  23
BRANCH  20  25
HETATM   25  O1  UNL     1       8.531  -1.972   6.776  1.00  0.00    -0.356 OA
HETATM   26  C1  UNL     1       7.946  -2.805   5.829  1.00  0.00     0.210 C 
ENDBRANCH  20  25
BRANCH  22  27
HETATM   27  O9  UNL     1       6.563   2.191   7.630  1.00  0.00    -0.355 OA
HETATM   28  C30 UNL     1       6.089   2.405   6.344  1.00  0.00     0.210 C 
ENDBRANCH  22  27
ENDBRANCH   9  17
BRANCH  10  29
HETATM   29  C18 UNL     1       6.475   4.032  10.660  1.00  0.00    -0.017 C 
HETATM   30  C19 UNL     1       6.794   4.740   9.645  1.00  0.00     0.008 C 
BRANCH  30  31
HETATM   31  C20 UNL     1       6.421   6.143   9.490  1.00  0.00    -0.031 A 
HETATM   32  C21 UNL     1       6.371   6.969  10.623  1.00  0.00     0.051 A 
HETATM   33  C22 UNL     1       6.044   8.299  10.586  1.00  0.00     0.105 A 
HETATM   34  C24 UNL     1       5.742   8.872   9.354  1.00  0.00     0.135 A 
HETATM   35  C26 UNL     1       5.785   8.081   8.224  1.00  0.00     0.105 A 
HETATM   36  C28 UNL     1       6.118   6.751   8.303  1.00  0.00     0.051 A 
BRANCH  33  37
HETATM   37  O6  UNL     1       5.992   9.118  11.699  1.00  0.00    -0.353 OA
HETATM   38  C23 UNL     1       7.096   9.304  12.563  1.00  0.00     0.210 C 
ENDBRANCH  33  37
BRANCH  34  39
HETATM   39  O7  UNL     1       5.414  10.197   9.303  1.00  0.00    -0.351 OA
HETATM   40  C25 UNL     1       6.285  11.267   9.040  1.00  0.00     0.210 C 
ENDBRANCH  34  39
BRANCH  35  41
HETATM   41  O8  UNL     1       5.480   8.675   6.999  1.00  0.00    -0.353 OA
HETATM   42  C27 UNL     1       5.318   7.969   5.806  1.00  0.00     0.210 C 
ENDBRANCH  35  41
ENDBRANCH  30  31
ENDBRANCH  10  29
ENDBRANCH   6   7
ENDBRANCH   4   5
ENDBRANCH   1   4
TORSDOF 12
ENDMDL
MODEL 3
REMARK VINA RESULT: -6.947220854      1.234      2.515
REMARK  12 active torsions:
REMARK  status: ('A' for Active; 'I' for Inactive)
REMARK    1  A    between atoms: O1_2  and  C2_3 
REMARK    2  A    between atoms: C4_5  and  O2_6 
REMARK    3  A    between atoms: C5_8  and  C6_9 
REMARK    4  A    between atoms: C7_11  and  C8_12 
REMARK    5  A    between atoms: C9_13  and  C10_14 
REMARK    6  A    between atoms: C10_14  and  C11_15 
REMARK    7  A    between atoms: C17_24  and  C18_25 
REMARK    8  A    between atoms: C19_26  and  C20_27 
REMARK    9  A    between atoms: C22_29  and  O6_30 
REMARK   10  A    between atoms: C24_32  and  O7_33 
REMARK   11  A    between atoms: C26_35  and  O8_36 
REMARK   12  A    between atoms: C29_39  and  O9_40 
ROOT
HETATM    1  C11 UNL     1       3.727  10.501  10.179  1.00  0.00     0.127 C 
HETATM    2  C12 UNL     1       2.993  10.170  11.378  1.00  0.00     0.059 C 
HETATM    3  N1  UNL     1       2.403   9.887  12.332  1.00  0.00    -0.197 NA
ENDROOT
BRANCH   1   4
HETATM    4  C10 UNL     1       5.033  11.233  10.511  1.00  0.00     0.041 C 
BRANCH   4   5
HETATM    5  C9  UNL     1       6.014  10.296  11.112  1.00  0.00    -0.026 C 
HETATM    6  C8  UNL     1       6.611   9.368  10.377  1.00  0.00     0.018 C 
BRANCH   6   7
HETATM    7  C7  UNL     1       7.586   8.466  11.068  1.00  0.00     0.176 C 
HETATM    8  O3  UNL     1       7.771   8.865  12.337  1.00  0.00    -0.354 OA
HETATM    9  C6  UNL     1       8.163   7.717  13.193  1.00  0.00     0.170 C 
HETATM   10  C17 UNL     1       8.156   6.622  12.237  1.00  0.00     0.056 C 
HETATM   11  C15 UNL     1       7.041   7.073  11.237  1.00  0.00     0.032 C 
HETATM   12  C14 UNL     1       7.188   6.476   9.896  1.00  0.00     0.192 C 
HETATM   13  C16 UNL     1       5.698   7.067  11.824  1.00  0.00     0.022 C 
HETATM   14  O5  UNL     1       8.386   7.016   9.439  1.00  0.00    -0.318 OA
HETATM   15  C13 UNL     1       8.716   8.177  10.175  1.00  0.00     0.298 C 
HETATM   16  O4  UNL     1       9.819   8.725   9.965  1.00  0.00    -0.261 OA
BRANCH   9  17
HETATM   17  C5  UNL     1       9.367   8.261  13.806  1.00  0.00     0.038 A 
HETATM   18  C4  UNL     1      10.631   7.904  13.414  1.00  0.00     0.080 A 
HETATM   19  C3  UNL     1      11.804   8.293  14.073  1.00  0.00     0.074 A 
HETATM   20  C2  UNL     1      11.735   9.072  15.176  1.00  0.00     0.073 A 
HETATM   21  C31 UNL     1      10.509   9.455  15.615  1.00  0.00     0.074 A 
HETATM   22  C29 UNL     1       9.339   9.061  14.953  1.00  0.00     0.082 A 
BRANCH  18  23
HETATM   23  O2  UNL     1      10.836   7.127  12.323  1.00  0.00    -0.360 OA
ATOM     24  H2  UNL     1      10.068   6.648  12.035  1.00  0.00     0.217 HD
ENDBRANCH  18  23
BRANCH  20  25
HETATM   25  O1  UNL     1      12.856   9.488  15.863  1.00  0.00    -0.356 OA
HETATM   26  C1  UNL     1      12.901  10.050  17.134  1.00  0.00     0.210 C 
ENDBRANCH  20  25
BRANCH  22  27
HETATM   27  O9  UNL     1       8.184   9.523  15.546  1.00  0.00    -0.355 OA
HETATM   28  C30 UNL     1       7.963  10.828  15.961  1.00  0.00     0.210 C 
ENDBRANCH  22  27
ENDBRANCH   9  17
BRANCH  10  29
HETATM   29  C18 UNL     1       7.692   5.272  12.587  1.00  0.00    -0.017 C 
HETATM   30  C19 UNL     1       8.169   4.341  13.321  1.00  0.00     0.008 C 
BRANCH  30  31
HETATM   31  C20 UNL     1       7.510   3.053  13.520  1.00  0.00    -0.031 A 
HETATM   32  C21 UNL     1       7.379   2.542  14.820  1.00  0.00     0.051 A 
HETATM   33  C22 UNL     1       6.770   1.351  15.115  1.00  0.00     0.105 A 
HETATM   34  C24 UNL     1       6.247   0.598  14.069  1.00  0.00     0.135 A 
HETATM   35  C26 UNL     1       6.363   1.079  12.780  1.00  0.00     0.105 A 
HETATM   36  C28 UNL     1       6.981   2.278  12.525  1.00  0.00     0.051 A 
BRANCH  33  37
HETATM   37  O6  UNL     1       6.637   0.842  16.394  1.00  0.00    -0.353 OA
HETATM   38  C23 UNL     1       7.687   0.170  17.062  1.00  0.00     0.210 C 
ENDBRANCH  33  37
BRANCH  34  39
HETATM   39  O7  UNL     1       5.637  -0.592  14.349  1.00  0.00    -0.351 OA
HETATM   40  C25 UNL     1       4.599  -0.806  15.270  1.00  0.00     0.210 C 
ENDBRANCH  34  39
BRANCH  35  41
HETATM   41  O8  UNL     1       5.831   0.308  11.745  1.00  0.00    -0.353 OA
HETATM   42  C27 UNL     1       6.524  -0.016  10.577  1.00  0.00     0.210 C 
ENDBRANCH  35  41
ENDBRANCH  30  31
ENDBRANCH  10  29
ENDBRANCH   6   7
ENDBRANCH   4   5
ENDBRANCH   1   4
TORSDOF 12
ENDMDL
MODEL 4
REMARK VINA RESULT: -6.866755542      4.243     10.113
REMARK  12 active torsions:
REMARK  status: ('A' for Active; 'I' for Inactive)
REMARK    1  A    between atoms: O1_2  and  C2_3 
REMARK    2  A    between atoms: C4_5  and  O2_6 
REMARK    3  A    between atoms: C5_8  and  C6_9 
REMARK    4  A    between atoms: C7_11  and  C8_12 
REMARK    5  A    between atoms: C9_13  and  C10_14 
REMARK    6  A    between atoms: C10_14  and  C11_15 
REMARK    7  A    between atoms: C17_24  and  C18_25 
REMARK    8  A    between atoms: C19_26  and  C20_27 
REMARK    9  A    between atoms: C22_29  and  O6_30 
REMARK   10  A    between atoms: C24_32  and  O7_33 
REMARK   11  A    between atoms: C26_35  and  O8_36 
REMARK   12  A    between atoms: C29_39  and  O9_40 
ROOT
HETATM    1  C11 UNL     1       6.983   0.109  17.373  1.00  0.00     0.127 C 
HETATM    2  C12 UNL     1       8.311  -0.401  17.128  1.00  0.00     0.059 C 
HETATM    3  N1  UNL     1       9.376  -0.816  16.950  1.00  0.00    -0.197 NA
ENDROOT
BRANCH   1   4
HETATM    4  C10 UNL     1       6.039  -0.216  16.209  1.00  0.00     0.041 C 
BRANCH   4   5
HETATM    5  C9  UNL     1       6.593   0.298  14.933  1.00  0.00    -0.026 C 
HETATM    6  C8  UNL     1       5.794   0.690  13.949  1.00  0.00     0.018 C 
BRANCH   6   7
HETATM    7  C7  UNL     1       6.441   1.194  12.697  1.00  0.00     0.176 C 
HETATM    8  O3  UNL     1       5.839   0.669  11.618  1.00  0.00    -0.354 OA
HETATM    9  C6  UNL     1       5.976   1.575  10.450  1.00  0.00     0.170 C 
HETATM   10  C17 UNL     1       6.722   2.684  11.026  1.00  0.00     0.056 C 
HETATM   11  C15 UNL     1       6.225   2.672  12.509  1.00  0.00     0.032 C 
HETATM   12  C14 UNL     1       7.183   3.287  13.447  1.00  0.00     0.192 C 
HETATM   13  C16 UNL     1       4.817   3.051  12.652  1.00  0.00     0.022 C 
HETATM   14  O5  UNL     1       8.282   2.436  13.379  1.00  0.00    -0.318 OA
HETATM   15  C13 UNL     1       7.902   1.181  12.852  1.00  0.00     0.298 C 
HETATM   16  O4  UNL     1       8.792   0.334  12.622  1.00  0.00    -0.261 OA
BRANCH   9  17
HETATM   17  C5  UNL     1       6.521   0.643   9.472  1.00  0.00     0.038 A 
HETATM   18  C4  UNL     1       6.959  -0.613   9.801  1.00  0.00     0.080 A 
HETATM   19  C3  UNL     1       7.619  -1.477   8.918  1.00  0.00     0.074 A 
HETATM   20  C2  UNL     1       7.863  -1.090   7.646  1.00  0.00     0.073 A 
HETATM   21  C31 UNL     1       7.454   0.147   7.262  1.00  0.00     0.074 A 
HETATM   22  C29 UNL     1       6.797   1.008   8.150  1.00  0.00     0.082 A 
BRANCH  18  23
HETATM   23  O2  UNL     1       6.775  -1.120  11.043  1.00  0.00    -0.360 OA
ATOM     24  H2  UNL     1       5.958  -0.862  11.454  1.00  0.00     0.217 HD
ENDBRANCH  18  23
BRANCH  20  25
HETATM   25  O1  UNL     1       8.505  -1.899   6.732  1.00  0.00    -0.356 OA
HETATM   26  C1  UNL     1       9.876  -2.048   6.559  1.00  0.00     0.210 C 
ENDBRANCH  20  25
BRANCH  22  27
HETATM   27  O9  UNL     1       6.472   2.230   7.600  1.00  0.00    -0.355 OA
HETATM   28  C30 UNL     1       6.010   2.428   6.308  1.00  0.00     0.210 C 
ENDBRANCH  22  27
ENDBRANCH   9  17
BRANCH  10  29
HETATM   29  C18 UNL     1       6.467   4.082  10.654  1.00  0.00    -0.017 C 
HETATM   30  C19 UNL     1       6.835   4.812   9.671  1.00  0.00     0.008 C 
BRANCH  30  31
HETATM   31  C20 UNL     1       6.446   6.211   9.515  1.00  0.00    -0.031 A 
HETATM   32  C21 UNL     1       6.139   6.700   8.236  1.00  0.00     0.051 A 
HETATM   33  C22 UNL     1       5.754   7.990   7.983  1.00  0.00     0.105 A 
HETATM   34  C24 UNL     1       5.658   8.874   9.054  1.00  0.00     0.135 A 
HETATM   35  C26 UNL     1       5.954   8.417  10.322  1.00  0.00     0.105 A 
HETATM   36  C28 UNL     1       6.336   7.116  10.535  1.00  0.00     0.051 A 
BRANCH  33  37
HETATM   37  O6  UNL     1       5.452   8.478   6.726  1.00  0.00    -0.353 OA
HETATM   38  C23 UNL     1       6.113   8.039   5.555  1.00  0.00     0.210 C 
ENDBRANCH  33  37
BRANCH  34  39
HETATM   39  O7  UNL     1       5.275  10.163   8.816  1.00  0.00    -0.351 OA
HETATM   40  C25 UNL     1       6.121  11.259   8.580  1.00  0.00     0.210 C 
ENDBRANCH  34  39
BRANCH  35  41
HETATM   41  O8  UNL     1       5.850   9.320  11.382  1.00  0.00    -0.353 OA
HETATM   42  C27 UNL     1       6.946   9.864  12.055  1.00  0.00     0.210 C 
ENDBRANCH  35  41
ENDBRANCH  30  31
ENDBRANCH  10  29
ENDBRANCH   6   7
ENDBRANCH   4   5
ENDBRANCH   1   4
TORSDOF 12
ENDMDL
MODEL 5
REMARK VINA RESULT: -6.852239044      1.217      1.593
REMARK  12 active torsions:
REMARK  status: ('A' for Active; 'I' for Inactive)
REMARK    1  A    between atoms: O1_2  and  C2_3 
REMARK    2  A    between atoms: C4_5  and  O2_6 
REMARK    3  A    between atoms: C5_8  and  C6_9 
REMARK    4  A    between atoms: C7_11  and  C8_12 
REMARK    5  A    between atoms: C9_13  and  C10_14 
REMARK    6  A    between atoms: C10_14  and  C11_15 
REMARK    7  A    between atoms: C17_24  and  C18_25 
REMARK    8  A    between atoms: C19_26  and  C20_27 
REMARK    9  A    between atoms: C22_29  and  O6_30 
REMARK   10  A    between atoms: C24_32  and  O7_33 
REMARK   11  A    between atoms: C26_35  and  O8_36 
REMARK   12  A    between atoms: C29_39  and  O9_40 
ROOT
HETATM    1  C11 UNL     1       3.798  10.610  10.048  1.00  0.00     0.127 C 
HETATM    2  C12 UNL     1       3.056  10.277  11.241  1.00  0.00     0.059 C 
HETATM    3  N1  UNL     1       2.459   9.992  12.190  1.00  0.00    -0.197 NA
ENDROOT
BRANCH   1   4
HETATM    4  C10 UNL     1       5.097  11.352  10.390  1.00  0.00     0.041 C 
BRANCH   4   5
HETATM    5  C9  UNL     1       6.064  10.432  11.037  1.00  0.00    -0.026 C 
HETATM    6  C8  UNL     1       6.551   9.385  10.385  1.00  0.00     0.018 C 
BRANCH   6   7
HETATM    7  C7  UNL     1       7.521   8.510  11.117  1.00  0.00     0.176 C 
HETATM    8  O3  UNL     1       7.687   8.949  12.375  1.00  0.00    -0.354 OA
HETATM    9  C6  UNL     1       8.072   7.831  13.272  1.00  0.00     0.170 C 
HETATM   10  C17 UNL     1       8.084   6.706  12.350  1.00  0.00     0.056 C 
HETATM   11  C15 UNL     1       6.981   7.120  11.321  1.00  0.00     0.032 C 
HETATM   12  C14 UNL     1       7.149   6.483  10.002  1.00  0.00     0.192 C 
HETATM   13  C16 UNL     1       5.630   7.125  11.890  1.00  0.00     0.022 C 
HETATM   14  O5  UNL     1       8.351   7.015   9.545  1.00  0.00    -0.318 OA
HETATM   15  C13 UNL     1       8.665   8.200  10.248  1.00  0.00     0.298 C 
HETATM   16  O4  UNL     1       9.768   8.747  10.037  1.00  0.00    -0.261 OA
BRANCH   9  17
HETATM   17  C5  UNL     1       9.265   8.400  13.884  1.00  0.00     0.038 A 
HETATM   18  C4  UNL     1      10.536   8.032  13.526  1.00  0.00     0.080 A 
HETATM   19  C3  UNL     1      11.697   8.448  14.190  1.00  0.00     0.074 A 
HETATM   20  C2  UNL     1      11.609   9.267  15.262  1.00  0.00     0.073 A 
HETATM   21  C31 UNL     1      10.374   9.663  15.667  1.00  0.00     0.074 A 
HETATM   22  C29 UNL     1       9.217   9.242  15.000  1.00  0.00     0.082 A 
BRANCH  18  23
HETATM   23  O2  UNL     1      10.761   7.216  12.468  1.00  0.00    -0.360 OA
ATOM     24  H2  UNL     1      10.380   6.350  12.555  1.00  0.00     0.217 HD
ENDBRANCH  18  23
BRANCH  20  25
HETATM   25  O1  UNL     1      12.717   9.711  15.952  1.00  0.00    -0.356 OA
HETATM   26  C1  UNL     1      12.796  10.020  17.305  1.00  0.00     0.210 C 
ENDBRANCH  20  25
BRANCH  22  27
HETATM   27  O9  UNL     1       8.051   9.722  15.557  1.00  0.00    -0.355 OA
HETATM   28  C30 UNL     1       7.914  10.944  16.198  1.00  0.00     0.210 C 
ENDBRANCH  22  27
ENDBRANCH   9  17
BRANCH  10  29
HETATM   29  C18 UNL     1       7.622   5.366  12.736  1.00  0.00    -0.017 C 
HETATM   30  C19 UNL     1       8.200   4.354  13.260  1.00  0.00     0.008 C 
BRANCH  30  31
HETATM   31  C20 UNL     1       7.516   3.098  13.556  1.00  0.00    -0.031 A 
HETATM   32  C21 UNL     1       6.980   2.342  12.503  1.00  0.00     0.051 A 
HETATM   33  C22 UNL     1       6.330   1.148  12.672  1.00  0.00     0.105 A 
HETATM   34  C24 UNL     1       6.190   0.648  13.963  1.00  0.00     0.135 A 
HETATM   35  C26 UNL     1       6.709   1.372  15.017  1.00  0.00     0.105 A 
HETATM   36  C28 UNL     1       7.354   2.566  14.807  1.00  0.00     0.051 A 
BRANCH  33  37
HETATM   37  O6  UNL     1       5.799   0.399  11.638  1.00  0.00    -0.353 OA
HETATM   38  C23 UNL     1       6.589  -0.117  10.584  1.00  0.00     0.210 C 
ENDBRANCH  33  37
BRANCH  34  39
HETATM   39  O7  UNL     1       5.544  -0.542  14.146  1.00  0.00    -0.351 OA
HETATM   40  C25 UNL     1       4.708  -0.886  15.221  1.00  0.00     0.210 C 
ENDBRANCH  34  39
BRANCH  35  41
HETATM   41  O8  UNL     1       6.558   0.852  16.303  1.00  0.00    -0.353 OA
HETATM   42  C27 UNL     1       7.586   0.246  17.027  1.00  0.00     0.210 C 
ENDBRANCH  35  41
ENDBRANCH  30  31
ENDBRANCH  10  29
ENDBRANCH   6   7
ENDBRANCH   4   5
ENDBRANCH   1   4
TORSDOF 12
ENDMDL
