MODEL 1
REMARK VINA RESULT: -8.139417217      0.000      0.000
REMARK  4 active torsions:
REMARK  status: ('A' for Active; 'I' for Inactive)
REMARK    1  A    between atoms: C3_3  and  C4_4 
REMARK    2  A    between atoms: N2_9  and  C7_10 
REMARK    3  A    between atoms: C13_16  and  O1_17 
REMARK    4  A    between atoms: C20_25  and  O2_26 
ROOT
HETATM    1  C7  UNL     1      25.655  32.898  27.343  1.00  0.00     0.120 C 
HETATM    2  C8  UNL     1      26.445  32.830  28.570  1.00  0.00     0.033 C 
HETATM    3  C9  UNL     1      26.429  34.248  29.201  1.00  0.00    -0.008 C 
HETATM    4  C10 UNL     1      26.942  34.074  30.593  1.00  0.00     0.005 C 
HETATM    5  C11 UNL     1      27.294  35.328  31.313  1.00  0.00     0.008 C 
HETATM    6  C12 UNL     1      27.743  36.394  30.399  1.00  0.00     0.023 C 
HETATM    7  C13 UNL     1      28.816  37.291  30.886  1.00  0.00     0.123 C 
HETATM    8  C14 UNL     1      29.159  38.057  29.602  1.00  0.00     0.033 C 
HETATM    9  C15 UNL     1      28.868  37.090  28.462  1.00  0.00     0.012 C 
HETATM   10  C16 UNL     1      28.341  35.830  29.101  1.00  0.00    -0.034 C 
HETATM   11  C17 UNL     1      29.483  34.912  29.350  1.00  0.00     0.016 C 
HETATM   12  C18 UNL     1      27.191  35.228  28.378  1.00  0.00     0.001 C 
HETATM   13  C19 UNL     1      27.527  34.575  27.073  1.00  0.00     0.039 C 
HETATM   14  C20 UNL     1      26.183  34.089  26.512  1.00  0.00     0.142 C 
ENDROOT
BRANCH   1  15
HETATM   15  N2  UNL     1      25.582  31.792  26.464  1.00  0.00    -0.335 N 
HETATM   16  C4  UNL     1      25.379  30.486  26.583  1.00  0.00     0.107 A 
HETATM   17  N1  UNL     1      25.409  29.867  25.361  1.00  0.00    -0.351 N 
HETATM   18  C5  UNL     1      25.635  30.811  24.471  1.00  0.00     0.107 A 
ATOM     19  H1  UNL     1      25.282  28.872  25.177  1.00  0.00     0.166 HD
HETATM   20  C6  UNL     1      25.746  31.995  25.112  1.00  0.00     0.110 A 
BRANCH  16  21
HETATM   21  C3  UNL     1      25.148  29.747  27.778  1.00  0.00     0.044 C 
HETATM   22  C2  UNL     1      24.645  28.518  27.750  1.00  0.00    -0.027 C 
HETATM   23  C1  UNL     1      24.387  27.710  28.959  1.00  0.00     0.036 C 
ENDBRANCH  16  21
ENDBRANCH   1  15
BRANCH  14  24
HETATM   24  O2  UNL     1      25.294  35.144  26.651  1.00  0.00    -0.393 OA
ATOM     25  H2  UNL     1      25.017  35.417  25.784  1.00  0.00     0.210 HD
ENDBRANCH  14  24
BRANCH   7  26
HETATM   26  O1  UNL     1      28.279  38.213  31.782  1.00  0.00    -0.395 OA
ATOM     27  H1  UNL     1      28.742  38.157  32.610  1.00  0.00     0.210 HD
ENDBRANCH   7  26
TORSDOF 4
ENDMDL
MODEL 2
REMARK VINA RESULT: -8.050473145      0.942      1.092
REMARK  4 active torsions:
REMARK  status: ('A' for Active; 'I' for Inactive)
REMARK    1  A    between atoms: C3_3  and  C4_4 
REMARK    2  A    between atoms: N2_9  and  C7_10 
REMARK    3  A    between atoms: C13_16  and  O1_17 
REMARK    4  A    between atoms: C20_25  and  O2_26 
ROOT
HETATM    1  C7  UNL     1      25.688  32.714  26.871  1.00  0.00     0.120 C 
HETATM    2  C8  UNL     1      26.301  32.404  28.161  1.00  0.00     0.033 C 
HETATM    3  C9  UNL     1      26.064  33.629  29.084  1.00  0.00    -0.008 C 
HETATM    4  C10 UNL     1      26.391  33.162  30.464  1.00  0.00     0.005 C 
HETATM    5  C11 UNL     1      26.520  34.228  31.494  1.00  0.00     0.008 C 
HETATM    6  C12 UNL     1      26.992  35.504  30.926  1.00  0.00     0.023 C 
HETATM    7  C13 UNL     1      27.897  36.321  31.765  1.00  0.00     0.123 C 
HETATM    8  C14 UNL     1      28.345  37.387  30.757  1.00  0.00     0.033 C 
HETATM    9  C15 UNL     1      28.308  36.702  29.398  1.00  0.00     0.012 C 
HETATM   10  C16 UNL     1      27.816  35.298  29.646  1.00  0.00    -0.034 C 
HETATM   11  C17 UNL     1      28.992  34.415  29.860  1.00  0.00     0.016 C 
HETATM   12  C18 UNL     1      26.840  34.819  28.633  1.00  0.00     0.001 C 
HETATM   13  C19 UNL     1      27.415  34.513  27.285  1.00  0.00     0.039 C 
HETATM   14  C20 UNL     1      26.215  34.096  26.423  1.00  0.00     0.142 C 
ENDROOT
BRANCH   1  15
HETATM   15  N2  UNL     1      25.843  31.845  25.766  1.00  0.00    -0.335 N 
HETATM   16  C4  UNL     1      25.431  30.625  25.442  1.00  0.00     0.107 A 
HETATM   17  N1  UNL     1      25.891  30.261  24.204  1.00  0.00    -0.351 N 
HETATM   18  C5  UNL     1      26.600  31.276  23.756  1.00  0.00     0.107 A 
ATOM     19  H1  UNL     1      25.718  29.378  23.724  1.00  0.00     0.166 HD
HETATM   20  C6  UNL     1      26.590  32.256  24.686  1.00  0.00     0.110 A 
BRANCH  16  21
HETATM   21  C3  UNL     1      24.616  29.749  26.213  1.00  0.00     0.044 C 
HETATM   22  C2  UNL     1      25.110  29.060  27.236  1.00  0.00    -0.027 C 
HETATM   23  C1  UNL     1      24.309  28.139  28.068  1.00  0.00     0.036 C 
ENDBRANCH  16  21
ENDBRANCH   1  15
BRANCH  14  24
HETATM   24  O2  UNL     1      25.220  35.035  26.653  1.00  0.00    -0.393 OA
ATOM     25  H2  UNL     1      24.869  34.890  27.524  1.00  0.00     0.210 HD
ENDBRANCH  14  24
BRANCH   7  26
HETATM   26  O1  UNL     1      27.157  36.973  32.749  1.00  0.00    -0.395 OA
ATOM     27  H1  UNL     1      27.524  37.835  32.903  1.00  0.00     0.210 HD
ENDBRANCH   7  26
TORSDOF 4
ENDMDL
MODEL 3
REMARK VINA RESULT: -6.833036807      0.955      2.477
REMARK  4 active torsions:
REMARK  status: ('A' for Active; 'I' for Inactive)
REMARK    1  A    between atoms: C3_3  and  C4_4 
REMARK    2  A    between atoms: N2_9  and  C7_10 
REMARK    3  A    between atoms: C13_16  and  O1_17 
REMARK    4  A    between atoms: C20_25  and  O2_26 
ROOT
HETATM    1  C7  UNL     1      25.710  32.720  27.571  1.00  0.00     0.120 C 
HETATM    2  C8  UNL     1      26.502  32.730  28.799  1.00  0.00     0.033 C 
HETATM    3  C9  UNL     1      26.450  34.175  29.363  1.00  0.00    -0.008 C 
HETATM    4  C10 UNL     1      26.969  34.081  30.760  1.00  0.00     0.005 C 
HETATM    5  C11 UNL     1      27.288  35.376  31.420  1.00  0.00     0.008 C 
HETATM    6  C12 UNL     1      27.709  36.409  30.455  1.00  0.00     0.023 C 
HETATM    7  C13 UNL     1      28.759  37.355  30.897  1.00  0.00     0.123 C 
HETATM    8  C14 UNL     1      29.081  38.068  29.579  1.00  0.00     0.033 C 
HETATM    9  C15 UNL     1      28.815  37.041  28.486  1.00  0.00     0.012 C 
HETATM   10  C16 UNL     1      28.320  35.799  29.184  1.00  0.00    -0.034 C 
HETATM   11  C17 UNL     1      29.486  34.924  29.474  1.00  0.00     0.016 C 
HETATM   12  C18 UNL     1      27.186  35.135  28.493  1.00  0.00     0.001 C 
HETATM   13  C19 UNL     1      27.537  34.430  27.219  1.00  0.00     0.039 C 
HETATM   14  C20 UNL     1      26.206  33.883  26.684  1.00  0.00     0.142 C 
ENDROOT
BRANCH   1  15
HETATM   15  N2  UNL     1      25.665  31.572  26.746  1.00  0.00    -0.335 N 
HETATM   16  C4  UNL     1      26.019  31.271  25.502  1.00  0.00     0.107 A 
HETATM   17  N1  UNL     1      25.738  29.962  25.212  1.00  0.00    -0.351 N 
HETATM   18  C5  UNL     1      25.202  29.446  26.298  1.00  0.00     0.107 A 
ATOM     19  H1  UNL     1      25.911  29.482  24.329  1.00  0.00     0.166 HD
HETATM   20  C6  UNL     1      25.142  30.402  27.250  1.00  0.00     0.110 A 
BRANCH  16  21
HETATM   21  C3  UNL     1      26.617  32.129  24.538  1.00  0.00     0.044 C 
HETATM   22  C2  UNL     1      27.937  32.237  24.426  1.00  0.00    -0.027 C 
HETATM   23  C1  UNL     1      28.608  33.110  23.443  1.00  0.00     0.036 C 
ENDBRANCH  16  21
ENDBRANCH   1  15
BRANCH  14  24
HETATM   24  O2  UNL     1      25.290  34.921  26.775  1.00  0.00    -0.393 OA
ATOM     25  H2  UNL     1      25.192  35.309  25.913  1.00  0.00     0.210 HD
ENDBRANCH  14  24
BRANCH   7  26
HETATM   26  O1  UNL     1      28.199  38.304  31.750  1.00  0.00    -0.395 OA
ATOM     27  H1  UNL     1      27.259  38.177  31.792  1.00  0.00     0.210 HD
ENDBRANCH   7  26
TORSDOF 4
ENDMDL
MODEL 4
REMARK VINA RESULT: -6.729697386      1.059      2.274
REMARK  4 active torsions:
REMARK  status: ('A' for Active; 'I' for Inactive)
REMARK    1  A    between atoms: C3_3  and  C4_4 
REMARK    2  A    between atoms: N2_9  and  C7_10 
REMARK    3  A    between atoms: C13_16  and  O1_17 
REMARK    4  A    between atoms: C20_25  and  O2_26 
ROOT
HETATM    1  C7  UNL     1      25.502  33.007  27.943  1.00  0.00     0.120 C 
HETATM    2  C8  UNL     1      26.316  33.109  29.153  1.00  0.00     0.033 C 
HETATM    3  C9  UNL     1      26.455  34.620  29.482  1.00  0.00    -0.008 C 
HETATM    4  C10 UNL     1      26.988  34.681  30.876  1.00  0.00     0.005 C 
HETATM    5  C11 UNL     1      27.479  36.013  31.322  1.00  0.00     0.008 C 
HETATM    6  C12 UNL     1      28.004  36.821  30.206  1.00  0.00     0.023 C 
HETATM    7  C13 UNL     1      29.172  37.685  30.491  1.00  0.00     0.123 C 
HETATM    8  C14 UNL     1      29.552  38.137  29.076  1.00  0.00     0.033 C 
HETATM    9  C15 UNL     1      29.137  36.993  28.159  1.00  0.00     0.012 C 
HETATM   10  C16 UNL     1      28.508  35.948  29.046  1.00  0.00    -0.034 C 
HETATM   11  C17 UNL     1      29.562  34.990  29.469  1.00  0.00     0.016 C 
HETATM   12  C18 UNL     1      27.286  35.332  28.470  1.00  0.00     0.001 C 
HETATM   13  C19 UNL     1      27.520  34.398  27.323  1.00  0.00     0.039 C 
HETATM   14  C20 UNL     1      26.120  33.946  26.883  1.00  0.00     0.142 C 
ENDROOT
BRANCH   1  15
HETATM   15  N2  UNL     1      25.298  31.759  27.310  1.00  0.00    -0.335 N 
HETATM   16  C4  UNL     1      24.788  31.341  26.158  1.00  0.00     0.107 A 
HETATM   17  N1  UNL     1      24.845  29.976  26.058  1.00  0.00    -0.351 N 
HETATM   18  C5  UNL     1      25.403  29.544  27.170  1.00  0.00     0.107 A 
ATOM     19  H1  UNL     1      24.521  29.407  25.277  1.00  0.00     0.166 HD
HETATM   20  C6  UNL     1      25.690  30.606  27.954  1.00  0.00     0.110 A 
BRANCH  16  21
HETATM   21  C3  UNL     1      24.239  32.134  25.112  1.00  0.00     0.044 C 
HETATM   22  C2  UNL     1      23.719  31.584  24.020  1.00  0.00    -0.027 C 
HETATM   23  C1  UNL     1      23.138  32.360  22.907  1.00  0.00     0.036 C 
ENDBRANCH  16  21
ENDBRANCH   1  15
BRANCH  14  24
HETATM   24  O2  UNL     1      25.342  35.091  26.810  1.00  0.00    -0.393 OA
ATOM     25  H2  UNL     1      24.767  35.014  26.057  1.00  0.00     0.210 HD
ENDBRANCH  14  24
BRANCH   7  26
HETATM   26  O1  UNL     1      28.753  38.819  31.184  1.00  0.00    -0.395 OA
ATOM     27  H1  UNL     1      28.434  39.467  30.568  1.00  0.00     0.210 HD
ENDBRANCH   7  26
TORSDOF 4
ENDMDL
MODEL 5
REMARK VINA RESULT: -6.601454139      3.000      7.195
REMARK  4 active torsions:
REMARK  status: ('A' for Active; 'I' for Inactive)
REMARK    1  A    between atoms: C3_3  and  C4_4 
REMARK    2  A    between atoms: N2_9  and  C7_10 
REMARK    3  A    between atoms: C13_16  and  O1_17 
REMARK    4  A    between atoms: C20_25  and  O2_26 
ROOT
HETATM    1  C7  UNL     1      27.383  34.350  30.686  1.00  0.00     0.120 C 
HETATM    2  C8  UNL     1      27.585  34.693  29.279  1.00  0.00     0.033 C 
HETATM    3  C9  UNL     1      26.257  34.380  28.539  1.00  0.00    -0.008 C 
HETATM    4  C10 UNL     1      26.375  35.042  27.205  1.00  0.00     0.005 C 
HETATM    5  C11 UNL     1      25.352  34.652  26.198  1.00  0.00     0.008 C 
HETATM    6  C12 UNL     1      24.872  33.270  26.390  1.00  0.00     0.023 C 
HETATM    7  C13 UNL     1      24.560  32.491  25.171  1.00  0.00     0.123 C 
HETATM    8  C14 UNL     1      24.355  31.092  25.765  1.00  0.00     0.033 C 
HETATM    9  C15 UNL     1      25.254  31.036  26.993  1.00  0.00     0.012 C 
HETATM   10  C16 UNL     1      25.914  32.389  27.095  1.00  0.00    -0.034 C 
HETATM   11  C17 UNL     1      27.208  32.340  26.365  1.00  0.00     0.016 C 
HETATM   12  C18 UNL     1      25.988  32.915  28.482  1.00  0.00     0.001 C 
HETATM   13  C19 UNL     1      26.974  32.228  29.375  1.00  0.00     0.039 C 
HETATM   14  C20 UNL     1      26.821  32.912  30.741  1.00  0.00     0.142 C 
ENDROOT
BRANCH   1  15
HETATM   15  N2  UNL     1      28.455  34.403  31.607  1.00  0.00    -0.335 N 
HETATM   16  C4  UNL     1      29.157  35.356  32.207  1.00  0.00     0.107 A 
HETATM   17  N1  UNL     1      30.112  34.821  33.032  1.00  0.00    -0.351 N 
HETATM   18  C5  UNL     1      29.995  33.513  32.938  1.00  0.00     0.107 A 
ATOM     19  H1  UNL     1      30.780  35.335  33.605  1.00  0.00     0.166 HD
HETATM   20  C6  UNL     1      28.995  33.226  32.077  1.00  0.00     0.110 A 
BRANCH  16  21
HETATM   21  C3  UNL     1      29.003  36.764  32.073  1.00  0.00     0.044 C 
HETATM   22  C2  UNL     1      29.484  37.420  31.024  1.00  0.00    -0.027 C 
HETATM   23  C1  UNL     1      29.351  38.879  30.836  1.00  0.00     0.036 C 
ENDBRANCH  16  21
ENDBRANCH   1  15
BRANCH  14  24
HETATM   24  O2  UNL     1      25.459  32.987  30.993  1.00  0.00    -0.393 OA
ATOM     25  H2  UNL     1      25.040  32.236  30.587  1.00  0.00     0.210 HD
ENDBRANCH  14  24
BRANCH   7  26
HETATM   26  O1  UNL     1      23.331  32.902  24.658  1.00  0.00    -0.395 OA
ATOM     27  H1  UNL     1      23.150  33.789  24.943  1.00  0.00     0.210 HD
ENDBRANCH   7  26
TORSDOF 4
ENDMDL
