MODEL 1
REMARK VINA RESULT: -7.023759865      0.000      0.000
REMARK  3 active torsions:
REMARK  status: ('A' for Active; 'I' for Inactive)
REMARK    1  A    between atoms: C8_10  and  C9_11 
REMARK    2  A    between atoms: C9_11  and  C10_12 
REMARK    3  A    between atoms: C10_12  and  O1_14 
ROOT
HETATM    1  C1  UNL     1      27.811  31.916  24.560  1.00  0.00     0.043 C 
HETATM    2  C2  UNL     1      26.817  32.601  25.414  1.00  0.00    -0.083 C 
HETATM    3  C3  UNL     1      27.169  33.741  25.946  1.00  0.00     0.028 C 
HETATM    4  C4  UNL     1      26.427  34.664  26.832  1.00  0.00     0.245 C 
HETATM    5  N1  UNL     1      27.173  35.819  27.141  1.00  0.00    -0.373 N 
ATOM      6  H1  UNL     1      27.339  36.414  26.330  1.00  0.00     0.161 HD
HETATM    7  C5  UNL     1      27.673  36.273  28.189  1.00  0.00     0.065 C 
HETATM    8  C6  UNL     1      27.637  35.692  29.561  1.00  0.00     0.049 C 
HETATM    9  C7  UNL     1      27.973  36.818  30.537  1.00  0.00     0.018 C 
HETATM   10  C8  UNL     1      28.537  34.521  29.713  1.00  0.00     0.133 C 
HETATM   11  O2  UNL     1      28.122  33.417  30.339  1.00  0.00    -0.376 OA
HETATM   12  C12 UNL     1      26.961  33.226  30.947  1.00  0.00     0.141 C 
HETATM   13  C13 UNL     1      27.204  33.381  32.471  1.00  0.00     0.044 C 
HETATM   14  C14 UNL     1      26.380  31.846  30.785  1.00  0.00     0.007 C 
HETATM   15  C15 UNL     1      26.130  31.227  29.666  1.00  0.00    -0.083 C 
HETATM   16  C16 UNL     1      25.540  29.829  29.736  1.00  0.00     0.043 C 
HETATM   17  C17 UNL     1      26.371  31.761  28.299  1.00  0.00     0.065 C 
HETATM   18  C18 UNL     1      25.404  32.842  27.887  1.00  0.00     0.128 C 
HETATM   19  C19 UNL     1      24.690  32.513  26.591  1.00  0.00     0.036 C 
HETATM   20  C20 UNL     1      25.527  31.880  25.548  1.00  0.00     0.036 C 
HETATM   21  O3  UNL     1      25.881  34.113  27.927  1.00  0.00    -0.358 OA
ENDROOT
BRANCH  10  22
HETATM   22  C9  UNL     1      29.941  34.982  30.139  1.00  0.00     0.064 C 
BRANCH  22  23
HETATM   23  C10 UNL     1      30.718  33.923  30.838  1.00  0.00     0.116 C 
HETATM   24  C11 UNL     1      32.164  34.063  30.334  1.00  0.00     0.039 C 
BRANCH  23  25
HETATM   25  O1  UNL     1      30.658  33.914  32.204  1.00  0.00    -0.396 OA
ATOM     26  H1  UNL     1      29.814  34.103  32.597  1.00  0.00     0.210 HD
ENDBRANCH  23  25
ENDBRANCH  22  23
ENDBRANCH  10  22
TORSDOF 3
ENDMDL
MODEL 2
REMARK VINA RESULT: -6.149065198      7.028      9.761
REMARK  3 active torsions:
REMARK  status: ('A' for Active; 'I' for Inactive)
REMARK    1  A    between atoms: C8_10  and  C9_11 
REMARK    2  A    between atoms: C9_11  and  C10_12 
REMARK    3  A    between atoms: C10_12  and  O1_14 
ROOT
HETATM    1  C1  UNL     1      21.946  21.750  28.395  1.00  0.00     0.043 C 
HETATM    2  C2  UNL     1      21.544  23.070  28.928  1.00  0.00    -0.083 C 
HETATM    3  C3  UNL     1      22.276  24.098  28.594  1.00  0.00     0.028 C 
HETATM    4  C4  UNL     1      22.151  25.529  28.949  1.00  0.00     0.245 C 
HETATM    5  N1  UNL     1      23.140  26.318  28.329  1.00  0.00    -0.373 N 
ATOM      6  H1  UNL     1      23.042  26.356  27.315  1.00  0.00     0.161 HD
HETATM    7  C5  UNL     1      24.109  26.981  28.750  1.00  0.00     0.065 C 
HETATM    8  C6  UNL     1      24.565  27.166  30.156  1.00  0.00     0.049 C 
HETATM    9  C7  UNL     1      25.471  28.396  30.180  1.00  0.00     0.018 C 
HETATM   10  C8  UNL     1      25.232  25.959  30.707  1.00  0.00     0.133 C 
HETATM   11  O2  UNL     1      24.945  25.521  31.936  1.00  0.00    -0.376 OA
HETATM   12  C12 UNL     1      24.140  26.086  32.824  1.00  0.00     0.141 C 
HETATM   13  C13 UNL     1      25.033  26.827  33.853  1.00  0.00     0.044 C 
HETATM   14  C14 UNL     1      23.323  25.123  33.642  1.00  0.00     0.007 C 
HETATM   15  C15 UNL     1      22.518  24.200  33.195  1.00  0.00    -0.083 C 
HETATM   16  C16 UNL     1      21.788  23.334  34.206  1.00  0.00     0.043 C 
HETATM   17  C17 UNL     1      22.238  23.904  31.765  1.00  0.00     0.065 C 
HETATM   18  C18 UNL     1      21.385  24.942  31.081  1.00  0.00     0.128 C 
HETATM   19  C19 UNL     1      20.142  24.345  30.454  1.00  0.00     0.036 C 
HETATM   20  C20 UNL     1      20.334  23.038  29.786  1.00  0.00     0.036 C 
HETATM   21  O3  UNL     1      22.041  25.800  30.258  1.00  0.00    -0.358 OA
ENDROOT
BRANCH  10  22
HETATM   22  C9  UNL     1      26.739  25.999  30.403  1.00  0.00     0.064 C 
BRANCH  22  23
HETATM   23  C10 UNL     1      27.159  24.995  29.389  1.00  0.00     0.116 C 
HETATM   24  C11 UNL     1      26.067  23.913  29.394  1.00  0.00     0.039 C 
BRANCH  23  25
HETATM   25  O1  UNL     1      27.405  25.459  28.126  1.00  0.00    -0.396 OA
ATOM     26  H1  UNL     1      26.720  25.329  27.481  1.00  0.00     0.210 HD
ENDBRANCH  23  25
ENDBRANCH  22  23
ENDBRANCH  10  22
TORSDOF 3
ENDMDL
MODEL 3
REMARK VINA RESULT: -5.624738248      2.839      5.490
REMARK  3 active torsions:
REMARK  status: ('A' for Active; 'I' for Inactive)
REMARK    1  A    between atoms: C8_10  and  C9_11 
REMARK    2  A    between atoms: C9_11  and  C10_12 
REMARK    3  A    between atoms: C10_12  and  O1_14 
ROOT
HETATM    1  C1  UNL     1      24.444  33.527  32.459  1.00  0.00     0.043 C 
HETATM    2  C2  UNL     1      25.774  33.246  31.875  1.00  0.00    -0.083 C 
HETATM    3  C3  UNL     1      26.815  33.740  32.490  1.00  0.00     0.028 C 
HETATM    4  C4  UNL     1      28.258  33.648  32.176  1.00  0.00     0.245 C 
HETATM    5  N1  UNL     1      29.054  34.298  33.139  1.00  0.00    -0.373 N 
ATOM      6  H1  UNL     1      29.021  33.847  34.053  1.00  0.00     0.161 HD
HETATM    7  C5  UNL     1      29.790  35.304  33.118  1.00  0.00     0.065 C 
HETATM    8  C6  UNL     1      30.089  36.212  31.975  1.00  0.00     0.049 C 
HETATM    9  C7  UNL     1      31.361  36.979  32.327  1.00  0.00     0.018 C 
HETATM   10  C8  UNL     1      28.955  37.113  31.646  1.00  0.00     0.133 C 
HETATM   11  O2  UNL     1      28.583  37.307  30.378  1.00  0.00    -0.376 OA
HETATM   12  C12 UNL     1      29.164  36.829  29.287  1.00  0.00     0.141 C 
HETATM   13  C13 UNL     1      30.013  37.973  28.674  1.00  0.00     0.044 C 
HETATM   14  C14 UNL     1      28.215  36.422  28.191  1.00  0.00     0.007 C 
HETATM   15  C15 UNL     1      27.226  35.577  28.284  1.00  0.00    -0.083 C 
HETATM   16  C16 UNL     1      26.391  35.312  27.043  1.00  0.00     0.043 C 
HETATM   17  C17 UNL     1      26.824  34.834  29.507  1.00  0.00     0.065 C 
HETATM   18  C18 UNL     1      27.771  33.725  29.887  1.00  0.00     0.128 C 
HETATM   19  C19 UNL     1      27.072  32.385  30.006  1.00  0.00     0.036 C 
HETATM   20  C20 UNL     1      25.737  32.421  30.643  1.00  0.00     0.036 C 
HETATM   21  O3  UNL     1      28.606  33.987  30.925  1.00  0.00    -0.358 OA
ENDROOT
BRANCH  10  22
HETATM   22  C9  UNL     1      29.051  38.410  32.467  1.00  0.00     0.064 C 
BRANCH  22  23
HETATM   23  C10 UNL     1      28.442  39.582  31.784  1.00  0.00     0.116 C 
HETATM   24  C11 UNL     1      27.763  40.406  32.890  1.00  0.00     0.039 C 
BRANCH  23  25
HETATM   25  O1  UNL     1      29.274  40.352  31.019  1.00  0.00    -0.396 OA
ATOM     26  H1  UNL     1      28.890  40.776  30.260  1.00  0.00     0.210 HD
ENDBRANCH  23  25
ENDBRANCH  22  23
ENDBRANCH  10  22
TORSDOF 3
ENDMDL
MODEL 4
REMARK VINA RESULT: -5.448473116      3.385      5.936
REMARK  3 active torsions:
REMARK  status: ('A' for Active; 'I' for Inactive)
REMARK    1  A    between atoms: C8_10  and  C9_11 
REMARK    2  A    between atoms: C9_11  and  C10_12 
REMARK    3  A    between atoms: C10_12  and  O1_14 
ROOT
HETATM    1  C1  UNL     1      26.982  35.211  27.891  1.00  0.00     0.043 C 
HETATM    2  C2  UNL     1      27.415  35.238  29.305  1.00  0.00    -0.083 C 
HETATM    3  C3  UNL     1      27.481  36.405  29.889  1.00  0.00     0.028 C 
HETATM    4  C4  UNL     1      27.871  36.775  31.267  1.00  0.00     0.245 C 
HETATM    5  N1  UNL     1      27.757  38.161  31.497  1.00  0.00    -0.373 N 
ATOM      6  H1  UNL     1      26.793  38.492  31.467  1.00  0.00     0.161 HD
HETATM    7  C5  UNL     1      28.578  39.070  31.729  1.00  0.00     0.065 C 
HETATM    8  C6  UNL     1      30.060  38.974  31.849  1.00  0.00     0.049 C 
HETATM    9  C7  UNL     1      30.537  40.229  32.578  1.00  0.00     0.018 C 
HETATM   10  C8  UNL     1      30.732  38.789  30.538  1.00  0.00     0.133 C 
HETATM   11  O2  UNL     1      31.707  37.889  30.391  1.00  0.00    -0.376 OA
HETATM   12  C12 UNL     1      32.248  37.128  31.332  1.00  0.00     0.141 C 
HETATM   13  C13 UNL     1      33.601  37.771  31.729  1.00  0.00     0.044 C 
HETATM   14  C14 UNL     1      32.597  35.730  30.892  1.00  0.00     0.007 C 
HETATM   15  C15 UNL     1      31.796  34.854  30.354  1.00  0.00    -0.083 C 
HETATM   16  C16 UNL     1      32.364  33.494  29.986  1.00  0.00     0.043 C 
HETATM   17  C17 UNL     1      30.353  35.056  30.057  1.00  0.00     0.065 C 
HETATM   18  C18 UNL     1      29.473  35.069  31.281  1.00  0.00     0.128 C 
HETATM   19  C19 UNL     1      28.360  34.044  31.202  1.00  0.00     0.036 C 
HETATM   20  C20 UNL     1      27.720  33.903  29.875  1.00  0.00     0.036 C 
HETATM   21  O3  UNL     1      29.047  36.291  31.693  1.00  0.00    -0.358 OA
ENDROOT
BRANCH  10  22
HETATM   22  C9  UNL     1      31.052  40.154  29.907  1.00  0.00     0.064 C 
BRANCH  22  23
HETATM   23  C10 UNL     1      30.465  40.325  28.551  1.00  0.00     0.116 C 
HETATM   24  C11 UNL     1      31.220  41.503  27.913  1.00  0.00     0.039 C 
BRANCH  23  25
HETATM   25  O1  UNL     1      30.465  39.226  27.737  1.00  0.00    -0.396 OA
ATOM     26  H1  UNL     1      29.617  38.863  27.507  1.00  0.00     0.210 HD
ENDBRANCH  23  25
ENDBRANCH  22  23
ENDBRANCH  10  22
TORSDOF 3
ENDMDL
MODEL 5
REMARK VINA RESULT: -5.267687227      3.847      7.314
REMARK  3 active torsions:
REMARK  status: ('A' for Active; 'I' for Inactive)
REMARK    1  A    between atoms: C8_10  and  C9_11 
REMARK    2  A    between atoms: C9_11  and  C10_12 
REMARK    3  A    between atoms: C10_12  and  O1_14 
ROOT
HETATM    1  C1  UNL     1      29.156  32.374  33.496  1.00  0.00     0.043 C 
HETATM    2  C2  UNL     1      27.702  32.219  33.274  1.00  0.00    -0.083 C 
HETATM    3  C3  UNL     1      27.162  31.079  33.613  1.00  0.00     0.028 C 
HETATM    4  C4  UNL     1      25.762  30.608  33.525  1.00  0.00     0.245 C 
HETATM    5  N1  UNL     1      25.604  29.311  34.050  1.00  0.00    -0.373 N 
ATOM      6  H1  UNL     1      25.766  29.266  35.056  1.00  0.00     0.161 HD
HETATM    7  C5  UNL     1      25.310  28.205  33.554  1.00  0.00     0.065 C 
HETATM    8  C6  UNL     1      25.005  27.878  32.132  1.00  0.00     0.049 C 
HETATM    9  C7  UNL     1      24.275  26.537  32.124  1.00  0.00     0.018 C 
HETATM   10  C8  UNL     1      26.215  27.871  31.272  1.00  0.00     0.133 C 
HETATM   11  O2  UNL     1      26.205  28.459  30.073  1.00  0.00    -0.376 OA
HETATM   12  C12 UNL     1      25.175  29.033  29.468  1.00  0.00     0.141 C 
HETATM   13  C13 UNL     1      24.641  28.031  28.411  1.00  0.00     0.044 C 
HETATM   14  C14 UNL     1      25.511  30.276  28.687  1.00  0.00     0.007 C 
HETATM   15  C15 UNL     1      26.108  31.345  29.135  1.00  0.00    -0.083 C 
HETATM   16  C16 UNL     1      26.348  32.490  28.166  1.00  0.00     0.043 C 
HETATM   17  C17 UNL     1      26.588  31.561  30.526  1.00  0.00     0.065 C 
HETATM   18  C18 UNL     1      25.483  31.792  31.524  1.00  0.00     0.128 C 
HETATM   19  C19 UNL     1      25.656  33.090  32.286  1.00  0.00     0.036 C 
HETATM   20  C20 UNL     1      27.045  33.411  32.684  1.00  0.00     0.036 C 
HETATM   21  O3  UNL     1      25.176  30.738  32.325  1.00  0.00    -0.358 OA
ENDROOT
BRANCH  10  22
HETATM   22  C9  UNL     1      26.857  26.473  31.268  1.00  0.00     0.064 C 
BRANCH  22  23
HETATM   23  C10 UNL     1      27.829  26.272  32.376  1.00  0.00     0.116 C 
HETATM   24  C11 UNL     1      28.118  24.762  32.410  1.00  0.00     0.039 C 
BRANCH  23  25
HETATM   25  O1  UNL     1      28.982  27.006  32.325  1.00  0.00    -0.396 OA
ATOM     26  H1  UNL     1      29.629  26.745  31.680  1.00  0.00     0.210 HD
ENDBRANCH  23  25
ENDBRANCH  22  23
ENDBRANCH  10  22
TORSDOF 3
ENDMDL
