MODEL 1
REMARK VINA RESULT: -6.085466870      0.000      0.000
REMARK  14 active torsions:
REMARK  status: ('A' for Active; 'I' for Inactive)
REMARK    1  A    between atoms: C2_2  and  O2_4 
REMARK    2  A    between atoms: O2_4  and  C3_5 
REMARK    3  A    between atoms: C4_6  and  N1_7 
REMARK    4  A    between atoms: N1_7  and  N2_9 
REMARK    5  A    between atoms: N2_9  and  N3_10 
REMARK    6  A    between atoms: C5_13  and  N4_14 
REMARK    7  A    between atoms: C6_18  and  O3_19 
REMARK    8  A    between atoms: C6_18  and  N5_21 
REMARK    9  A    between atoms: C7_25  and  O6_26 
REMARK   10  A    between atoms: C7_25  and  O7_28 
REMARK   11  A    between atoms: O7_28  and  C8_29 
REMARK   12  A    between atoms: C11_33  and  O9_34 
REMARK   13  A    between atoms: C12_36  and  O10_37 
REMARK   14  A    between atoms: C13_39  and  O11_40 
ROOT
HETATM    1  C3  UNL     1     -10.875 -13.403  14.863  1.00  0.00     0.233 C 
HETATM    2  C4  UNL     1      -9.875 -14.040  15.741  1.00  0.00     0.186 C 
HETATM    3  C5  UNL     1     -10.032 -15.500  15.973  1.00  0.00     0.283 C 
HETATM    4  C6  UNL     1     -11.336 -15.907  16.564  1.00  0.00     0.280 C 
HETATM    5  S1  UNL     1     -12.649 -15.365  15.414  1.00  0.00    -0.031 SA
HETATM    6  C7  UNL     1     -11.827 -14.318  14.175  1.00  0.00     0.251 C 
ENDROOT
BRANCH   6   7
HETATM    7  O6  UNL     1     -11.241 -15.122  13.222  1.00  0.00    -0.355 OA
ATOM      8  H6  UNL     1     -11.312 -16.052  13.403  1.00  0.00     0.214 HD
ENDBRANCH   6   7
BRANCH   6   9
HETATM    9  O7  UNL     1     -12.766 -13.509  13.497  1.00  0.00    -0.311 OA
BRANCH   9  10
HETATM   10  C8  UNL     1     -13.988 -13.501  14.127  1.00  0.00     0.296 C 
HETATM   11  O8  UNL     1     -14.945 -14.021  13.225  1.00  0.00    -0.351 OA
HETATM   12  C9  UNL     1     -16.129 -14.239  13.925  1.00  0.00     0.152 C 
HETATM   13  C10 UNL     1     -17.060 -15.150  13.194  1.00  0.00     0.042 C 
HETATM   14  C11 UNL     1     -16.747 -12.904  14.261  1.00  0.00     0.178 C 
HETATM   15  C12 UNL     1     -15.776 -12.190  15.196  1.00  0.00     0.183 C 
HETATM   16  C13 UNL     1     -14.451 -12.093  14.448  1.00  0.00     0.204 C 
BRANCH  14  17
HETATM   17  O9  UNL     1     -17.986 -13.068  14.875  1.00  0.00    -0.390 OA
ATOM     18  H9  UNL     1     -18.082 -12.475  15.611  1.00  0.00     0.210 HD
ENDBRANCH  14  17
BRANCH  15  19
HETATM   19  O10 UNL     1     -16.189 -10.892  15.458  1.00  0.00    -0.390 OA
ATOM     20  H10 UNL     1     -15.729 -10.265  14.914  1.00  0.00     0.210 HD
ENDBRANCH  15  19
BRANCH  16  21
HETATM   21  O11 UNL     1     -13.513 -11.354  15.128  1.00  0.00    -0.388 OA
ATOM     22  H11 UNL     1     -12.863 -10.958  14.559  1.00  0.00     0.210 HD
ENDBRANCH  16  21
ENDBRANCH   9  10
ENDBRANCH   6   9
BRANCH   1  23
HETATM   23  O2  UNL     1     -10.195 -12.659  13.840  1.00  0.00    -0.307 OA
BRANCH  23  24
HETATM   24  C2  UNL     1      -9.996 -11.295  13.973  1.00  0.00     0.255 C 
HETATM   25  C1  UNL     1      -8.716 -10.616  13.647  1.00  0.00     0.126 C 
HETATM   26  O1  UNL     1     -10.969 -10.612  14.395  1.00  0.00    -0.266 OA
ENDBRANCH  23  24
ENDBRANCH   1  23
BRANCH   2  27
HETATM   27  N1  UNL     1      -9.866 -13.378  17.055  1.00  0.00    -0.243 N 
ATOM     28  H1  UNL     1     -10.598 -13.597  17.731  1.00  0.00     0.197 HD
BRANCH  27  29
HETATM   29  N2  UNL     1      -8.992 -12.564  17.355  1.00  0.00    -0.248 NA
BRANCH  29  30
HETATM   30  N3  UNL     1      -8.045 -11.790  17.529  1.00  0.00    -0.261 N 
ATOM     31  H32 UNL     1      -7.960 -12.260  18.431  1.00  0.00     0.193 HD
ATOM     32  H31 UNL     1      -7.290 -11.105  17.560  1.00  0.00     0.193 HD
ENDBRANCH  29  30
ENDBRANCH  27  29
ENDBRANCH   2  27
BRANCH   4  33
HETATM   33  O3  UNL     1     -11.344 -17.318  16.631  1.00  0.00    -0.356 OA
ATOM     34  H3  UNL     1     -11.212 -17.643  15.747  1.00  0.00     0.213 HD
ENDBRANCH   4  33
BRANCH   4  35
HETATM   35  N5  UNL     1     -11.585 -15.418  17.881  1.00  0.00    -0.103 N 
HETATM   36  O4  UNL     1     -12.513 -14.606  18.059  1.00  0.00    -0.533 OA
HETATM   37  O5  UNL     1     -10.847 -15.805  18.952  1.00  0.00    -0.533 OA
ENDBRANCH   4  35
BRANCH   3  38
HETATM   38  N4  UNL     1      -8.944 -15.911  16.877  1.00  0.00    -0.067 N 
ATOM     39  H43 UNL     1      -8.859 -15.313  17.699  1.00  0.00     0.275 HD
ATOM     40  H42 UNL     1      -9.140 -16.782  17.370  1.00  0.00     0.275 HD
ATOM     41  H41 UNL     1      -8.092 -15.949  16.319  1.00  0.00     0.275 HD
ENDBRANCH   3  38
TORSDOF 14
ENDMDL
MODEL 2
REMARK VINA RESULT: -5.937584274      1.110      1.154
REMARK  14 active torsions:
REMARK  status: ('A' for Active; 'I' for Inactive)
REMARK    1  A    between atoms: C2_2  and  O2_4 
REMARK    2  A    between atoms: O2_4  and  C3_5 
REMARK    3  A    between atoms: C4_6  and  N1_7 
REMARK    4  A    between atoms: N1_7  and  N2_9 
REMARK    5  A    between atoms: N2_9  and  N3_10 
REMARK    6  A    between atoms: C5_13  and  N4_14 
REMARK    7  A    between atoms: C6_18  and  O3_19 
REMARK    8  A    between atoms: C6_18  and  N5_21 
REMARK    9  A    between atoms: C7_25  and  O6_26 
REMARK   10  A    between atoms: C7_25  and  O7_28 
REMARK   11  A    between atoms: O7_28  and  C8_29 
REMARK   12  A    between atoms: C11_33  and  O9_34 
REMARK   13  A    between atoms: C12_36  and  O10_37 
REMARK   14  A    between atoms: C13_39  and  O11_40 
ROOT
HETATM    1  C3  UNL     1      -9.997 -13.285  15.364  1.00  0.00     0.233 C 
HETATM    2  C4  UNL     1      -9.152 -13.745  16.483  1.00  0.00     0.186 C 
HETATM    3  C5  UNL     1      -9.340 -15.154  16.918  1.00  0.00     0.283 C 
HETATM    4  C6  UNL     1     -10.722 -15.502  17.348  1.00  0.00     0.280 C 
HETATM    5  S1  UNL     1     -11.829 -15.188  15.927  1.00  0.00    -0.031 SA
HETATM    6  C7  UNL     1     -10.818 -14.326  14.687  1.00  0.00     0.251 C 
ENDROOT
BRANCH   6   7
HETATM    7  O6  UNL     1     -10.079 -15.253  13.983  1.00  0.00    -0.355 OA
ATOM      8  H6  UNL     1     -10.524 -16.082  13.851  1.00  0.00     0.214 HD
ENDBRANCH   6   7
BRANCH   6   9
HETATM    9  O7  UNL     1     -11.636 -13.663  13.744  1.00  0.00    -0.311 OA
BRANCH   9  10
HETATM   10  C8  UNL     1     -12.916 -13.481  14.211  1.00  0.00     0.296 C 
HETATM   11  O8  UNL     1     -13.741 -14.459  13.608  1.00  0.00    -0.351 OA
HETATM   12  C9  UNL     1     -14.978 -14.439  14.247  1.00  0.00     0.152 C 
HETATM   13  C10 UNL     1     -15.772 -15.675  13.983  1.00  0.00     0.042 C 
HETATM   14  C11 UNL     1     -15.703 -13.173  13.860  1.00  0.00     0.178 C 
HETATM   15  C12 UNL     1     -14.879 -12.008  14.399  1.00  0.00     0.183 C 
HETATM   16  C13 UNL     1     -13.490 -12.143  13.786  1.00  0.00     0.204 C 
BRANCH  14  17
HETATM   17  O9  UNL     1     -16.989 -13.151  14.395  1.00  0.00    -0.390 OA
ATOM     18  H9  UNL     1     -17.314 -12.261  14.464  1.00  0.00     0.210 HD
ENDBRANCH  14  17
BRANCH  15  19
HETATM   19  O10 UNL     1     -15.391 -10.789  13.980  1.00  0.00    -0.390 OA
ATOM     20  H10 UNL     1     -14.777 -10.083  14.139  1.00  0.00     0.210 HD
ENDBRANCH  15  19
BRANCH  16  21
HETATM   21  O11 UNL     1     -12.673 -11.081  14.088  1.00  0.00    -0.388 OA
ATOM     22  H11 UNL     1     -12.720 -10.378  13.451  1.00  0.00     0.210 HD
ENDBRANCH  16  21
ENDBRANCH   9  10
ENDBRANCH   6   9
BRANCH   1  23
HETATM   23  O2  UNL     1      -9.159 -12.692  14.359  1.00  0.00    -0.307 OA
BRANCH  23  24
HETATM   24  C2  UNL     1      -9.188 -11.326  14.132  1.00  0.00     0.255 C 
HETATM   25  C1  UNL     1      -8.237 -10.624  13.233  1.00  0.00     0.126 C 
HETATM   26  O1  UNL     1     -10.078 -10.664  14.732  1.00  0.00    -0.266 OA
ENDBRANCH  23  24
ENDBRANCH   1  23
BRANCH   2  27
HETATM   27  N1  UNL     1      -9.363 -12.883  17.657  1.00  0.00    -0.243 N 
ATOM     28  H1  UNL     1     -10.249 -12.931  18.159  1.00  0.00     0.197 HD
BRANCH  27  29
HETATM   29  N2  UNL     1      -8.489 -12.107  18.045  1.00  0.00    -0.248 NA
BRANCH  29  30
HETATM   30  N3  UNL     1      -7.536 -11.368  18.312  1.00  0.00    -0.261 N 
ATOM     31  H32 UNL     1      -7.870 -10.820  17.519  1.00  0.00     0.193 HD
ATOM     32  H31 UNL     1      -6.723 -10.837  18.625  1.00  0.00     0.193 HD
ENDBRANCH  29  30
ENDBRANCH  27  29
ENDBRANCH   2  27
BRANCH   4  33
HETATM   33  O3  UNL     1     -10.735 -16.884  17.638  1.00  0.00    -0.356 OA
ATOM     34  H3  UNL     1     -11.468 -17.042  18.223  1.00  0.00     0.213 HD
ENDBRANCH   4  33
BRANCH   4  35
HETATM   35  N5  UNL     1     -11.187 -14.818  18.510  1.00  0.00    -0.103 N 
HETATM   36  O4  UNL     1     -12.134 -14.016  18.402  1.00  0.00    -0.533 OA
HETATM   37  O5  UNL     1     -10.635 -15.010  19.735  1.00  0.00    -0.533 OA
ENDBRANCH   4  35
BRANCH   3  38
HETATM   38  N4  UNL     1      -8.415 -15.384  18.041  1.00  0.00    -0.067 N 
ATOM     39  H43 UNL     1      -8.195 -14.534  18.560  1.00  0.00     0.275 HD
ATOM     40  H42 UNL     1      -8.839 -15.901  18.811  1.00  0.00     0.275 HD
ATOM     41  H41 UNL     1      -7.589 -15.844  17.657  1.00  0.00     0.275 HD
ENDBRANCH   3  38
TORSDOF 14
ENDMDL
MODEL 3
REMARK VINA RESULT: -5.835039502      4.156      7.156
REMARK  14 active torsions:
REMARK  status: ('A' for Active; 'I' for Inactive)
REMARK    1  A    between atoms: C2_2  and  O2_4 
REMARK    2  A    between atoms: O2_4  and  C3_5 
REMARK    3  A    between atoms: C4_6  and  N1_7 
REMARK    4  A    between atoms: N1_7  and  N2_9 
REMARK    5  A    between atoms: N2_9  and  N3_10 
REMARK    6  A    between atoms: C5_13  and  N4_14 
REMARK    7  A    between atoms: C6_18  and  O3_19 
REMARK    8  A    between atoms: C6_18  and  N5_21 
REMARK    9  A    between atoms: C7_25  and  O6_26 
REMARK   10  A    between atoms: C7_25  and  O7_28 
REMARK   11  A    between atoms: O7_28  and  C8_29 
REMARK   12  A    between atoms: C11_33  and  O9_34 
REMARK   13  A    between atoms: C12_36  and  O10_37 
REMARK   14  A    between atoms: C13_39  and  O11_40 
ROOT
HETATM    1  C3  UNL     1     -15.719 -12.695  14.907  1.00  0.00     0.233 C 
HETATM    2  C4  UNL     1     -16.907 -13.019  14.093  1.00  0.00     0.186 C 
HETATM    3  C5  UNL     1     -16.651 -13.489  12.706  1.00  0.00     0.283 C 
HETATM    4  C6  UNL     1     -15.882 -12.543  11.852  1.00  0.00     0.280 C 
HETATM    5  S1  UNL     1     -14.271 -12.259  12.668  1.00  0.00    -0.031 SA
HETATM    6  C7  UNL     1     -14.399 -13.033  14.308  1.00  0.00     0.251 C 
ENDROOT
BRANCH   6   7
HETATM    7  O6  UNL     1     -14.167 -14.386  14.189  1.00  0.00    -0.355 OA
ATOM      8  H6  UNL     1     -14.191 -14.857  15.014  1.00  0.00     0.214 HD
ENDBRANCH   6   7
BRANCH   6   9
HETATM    9  O7  UNL     1     -13.406 -12.531  15.180  1.00  0.00    -0.311 OA
BRANCH   9  10
HETATM   10  C8  UNL     1     -12.145 -12.933  14.809  1.00  0.00     0.296 C 
HETATM   11  O8  UNL     1     -11.734 -13.951  15.702  1.00  0.00    -0.351 OA
HETATM   12  C9  UNL     1     -10.571 -14.528  15.198  1.00  0.00     0.152 C 
HETATM   13  C10 UNL     1     -10.281 -15.854  15.821  1.00  0.00     0.042 C 
HETATM   14  C11 UNL     1      -9.438 -13.542  15.345  1.00  0.00     0.178 C 
HETATM   15  C12 UNL     1      -9.780 -12.341  14.471  1.00  0.00     0.183 C 
HETATM   16  C13 UNL     1     -11.126 -11.820  14.961  1.00  0.00     0.204 C 
BRANCH  14  17
HETATM   17  O9  UNL     1      -8.229 -14.109  14.947  1.00  0.00    -0.390 OA
ATOM     18  H9  UNL     1      -8.234 -15.049  15.081  1.00  0.00     0.210 HD
ENDBRANCH  14  17
BRANCH  15  19
HETATM   19  O10 UNL     1      -8.862 -11.314  14.640  1.00  0.00    -0.390 OA
ATOM     20  H10 UNL     1      -9.158 -10.513  14.225  1.00  0.00     0.210 HD
ENDBRANCH  15  19
BRANCH  16  21
HETATM   21  O11 UNL     1     -11.500 -10.653  14.341  1.00  0.00    -0.388 OA
ATOM     22  H11 UNL     1     -12.112 -10.136  14.850  1.00  0.00     0.210 HD
ENDBRANCH  16  21
ENDBRANCH   9  10
ENDBRANCH   6   9
BRANCH   1  23
HETATM   23  O2  UNL     1     -15.804 -13.394  16.159  1.00  0.00    -0.307 OA
BRANCH  23  24
HETATM   24  C2  UNL     1     -16.234 -12.742  17.303  1.00  0.00     0.255 C 
HETATM   25  C1  UNL     1     -16.961 -13.418  18.407  1.00  0.00     0.126 C 
HETATM   26  O1  UNL     1     -15.983 -11.509  17.389  1.00  0.00    -0.266 OA
ENDBRANCH  23  24
ENDBRANCH   1  23
BRANCH   2  27
HETATM   27  N1  UNL     1     -17.794 -11.848  14.012  1.00  0.00    -0.243 N 
ATOM     28  H1  UNL     1     -18.643 -11.902  13.448  1.00  0.00     0.197 HD
BRANCH  27  29
HETATM   29  N2  UNL     1     -17.533 -10.805  14.611  1.00  0.00    -0.248 NA
BRANCH  29  30
HETATM   30  N3  UNL     1     -17.210  -9.710  15.083  1.00  0.00    -0.261 N 
ATOM     31  H32 UNL     1     -18.129  -9.412  14.755  1.00  0.00     0.193 HD
ATOM     32  H31 UNL     1     -16.836  -8.860  15.505  1.00  0.00     0.193 HD
ENDBRANCH  29  30
ENDBRANCH  27  29
ENDBRANCH   2  27
BRANCH   4  33
HETATM   33  O3  UNL     1     -15.659 -13.183  10.614  1.00  0.00    -0.356 OA
ATOM     34  H3  UNL     1     -15.962 -12.593   9.933  1.00  0.00     0.213 HD
ENDBRANCH   4  33
BRANCH   4  35
HETATM   35  N5  UNL     1     -16.534 -11.303  11.580  1.00  0.00    -0.103 N 
HETATM   36  O4  UNL     1     -16.060 -10.253  12.053  1.00  0.00    -0.533 OA
HETATM   37  O5  UNL     1     -17.657 -11.224  10.820  1.00  0.00    -0.533 OA
ENDBRANCH   4  35
BRANCH   3  38
HETATM   38  N4  UNL     1     -17.965 -13.737  12.087  1.00  0.00    -0.067 N 
ATOM     39  H43 UNL     1     -17.913 -13.873  11.078  1.00  0.00     0.275 HD
ATOM     40  H42 UNL     1     -18.354 -14.650  12.322  1.00  0.00     0.275 HD
ATOM     41  H41 UNL     1     -18.571 -12.962  12.356  1.00  0.00     0.275 HD
ENDBRANCH   3  38
TORSDOF 14
ENDMDL
MODEL 4
REMARK VINA RESULT: -5.547867813      2.935      5.364
REMARK  14 active torsions:
REMARK  status: ('A' for Active; 'I' for Inactive)
REMARK    1  A    between atoms: C2_2  and  O2_4 
REMARK    2  A    between atoms: O2_4  and  C3_5 
REMARK    3  A    between atoms: C4_6  and  N1_7 
REMARK    4  A    between atoms: N1_7  and  N2_9 
REMARK    5  A    between atoms: N2_9  and  N3_10 
REMARK    6  A    between atoms: C5_13  and  N4_14 
REMARK    7  A    between atoms: C6_18  and  O3_19 
REMARK    8  A    between atoms: C6_18  and  N5_21 
REMARK    9  A    between atoms: C7_25  and  O6_26 
REMARK   10  A    between atoms: C7_25  and  O7_28 
REMARK   11  A    between atoms: O7_28  and  C8_29 
REMARK   12  A    between atoms: C11_33  and  O9_34 
REMARK   13  A    between atoms: C12_36  and  O10_37 
REMARK   14  A    between atoms: C13_39  and  O11_40 
ROOT
HETATM    1  C3  UNL     1     -14.673 -16.068  14.297  1.00  0.00     0.233 C 
HETATM    2  C4  UNL     1     -13.423 -16.539  14.926  1.00  0.00     0.186 C 
HETATM    3  C5  UNL     1     -12.795 -15.626  15.915  1.00  0.00     0.283 C 
HETATM    4  C6  UNL     1     -12.444 -14.277  15.393  1.00  0.00     0.280 C 
HETATM    5  S1  UNL     1     -13.990 -13.503  14.800  1.00  0.00    -0.031 SA
HETATM    6  C7  UNL     1     -15.252 -14.811  14.845  1.00  0.00     0.251 C 
ENDROOT
BRANCH   6   7
HETATM    7  O6  UNL     1     -15.734 -14.930  16.131  1.00  0.00    -0.355 OA
ATOM      8  H6  UNL     1     -16.508 -14.406  16.304  1.00  0.00     0.214 HD
ENDBRANCH   6   7
BRANCH   6   9
HETATM    9  O7  UNL     1     -16.357 -14.473  14.032  1.00  0.00    -0.311 OA
BRANCH   9  10
HETATM   10  C8  UNL     1     -16.391 -13.129  13.743  1.00  0.00     0.296 C 
HETATM   11  O8  UNL     1     -17.391 -12.537  14.549  1.00  0.00    -0.351 OA
HETATM   12  C9  UNL     1     -17.273 -11.153  14.442  1.00  0.00     0.152 C 
HETATM   13  C10 UNL     1     -17.986 -10.438  15.541  1.00  0.00     0.042 C 
HETATM   14  C11 UNL     1     -17.727 -10.733  13.066  1.00  0.00     0.178 C 
HETATM   15  C12 UNL     1     -16.760 -11.362  12.069  1.00  0.00     0.183 C 
HETATM   16  C13 UNL     1     -16.812 -12.867  12.310  1.00  0.00     0.204 C 
BRANCH  14  17
HETATM   17  O9  UNL     1     -17.723  -9.345  12.942  1.00  0.00    -0.390 OA
ATOM     18  H9  UNL     1     -16.835  -9.007  12.931  1.00  0.00     0.210 HD
ENDBRANCH  14  17
BRANCH  15  19
HETATM   19  O10 UNL     1     -17.169 -11.147  10.761  1.00  0.00    -0.390 OA
ATOM     20  H10 UNL     1     -16.654 -10.467  10.345  1.00  0.00     0.210 HD
ENDBRANCH  15  19
BRANCH  16  21
HETATM   21  O11 UNL     1     -16.079 -13.576  11.390  1.00  0.00    -0.388 OA
ATOM     22  H11 UNL     1     -16.013 -14.501  11.594  1.00  0.00     0.210 HD
ENDBRANCH  16  21
ENDBRANCH   9  10
ENDBRANCH   6   9
BRANCH   1  23
HETATM   23  O2  UNL     1     -15.677 -17.086  14.431  1.00  0.00    -0.307 OA
BRANCH  23  24
HETATM   24  C2  UNL     1     -16.019 -17.887  13.354  1.00  0.00     0.255 C 
HETATM   25  C1  UNL     1     -17.111 -17.560  12.403  1.00  0.00     0.126 C 
HETATM   26  O1  UNL     1     -15.352 -18.945  13.192  1.00  0.00    -0.266 OA
ENDBRANCH  23  24
ENDBRANCH   1  23
BRANCH   2  27
HETATM   27  N1  UNL     1     -12.421 -16.834  13.890  1.00  0.00    -0.243 N 
ATOM     28  H1  UNL     1     -11.836 -16.080  13.531  1.00  0.00     0.197 HD
BRANCH  27  29
HETATM   29  N2  UNL     1     -12.274 -17.974  13.447  1.00  0.00    -0.248 NA
BRANCH  29  30
HETATM   30  N3  UNL     1     -12.194 -19.067  12.878  1.00  0.00    -0.261 N 
ATOM     31  H32 UNL     1     -11.302 -18.709  12.536  1.00  0.00     0.193 HD
ATOM     32  H31 UNL     1     -12.238 -19.996  12.458  1.00  0.00     0.193 HD
ENDBRANCH  29  30
ENDBRANCH  27  29
ENDBRANCH   2  27
BRANCH   4  33
HETATM   33  O3  UNL     1     -11.945 -13.524  16.478  1.00  0.00    -0.356 OA
ATOM     34  H3  UNL     1     -12.532 -13.664  17.212  1.00  0.00     0.213 HD
ENDBRANCH   4  33
BRANCH   4  35
HETATM   35  N5  UNL     1     -11.448 -14.261  14.371  1.00  0.00    -0.103 N 
HETATM   36  O4  UNL     1     -11.769 -13.912  13.219  1.00  0.00    -0.533 OA
HETATM   37  O5  UNL     1     -10.158 -14.613  14.607  1.00  0.00    -0.533 OA
ENDBRANCH   4  35
BRANCH   3  38
HETATM   38  N4  UNL     1     -11.570 -16.289  16.395  1.00  0.00    -0.067 N 
ATOM     39  H43 UNL     1     -11.596 -16.508  17.391  1.00  0.00     0.275 HD
ATOM     40  H42 UNL     1     -11.471 -17.245  16.054  1.00  0.00     0.275 HD
ATOM     41  H41 UNL     1     -10.786 -15.689  16.138  1.00  0.00     0.275 HD
ENDBRANCH   3  38
TORSDOF 14
ENDMDL
MODEL 5
REMARK VINA RESULT: -5.462487102      2.008      3.138
REMARK  14 active torsions:
REMARK  status: ('A' for Active; 'I' for Inactive)
REMARK    1  A    between atoms: C2_2  and  O2_4 
REMARK    2  A    between atoms: O2_4  and  C3_5 
REMARK    3  A    between atoms: C4_6  and  N1_7 
REMARK    4  A    between atoms: N1_7  and  N2_9 
REMARK    5  A    between atoms: N2_9  and  N3_10 
REMARK    6  A    between atoms: C5_13  and  N4_14 
REMARK    7  A    between atoms: C6_18  and  O3_19 
REMARK    8  A    between atoms: C6_18  and  N5_21 
REMARK    9  A    between atoms: C7_25  and  O6_26 
REMARK   10  A    between atoms: C7_25  and  O7_28 
REMARK   11  A    between atoms: O7_28  and  C8_29 
REMARK   12  A    between atoms: C11_33  and  O9_34 
REMARK   13  A    between atoms: C12_36  and  O10_37 
REMARK   14  A    between atoms: C13_39  and  O11_40 
ROOT
HETATM    1  C3  UNL     1     -11.163 -15.077  14.305  1.00  0.00     0.233 C 
HETATM    2  C4  UNL     1     -10.493 -15.922  15.313  1.00  0.00     0.186 C 
HETATM    3  C5  UNL     1     -11.164 -16.033  16.635  1.00  0.00     0.283 C 
HETATM    4  C6  UNL     1     -11.382 -14.741  17.341  1.00  0.00     0.280 C 
HETATM    5  S1  UNL     1     -12.420 -13.697  16.258  1.00  0.00    -0.031 SA
HETATM    6  C7  UNL     1     -12.515 -14.570  14.666  1.00  0.00     0.251 C 
ENDROOT
BRANCH   6   7
HETATM    7  O6  UNL     1     -13.480 -15.551  14.745  1.00  0.00    -0.355 OA
ATOM      8  H6  UNL     1     -13.978 -15.539  15.554  1.00  0.00     0.214 HD
ENDBRANCH   6   7
BRANCH   6   9
HETATM    9  O7  UNL     1     -12.919 -13.691  13.634  1.00  0.00    -0.311 OA
BRANCH   9  10
HETATM   10  C8  UNL     1     -14.179 -13.187  13.852  1.00  0.00     0.296 C 
HETATM   11  O8  UNL     1     -15.084 -13.913  13.044  1.00  0.00    -0.351 OA
HETATM   12  C9  UNL     1     -16.379 -13.577  13.430  1.00  0.00     0.152 C 
HETATM   13  C10 UNL     1     -17.389 -14.564  12.944  1.00  0.00     0.042 C 
HETATM   14  C11 UNL     1     -16.666 -12.164  12.983  1.00  0.00     0.178 C 
HETATM   15  C12 UNL     1     -15.702 -11.256  13.740  1.00  0.00     0.183 C 
HETATM   16  C13 UNL     1     -14.297 -11.743  13.403  1.00  0.00     0.204 C 
BRANCH  14  17
HETATM   17  O9  UNL     1     -17.986 -11.813  13.257  1.00  0.00    -0.390 OA
ATOM     18  H9  UNL     1     -18.104 -10.872  13.209  1.00  0.00     0.210 HD
ENDBRANCH  14  17
BRANCH  15  19
HETATM   19  O10 UNL     1     -15.793  -9.944  13.300  1.00  0.00    -0.390 OA
ATOM     20  H10 UNL     1     -15.006  -9.454  13.506  1.00  0.00     0.210 HD
ENDBRANCH  15  19
BRANCH  16  21
HETATM   21  O11 UNL     1     -13.318 -10.931  13.920  1.00  0.00    -0.388 OA
ATOM     22  H11 UNL     1     -12.441 -11.280  13.806  1.00  0.00     0.210 HD
ENDBRANCH  16  21
ENDBRANCH   9  10
ENDBRANCH   6   9
BRANCH   1  23
HETATM   23  O2  UNL     1     -11.307 -15.826  13.088  1.00  0.00    -0.307 OA
BRANCH  23  24
HETATM   24  C2  UNL     1     -10.799 -17.111  12.985  1.00  0.00     0.255 C 
HETATM   25  C1  UNL     1     -11.618 -18.334  13.179  1.00  0.00     0.126 C 
HETATM   26  O1  UNL     1      -9.573 -17.222  12.710  1.00  0.00    -0.266 OA
ENDBRANCH  23  24
ENDBRANCH   1  23
BRANCH   2  27
HETATM   27  N1  UNL     1      -9.124 -15.434  15.545  1.00  0.00    -0.243 N 
ATOM     28  H1  UNL     1      -8.983 -14.476  15.866  1.00  0.00     0.197 HD
BRANCH  27  29
HETATM   29  N2  UNL     1      -8.147 -16.160  15.361  1.00  0.00    -0.248 NA
BRANCH  29  30
HETATM   30  N3  UNL     1      -7.256 -16.970  15.088  1.00  0.00    -0.261 N 
ATOM     31  H32 UNL     1      -6.648 -16.311  15.574  1.00  0.00     0.193 HD
ATOM     32  H31 UNL     1      -6.608 -17.707  14.806  1.00  0.00     0.193 HD
ENDBRANCH  29  30
ENDBRANCH  27  29
ENDBRANCH   2  27
BRANCH   4  33
HETATM   33  O3  UNL     1     -12.100 -15.026  18.523  1.00  0.00    -0.356 OA
ATOM     34  H3  UNL     1     -11.507 -14.890  19.253  1.00  0.00     0.213 HD
ENDBRANCH   4  33
BRANCH   4  35
HETATM   35  N5  UNL     1     -10.194 -14.048  17.721  1.00  0.00    -0.103 N 
HETATM   36  O4  UNL     1      -9.938 -12.951  17.191  1.00  0.00    -0.533 OA
HETATM   37  O5  UNL     1      -9.329 -14.541  18.644  1.00  0.00    -0.533 OA
ENDBRANCH   4  35
BRANCH   3  38
HETATM   38  N4  UNL     1     -10.319 -16.902  17.473  1.00  0.00    -0.067 N 
ATOM     39  H43 UNL     1     -10.525 -17.894  17.355  1.00  0.00     0.275 HD
ATOM     40  H42 UNL     1      -9.347 -16.934  17.166  1.00  0.00     0.275 HD
ATOM     41  H41 UNL     1     -10.426 -16.582  18.435  1.00  0.00     0.275 HD
ENDBRANCH   3  38
TORSDOF 14
ENDMDL
