MODEL 1
REMARK VINA RESULT: -6.450765740      0.000      0.000
REMARK  13 active torsions:
REMARK  status: ('A' for Active; 'I' for Inactive)
REMARK    1  A    between atoms: O1_2  and  C2_3 
REMARK    2  A    between atoms: C2_3  and  O3_5 
REMARK    3  A    between atoms: O3_5  and  C3_6 
REMARK    4  A    between atoms: C4_8  and  O5_9 
REMARK    5  A    between atoms: O5_9  and  C5_10 
REMARK    6  A    between atoms: C6_11  and  O6_12 
REMARK    7  A    between atoms: O6_12  and  C7_13 
REMARK    8  A    between atoms: C9_16  and  O8_17 
REMARK    9  A    between atoms: C10_19  and  C11_20 
REMARK   10  A    between atoms: C11_20  and  O9_22 
REMARK   11  A    between atoms: C14_27  and  O12_28 
REMARK   12  A    between atoms: C15_30  and  O13_31 
REMARK   13  A    between atoms: C16_33  and  O14_34 
ROOT
HETATM    1  O5  UNL     1     -13.063 -12.879  13.242  1.00  0.00    -0.309 OA
ENDROOT
BRANCH   1   2
HETATM    2  C4  UNL     1     -14.346 -13.073  13.801  1.00  0.00     0.301 C 
HETATM    3  O4  UNL     1     -15.154 -13.642  12.802  1.00  0.00    -0.325 OA
HETATM    4  C3  UNL     1     -16.332 -14.152  13.387  1.00  0.00     0.306 C 
HETATM    5  C16 UNL     1     -16.919 -13.134  14.343  1.00  0.00     0.205 C 
HETATM    6  C15 UNL     1     -16.412 -11.764  13.890  1.00  0.00     0.185 C 
HETATM    7  C14 UNL     1     -14.925 -11.708  14.104  1.00  0.00     0.205 C 
BRANCH   4   8
HETATM    8  O3  UNL     1     -15.953 -15.318  14.084  1.00  0.00    -0.264 OA
BRANCH   8   9
HETATM    9  C2  UNL     1     -16.329 -16.546  13.578  1.00  0.00     0.408 C 
HETATM   10  O2  UNL     1     -17.183 -16.682  12.653  1.00  0.00    -0.229 OA
BRANCH   9  11
HETATM   11  O1  UNL     1     -15.748 -17.690  14.104  1.00  0.00    -0.303 OA
HETATM   12  C1  UNL     1     -15.223 -18.725  13.291  1.00  0.00     0.215 C 
ENDBRANCH   9  11
ENDBRANCH   8   9
ENDBRANCH   4   8
BRANCH   5  13
HETATM   13  O14 UNL     1     -16.544 -13.370  15.650  1.00  0.00    -0.388 OA
ATOM     14  H14 UNL     1     -17.138 -12.966  16.273  1.00  0.00     0.210 HD
ENDBRANCH   5  13
BRANCH   6  15
HETATM   15  O13 UNL     1     -17.096 -10.790  14.589  1.00  0.00    -0.390 OA
ATOM     16  H13 UNL     1     -17.554 -11.129  15.350  1.00  0.00     0.210 HD
ENDBRANCH   6  15
BRANCH   7  17
HETATM   17  O12 UNL     1     -14.404 -10.782  13.185  1.00  0.00    -0.388 OA
ATOM     18  H12 UNL     1     -14.978 -10.026  13.155  1.00  0.00     0.210 HD
ENDBRANCH   7  17
ENDBRANCH   1   2
BRANCH   1  19
HETATM   19  C5  UNL     1     -11.895 -12.975  13.988  1.00  0.00     0.179 C 
HETATM   20  C6  UNL     1     -11.440 -14.185  14.220  1.00  0.00     0.127 C 
HETATM   21  C9  UNL     1     -10.207 -14.387  14.995  1.00  0.00     0.210 C 
HETATM   22  C10 UNL     1     -10.007 -13.240  15.927  1.00  0.00     0.195 C 
HETATM   23  O10 UNL     1     -10.032 -11.998  15.240  1.00  0.00    -0.305 OA
HETATM   24  C13 UNL     1     -11.204 -11.780  14.492  1.00  0.00     0.320 C 
HETATM   25  O11 UNL     1     -11.644 -10.631  14.263  1.00  0.00    -0.257 OA
BRANCH  20  26
HETATM   26  O6  UNL     1     -12.090 -15.339  13.748  1.00  0.00    -0.278 OA
BRANCH  26  27
HETATM   27  C7  UNL     1     -12.322 -16.432  14.552  1.00  0.00     0.259 C 
HETATM   28  C8  UNL     1     -11.741 -17.765  14.373  1.00  0.00     0.126 C 
HETATM   29  O7  UNL     1     -13.112 -16.241  15.529  1.00  0.00    -0.265 OA
ENDBRANCH  26  27
ENDBRANCH  20  26
BRANCH  21  30
HETATM   30  O8  UNL     1      -9.098 -14.621  14.182  1.00  0.00    -0.386 OA
ATOM     31  H8  UNL     1      -8.551 -15.326  14.509  1.00  0.00     0.210 HD
ENDBRANCH  21  30
BRANCH  22  32
HETATM   32  C11 UNL     1      -8.756 -13.380  16.766  1.00  0.00     0.146 C 
HETATM   33  C12 UNL     1      -8.995 -14.032  18.087  1.00  0.00     0.042 C 
BRANCH  32  34
HETATM   34  O9  UNL     1      -8.205 -12.117  16.931  1.00  0.00    -0.393 OA
ATOM     35  H9  UNL     1      -7.325 -12.132  16.576  1.00  0.00     0.210 HD
ENDBRANCH  32  34
ENDBRANCH  22  32
ENDBRANCH   1  19
TORSDOF 13
ENDMDL
MODEL 2
REMARK VINA RESULT: -6.387023505      1.838      3.003
REMARK  13 active torsions:
REMARK  status: ('A' for Active; 'I' for Inactive)
REMARK    1  A    between atoms: O1_2  and  C2_3 
REMARK    2  A    between atoms: C2_3  and  O3_5 
REMARK    3  A    between atoms: O3_5  and  C3_6 
REMARK    4  A    between atoms: C4_8  and  O5_9 
REMARK    5  A    between atoms: O5_9  and  C5_10 
REMARK    6  A    between atoms: C6_11  and  O6_12 
REMARK    7  A    between atoms: O6_12  and  C7_13 
REMARK    8  A    between atoms: C9_16  and  O8_17 
REMARK    9  A    between atoms: C10_19  and  C11_20 
REMARK   10  A    between atoms: C11_20  and  O9_22 
REMARK   11  A    between atoms: C14_27  and  O12_28 
REMARK   12  A    between atoms: C15_30  and  O13_31 
REMARK   13  A    between atoms: C16_33  and  O14_34 
ROOT
HETATM    1  O5  UNL     1     -13.404 -12.906  13.233  1.00  0.00    -0.309 OA
ENDROOT
BRANCH   1   2
HETATM    2  C4  UNL     1     -14.546 -12.246  13.740  1.00  0.00     0.301 C 
HETATM    3  O4  UNL     1     -15.278 -13.188  14.480  1.00  0.00    -0.325 OA
HETATM    4  C3  UNL     1     -16.240 -12.521  15.267  1.00  0.00     0.306 C 
HETATM    5  C16 UNL     1     -16.966 -11.487  14.433  1.00  0.00     0.205 C 
HETATM    6  C15 UNL     1     -16.850 -11.938  12.976  1.00  0.00     0.185 C 
HETATM    7  C14 UNL     1     -15.408 -11.851  12.561  1.00  0.00     0.205 C 
BRANCH   4   8
HETATM    8  O3  UNL     1     -15.527 -11.896  16.313  1.00  0.00    -0.264 OA
BRANCH   8   9
HETATM    9  C2  UNL     1     -16.111 -11.821  17.562  1.00  0.00     0.408 C 
HETATM   10  O2  UNL     1     -16.069 -10.782  18.284  1.00  0.00    -0.229 OA
BRANCH   9  11
HETATM   11  O1  UNL     1     -16.775 -12.933  18.054  1.00  0.00    -0.303 OA
HETATM   12  C1  UNL     1     -16.114 -13.975  18.751  1.00  0.00     0.215 C 
ENDBRANCH   9  11
ENDBRANCH   8   9
ENDBRANCH   4   8
BRANCH   5  13
HETATM   13  O14 UNL     1     -16.428 -10.224  14.583  1.00  0.00    -0.388 OA
ATOM     14  H14 UNL     1     -15.977  -9.931  13.800  1.00  0.00     0.210 HD
ENDBRANCH   5  13
BRANCH   6  15
HETATM   15  O13 UNL     1     -17.684 -11.153  12.206  1.00  0.00    -0.390 OA
ATOM     16  H13 UNL     1     -18.564 -11.504  12.131  1.00  0.00     0.210 HD
ENDBRANCH   6  15
BRANCH   7  17
HETATM   17  O12 UNL     1     -15.213 -12.782  11.526  1.00  0.00    -0.388 OA
ATOM     18  H12 UNL     1     -15.183 -12.317  10.699  1.00  0.00     0.210 HD
ENDBRANCH   7  17
ENDBRANCH   1   2
BRANCH   1  19
HETATM   19  C5  UNL     1     -12.202 -12.971  13.927  1.00  0.00     0.179 C 
HETATM   20  C6  UNL     1     -11.766 -14.169  14.240  1.00  0.00     0.127 C 
HETATM   21  C9  UNL     1     -10.499 -14.339  14.969  1.00  0.00     0.210 C 
HETATM   22  C10 UNL     1     -10.225 -13.122  15.787  1.00  0.00     0.195 C 
HETATM   23  O10 UNL     1     -10.255 -11.943  14.997  1.00  0.00    -0.305 OA
HETATM   24  C13 UNL     1     -11.458 -11.757  14.291  1.00  0.00     0.320 C 
HETATM   25  O11 UNL     1     -11.881 -10.620  13.985  1.00  0.00    -0.257 OA
BRANCH  20  26
HETATM   26  O6  UNL     1     -12.466 -15.340  13.903  1.00  0.00    -0.278 OA
BRANCH  26  27
HETATM   27  C7  UNL     1     -11.846 -16.565  13.807  1.00  0.00     0.259 C 
HETATM   28  C8  UNL     1     -11.896 -17.631  14.812  1.00  0.00     0.126 C 
HETATM   29  O7  UNL     1     -11.178 -16.764  12.745  1.00  0.00    -0.265 OA
ENDBRANCH  26  27
ENDBRANCH  20  26
BRANCH  21  30
HETATM   30  O8  UNL     1      -9.439 -14.673  14.126  1.00  0.00    -0.386 OA
ATOM     31  H8  UNL     1      -9.495 -15.568  13.810  1.00  0.00     0.210 HD
ENDBRANCH  21  30
BRANCH  22  32
HETATM   32  C11 UNL     1      -8.936 -13.226  16.573  1.00  0.00     0.146 C 
HETATM   33  C12 UNL     1      -9.038 -14.112  17.770  1.00  0.00     0.042 C 
BRANCH  32  34
HETATM   34  O9  UNL     1      -8.552 -11.944  16.939  1.00  0.00    -0.393 OA
ATOM     35  H9  UNL     1      -7.802 -11.699  16.410  1.00  0.00     0.210 HD
ENDBRANCH  32  34
ENDBRANCH  22  32
ENDBRANCH   1  19
TORSDOF 13
ENDMDL
MODEL 3
REMARK VINA RESULT: -6.210888171      2.375      6.917
REMARK  13 active torsions:
REMARK  status: ('A' for Active; 'I' for Inactive)
REMARK    1  A    between atoms: O1_2  and  C2_3 
REMARK    2  A    between atoms: C2_3  and  O3_5 
REMARK    3  A    between atoms: O3_5  and  C3_6 
REMARK    4  A    between atoms: C4_8  and  O5_9 
REMARK    5  A    between atoms: O5_9  and  C5_10 
REMARK    6  A    between atoms: C6_11  and  O6_12 
REMARK    7  A    between atoms: O6_12  and  C7_13 
REMARK    8  A    between atoms: C9_16  and  O8_17 
REMARK    9  A    between atoms: C10_19  and  C11_20 
REMARK   10  A    between atoms: C11_20  and  O9_22 
REMARK   11  A    between atoms: C14_27  and  O12_28 
REMARK   12  A    between atoms: C15_30  and  O13_31 
REMARK   13  A    between atoms: C16_33  and  O14_34 
ROOT
HETATM    1  O5  UNL     1     -12.529 -14.283  15.330  1.00  0.00    -0.309 OA
ENDROOT
BRANCH   1   2
HETATM    2  C4  UNL     1     -11.387 -13.883  16.059  1.00  0.00     0.301 C 
HETATM    3  O4  UNL     1     -10.290 -13.948  15.184  1.00  0.00    -0.325 OA
HETATM    4  C3  UNL     1      -9.197 -13.260  15.750  1.00  0.00     0.306 C 
HETATM    5  C16 UNL     1      -9.029 -13.658  17.201  1.00  0.00     0.205 C 
HETATM    6  C15 UNL     1      -9.663 -15.042  17.352  1.00  0.00     0.185 C 
HETATM    7  C14 UNL     1     -11.145 -14.916  17.138  1.00  0.00     0.205 C 
BRANCH   4   8
HETATM    8  O3  UNL     1      -9.503 -11.886  15.651  1.00  0.00    -0.264 OA
BRANCH   8   9
HETATM    9  C2  UNL     1      -9.586 -11.312  14.398  1.00  0.00     0.408 C 
HETATM   10  O2  UNL     1     -10.527 -10.540  14.051  1.00  0.00    -0.229 OA
BRANCH   9  11
HETATM   11  O1  UNL     1      -8.594 -11.591  13.471  1.00  0.00    -0.303 OA
HETATM   12  C1  UNL     1      -7.222 -11.330  13.714  1.00  0.00     0.215 C 
ENDBRANCH   9  11
ENDBRANCH   8   9
ENDBRANCH   4   8
BRANCH   5  13
HETATM   13  O14 UNL     1      -9.632 -12.763  18.062  1.00  0.00    -0.388 OA
ATOM     14  H14 UNL     1      -9.000 -12.289  18.589  1.00  0.00     0.210 HD
ENDBRANCH   5  13
BRANCH   6  15
HETATM   15  O13 UNL     1      -9.336 -15.541  18.598  1.00  0.00    -0.390 OA
ATOM     16  H13 UNL     1      -8.747 -14.975  19.083  1.00  0.00     0.210 HD
ENDBRANCH   6  15
BRANCH   7  17
HETATM   17  O12 UNL     1     -11.610 -16.162  16.683  1.00  0.00    -0.388 OA
ATOM     18  H12 UNL     1     -11.043 -16.843  17.024  1.00  0.00     0.210 HD
ENDBRANCH   7  17
ENDBRANCH   1   2
BRANCH   1  19
HETATM   19  C5  UNL     1     -13.501 -13.388  14.902  1.00  0.00     0.179 C 
HETATM   20  C6  UNL     1     -14.542 -13.228  15.686  1.00  0.00     0.127 C 
HETATM   21  C9  UNL     1     -15.620 -12.297  15.319  1.00  0.00     0.210 C 
HETATM   22  C10 UNL     1     -15.677 -12.155  13.836  1.00  0.00     0.195 C 
HETATM   23  O10 UNL     1     -14.417 -11.783  13.298  1.00  0.00    -0.305 OA
HETATM   24  C13 UNL     1     -13.369 -12.660  13.633  1.00  0.00     0.320 C 
HETATM   25  O11 UNL     1     -12.371 -12.817  12.894  1.00  0.00    -0.257 OA
BRANCH  20  26
HETATM   26  O6  UNL     1     -14.686 -13.920  16.901  1.00  0.00    -0.278 OA
BRANCH  26  27
HETATM   27  C7  UNL     1     -15.310 -15.144  16.979  1.00  0.00     0.259 C 
HETATM   28  C8  UNL     1     -16.754 -15.377  16.885  1.00  0.00     0.126 C 
HETATM   29  O7  UNL     1     -14.544 -16.144  17.147  1.00  0.00    -0.265 OA
ENDBRANCH  26  27
ENDBRANCH  20  26
BRANCH  21  30
HETATM   30  O8  UNL     1     -15.513 -11.071  15.975  1.00  0.00    -0.386 OA
ATOM     31  H8  UNL     1     -16.117 -10.422  15.634  1.00  0.00     0.210 HD
ENDBRANCH  21  30
BRANCH  22  32
HETATM   32  C11 UNL     1     -16.771 -11.213  13.381  1.00  0.00     0.146 C 
HETATM   33  C12 UNL     1     -17.170 -11.408  11.956  1.00  0.00     0.042 C 
BRANCH  32  34
HETATM   34  O9  UNL     1     -16.335  -9.913  13.598  1.00  0.00    -0.393 OA
ATOM     35  H9  UNL     1     -15.877  -9.623  12.818  1.00  0.00     0.210 HD
ENDBRANCH  32  34
ENDBRANCH  22  32
ENDBRANCH   1  19
TORSDOF 13
ENDMDL
MODEL 4
REMARK VINA RESULT: -6.131145119      1.584      3.119
REMARK  13 active torsions:
REMARK  status: ('A' for Active; 'I' for Inactive)
REMARK    1  A    between atoms: O1_2  and  C2_3 
REMARK    2  A    between atoms: C2_3  and  O3_5 
REMARK    3  A    between atoms: O3_5  and  C3_6 
REMARK    4  A    between atoms: C4_8  and  O5_9 
REMARK    5  A    between atoms: O5_9  and  C5_10 
REMARK    6  A    between atoms: C6_11  and  O6_12 
REMARK    7  A    between atoms: O6_12  and  C7_13 
REMARK    8  A    between atoms: C9_16  and  O8_17 
REMARK    9  A    between atoms: C10_19  and  C11_20 
REMARK   10  A    between atoms: C11_20  and  O9_22 
REMARK   11  A    between atoms: C14_27  and  O12_28 
REMARK   12  A    between atoms: C15_30  and  O13_31 
REMARK   13  A    between atoms: C16_33  and  O14_34 
ROOT
HETATM    1  O5  UNL     1     -12.629 -13.401  13.646  1.00  0.00    -0.309 OA
ENDROOT
BRANCH   1   2
HETATM    2  C4  UNL     1     -13.996 -13.329  13.996  1.00  0.00     0.301 C 
HETATM    3  O4  UNL     1     -14.739 -13.593  12.833  1.00  0.00    -0.325 OA
HETATM    4  C3  UNL     1     -16.080 -13.854  13.182  1.00  0.00     0.306 C 
HETATM    5  C16 UNL     1     -16.570 -12.816  14.170  1.00  0.00     0.205 C 
HETATM    6  C15 UNL     1     -15.701 -11.573  13.967  1.00  0.00     0.185 C 
HETATM    7  C14 UNL     1     -14.295 -11.898  14.387  1.00  0.00     0.205 C 
BRANCH   4   8
HETATM    8  O3  UNL     1     -16.091 -15.136  13.772  1.00  0.00    -0.264 OA
BRANCH   8   9
HETATM    9  C2  UNL     1     -16.776 -16.153  13.138  1.00  0.00     0.408 C 
HETATM   10  O2  UNL     1     -17.986 -16.054  12.779  1.00  0.00    -0.229 OA
BRANCH   9  11
HETATM   11  O1  UNL     1     -16.114 -17.342  12.878  1.00  0.00    -0.303 OA
HETATM   12  C1  UNL     1     -15.539 -18.138  13.901  1.00  0.00     0.215 C 
ENDBRANCH   9  11
ENDBRANCH   8   9
ENDBRANCH   4   8
BRANCH   5  13
HETATM   13  O14 UNL     1     -16.475 -13.253  15.476  1.00  0.00    -0.388 OA
ATOM     14  H14 UNL     1     -17.248 -13.734  15.751  1.00  0.00     0.210 HD
ENDBRANCH   5  13
BRANCH   6  15
HETATM   15  O13 UNL     1     -16.254 -10.531  14.684  1.00  0.00    -0.390 OA
ATOM     16  H13 UNL     1     -16.850 -10.821  15.364  1.00  0.00     0.210 HD
ENDBRANCH   6  15
BRANCH   7  17
HETATM   17  O12 UNL     1     -13.437 -11.045  13.672  1.00  0.00    -0.388 OA
ATOM     18  H12 UNL     1     -13.908 -10.249  13.456  1.00  0.00     0.210 HD
ENDBRANCH   7  17
ENDBRANCH   1   2
BRANCH   1  19
HETATM   19  C5  UNL     1     -11.709 -14.159  14.358  1.00  0.00     0.179 C 
HETATM   20  C6  UNL     1     -10.853 -13.499  15.105  1.00  0.00     0.127 C 
HETATM   21  C9  UNL     1      -9.844 -14.216  15.900  1.00  0.00     0.210 C 
HETATM   22  C10 UNL     1      -9.537 -15.526  15.258  1.00  0.00     0.195 C 
HETATM   23  O10 UNL     1     -10.714 -16.289  15.039  1.00  0.00    -0.305 OA
HETATM   24  C13 UNL     1     -11.694 -15.626  14.278  1.00  0.00     0.320 C 
HETATM   25  O11 UNL     1     -12.516 -16.245  13.566  1.00  0.00    -0.257 OA
BRANCH  20  26
HETATM   26  O6  UNL     1     -10.850 -12.096  15.190  1.00  0.00    -0.278 OA
BRANCH  26  27
HETATM   27  C7  UNL     1      -9.997 -11.317  14.443  1.00  0.00     0.259 C 
HETATM   28  C8  UNL     1      -8.549 -11.506  14.321  1.00  0.00     0.126 C 
HETATM   29  O7  UNL     1     -10.538 -10.355  13.812  1.00  0.00    -0.265 OA
ENDBRANCH  26  27
ENDBRANCH  20  26
BRANCH  21  30
HETATM   30  O8  UNL     1     -10.213 -14.344  17.239  1.00  0.00    -0.386 OA
ATOM     31  H8  UNL     1     -10.103 -15.231  17.563  1.00  0.00     0.210 HD
ENDBRANCH  21  30
BRANCH  22  32
HETATM   32  C11 UNL     1      -8.499 -16.320  16.019  1.00  0.00     0.146 C 
HETATM   33  C12 UNL     1      -7.515 -17.014  15.137  1.00  0.00     0.042 C 
BRANCH  32  34
HETATM   34  O9  UNL     1      -9.163 -17.231  16.829  1.00  0.00    -0.393 OA
ATOM     35  H9  UNL     1      -8.928 -18.105  16.542  1.00  0.00     0.210 HD
ENDBRANCH  32  34
ENDBRANCH  22  32
ENDBRANCH   1  19
TORSDOF 13
ENDMDL
MODEL 5
REMARK VINA RESULT: -6.061423770      1.957      6.117
REMARK  13 active torsions:
REMARK  status: ('A' for Active; 'I' for Inactive)
REMARK    1  A    between atoms: O1_2  and  C2_3 
REMARK    2  A    between atoms: C2_3  and  O3_5 
REMARK    3  A    between atoms: O3_5  and  C3_6 
REMARK    4  A    between atoms: C4_8  and  O5_9 
REMARK    5  A    between atoms: O5_9  and  C5_10 
REMARK    6  A    between atoms: C6_11  and  O6_12 
REMARK    7  A    between atoms: O6_12  and  C7_13 
REMARK    8  A    between atoms: C9_16  and  O8_17 
REMARK    9  A    between atoms: C10_19  and  C11_20 
REMARK   10  A    between atoms: C11_20  and  O9_22 
REMARK   11  A    between atoms: C14_27  and  O12_28 
REMARK   12  A    between atoms: C15_30  and  O13_31 
REMARK   13  A    between atoms: C16_33  and  O14_34 
ROOT
HETATM    1  O5  UNL     1     -11.759 -14.542  15.584  1.00  0.00    -0.309 OA
ENDROOT
BRANCH   1   2
HETATM    2  C4  UNL     1     -11.077 -15.484  14.780  1.00  0.00     0.301 C 
HETATM    3  O4  UNL     1     -11.439 -16.762  15.238  1.00  0.00    -0.325 OA
HETATM    4  C3  UNL     1     -11.054 -17.727  14.284  1.00  0.00     0.306 C 
HETATM    5  C16 UNL     1      -9.636 -17.464  13.822  1.00  0.00     0.205 C 
HETATM    6  C15 UNL     1      -8.949 -16.681  14.941  1.00  0.00     0.185 C 
HETATM    7  C14 UNL     1      -9.596 -15.328  15.047  1.00  0.00     0.205 C 
BRANCH   4   8
HETATM    8  O3  UNL     1     -11.954 -17.594  13.205  1.00  0.00    -0.264 OA
BRANCH   8   9
HETATM    9  C2  UNL     1     -13.034 -18.451  13.132  1.00  0.00     0.408 C 
HETATM   10  O2  UNL     1     -14.177 -18.166  13.598  1.00  0.00    -0.229 OA
BRANCH   9  11
HETATM   11  O1  UNL     1     -12.867 -19.683  12.520  1.00  0.00    -0.303 OA
HETATM   12  C1  UNL     1     -13.094 -20.910  13.193  1.00  0.00     0.215 C 
ENDBRANCH   9  11
ENDBRANCH   8   9
ENDBRANCH   4   8
BRANCH   5  13
HETATM   13  O14 UNL     1      -9.596 -16.744  12.645  1.00  0.00    -0.388 OA
ATOM     14  H14 UNL     1      -9.530 -17.307  11.882  1.00  0.00     0.210 HD
ENDBRANCH   5  13
BRANCH   6  15
HETATM   15  O13 UNL     1      -7.598 -16.615  14.664  1.00  0.00    -0.390 OA
ATOM     16  H13 UNL     1      -7.239 -15.741  14.766  1.00  0.00     0.210 HD
ENDBRANCH   6  15
BRANCH   7  17
HETATM   17  O12 UNL     1      -9.419 -14.881  16.367  1.00  0.00    -0.388 OA
ATOM     18  H12 UNL     1      -8.700 -14.261  16.386  1.00  0.00     0.210 HD
ENDBRANCH   7  17
ENDBRANCH   1   2
BRANCH   1  19
HETATM   19  C5  UNL     1     -12.907 -13.883  15.163  1.00  0.00     0.179 C 
HETATM   20  C6  UNL     1     -12.749 -12.944  14.259  1.00  0.00     0.127 C 
HETATM   21  C9  UNL     1     -13.907 -12.194  13.747  1.00  0.00     0.210 C 
HETATM   22  C10 UNL     1     -14.986 -12.175  14.777  1.00  0.00     0.195 C 
HETATM   23  O10 UNL     1     -15.321 -13.485  15.207  1.00  0.00    -0.305 OA
HETATM   24  C13 UNL     1     -14.230 -14.222  15.704  1.00  0.00     0.320 C 
HETATM   25  O11 UNL     1     -14.370 -15.122  16.563  1.00  0.00    -0.257 OA
BRANCH  20  26
HETATM   26  O6  UNL     1     -11.490 -12.604  13.734  1.00  0.00    -0.278 OA
BRANCH  26  27
HETATM   27  C7  UNL     1     -10.728 -11.584  14.255  1.00  0.00     0.259 C 
HETATM   28  C8  UNL     1      -9.344 -11.703  14.723  1.00  0.00     0.126 C 
HETATM   29  O7  UNL     1     -11.297 -10.450  14.327  1.00  0.00    -0.265 OA
ENDBRANCH  26  27
ENDBRANCH  20  26
BRANCH  21  30
HETATM   30  O8  UNL     1     -14.347 -12.671  12.512  1.00  0.00    -0.386 OA
ATOM     31  H8  UNL     1     -15.271 -12.892  12.517  1.00  0.00     0.210 HD
ENDBRANCH  21  30
BRANCH  22  32
HETATM   32  C11 UNL     1     -16.213 -11.414  14.322  1.00  0.00     0.146 C 
HETATM   33  C12 UNL     1     -17.280 -12.290  13.757  1.00  0.00     0.042 C 
BRANCH  32  34
HETATM   34  O9  UNL     1     -15.810 -10.466  13.393  1.00  0.00    -0.393 OA
ATOM     35  H9  UNL     1     -14.920 -10.669  13.132  1.00  0.00     0.210 HD
ENDBRANCH  32  34
ENDBRANCH  22  32
ENDBRANCH   1  19
TORSDOF 13
ENDMDL
