MODEL 1
REMARK VINA RESULT: -6.660416664      0.000      0.000
REMARK  9 active torsions:
REMARK  status: ('A' for Active; 'I' for Inactive)
REMARK    1  A    between atoms: N1_2  and  C2_5 
REMARK    2  A    between atoms: N2_7  and  C4_8 
REMARK    3  A    between atoms: N4_11  and  S1_12 
REMARK    4  A    between atoms: C6_17  and  O4_18 
REMARK    5  A    between atoms: C10_24  and  C11_25 
REMARK    6  A    between atoms: C11_25  and  O7_27 
REMARK    7  A    between atoms: C13_29  and  O8_30 
REMARK    8  A    between atoms: C13_29  and  C14_32 
REMARK    9  A    between atoms: C14_32  and  O10_34 
ROOT
HETATM    1  C2  UNL     1      -8.981 -14.075  16.761  1.00  0.00     0.229 A 
HETATM    2  C3  UNL     1      -8.200 -12.924  17.267  1.00  0.00     0.175 A 
HETATM    3  N2  UNL     1      -9.056 -12.791  18.430  1.00  0.00    -0.332 N 
HETATM    4  C7  UNL     1      -9.877 -13.869  17.943  1.00  0.00     0.273 A 
HETATM    5  O5  UNL     1     -11.155 -13.380  17.556  1.00  0.00    -0.327 OA
HETATM    6  C8  UNL     1     -11.833 -13.998  16.485  1.00  0.00     0.061 C 
HETATM    7  C9  UNL     1     -13.260 -14.314  16.573  1.00  0.00     0.077 C 
HETATM    8  C10 UNL     1     -11.077 -14.249  15.439  1.00  0.00     0.093 C 
HETATM    9  C13 UNL     1      -9.651 -13.869  15.448  1.00  0.00     0.220 C 
ENDROOT
BRANCH   3  10
HETATM   10  C4  UNL     1      -9.013 -11.932  19.566  1.00  0.00     0.156 A 
HETATM   11  N3  UNL     1      -7.948 -11.144  19.931  1.00  0.00    -0.265 N 
HETATM   12  N4  UNL     1      -8.231 -10.477  21.036  1.00  0.00    -0.169 N 
ATOM     13  H3  UNL     1      -7.066 -11.084  19.423  1.00  0.00     0.190 HD
HETATM   14  C5  UNL     1      -9.468 -10.775  21.456  1.00  0.00     0.172 A 
HETATM   15  C6  UNL     1      -9.959 -11.686  20.538  1.00  0.00     0.129 A 
BRANCH  12  16
HETATM   16  S1  UNL     1      -7.140  -9.386  21.807  1.00  0.00     0.230 S 
HETATM   17  O1  UNL     1      -7.069  -9.784  23.258  1.00  0.00    -0.576 OA
HETATM   18  O2  UNL     1      -5.786  -9.479  21.190  1.00  0.00    -0.576 OA
HETATM   19  O3  UNL     1      -7.691  -7.804  21.756  1.00  0.00    -0.576 OA
ENDBRANCH  12  16
BRANCH  15  20
HETATM   20  O4  UNL     1     -11.211 -12.236  20.621  1.00  0.00    -0.356 OA
ATOM     21  H4  UNL     1     -12.039 -11.782  20.517  1.00  0.00     0.218 HD
ENDBRANCH  15  20
ENDBRANCH   3  10
BRANCH   1  22
HETATM   22  N1  UNL     1      -8.207 -15.287  16.761  1.00  0.00    -0.060 N 
HETATM   23  C1  UNL     1      -8.727 -16.320  17.596  1.00  0.00     0.268 C 
ATOM     24  H12 UNL     1      -7.237 -15.088  17.004  1.00  0.00     0.278 HD
ATOM     25  H11 UNL     1      -8.083 -15.629  15.808  1.00  0.00     0.278 HD
ENDBRANCH   1  22
BRANCH   9  26
HETATM   26  O8  UNL     1      -9.013 -14.659  14.461  1.00  0.00    -0.372 OA
ATOM     27  H8  UNL     1      -9.322 -14.403  13.600  1.00  0.00     0.211 HD
ENDBRANCH   9  26
BRANCH   9  28
HETATM   28  C14 UNL     1      -9.609 -12.470  14.936  1.00  0.00     0.301 C 
HETATM   29  O9  UNL     1     -10.553 -11.642  15.148  1.00  0.00    -0.261 OA
BRANCH  28  30
HETATM   30  O10 UNL     1      -8.539 -12.008  14.205  1.00  0.00    -0.324 OA
HETATM   31  C15 UNL     1      -8.504 -10.799  13.492  1.00  0.00     0.213 C 
ENDBRANCH  28  30
ENDBRANCH   9  28
BRANCH   8  32
HETATM   32  C11 UNL     1     -11.638 -14.886  14.267  1.00  0.00     0.295 C 
HETATM   33  O6  UNL     1     -12.008 -14.213  13.244  1.00  0.00    -0.259 OA
BRANCH  32  34
HETATM   34  O7  UNL     1     -11.826 -16.266  14.137  1.00  0.00    -0.323 OA
HETATM   35  C12 UNL     1     -11.138 -17.014  13.155  1.00  0.00     0.213 C 
ENDBRANCH  32  34
ENDBRANCH   8  32
TORSDOF 9
ENDMDL
MODEL 2
REMARK VINA RESULT: -6.502899065      1.363      1.661
REMARK  9 active torsions:
REMARK  status: ('A' for Active; 'I' for Inactive)
REMARK    1  A    between atoms: N1_2  and  C2_5 
REMARK    2  A    between atoms: N2_7  and  C4_8 
REMARK    3  A    between atoms: N4_11  and  S1_12 
REMARK    4  A    between atoms: C6_17  and  O4_18 
REMARK    5  A    between atoms: C10_24  and  C11_25 
REMARK    6  A    between atoms: C11_25  and  O7_27 
REMARK    7  A    between atoms: C13_29  and  O8_30 
REMARK    8  A    between atoms: C13_29  and  C14_32 
REMARK    9  A    between atoms: C14_32  and  O10_34 
ROOT
HETATM    1  C2  UNL     1      -9.134 -14.563  16.697  1.00  0.00     0.229 A 
HETATM    2  C3  UNL     1      -8.206 -13.660  17.414  1.00  0.00     0.175 A 
HETATM    3  N2  UNL     1      -9.130 -13.508  18.521  1.00  0.00    -0.332 N 
HETATM    4  C7  UNL     1     -10.085 -14.335  17.831  1.00  0.00     0.273 A 
HETATM    5  O5  UNL     1     -11.208 -13.561  17.428  1.00  0.00    -0.327 OA
HETATM    6  C8  UNL     1     -11.883 -13.895  16.235  1.00  0.00     0.061 C 
HETATM    7  C9  UNL     1     -13.345 -13.934  16.178  1.00  0.00     0.077 C 
HETATM    8  C10 UNL     1     -11.089 -14.157  15.221  1.00  0.00     0.093 C 
HETATM    9  C13 UNL     1      -9.626 -14.067  15.383  1.00  0.00     0.220 C 
ENDROOT
BRANCH   3  10
HETATM   10  C4  UNL     1      -9.038 -12.823  19.767  1.00  0.00     0.156 A 
HETATM   11  N3  UNL     1      -9.365 -11.506  19.980  1.00  0.00    -0.265 N 
HETATM   12  N4  UNL     1      -9.160 -11.182  21.244  1.00  0.00    -0.169 N 
ATOM     13  H3  UNL     1      -9.716 -10.869  19.264  1.00  0.00     0.190 HD
HETATM   14  C5  UNL     1      -8.697 -12.238  21.925  1.00  0.00     0.172 A 
HETATM   15  C6  UNL     1      -8.621 -13.267  21.004  1.00  0.00     0.129 A 
BRANCH  12  16
HETATM   16  S1  UNL     1      -9.451  -9.612  21.894  1.00  0.00     0.230 S 
HETATM   17  O1  UNL     1      -8.657  -8.635  21.065  1.00  0.00    -0.576 OA
HETATM   18  O2  UNL     1     -10.902  -9.276  21.819  1.00  0.00    -0.576 OA
HETATM   19  O3  UNL     1      -8.907  -9.473  23.473  1.00  0.00    -0.576 OA
ENDBRANCH  12  16
BRANCH  15  20
HETATM   20  O4  UNL     1      -8.187 -14.527  21.318  1.00  0.00    -0.356 OA
ATOM     21  H4  UNL     1      -8.281 -14.968  22.154  1.00  0.00     0.218 HD
ENDBRANCH  15  20
ENDBRANCH   3  10
BRANCH   1  22
HETATM   22  N1  UNL     1      -8.600 -15.893  16.580  1.00  0.00    -0.060 N 
HETATM   23  C1  UNL     1      -9.405 -16.907  17.180  1.00  0.00     0.268 C 
ATOM     24  H12 UNL     1      -7.651 -15.928  16.950  1.00  0.00     0.278 HD
ATOM     25  H11 UNL     1      -8.416 -16.117  15.603  1.00  0.00     0.278 HD
ENDBRANCH   1  22
BRANCH   9  26
HETATM   26  O8  UNL     1      -9.053 -14.837  14.342  1.00  0.00    -0.372 OA
ATOM     27  H8  UNL     1      -9.699 -14.982  13.661  1.00  0.00     0.211 HD
ENDBRANCH   9  26
BRANCH   9  28
HETATM   28  C14 UNL     1      -9.277 -12.650  15.077  1.00  0.00     0.301 C 
HETATM   29  O9  UNL     1     -10.013 -11.678  15.443  1.00  0.00    -0.261 OA
BRANCH  28  30
HETATM   30  O10 UNL     1      -8.134 -12.329  14.381  1.00  0.00    -0.324 OA
HETATM   31  C15 UNL     1      -7.964 -11.186  13.584  1.00  0.00     0.213 C 
ENDBRANCH  28  30
ENDBRANCH   9  28
BRANCH   8  32
HETATM   32  C11 UNL     1     -11.643 -14.520  13.934  1.00  0.00     0.295 C 
HETATM   33  O6  UNL     1     -12.186 -13.655  13.163  1.00  0.00    -0.259 OA
BRANCH  32  34
HETATM   34  O7  UNL     1     -11.640 -15.819  13.416  1.00  0.00    -0.323 OA
HETATM   35  C12 UNL     1     -11.954 -16.935  14.224  1.00  0.00     0.213 C 
ENDBRANCH  32  34
ENDBRANCH   8  32
TORSDOF 9
ENDMDL
MODEL 3
REMARK VINA RESULT: -6.443923069      1.513      2.059
REMARK  9 active torsions:
REMARK  status: ('A' for Active; 'I' for Inactive)
REMARK    1  A    between atoms: N1_2  and  C2_5 
REMARK    2  A    between atoms: N2_7  and  C4_8 
REMARK    3  A    between atoms: N4_11  and  S1_12 
REMARK    4  A    between atoms: C6_17  and  O4_18 
REMARK    5  A    between atoms: C10_24  and  C11_25 
REMARK    6  A    between atoms: C11_25  and  O7_27 
REMARK    7  A    between atoms: C13_29  and  O8_30 
REMARK    8  A    between atoms: C13_29  and  C14_32 
REMARK    9  A    between atoms: C14_32  and  O10_34 
ROOT
HETATM    1  C2  UNL     1      -9.053 -14.213  16.846  1.00  0.00     0.229 A 
HETATM    2  C3  UNL     1      -8.284 -13.077  17.402  1.00  0.00     0.175 A 
HETATM    3  N2  UNL     1      -9.198 -12.939  18.518  1.00  0.00    -0.332 N 
HETATM    4  C7  UNL     1     -10.007 -14.002  17.981  1.00  0.00     0.273 A 
HETATM    5  O5  UNL     1     -11.256 -13.492  17.530  1.00  0.00    -0.327 OA
HETATM    6  C8  UNL     1     -11.885 -14.093  16.420  1.00  0.00     0.061 C 
HETATM    7  C9  UNL     1     -13.319 -14.388  16.430  1.00  0.00     0.077 C 
HETATM    8  C10 UNL     1     -11.078 -14.348  15.414  1.00  0.00     0.093 C 
HETATM    9  C13 UNL     1      -9.649 -13.989  15.502  1.00  0.00     0.220 C 
ENDROOT
BRANCH   3  10
HETATM   10  C4  UNL     1      -9.204 -12.088  19.662  1.00  0.00     0.156 A 
HETATM   11  N3  UNL     1     -10.314 -11.743  20.393  1.00  0.00    -0.265 N 
HETATM   12  N4  UNL     1      -9.976 -10.936  21.383  1.00  0.00    -0.169 N 
ATOM     13  H3  UNL     1     -11.263 -12.062  20.199  1.00  0.00     0.190 HD
HETATM   14  C5  UNL     1      -8.656 -10.707  21.367  1.00  0.00     0.172 A 
HETATM   15  C6  UNL     1      -8.171 -11.427  20.291  1.00  0.00     0.129 A 
BRANCH  12  16
HETATM   16  S1  UNL     1     -11.099 -10.284  22.519  1.00  0.00     0.230 S 
HETATM   17  O1  UNL     1     -11.326 -11.337  23.572  1.00  0.00    -0.576 OA
HETATM   18  O2  UNL     1     -10.547  -9.050  23.148  1.00  0.00    -0.576 OA
HETATM   19  O3  UNL     1     -12.586  -9.959  21.818  1.00  0.00    -0.576 OA
ENDBRANCH  12  16
BRANCH  15  20
HETATM   20  O4  UNL     1      -6.848 -11.451  19.938  1.00  0.00    -0.356 OA
ATOM     21  H4  UNL     1      -6.161 -10.884  20.269  1.00  0.00     0.218 HD
ENDBRANCH  15  20
ENDBRANCH   3  10
BRANCH   1  22
HETATM   22  N1  UNL     1      -8.298 -15.436  16.879  1.00  0.00    -0.060 N 
HETATM   23  C1  UNL     1      -8.863 -16.458  17.697  1.00  0.00     0.268 C 
ATOM     24  H12 UNL     1      -7.334 -15.251  17.157  1.00  0.00     0.278 HD
ATOM     25  H11 UNL     1      -8.143 -15.783  15.932  1.00  0.00     0.278 HD
ENDBRANCH   1  22
BRANCH   9  26
HETATM   26  O8  UNL     1      -8.971 -14.782  14.544  1.00  0.00    -0.372 OA
ATOM     27  H8  UNL     1      -9.534 -14.922  13.792  1.00  0.00     0.211 HD
ENDBRANCH   9  26
BRANCH   9  28
HETATM   28  C14 UNL     1      -9.560 -12.587  15.002  1.00  0.00     0.301 C 
HETATM   29  O9  UNL     1     -10.474 -11.729  15.226  1.00  0.00    -0.261 OA
BRANCH  28  30
HETATM   30  O10 UNL     1      -8.476 -12.155  14.273  1.00  0.00    -0.324 OA
HETATM   31  C15 UNL     1      -8.409 -10.950  13.556  1.00  0.00     0.213 C 
ENDBRANCH  28  30
ENDBRANCH   9  28
BRANCH   8  32
HETATM   32  C11 UNL     1     -11.584 -14.969  14.209  1.00  0.00     0.295 C 
HETATM   33  O6  UNL     1     -11.894 -14.284  13.174  1.00  0.00    -0.259 OA
BRANCH  32  34
HETATM   34  O7  UNL     1     -11.782 -16.345  14.058  1.00  0.00    -0.323 OA
HETATM   35  C12 UNL     1     -11.092 -17.084  13.070  1.00  0.00     0.213 C 
ENDBRANCH  32  34
ENDBRANCH   8  32
TORSDOF 9
ENDMDL
MODEL 4
REMARK VINA RESULT: -6.403416544      4.459      7.469
REMARK  9 active torsions:
REMARK  status: ('A' for Active; 'I' for Inactive)
REMARK    1  A    between atoms: N1_2  and  C2_5 
REMARK    2  A    between atoms: N2_7  and  C4_8 
REMARK    3  A    between atoms: N4_11  and  S1_12 
REMARK    4  A    between atoms: C6_17  and  O4_18 
REMARK    5  A    between atoms: C10_24  and  C11_25 
REMARK    6  A    between atoms: C11_25  and  O7_27 
REMARK    7  A    between atoms: C13_29  and  O8_30 
REMARK    8  A    between atoms: C13_29  and  C14_32 
REMARK    9  A    between atoms: C14_32  and  O10_34 
ROOT
HETATM    1  C2  UNL     1     -11.598 -14.954  16.231  1.00  0.00     0.229 A 
HETATM    2  C3  UNL     1     -12.133 -13.574  16.228  1.00  0.00     0.175 A 
HETATM    3  N2  UNL     1     -12.843 -13.798  14.984  1.00  0.00    -0.332 N 
HETATM    4  C7  UNL     1     -12.298 -15.129  14.919  1.00  0.00     0.273 A 
HETATM    5  O5  UNL     1     -11.376 -15.233  13.840  1.00  0.00    -0.327 OA
HETATM    6  C8  UNL     1     -10.266 -16.095  13.963  1.00  0.00     0.061 C 
HETATM    7  C9  UNL     1      -9.873 -16.983  12.868  1.00  0.00     0.077 C 
HETATM    8  C10 UNL     1      -9.647 -16.017  15.121  1.00  0.00     0.093 C 
HETATM    9  C13 UNL     1     -10.117 -15.070  16.149  1.00  0.00     0.220 C 
ENDROOT
BRANCH   3  10
HETATM   10  C4  UNL     1     -13.728 -12.986  14.218  1.00  0.00     0.156 A 
HETATM   11  N3  UNL     1     -14.944 -13.384  13.717  1.00  0.00    -0.265 N 
HETATM   12  N4  UNL     1     -15.509 -12.395  13.050  1.00  0.00    -0.169 N 
ATOM     13  H3  UNL     1     -15.351 -14.311  13.843  1.00  0.00     0.190 HD
HETATM   14  C5  UNL     1     -14.723 -11.311  13.069  1.00  0.00     0.172 A 
HETATM   15  C6  UNL     1     -13.607 -11.679  13.800  1.00  0.00     0.129 A 
BRANCH  12  16
HETATM   16  S1  UNL     1     -17.043 -12.513  12.270  1.00  0.00     0.230 S 
HETATM   17  O1  UNL     1     -17.986 -11.596  13.006  1.00  0.00    -0.576 OA
HETATM   18  O2  UNL     1     -16.938 -12.092  10.844  1.00  0.00    -0.576 OA
HETATM   19  O3  UNL     1     -17.683 -14.059  12.371  1.00  0.00    -0.576 OA
ENDBRANCH  12  16
BRANCH  15  20
HETATM   20  O4  UNL     1     -12.559 -10.832  14.047  1.00  0.00    -0.356 OA
ATOM     21  H4  UNL     1     -12.561 -10.080  14.626  1.00  0.00     0.218 HD
ENDBRANCH  15  20
ENDBRANCH   3  10
BRANCH   1  22
HETATM   22  N1  UNL     1     -12.116 -15.724  17.329  1.00  0.00    -0.060 N 
HETATM   23  C1  UNL     1     -12.853 -16.883  16.941  1.00  0.00     0.268 C 
ATOM     24  H12 UNL     1     -12.679 -15.135  17.942  1.00  0.00     0.278 HD
ATOM     25  H11 UNL     1     -11.365 -15.979  17.970  1.00  0.00     0.278 HD
ENDBRANCH   1  22
BRANCH   9  26
HETATM   26  O8  UNL     1      -9.608 -15.530  17.388  1.00  0.00    -0.372 OA
ATOM     27  H8  UNL     1      -8.725 -15.858  17.268  1.00  0.00     0.211 HD
ENDBRANCH   9  26
BRANCH   9  28
HETATM   28  C14 UNL     1      -9.403 -13.791  15.869  1.00  0.00     0.301 C 
HETATM   29  O9  UNL     1      -8.836 -13.564  14.752  1.00  0.00    -0.261 OA
BRANCH  28  30
HETATM   30  O10 UNL     1      -9.325 -12.794  16.813  1.00  0.00    -0.324 OA
HETATM   31  C15 UNL     1      -8.151 -12.378  17.460  1.00  0.00     0.213 C 
ENDBRANCH  28  30
ENDBRANCH   9  28
BRANCH   8  32
HETATM   32  C11 UNL     1      -8.493 -16.848  15.390  1.00  0.00     0.295 C 
HETATM   33  O6  UNL     1      -7.371 -16.658  14.805  1.00  0.00    -0.259 OA
BRANCH  32  34
HETATM   34  O7  UNL     1      -8.488 -17.916  16.293  1.00  0.00    -0.323 OA
HETATM   35  C12 UNL     1      -7.429 -18.099  17.211  1.00  0.00     0.213 C 
ENDBRANCH  32  34
ENDBRANCH   8  32
TORSDOF 9
ENDMDL
MODEL 5
REMARK VINA RESULT: -6.308952864      4.814      7.897
REMARK  9 active torsions:
REMARK  status: ('A' for Active; 'I' for Inactive)
REMARK    1  A    between atoms: N1_2  and  C2_5 
REMARK    2  A    between atoms: N2_7  and  C4_8 
REMARK    3  A    between atoms: N4_11  and  S1_12 
REMARK    4  A    between atoms: C6_17  and  O4_18 
REMARK    5  A    between atoms: C10_24  and  C11_25 
REMARK    6  A    between atoms: C11_25  and  O7_27 
REMARK    7  A    between atoms: C13_29  and  O8_30 
REMARK    8  A    between atoms: C13_29  and  C14_32 
REMARK    9  A    between atoms: C14_32  and  O10_34 
ROOT
HETATM    1  C2  UNL     1     -12.619 -14.894  15.944  1.00  0.00     0.229 A 
HETATM    2  C3  UNL     1     -13.447 -13.691  15.704  1.00  0.00     0.175 A 
HETATM    3  N2  UNL     1     -14.136 -14.324  14.597  1.00  0.00    -0.332 N 
HETATM    4  C7  UNL     1     -13.312 -15.493  14.758  1.00  0.00     0.273 A 
HETATM    5  O5  UNL     1     -12.431 -15.634  13.650  1.00  0.00    -0.327 OA
HETATM    6  C8  UNL     1     -11.154 -16.197  13.852  1.00  0.00     0.061 C 
HETATM    7  C9  UNL     1     -10.615 -17.200  12.932  1.00  0.00     0.077 C 
HETATM    8  C10 UNL     1     -10.525 -15.742  14.913  1.00  0.00     0.093 C 
HETATM    9  C13 UNL     1     -11.154 -14.713  15.762  1.00  0.00     0.220 C 
ENDROOT
BRANCH   3  10
HETATM   10  C4  UNL     1     -15.209 -13.901  13.759  1.00  0.00     0.156 A 
HETATM   11  N3  UNL     1     -15.257 -12.720  13.059  1.00  0.00    -0.265 N 
HETATM   12  N4  UNL     1     -16.390 -12.633  12.387  1.00  0.00    -0.169 N 
ATOM     13  H3  UNL     1     -14.523 -12.012  13.059  1.00  0.00     0.190 HD
HETATM   14  C5  UNL     1     -17.140 -13.723  12.596  1.00  0.00     0.172 A 
HETATM   15  C6  UNL     1     -16.403 -14.518  13.454  1.00  0.00     0.129 A 
BRANCH  12  16
HETATM   16  S1  UNL     1     -16.818 -11.290  11.392  1.00  0.00     0.230 S 
HETATM   17  O1  UNL     1     -15.621 -10.978  10.532  1.00  0.00    -0.576 OA
HETATM   18  O2  UNL     1     -17.986 -11.630  10.530  1.00  0.00    -0.576 OA
HETATM   19  O3  UNL     1     -17.147  -9.917  12.295  1.00  0.00    -0.576 OA
ENDBRANCH  12  16
BRANCH  15  20
HETATM   20  O4  UNL     1     -16.836 -15.736  13.909  1.00  0.00    -0.356 OA
ATOM     21  H4  UNL     1     -17.544 -16.257  13.549  1.00  0.00     0.218 HD
ENDBRANCH  15  20
ENDBRANCH   3  10
BRANCH   1  22
HETATM   22  N1  UNL     1     -12.912 -15.498  17.215  1.00  0.00    -0.060 N 
HETATM   23  C1  UNL     1     -13.333 -16.859  17.140  1.00  0.00     0.268 C 
ATOM     24  H12 UNL     1     -13.598 -14.942  17.724  1.00  0.00     0.278 HD
ATOM     25  H11 UNL     1     -12.113 -15.408  17.843  1.00  0.00     0.278 HD
ENDBRANCH   1  22
BRANCH   9  26
HETATM   26  O8  UNL     1     -10.509 -14.776  17.022  1.00  0.00    -0.372 OA
ATOM     27  H8  UNL     1      -9.628 -15.114  16.912  1.00  0.00     0.211 HD
ENDBRANCH   9  26
BRANCH   9  28
HETATM   28  C14 UNL     1     -10.753 -13.406  15.168  1.00  0.00     0.301 C 
HETATM   29  O9  UNL     1     -11.057 -13.083  13.974  1.00  0.00    -0.261 OA
BRANCH  28  30
HETATM   30  O10 UNL     1     -10.031 -12.483  15.890  1.00  0.00    -0.324 OA
HETATM   31  C15 UNL     1      -8.669 -12.197  15.708  1.00  0.00     0.213 C 
ENDBRANCH  28  30
ENDBRANCH   9  28
BRANCH   8  32
HETATM   32  C11 UNL     1      -9.206 -16.234  15.247  1.00  0.00     0.295 C 
HETATM   33  O6  UNL     1      -8.143 -15.612  14.899  1.00  0.00    -0.259 OA
BRANCH  32  34
HETATM   34  O7  UNL     1      -8.965 -17.410  15.966  1.00  0.00    -0.323 OA
HETATM   35  C12 UNL     1      -7.917 -17.494  16.911  1.00  0.00     0.213 C 
ENDBRANCH  32  34
ENDBRANCH   8  32
TORSDOF 9
ENDMDL
