MODEL 1
REMARK VINA RESULT: -6.591848815      0.000      0.000
REMARK  10 active torsions:
REMARK  status: ('A' for Active; 'I' for Inactive)
REMARK    1  A    between atoms: O1_2  and  C2_3 
REMARK       I    between atoms: C2_3  and  N1_5 
REMARK    2  A    between atoms: C3_6  and  O3_7 
REMARK    3  A    between atoms: C5_9  and  S1_10 
REMARK    4  A    between atoms: C6_14  and  N2_15 
REMARK    5  A    between atoms: N2_15  and  N3_17 
REMARK    6  A    between atoms: N3_17  and  N4_19 
REMARK    7  A    between atoms: N4_19  and  C7_21 
REMARK    8  A    between atoms: C7_21  and  N5_23 
REMARK    9  A    between atoms: C9_27  and  C10_28 
REMARK   10  A    between atoms: N7_34  and  O8_35 
ROOT
HETATM    1  C2  UNL     1     -10.965 -11.611  14.483  1.00  0.00     0.375 C 
HETATM    2  O2  UNL     1     -11.642 -10.591  14.318  1.00  0.00    -0.237 OA
HETATM    3  N1  UNL     1     -11.554 -12.878  14.732  1.00  0.00    -0.200 N 
HETATM    4  C3  UNL     1     -12.876 -13.041  14.814  1.00  0.00     0.183 A 
HETATM    5  C5  UNL     1     -13.430 -14.307  15.036  1.00  0.00     0.161 A 
HETATM    6  C6  UNL     1     -12.566 -15.362  15.163  1.00  0.00     0.093 A 
HETATM    7  C9  UNL     1     -11.166 -15.231  15.085  1.00  0.00     0.085 A 
HETATM    8  C13 UNL     1     -10.719 -13.965  14.867  1.00  0.00     0.270 A 
HETATM    9  O9  UNL     1      -9.491 -13.749  14.782  1.00  0.00    -0.267 OA
ENDROOT
BRANCH   6  10
HETATM   10  N2  UNL     1     -13.108 -16.673  15.373  1.00  0.00    -0.284 N 
ATOM     11  H2  UNL     1     -13.008 -17.169  16.259  1.00  0.00     0.188 HD
BRANCH  10  12
HETATM   12  N3  UNL     1     -13.731 -17.182  14.361  1.00  0.00    -0.245 N 
ATOM     13  H3  UNL     1     -14.225 -16.544  13.735  1.00  0.00     0.208 HD
BRANCH  12  14
HETATM   14  N4  UNL     1     -13.774 -18.528  14.072  1.00  0.00    -0.292 N 
ATOM     15  H4  UNL     1     -14.649 -19.044  14.163  1.00  0.00     0.184 HD
BRANCH  14  16
HETATM   16  C7  UNL     1     -12.579 -19.203  13.641  1.00  0.00     0.293 C 
HETATM   17  C8  UNL     1     -12.976 -20.571  13.130  1.00  0.00     0.064 C 
BRANCH  16  18
HETATM   18  N5  UNL     1     -11.927 -18.422  12.610  1.00  0.00    -0.058 N 
ATOM     19  H53 UNL     1     -12.466 -17.594  12.355  1.00  0.00     0.276 HD
ATOM     20  H52 UNL     1     -11.090 -17.951  12.955  1.00  0.00     0.276 HD
ATOM     21  H51 UNL     1     -11.730 -19.016  11.806  1.00  0.00     0.276 HD
ENDBRANCH  16  18
ENDBRANCH  14  16
ENDBRANCH  12  14
ENDBRANCH  10  12
ENDBRANCH   6  10
BRANCH   5  22
HETATM   22  S1  UNL     1     -15.171 -14.504  15.118  1.00  0.00     0.144 S 
HETATM   23  O4  UNL     1     -15.582 -15.665  15.977  1.00  0.00    -0.591 OA
HETATM   24  O5  UNL     1     -15.729 -14.646  13.729  1.00  0.00    -0.591 OA
HETATM   25  O6  UNL     1     -15.798 -13.126  15.838  1.00  0.00    -0.591 OA
ENDBRANCH   5  22
BRANCH   7  26
HETATM   26  C10 UNL     1     -10.404 -16.458  15.284  1.00  0.00     0.257 A 
HETATM   27  N6  UNL     1      -9.809 -16.401  16.645  1.00  0.00    -0.367 N 
HETATM   28  C11 UNL     1      -8.558 -16.645  16.597  1.00  0.00     0.162 A 
ATOM     29  H6  UNL     1     -10.328 -16.197  17.499  1.00  0.00     0.161 HD
HETATM   30  C12 UNL     1      -8.141 -16.905  15.229  1.00  0.00     0.284 A 
HETATM   31  O7  UNL     1      -6.975 -17.169  14.834  1.00  0.00    -0.265 OA
HETATM   32  N7  UNL     1      -9.338 -16.791  14.450  1.00  0.00    -0.195 N 
BRANCH  32  33
HETATM   33  O8  UNL     1      -9.321 -17.040  13.129  1.00  0.00    -0.282 OA
ATOM     34  H8  UNL     1      -8.587 -17.204  12.549  1.00  0.00     0.245 HD
ENDBRANCH  32  33
ENDBRANCH   7  26
BRANCH   4  35
HETATM   35  O3  UNL     1     -13.749 -11.946  14.685  1.00  0.00    -0.339 OA
HETATM   36  C4  UNL     1     -14.312 -11.590  13.438  1.00  0.00     0.211 C 
ENDBRANCH   4  35
BRANCH   1  37
HETATM   37  O1  UNL     1      -9.575 -11.447  14.412  1.00  0.00    -0.308 OA
HETATM   38  C1  UNL     1      -9.007 -10.509  13.513  1.00  0.00     0.215 C 
ENDBRANCH   1  37
TORSDOF 10
ENDMDL
MODEL 2
REMARK VINA RESULT: -6.513834623      1.014      1.245
REMARK  10 active torsions:
REMARK  status: ('A' for Active; 'I' for Inactive)
REMARK    1  A    between atoms: O1_2  and  C2_3 
REMARK       I    between atoms: C2_3  and  N1_5 
REMARK    2  A    between atoms: C3_6  and  O3_7 
REMARK    3  A    between atoms: C5_9  and  S1_10 
REMARK    4  A    between atoms: C6_14  and  N2_15 
REMARK    5  A    between atoms: N2_15  and  N3_17 
REMARK    6  A    between atoms: N3_17  and  N4_19 
REMARK    7  A    between atoms: N4_19  and  C7_21 
REMARK    8  A    between atoms: C7_21  and  N5_23 
REMARK    9  A    between atoms: C9_27  and  C10_28 
REMARK   10  A    between atoms: N7_34  and  O8_35 
ROOT
HETATM    1  C2  UNL     1     -10.983 -11.624  14.496  1.00  0.00     0.375 C 
HETATM    2  O2  UNL     1     -11.667 -10.608  14.340  1.00  0.00    -0.237 OA
HETATM    3  N1  UNL     1     -11.563 -12.903  14.704  1.00  0.00    -0.200 N 
HETATM    4  C3  UNL     1     -12.885 -13.082  14.756  1.00  0.00     0.183 A 
HETATM    5  C5  UNL     1     -13.429 -14.357  14.938  1.00  0.00     0.161 A 
HETATM    6  C6  UNL     1     -12.557 -15.407  15.059  1.00  0.00     0.093 A 
HETATM    7  C9  UNL     1     -11.157 -15.259  15.012  1.00  0.00     0.085 A 
HETATM    8  C13 UNL     1     -10.719 -13.984  14.832  1.00  0.00     0.270 A 
HETATM    9  O9  UNL     1      -9.492 -13.754  14.777  1.00  0.00    -0.267 OA
ENDROOT
BRANCH   6  10
HETATM   10  N2  UNL     1     -13.088 -16.727  15.228  1.00  0.00    -0.284 N 
ATOM     11  H2  UNL     1     -13.049 -17.222  16.120  1.00  0.00     0.188 HD
BRANCH  10  12
HETATM   12  N3  UNL     1     -13.622 -17.248  14.172  1.00  0.00    -0.245 N 
ATOM     13  H3  UNL     1     -13.306 -16.911  13.262  1.00  0.00     0.208 HD
BRANCH  12  14
HETATM   14  N4  UNL     1     -14.590 -18.228  14.193  1.00  0.00    -0.292 N 
ATOM     15  H4  UNL     1     -14.579 -18.943  14.921  1.00  0.00     0.184 HD
BRANCH  14  16
HETATM   16  C7  UNL     1     -15.617 -18.239  13.186  1.00  0.00     0.293 C 
HETATM   17  C8  UNL     1     -15.893 -19.681  12.819  1.00  0.00     0.064 C 
BRANCH  16  18
HETATM   18  N5  UNL     1     -16.804 -17.587  13.698  1.00  0.00    -0.058 N 
ATOM     19  H53 UNL     1     -16.888 -17.680  14.711  1.00  0.00     0.276 HD
ATOM     20  H52 UNL     1     -16.737 -16.571  13.650  1.00  0.00     0.276 HD
ATOM     21  H51 UNL     1     -17.625 -17.942  13.209  1.00  0.00     0.276 HD
ENDBRANCH  16  18
ENDBRANCH  14  16
ENDBRANCH  12  14
ENDBRANCH  10  12
ENDBRANCH   6  10
BRANCH   5  22
HETATM   22  S1  UNL     1     -15.169 -14.575  14.980  1.00  0.00     0.144 S 
HETATM   23  O4  UNL     1     -15.585 -15.762  15.801  1.00  0.00    -0.591 OA
HETATM   24  O5  UNL     1     -15.698 -14.685  13.577  1.00  0.00    -0.591 OA
HETATM   25  O6  UNL     1     -15.825 -13.222  15.723  1.00  0.00    -0.591 OA
ENDBRANCH   5  22
BRANCH   7  26
HETATM   26  C10 UNL     1     -10.386 -16.483  15.199  1.00  0.00     0.257 A 
HETATM   27  N6  UNL     1      -9.814 -16.448  16.571  1.00  0.00    -0.367 N 
HETATM   28  C11 UNL     1      -8.561 -16.678  16.539  1.00  0.00     0.162 A 
ATOM     29  H6  UNL     1     -10.350 -16.266  17.420  1.00  0.00     0.161 HD
HETATM   30  C12 UNL     1      -8.118 -16.906  15.174  1.00  0.00     0.284 A 
HETATM   31  O7  UNL     1      -6.943 -17.150  14.793  1.00  0.00    -0.265 OA
HETATM   32  N7  UNL     1      -9.303 -16.788  14.376  1.00  0.00    -0.195 N 
BRANCH  32  33
HETATM   33  O8  UNL     1      -9.261 -17.009  13.051  1.00  0.00    -0.282 OA
ATOM     34  H8  UNL     1      -8.743 -17.629  12.553  1.00  0.00     0.245 HD
ENDBRANCH  32  33
ENDBRANCH   7  26
BRANCH   4  35
HETATM   35  O3  UNL     1     -13.767 -11.992  14.634  1.00  0.00    -0.339 OA
HETATM   36  C4  UNL     1     -14.310 -11.615  13.384  1.00  0.00     0.211 C 
ENDBRANCH   4  35
BRANCH   1  37
HETATM   37  O1  UNL     1      -9.593 -11.445  14.457  1.00  0.00    -0.308 OA
HETATM   38  C1  UNL     1      -9.012 -10.538  13.535  1.00  0.00     0.215 C 
ENDBRANCH   1  37
TORSDOF 10
ENDMDL
MODEL 3
REMARK VINA RESULT: -6.163874662      4.424      7.975
REMARK  10 active torsions:
REMARK  status: ('A' for Active; 'I' for Inactive)
REMARK    1  A    between atoms: O1_2  and  C2_3 
REMARK       I    between atoms: C2_3  and  N1_5 
REMARK    2  A    between atoms: C3_6  and  O3_7 
REMARK    3  A    between atoms: C5_9  and  S1_10 
REMARK    4  A    between atoms: C6_14  and  N2_15 
REMARK    5  A    between atoms: N2_15  and  N3_17 
REMARK    6  A    between atoms: N3_17  and  N4_19 
REMARK    7  A    between atoms: N4_19  and  C7_21 
REMARK    8  A    between atoms: C7_21  and  N5_23 
REMARK    9  A    between atoms: C9_27  and  C10_28 
REMARK   10  A    between atoms: N7_34  and  O8_35 
ROOT
HETATM    1  C2  UNL     1      -8.989 -16.669  15.581  1.00  0.00     0.375 C 
HETATM    2  O2  UNL     1      -8.981 -17.764  16.152  1.00  0.00    -0.237 OA
HETATM    3  N1  UNL     1      -8.798 -15.449  16.281  1.00  0.00    -0.200 N 
HETATM    4  C3  UNL     1      -8.610 -15.412  17.603  1.00  0.00     0.183 A 
HETATM    5  C5  UNL     1      -8.400 -14.197  18.263  1.00  0.00     0.161 A 
HETATM    6  C6  UNL     1      -8.394 -13.056  17.504  1.00  0.00     0.093 A 
HETATM    7  C9  UNL     1      -8.590 -13.054  16.109  1.00  0.00     0.085 A 
HETATM    8  C13 UNL     1      -8.786 -14.279  15.554  1.00  0.00     0.270 A 
HETATM    9  O9  UNL     1      -8.969 -14.378  14.321  1.00  0.00    -0.267 OA
ENDROOT
BRANCH   6  10
HETATM   10  N2  UNL     1      -8.163 -11.799  18.153  1.00  0.00    -0.284 N 
ATOM     11  H2  UNL     1      -8.923 -11.222  18.512  1.00  0.00     0.188 HD
BRANCH  10  12
HETATM   12  N3  UNL     1      -6.922 -11.448  18.252  1.00  0.00    -0.245 N 
ATOM     13  H3  UNL     1      -6.301 -11.664  17.471  1.00  0.00     0.208 HD
BRANCH  12  14
HETATM   14  N4  UNL     1      -6.383 -10.801  19.341  1.00  0.00    -0.292 N 
ATOM     15  H4  UNL     1      -6.828  -9.960  19.710  1.00  0.00     0.184 HD
BRANCH  14  16
HETATM   16  C7  UNL     1      -5.189 -11.315  19.959  1.00  0.00     0.293 C 
HETATM   17  C8  UNL     1      -4.221 -10.164  20.128  1.00  0.00     0.064 C 
BRANCH  16  18
HETATM   18  N5  UNL     1      -5.524 -11.917  21.232  1.00  0.00    -0.058 N 
ATOM     19  H53 UNL     1      -6.505 -12.193  21.282  1.00  0.00     0.276 HD
ATOM     20  H52 UNL     1      -5.106 -12.840  21.344  1.00  0.00     0.276 HD
ATOM     21  H51 UNL     1      -5.263 -11.283  21.987  1.00  0.00     0.276 HD
ENDBRANCH  16  18
ENDBRANCH  14  16
ENDBRANCH  12  14
ENDBRANCH  10  12
ENDBRANCH   6  10
BRANCH   5  22
HETATM   22  S1  UNL     1      -8.132 -14.171  19.996  1.00  0.00     0.144 S 
HETATM   23  O4  UNL     1      -8.406 -12.825  20.605  1.00  0.00    -0.591 OA
HETATM   24  O5  UNL     1      -6.728 -14.616  20.297  1.00  0.00    -0.591 OA
HETATM   25  O6  UNL     1      -9.222 -15.242  20.687  1.00  0.00    -0.591 OA
ENDBRANCH   5  22
BRANCH   7  26
HETATM   26  C10 UNL     1      -8.591 -11.741  15.474  1.00  0.00     0.257 A 
HETATM   27  N6  UNL     1      -9.987 -11.444  15.057  1.00  0.00    -0.367 N 
HETATM   28  C11 UNL     1     -10.022 -11.091  13.832  1.00  0.00     0.162 A 
ATOM     29  H6  UNL     1     -10.802 -11.513  15.666  1.00  0.00     0.161 HD
HETATM   30  C12 UNL     1      -8.685 -11.088  13.262  1.00  0.00     0.284 A 
HETATM   31  O7  UNL     1      -8.371 -10.797  12.079  1.00  0.00    -0.265 OA
HETATM   32  N7  UNL     1      -7.825 -11.487  14.337  1.00  0.00    -0.195 N 
BRANCH  32  33
HETATM   33  O8  UNL     1      -6.492 -11.526  14.169  1.00  0.00    -0.282 OA
ATOM     34  H8  UNL     1      -5.956 -12.147  13.688  1.00  0.00     0.245 HD
ENDBRANCH  32  33
ENDBRANCH   7  26
BRANCH   4  35
HETATM   35  O3  UNL     1      -8.623 -16.592  18.368  1.00  0.00    -0.339 OA
HETATM   36  C4  UNL     1      -7.441 -17.326  18.618  1.00  0.00     0.211 C 
ENDBRANCH   4  35
BRANCH   1  37
HETATM   37  O1  UNL     1      -9.198 -16.696  14.195  1.00  0.00    -0.308 OA
HETATM   38  C1  UNL     1     -10.386 -17.254  13.660  1.00  0.00     0.215 C 
ENDBRANCH   1  37
TORSDOF 10
ENDMDL
MODEL 4
REMARK VINA RESULT: -6.050945228      1.512      2.194
REMARK  10 active torsions:
REMARK  status: ('A' for Active; 'I' for Inactive)
REMARK    1  A    between atoms: O1_2  and  C2_3 
REMARK       I    between atoms: C2_3  and  N1_5 
REMARK    2  A    between atoms: C3_6  and  O3_7 
REMARK    3  A    between atoms: C5_9  and  S1_10 
REMARK    4  A    between atoms: C6_14  and  N2_15 
REMARK    5  A    between atoms: N2_15  and  N3_17 
REMARK    6  A    between atoms: N3_17  and  N4_19 
REMARK    7  A    between atoms: N4_19  and  C7_21 
REMARK    8  A    between atoms: C7_21  and  N5_23 
REMARK    9  A    between atoms: C9_27  and  C10_28 
REMARK   10  A    between atoms: N7_34  and  O8_35 
ROOT
HETATM    1  C2  UNL     1     -11.395 -11.720  14.511  1.00  0.00     0.375 C 
HETATM    2  O2  UNL     1     -12.116 -10.731  14.344  1.00  0.00    -0.237 OA
HETATM    3  N1  UNL     1     -11.912 -13.042  14.514  1.00  0.00    -0.200 N 
HETATM    4  C3  UNL     1     -13.212 -13.295  14.350  1.00  0.00     0.183 A 
HETATM    5  C5  UNL     1     -13.690 -14.610  14.333  1.00  0.00     0.161 A 
HETATM    6  C6  UNL     1     -12.776 -15.618  14.491  1.00  0.00     0.093 A 
HETATM    7  C9  UNL     1     -11.397 -15.392  14.669  1.00  0.00     0.085 A 
HETATM    8  C13 UNL     1     -11.025 -14.084  14.671  1.00  0.00     0.270 A 
HETATM    9  O9  UNL     1      -9.821 -13.784  14.823  1.00  0.00    -0.267 OA
ENDROOT
BRANCH   6  10
HETATM   10  N2  UNL     1     -13.237 -16.975  14.459  1.00  0.00    -0.284 N 
ATOM     11  H2  UNL     1     -13.297 -17.511  13.593  1.00  0.00     0.188 HD
BRANCH  10  12
HETATM   12  N3  UNL     1     -13.570 -17.472  15.606  1.00  0.00    -0.245 N 
ATOM     13  H3  UNL     1     -13.001 -17.225  16.416  1.00  0.00     0.208 HD
BRANCH  12  14
HETATM   14  N4  UNL     1     -14.642 -18.314  15.805  1.00  0.00    -0.292 N 
ATOM     15  H4  UNL     1     -14.763 -19.137  15.213  1.00  0.00     0.184 HD
BRANCH  14  16
HETATM   16  C7  UNL     1     -15.589 -18.029  16.849  1.00  0.00     0.293 C 
HETATM   17  C8  UNL     1     -14.973 -16.994  17.765  1.00  0.00     0.064 C 
BRANCH  16  18
HETATM   18  N5  UNL     1     -16.824 -17.552  16.265  1.00  0.00    -0.058 N 
ATOM     19  H53 UNL     1     -16.661 -16.875  15.519  1.00  0.00     0.276 HD
ATOM     20  H52 UNL     1     -17.292 -18.269  15.711  1.00  0.00     0.276 HD
ATOM     21  H51 UNL     1     -17.426 -17.179  16.998  1.00  0.00     0.276 HD
ENDBRANCH  16  18
ENDBRANCH  14  16
ENDBRANCH  12  14
ENDBRANCH  10  12
ENDBRANCH   6  10
BRANCH   5  22
HETATM   22  S1  UNL     1     -15.399 -14.923  14.092  1.00  0.00     0.144 S 
HETATM   23  O4  UNL     1     -15.992 -14.085  12.996  1.00  0.00    -0.591 OA
HETATM   24  O5  UNL     1     -16.138 -14.712  15.383  1.00  0.00    -0.591 OA
HETATM   25  O6  UNL     1     -15.553 -16.522  13.612  1.00  0.00    -0.591 OA
ENDBRANCH   5  22
BRANCH   7  26
HETATM   26  C10 UNL     1     -10.581 -16.585  14.861  1.00  0.00     0.257 A 
HETATM   27  N6  UNL     1     -10.104 -16.582  16.269  1.00  0.00    -0.367 N 
HETATM   28  C11 UNL     1      -8.841 -16.751  16.314  1.00  0.00     0.162 A 
ATOM     29  H6  UNL     1     -10.704 -16.461  17.086  1.00  0.00     0.161 HD
HETATM   30  C12 UNL     1      -8.298 -16.901  14.974  1.00  0.00     0.284 A 
HETATM   31  O7  UNL     1      -7.090 -17.074  14.666  1.00  0.00    -0.265 OA
HETATM   32  N7  UNL     1      -9.432 -16.805  14.103  1.00  0.00    -0.195 N 
BRANCH  32  33
HETATM   33  O8  UNL     1      -9.292 -16.968  12.776  1.00  0.00    -0.282 OA
ATOM     34  H8  UNL     1      -8.504 -17.050  12.252  1.00  0.00     0.245 HD
ENDBRANCH  32  33
ENDBRANCH   7  26
BRANCH   4  35
HETATM   35  O3  UNL     1     -14.138 -12.248  14.193  1.00  0.00    -0.339 OA
HETATM   36  C4  UNL     1     -14.929 -11.790  15.272  1.00  0.00     0.211 C 
ENDBRANCH   4  35
BRANCH   1  37
HETATM   37  O1  UNL     1     -10.029 -11.464  14.698  1.00  0.00    -0.308 OA
HETATM   38  C1  UNL     1      -9.316 -10.662  13.772  1.00  0.00     0.215 C 
ENDBRANCH   1  37
TORSDOF 10
ENDMDL
MODEL 5
REMARK VINA RESULT: -6.020019678      3.589      6.019
REMARK  10 active torsions:
REMARK  status: ('A' for Active; 'I' for Inactive)
REMARK    1  A    between atoms: O1_2  and  C2_3 
REMARK       I    between atoms: C2_3  and  N1_5 
REMARK    2  A    between atoms: C3_6  and  O3_7 
REMARK    3  A    between atoms: C5_9  and  S1_10 
REMARK    4  A    between atoms: C6_14  and  N2_15 
REMARK    5  A    between atoms: N2_15  and  N3_17 
REMARK    6  A    between atoms: N3_17  and  N4_19 
REMARK    7  A    between atoms: N4_19  and  C7_21 
REMARK    8  A    between atoms: C7_21  and  N5_23 
REMARK    9  A    between atoms: C9_27  and  C10_28 
REMARK   10  A    between atoms: N7_34  and  O8_35 
ROOT
HETATM    1  C2  UNL     1      -8.081 -12.857  19.872  1.00  0.00     0.375 C 
HETATM    2  O2  UNL     1      -7.763 -13.317  20.973  1.00  0.00    -0.237 OA
HETATM    3  N1  UNL     1      -8.314 -13.687  18.744  1.00  0.00    -0.200 N 
HETATM    4  C3  UNL     1      -8.192 -15.015  18.803  1.00  0.00     0.183 A 
HETATM    5  C5  UNL     1      -8.452 -15.810  17.682  1.00  0.00     0.161 A 
HETATM    6  C6  UNL     1      -8.835 -15.174  16.530  1.00  0.00     0.093 A 
HETATM    7  C9  UNL     1      -8.973 -13.776  16.427  1.00  0.00     0.085 A 
HETATM    8  C13 UNL     1      -8.700 -13.085  17.566  1.00  0.00     0.270 A 
HETATM    9  O9  UNL     1      -8.796 -11.839  17.572  1.00  0.00    -0.267 OA
ENDROOT
BRANCH   6  10
HETATM   10  N2  UNL     1      -9.125 -15.966  15.371  1.00  0.00    -0.284 N 
ATOM     11  H2  UNL     1      -8.441 -16.120  14.630  1.00  0.00     0.188 HD
BRANCH  10  12
HETATM   12  N3  UNL     1     -10.314 -16.472  15.331  1.00  0.00    -0.245 N 
ATOM     13  H3  UNL     1     -11.091 -15.892  15.650  1.00  0.00     0.208 HD
BRANCH  12  14
HETATM   14  N4  UNL     1     -10.602 -17.743  14.886  1.00  0.00    -0.292 N 
ATOM     15  H4  UNL     1     -10.190 -18.554  15.349  1.00  0.00     0.184 HD
BRANCH  14  16
HETATM   16  C7  UNL     1     -11.487 -17.924  13.766  1.00  0.00     0.293 C 
HETATM   17  C8  UNL     1     -12.799 -17.247  14.096  1.00  0.00     0.064 C 
BRANCH  16  18
HETATM   18  N5  UNL     1     -10.884 -17.359  12.577  1.00  0.00    -0.058 N 
ATOM     19  H53 UNL     1      -9.876 -17.239  12.676  1.00  0.00     0.276 HD
ATOM     20  H52 UNL     1     -10.878 -18.016  11.798  1.00  0.00     0.276 HD
ATOM     21  H51 UNL     1     -11.354 -16.485  12.340  1.00  0.00     0.276 HD
ENDBRANCH  16  18
ENDBRANCH  14  16
ENDBRANCH  12  14
ENDBRANCH  10  12
ENDBRANCH   6  10
BRANCH   5  22
HETATM   22  S1  UNL     1      -8.308 -17.554  17.786  1.00  0.00     0.144 S 
HETATM   23  O4  UNL     1      -7.438 -17.997  18.928  1.00  0.00    -0.591 OA
HETATM   24  O5  UNL     1      -7.793 -18.098  16.483  1.00  0.00    -0.591 OA
HETATM   25  O6  UNL     1      -9.841 -18.167  18.084  1.00  0.00    -0.591 OA
ENDBRANCH   5  22
BRANCH   7  26
HETATM   26  C10 UNL     1      -9.351 -13.274  15.111  1.00  0.00     0.257 A 
HETATM   27  N6  UNL     1      -8.484 -12.105  14.810  1.00  0.00    -0.367 N 
HETATM   28  C11 UNL     1      -9.189 -11.106  14.450  1.00  0.00     0.162 A 
ATOM     29  H6  UNL     1      -7.466 -12.102  14.881  1.00  0.00     0.161 HD
HETATM   30  C12 UNL     1     -10.601 -11.452  14.446  1.00  0.00     0.284 A 
HETATM   31  O7  UNL     1     -11.562 -10.695  14.149  1.00  0.00    -0.265 OA
HETATM   32  N7  UNL     1     -10.645 -12.826  14.852  1.00  0.00    -0.195 N 
BRANCH  32  33
HETATM   33  O8  UNL     1     -11.813 -13.490  14.892  1.00  0.00    -0.282 OA
ATOM     34  H8  UNL     1     -12.182 -14.033  15.579  1.00  0.00     0.245 HD
ENDBRANCH  32  33
ENDBRANCH   7  26
BRANCH   4  35
HETATM   35  O3  UNL     1      -7.794 -15.651  19.993  1.00  0.00    -0.339 OA
HETATM   36  C4  UNL     1      -8.738 -16.104  20.943  1.00  0.00     0.211 C 
ENDBRANCH   4  35
BRANCH   1  37
HETATM   37  O1  UNL     1      -8.199 -11.462  19.795  1.00  0.00    -0.308 OA
HETATM   38  C1  UNL     1      -8.876 -10.743  20.812  1.00  0.00     0.215 C 
ENDBRANCH   1  37
TORSDOF 10
ENDMDL
