MODEL 1
REMARK VINA RESULT: -6.822924552      0.000      0.000
REMARK  12 active torsions:
REMARK  status: ('A' for Active; 'I' for Inactive)
REMARK    1  A    between atoms: C2_2  and  O2_4 
REMARK    2  A    between atoms: O2_4  and  C3_5 
REMARK    3  A    between atoms: C4_6  and  O3_7 
REMARK    4  A    between atoms: C6_11  and  O5_12 
REMARK    5  A    between atoms: O5_12  and  C7_13 
REMARK    6  A    between atoms: C8_15  and  C9_16 
REMARK    7  A    between atoms: C11_20  and  O7_21 
REMARK    8  A    between atoms: C12_24  and  O9_25 
REMARK    9  A    between atoms: C13_27  and  O10_28 
REMARK   10  A    between atoms: C14_30  and  O11_31 
REMARK   11  A    between atoms: O11_31  and  C15_32 
REMARK   12  A    between atoms: C17_35  and  O13_36 
ROOT
HETATM    1  C7  UNL     1     -14.420 -13.194  16.078  1.00  0.00     0.296 C 
HETATM    2  O6  UNL     1     -14.955 -13.111  14.794  1.00  0.00    -0.342 OA
HETATM    3  C8  UNL     1     -15.554 -11.836  14.711  1.00  0.00     0.231 C 
HETATM    4  C12 UNL     1     -16.694 -11.704  15.708  1.00  0.00     0.186 C 
HETATM    5  C13 UNL     1     -16.834 -13.014  16.417  1.00  0.00     0.184 C 
HETATM    6  C14 UNL     1     -15.511 -13.324  17.112  1.00  0.00     0.218 C 
ENDROOT
BRANCH   1   7
HETATM    7  O5  UNL     1     -13.434 -14.136  16.205  1.00  0.00    -0.326 OA
BRANCH   7   8
HETATM    8  C6  UNL     1     -12.143 -13.677  16.087  1.00  0.00     0.294 C 
HETATM    9  O4  UNL     1     -11.377 -13.816  17.202  1.00  0.00    -0.356 OA
HETATM   10  C5  UNL     1     -10.407 -14.771  17.098  1.00  0.00     0.205 C 
HETATM   11  C4  UNL     1      -9.333 -14.412  16.085  1.00  0.00     0.174 C 
HETATM   12  C3  UNL     1      -9.990 -13.640  14.927  1.00  0.00     0.196 C 
HETATM   13  C17 UNL     1     -11.420 -14.202  14.888  1.00  0.00     0.205 C 
BRANCH  11  14
HETATM   14  O3  UNL     1      -8.787 -15.609  15.630  1.00  0.00    -0.391 OA
ATOM     15  H3  UNL     1      -9.349 -16.340  15.855  1.00  0.00     0.210 HD
ENDBRANCH  11  14
BRANCH  12  16
HETATM   16  O2  UNL     1     -10.108 -12.288  15.328  1.00  0.00    -0.311 OA
BRANCH  16  17
HETATM   17  C2  UNL     1     -10.162 -11.250  14.414  1.00  0.00     0.255 C 
HETATM   18  C1  UNL     1      -8.975 -10.749  13.671  1.00  0.00     0.126 C 
HETATM   19  O1  UNL     1     -11.281 -10.716  14.216  1.00  0.00    -0.266 OA
ENDBRANCH  16  17
ENDBRANCH  12  16
BRANCH  13  20
HETATM   20  O13 UNL     1     -12.043 -13.840  13.692  1.00  0.00    -0.388 OA
ATOM     21  H13 UNL     1     -11.392 -13.575  13.054  1.00  0.00     0.210 HD
ENDBRANCH  13  20
ENDBRANCH   7   8
ENDBRANCH   1   7
BRANCH   6  22
HETATM   22  O11 UNL     1     -15.348 -12.392  18.162  1.00  0.00    -0.309 OA
BRANCH  22  23
HETATM   23  C15 UNL     1     -15.243 -12.735  19.486  1.00  0.00     0.255 C 
HETATM   24  C16 UNL     1     -15.496 -14.097  20.026  1.00  0.00     0.126 C 
HETATM   25  O12 UNL     1     -14.909 -11.835  20.306  1.00  0.00    -0.266 OA
ENDBRANCH  22  23
ENDBRANCH   6  22
BRANCH   3  26
HETATM   26  C9  UNL     1     -15.968 -11.505  13.339  1.00  0.00     0.158 A 
HETATM   27  N1  UNL     1     -15.422 -10.586  12.529  1.00  0.00    -0.343 N 
HETATM   28  C10 UNL     1     -16.097 -10.590  11.344  1.00  0.00     0.153 A 
ATOM     29  H1  UNL     1     -14.632  -9.983  12.760  1.00  0.00     0.167 HD
HETATM   30  C11 UNL     1     -17.066 -11.552  11.493  1.00  0.00     0.200 A 
HETATM   31  O8  UNL     1     -16.953 -12.067  12.689  1.00  0.00    -0.271 OA
BRANCH  30  32
HETATM   32  O7  UNL     1     -17.986 -11.889  10.523  1.00  0.00    -0.340 OA
ATOM     33  H7  UNL     1     -18.792 -12.366  10.688  1.00  0.00     0.220 HD
ENDBRANCH  30  32
ENDBRANCH   3  26
BRANCH   5  34
HETATM   34  O10 UNL     1     -17.874 -13.046  17.328  1.00  0.00    -0.390 OA
ATOM     35  H10 UNL     1     -18.190 -13.922  17.517  1.00  0.00     0.210 HD
ENDBRANCH   5  34
BRANCH   4  36
HETATM   36  O9  UNL     1     -16.554 -10.629  16.550  1.00  0.00    -0.390 OA
ATOM     37  H9  UNL     1     -15.844 -10.049  16.303  1.00  0.00     0.210 HD
ENDBRANCH   4  36
TORSDOF 12
ENDMDL
MODEL 2
REMARK VINA RESULT: -6.738118481      3.163      6.927
REMARK  12 active torsions:
REMARK  status: ('A' for Active; 'I' for Inactive)
REMARK    1  A    between atoms: C2_2  and  O2_4 
REMARK    2  A    between atoms: O2_4  and  C3_5 
REMARK    3  A    between atoms: C4_6  and  O3_7 
REMARK    4  A    between atoms: C6_11  and  O5_12 
REMARK    5  A    between atoms: O5_12  and  C7_13 
REMARK    6  A    between atoms: C8_15  and  C9_16 
REMARK    7  A    between atoms: C11_20  and  O7_21 
REMARK    8  A    between atoms: C12_24  and  O9_25 
REMARK    9  A    between atoms: C13_27  and  O10_28 
REMARK   10  A    between atoms: C14_30  and  O11_31 
REMARK   11  A    between atoms: O11_31  and  C15_32 
REMARK   12  A    between atoms: C17_35  and  O13_36 
ROOT
HETATM    1  C7  UNL     1     -11.511 -14.488  14.073  1.00  0.00     0.296 C 
HETATM    2  O6  UNL     1     -11.799 -15.773  13.617  1.00  0.00    -0.342 OA
HETATM    3  C8  UNL     1     -11.810 -16.593  14.766  1.00  0.00     0.231 C 
HETATM    4  C12 UNL     1     -10.442 -16.621  15.427  1.00  0.00     0.186 C 
HETATM    5  C13 UNL     1      -9.513 -15.798  14.591  1.00  0.00     0.184 C 
HETATM    6  C14 UNL     1     -10.072 -14.380  14.513  1.00  0.00     0.218 C 
ENDROOT
BRANCH   1   7
HETATM    7  O5  UNL     1     -11.892 -13.497  13.207  1.00  0.00    -0.326 OA
BRANCH   7   8
HETATM    8  C6  UNL     1     -13.132 -12.948  13.429  1.00  0.00     0.294 C 
HETATM    9  O4  UNL     1     -14.154 -13.842  13.504  1.00  0.00    -0.356 OA
HETATM   10  C5  UNL     1     -14.666 -14.002  14.760  1.00  0.00     0.205 C 
HETATM   11  C4  UNL     1     -15.370 -12.756  15.271  1.00  0.00     0.174 C 
HETATM   12  C3  UNL     1     -14.632 -11.518  14.730  1.00  0.00     0.196 C 
HETATM   13  C17 UNL     1     -13.180 -12.003  14.586  1.00  0.00     0.205 C 
BRANCH  11  14
HETATM   14  O3  UNL     1     -15.308 -12.796  16.661  1.00  0.00    -0.391 OA
ATOM     15  H3  UNL     1     -15.474 -13.676  16.979  1.00  0.00     0.210 HD
ENDBRANCH  11  14
BRANCH  12  16
HETATM   16  O2  UNL     1     -15.101 -11.283  13.416  1.00  0.00    -0.311 OA
BRANCH  16  17
HETATM   17  C2  UNL     1     -16.390 -10.845  13.161  1.00  0.00     0.255 C 
HETATM   18  C1  UNL     1     -16.913  -9.530  13.617  1.00  0.00     0.126 C 
HETATM   19  O1  UNL     1     -17.140 -11.613  12.511  1.00  0.00    -0.266 OA
ENDBRANCH  16  17
ENDBRANCH  12  16
BRANCH  13  20
HETATM   20  O13 UNL     1     -12.327 -10.910  14.414  1.00  0.00    -0.388 OA
ATOM     21  H13 UNL     1     -11.965 -10.646  15.251  1.00  0.00     0.210 HD
ENDBRANCH  13  20
ENDBRANCH   7   8
ENDBRANCH   1   7
BRANCH   6  22
HETATM   22  O11 UNL     1      -9.963 -13.804  15.799  1.00  0.00    -0.309 OA
BRANCH  22  23
HETATM   23  C15 UNL     1      -9.320 -12.620  16.060  1.00  0.00     0.255 C 
HETATM   24  C16 UNL     1      -8.291 -12.435  17.116  1.00  0.00     0.126 C 
HETATM   25  O12 UNL     1      -9.622 -11.615  15.356  1.00  0.00    -0.266 OA
ENDBRANCH  22  23
ENDBRANCH   6  22
BRANCH   3  26
HETATM   26  C9  UNL     1     -12.323 -17.941  14.481  1.00  0.00     0.158 A 
HETATM   27  N1  UNL     1     -13.031 -18.729  15.305  1.00  0.00    -0.343 N 
HETATM   28  C10 UNL     1     -13.312 -19.897  14.661  1.00  0.00     0.153 A 
ATOM     29  H1  UNL     1     -13.313 -18.492  16.257  1.00  0.00     0.167 HD
HETATM   30  C11 UNL     1     -12.737 -19.764  13.421  1.00  0.00     0.200 A 
HETATM   31  O8  UNL     1     -12.162 -18.591  13.358  1.00  0.00    -0.271 OA
BRANCH  30  32
HETATM   32  O7  UNL     1     -12.779 -20.726  12.434  1.00  0.00    -0.340 OA
ATOM     33  H7  UNL     1     -12.730 -20.544  11.502  1.00  0.00     0.220 HD
ENDBRANCH  30  32
ENDBRANCH   3  26
BRANCH   5  34
HETATM   34  O10 UNL     1      -8.213 -15.777  15.059  1.00  0.00    -0.390 OA
ATOM     35  H10 UNL     1      -7.679 -15.090  14.676  1.00  0.00     0.210 HD
ENDBRANCH   5  34
BRANCH   4  36
HETATM   36  O9  UNL     1     -10.472 -16.254  16.749  1.00  0.00    -0.390 OA
ATOM     37  H9  UNL     1      -9.770 -16.639  17.261  1.00  0.00     0.210 HD
ENDBRANCH   4  36
TORSDOF 12
ENDMDL
MODEL 3
REMARK VINA RESULT: -6.578109766      3.004      5.285
REMARK  12 active torsions:
REMARK  status: ('A' for Active; 'I' for Inactive)
REMARK    1  A    between atoms: C2_2  and  O2_4 
REMARK    2  A    between atoms: O2_4  and  C3_5 
REMARK    3  A    between atoms: C4_6  and  O3_7 
REMARK    4  A    between atoms: C6_11  and  O5_12 
REMARK    5  A    between atoms: O5_12  and  C7_13 
REMARK    6  A    between atoms: C8_15  and  C9_16 
REMARK    7  A    between atoms: C11_20  and  O7_21 
REMARK    8  A    between atoms: C12_24  and  O9_25 
REMARK    9  A    between atoms: C13_27  and  O10_28 
REMARK   10  A    between atoms: C14_30  and  O11_31 
REMARK   11  A    between atoms: O11_31  and  C15_32 
REMARK   12  A    between atoms: C17_35  and  O13_36 
ROOT
HETATM    1  C7  UNL     1     -14.323 -13.153  14.020  1.00  0.00     0.296 C 
HETATM    2  O6  UNL     1     -14.429 -14.338  14.746  1.00  0.00    -0.342 OA
HETATM    3  C8  UNL     1     -15.119 -15.239  13.906  1.00  0.00     0.231 C 
HETATM    4  C12 UNL     1     -16.524 -14.740  13.611  1.00  0.00     0.186 C 
HETATM    5  C13 UNL     1     -16.724 -13.463  14.366  1.00  0.00     0.184 C 
HETATM    6  C14 UNL     1     -15.663 -12.467  13.907  1.00  0.00     0.218 C 
ENDROOT
BRANCH   1   7
HETATM    7  O5  UNL     1     -13.323 -12.325  14.458  1.00  0.00    -0.326 OA
BRANCH   7   8
HETATM    8  C6  UNL     1     -12.047 -12.832  14.382  1.00  0.00     0.294 C 
HETATM    9  O4  UNL     1     -11.175 -12.093  13.644  1.00  0.00    -0.356 OA
HETATM   10  C5  UNL     1     -10.227 -11.444  14.382  1.00  0.00     0.205 C 
HETATM   11  C4  UNL     1      -9.255 -12.396  15.059  1.00  0.00     0.174 C 
HETATM   12  C3  UNL     1     -10.018 -13.672  15.460  1.00  0.00     0.196 C 
HETATM   13  C17 UNL     1     -11.449 -13.171  15.710  1.00  0.00     0.205 C 
BRANCH  11  14
HETATM   14  O3  UNL     1      -8.766 -11.742  16.186  1.00  0.00    -0.391 OA
ATOM     15  H3  UNL     1      -8.380 -10.908  15.948  1.00  0.00     0.210 HD
ENDBRANCH  11  14
BRANCH  12  16
HETATM   16  O2  UNL     1     -10.086 -14.504  14.317  1.00  0.00    -0.311 OA
BRANCH  16  17
HETATM   17  C2  UNL     1      -9.641 -15.815  14.333  1.00  0.00     0.255 C 
HETATM   18  C1  UNL     1      -9.494 -16.616  15.577  1.00  0.00     0.126 C 
HETATM   19  O1  UNL     1      -9.351 -16.337  13.229  1.00  0.00    -0.266 OA
ENDBRANCH  16  17
ENDBRANCH  12  16
BRANCH  13  20
HETATM   20  O13 UNL     1     -12.184 -14.144  16.390  1.00  0.00    -0.388 OA
ATOM     21  H13 UNL     1     -12.161 -13.974  17.324  1.00  0.00     0.210 HD
ENDBRANCH  13  20
ENDBRANCH   7   8
ENDBRANCH   1   7
BRANCH   6  22
HETATM   22  O11 UNL     1     -15.955 -12.113  12.570  1.00  0.00    -0.309 OA
BRANCH  22  23
HETATM   23  C15 UNL     1     -16.381 -10.869  12.180  1.00  0.00     0.255 C 
HETATM   24  C16 UNL     1     -16.781  -9.783  13.114  1.00  0.00     0.126 C 
HETATM   25  O12 UNL     1     -16.441 -10.624  10.942  1.00  0.00    -0.266 OA
ENDBRANCH  22  23
ENDBRANCH   6  22
BRANCH   3  26
HETATM   26  C9  UNL     1     -15.112 -16.610  14.438  1.00  0.00     0.158 A 
HETATM   27  N1  UNL     1     -15.120 -16.978  15.729  1.00  0.00    -0.343 N 
HETATM   28  C10 UNL     1     -15.109 -18.340  15.796  1.00  0.00     0.153 A 
ATOM     29  H1  UNL     1     -15.133 -16.344  16.528  1.00  0.00     0.167 HD
HETATM   30  C11 UNL     1     -15.094 -18.758  14.488  1.00  0.00     0.200 A 
HETATM   31  O8  UNL     1     -15.096 -17.701  13.718  1.00  0.00    -0.271 OA
BRANCH  30  32
HETATM   32  O7  UNL     1     -15.078 -20.079  14.091  1.00  0.00    -0.340 OA
ATOM     33  H7  UNL     1     -14.806 -20.379  13.231  1.00  0.00     0.220 HD
ENDBRANCH  30  32
ENDBRANCH   3  26
BRANCH   5  34
HETATM   34  O10 UNL     1     -17.986 -12.921  14.220  1.00  0.00    -0.390 OA
ATOM     35  H10 UNL     1     -18.112 -12.109  14.697  1.00  0.00     0.210 HD
ENDBRANCH   5  34
BRANCH   4  36
HETATM   36  O9  UNL     1     -16.790 -14.637  12.268  1.00  0.00    -0.390 OA
ATOM     37  H9  UNL     1     -17.017 -13.755  11.997  1.00  0.00     0.210 HD
ENDBRANCH   4  36
TORSDOF 12
ENDMDL
MODEL 4
REMARK VINA RESULT: -6.491392347      4.104      6.492
REMARK  12 active torsions:
REMARK  status: ('A' for Active; 'I' for Inactive)
REMARK    1  A    between atoms: C2_2  and  O2_4 
REMARK    2  A    between atoms: O2_4  and  C3_5 
REMARK    3  A    between atoms: C4_6  and  O3_7 
REMARK    4  A    between atoms: C6_11  and  O5_12 
REMARK    5  A    between atoms: O5_12  and  C7_13 
REMARK    6  A    between atoms: C8_15  and  C9_16 
REMARK    7  A    between atoms: C11_20  and  O7_21 
REMARK    8  A    between atoms: C12_24  and  O9_25 
REMARK    9  A    between atoms: C13_27  and  O10_28 
REMARK   10  A    between atoms: C14_30  and  O11_31 
REMARK   11  A    between atoms: O11_31  and  C15_32 
REMARK   12  A    between atoms: C17_35  and  O13_36 
ROOT
HETATM    1  C7  UNL     1     -13.127 -15.447  14.668  1.00  0.00     0.296 C 
HETATM    2  O6  UNL     1     -14.159 -14.539  14.901  1.00  0.00    -0.342 OA
HETATM    3  C8  UNL     1     -14.015 -13.538  13.917  1.00  0.00     0.231 C 
HETATM    4  C12 UNL     1     -12.695 -12.803  14.076  1.00  0.00     0.186 C 
HETATM    5  C13 UNL     1     -12.001 -13.364  15.278  1.00  0.00     0.184 C 
HETATM    6  C14 UNL     1     -11.792 -14.859  15.053  1.00  0.00     0.218 C 
ENDROOT
BRANCH   1   7
HETATM    7  O5  UNL     1     -13.352 -16.687  15.206  1.00  0.00    -0.326 OA
BRANCH   7   8
HETATM    8  C6  UNL     1     -13.812 -17.646  14.335  1.00  0.00     0.294 C 
HETATM    9  O4  UNL     1     -12.938 -18.004  13.356  1.00  0.00    -0.356 OA
HETATM   10  C5  UNL     1     -12.410 -19.254  13.507  1.00  0.00     0.205 C 
HETATM   11  C4  UNL     1     -13.448 -20.354  13.347  1.00  0.00     0.174 C 
HETATM   12  C3  UNL     1     -14.789 -19.847  13.907  1.00  0.00     0.196 C 
HETATM   13  C17 UNL     1     -14.367 -18.860  15.007  1.00  0.00     0.205 C 
BRANCH  11  14
HETATM   14  O3  UNL     1     -12.993 -21.450  14.074  1.00  0.00    -0.391 OA
ATOM     15  H3  UNL     1     -13.583 -22.187  13.973  1.00  0.00     0.210 HD
ENDBRANCH  11  14
BRANCH  12  16
HETATM   16  O2  UNL     1     -15.407 -19.073  12.898  1.00  0.00    -0.311 OA
BRANCH  16  17
HETATM   17  C2  UNL     1     -16.775 -19.100  12.682  1.00  0.00     0.255 C 
HETATM   18  C1  UNL     1     -17.704 -19.993  13.424  1.00  0.00     0.126 C 
HETATM   19  O1  UNL     1     -17.235 -18.323  11.810  1.00  0.00    -0.266 OA
ENDBRANCH  16  17
ENDBRANCH  12  16
BRANCH  13  20
HETATM   20  O13 UNL     1     -15.459 -18.561  15.824  1.00  0.00    -0.388 OA
ATOM     21  H13 UNL     1     -15.222 -18.671  16.737  1.00  0.00     0.210 HD
ENDBRANCH  13  20
ENDBRANCH   7   8
ENDBRANCH   1   7
BRANCH   6  22
HETATM   22  O11 UNL     1     -10.840 -15.008  14.019  1.00  0.00    -0.309 OA
BRANCH  22  23
HETATM   23  C15 UNL     1      -9.746 -15.832  14.094  1.00  0.00     0.255 C 
HETATM   24  C16 UNL     1      -8.866 -15.958  15.285  1.00  0.00     0.126 C 
HETATM   25  O12 UNL     1      -9.462 -16.534  13.082  1.00  0.00    -0.266 OA
ENDBRANCH  22  23
ENDBRANCH   6  22
BRANCH   3  26
HETATM   26  C9  UNL     1     -15.166 -12.621  13.885  1.00  0.00     0.158 A 
HETATM   27  N1  UNL     1     -16.463 -12.947  13.986  1.00  0.00    -0.343 N 
HETATM   28  C10 UNL     1     -17.208 -11.808  13.910  1.00  0.00     0.153 A 
ATOM     29  H1  UNL     1     -16.832 -13.892  14.100  1.00  0.00     0.167 HD
HETATM   30  C11 UNL     1     -16.292 -10.796  13.760  1.00  0.00     0.200 A 
HETATM   31  O8  UNL     1     -15.096 -11.323  13.750  1.00  0.00    -0.271 OA
BRANCH  30  32
HETATM   32  O7  UNL     1     -16.617  -9.461  13.641  1.00  0.00    -0.340 OA
ATOM     33  H7  UNL     1     -16.059  -8.745  13.924  1.00  0.00     0.220 HD
ENDBRANCH  30  32
ENDBRANCH   3  26
BRANCH   5  34
HETATM   34  O10 UNL     1     -10.798 -12.748  15.566  1.00  0.00    -0.390 OA
ATOM     35  H10 UNL     1     -10.748 -12.399  16.448  1.00  0.00     0.210 HD
ENDBRANCH   5  34
BRANCH   4  36
HETATM   36  O9  UNL     1     -11.928 -12.815  12.938  1.00  0.00    -0.390 OA
ATOM     37  H9  UNL     1     -11.075 -12.412  13.056  1.00  0.00     0.210 HD
ENDBRANCH   4  36
TORSDOF 12
ENDMDL
MODEL 5
REMARK VINA RESULT: -6.489688875      5.236      8.815
REMARK  12 active torsions:
REMARK  status: ('A' for Active; 'I' for Inactive)
REMARK    1  A    between atoms: C2_2  and  O2_4 
REMARK    2  A    between atoms: O2_4  and  C3_5 
REMARK    3  A    between atoms: C4_6  and  O3_7 
REMARK    4  A    between atoms: C6_11  and  O5_12 
REMARK    5  A    between atoms: O5_12  and  C7_13 
REMARK    6  A    between atoms: C8_15  and  C9_16 
REMARK    7  A    between atoms: C11_20  and  O7_21 
REMARK    8  A    between atoms: C12_24  and  O9_25 
REMARK    9  A    between atoms: C13_27  and  O10_28 
REMARK   10  A    between atoms: C14_30  and  O11_31 
REMARK   11  A    between atoms: O11_31  and  C15_32 
REMARK   12  A    between atoms: C17_35  and  O13_36 
ROOT
HETATM    1  C7  UNL     1      -7.518 -11.306  19.268  1.00  0.00     0.296 C 
HETATM    2  O6  UNL     1      -8.756 -11.517  19.874  1.00  0.00    -0.342 OA
HETATM    3  C8  UNL     1      -8.953 -10.416  20.734  1.00  0.00     0.231 C 
HETATM    4  C12 UNL     1      -7.894 -10.380  21.823  1.00  0.00     0.186 C 
HETATM    5  C13 UNL     1      -7.014 -11.577  21.645  1.00  0.00     0.184 C 
HETATM    6  C14 UNL     1      -6.393 -11.509  20.253  1.00  0.00     0.218 C 
ENDROOT
BRANCH   1   7
HETATM    7  O5  UNL     1      -7.350 -11.999  18.099  1.00  0.00    -0.326 OA
BRANCH   7   8
HETATM    8  C6  UNL     1      -8.496 -12.492  17.521  1.00  0.00     0.294 C 
HETATM    9  O4  UNL     1      -8.898 -11.846  16.394  1.00  0.00    -0.356 OA
HETATM   10  C5  UNL     1      -8.730 -12.566  15.246  1.00  0.00     0.205 C 
HETATM   11  C4  UNL     1      -9.631 -13.789  15.182  1.00  0.00     0.174 C 
HETATM   12  C3  UNL     1      -9.795 -14.352  16.606  1.00  0.00     0.196 C 
HETATM   13  C17 UNL     1      -8.476 -13.970  17.296  1.00  0.00     0.205 C 
BRANCH  11  14
HETATM   14  O3  UNL     1      -8.999 -14.715  14.357  1.00  0.00    -0.391 OA
ATOM     15  H3  UNL     1      -9.371 -14.695  13.484  1.00  0.00     0.210 HD
ENDBRANCH  11  14
BRANCH  12  16
HETATM   16  O2  UNL     1     -10.808 -13.600  17.246  1.00  0.00    -0.311 OA
BRANCH  16  17
HETATM   17  C2  UNL     1     -11.588 -14.130  18.261  1.00  0.00     0.255 C 
HETATM   18  C1  UNL     1     -12.796 -14.961  18.016  1.00  0.00     0.126 C 
HETATM   19  O1  UNL     1     -11.241 -13.882  19.441  1.00  0.00    -0.266 OA
ENDBRANCH  16  17
ENDBRANCH  12  16
BRANCH  13  20
HETATM   20  O13 UNL     1      -8.336 -14.686  18.487  1.00  0.00    -0.388 OA
ATOM     21  H13 UNL     1      -7.428 -14.678  18.765  1.00  0.00     0.210 HD
ENDBRANCH  13  20
ENDBRANCH   7   8
ENDBRANCH   1   7
BRANCH   6  22
HETATM   22  O11 UNL     1      -5.487 -10.424  20.239  1.00  0.00    -0.309 OA
BRANCH  22  23
HETATM   23  C15 UNL     1      -4.125 -10.558  20.329  1.00  0.00     0.255 C 
HETATM   24  C16 UNL     1      -3.149  -9.492  19.983  1.00  0.00     0.126 C 
HETATM   25  O12 UNL     1      -3.664 -11.663  20.733  1.00  0.00    -0.266 OA
ENDBRANCH  22  23
ENDBRANCH   6  22
BRANCH   3  26
HETATM   26  C9  UNL     1     -10.319 -10.374  21.278  1.00  0.00     0.158 A 
HETATM   27  N1  UNL     1     -11.223 -11.365  21.273  1.00  0.00    -0.343 N 
HETATM   28  C10 UNL     1     -12.363 -10.920  21.874  1.00  0.00     0.153 A 
ATOM     29  H1  UNL     1     -11.081 -12.298  20.884  1.00  0.00     0.167 HD
HETATM   30  C11 UNL     1     -12.092  -9.622  22.233  1.00  0.00     0.200 A 
HETATM   31  O8  UNL     1     -10.870  -9.341  21.860  1.00  0.00    -0.271 OA
BRANCH  30  32
HETATM   32  O7  UNL     1     -12.981  -8.787  22.875  1.00  0.00    -0.340 OA
ATOM     33  H7  UNL     1     -13.669  -8.296  22.440  1.00  0.00     0.220 HD
ENDBRANCH  30  32
ENDBRANCH   3  26
BRANCH   5  34
HETATM   34  O10 UNL     1      -6.028 -11.691  22.606  1.00  0.00    -0.390 OA
ATOM     35  H10 UNL     1      -5.744 -12.585  22.761  1.00  0.00     0.210 HD
ENDBRANCH   5  34
BRANCH   4  36
HETATM   36  O9  UNL     1      -7.210  -9.191  21.874  1.00  0.00    -0.390 OA
ATOM     37  H9  UNL     1      -7.160  -8.824  22.749  1.00  0.00     0.210 HD
ENDBRANCH   4  36
TORSDOF 12
ENDMDL
