MODEL 1
REMARK VINA RESULT: -7.955392824      0.000      0.000
REMARK  10 active torsions:
REMARK  status: ('A' for Active; 'I' for Inactive)
REMARK    1  A    between atoms: C2_2  and  C3_3 
REMARK    2  A    between atoms: C3_3  and  N1_4 
REMARK    3  A    between atoms: C3_3  and  C20_27 
REMARK       I    between atoms: N1_4  and  C4_6 
REMARK    4  A    between atoms: C4_6  and  C5_8 
REMARK       I    between atoms: N2_16  and  C12_17 
REMARK    5  A    between atoms: C12_17  and  C13_19 
REMARK    6  A    between atoms: C13_19  and  C14_21 
REMARK    7  A    between atoms: C14_21  and  C16_23 
REMARK    8  A    between atoms: C20_27  and  C21_29 
REMARK       I    between atoms: C21_29  and  N3_31 
REMARK    9  A    between atoms: N3_31  and  C22_33 
REMARK   10  A    between atoms: C22_33  and  C23_34 
ROOT
HETATM    1  N1  UNL     1       6.668  21.947  20.877  1.00  0.00    -0.347 N 
ATOM      2  H1  UNL     1       6.409  22.797  20.377  1.00  0.00     0.163 HD
HETATM    3  C4  UNL     1       8.022  21.569  20.931  1.00  0.00     0.241 C 
HETATM    4  O1  UNL     1       8.383  20.516  21.549  1.00  0.00    -0.271 OA
ENDROOT
BRANCH   3   5
HETATM    5  C5  UNL     1       9.030  22.399  20.265  1.00  0.00     0.180 C 
HETATM    6  C6  UNL     1       9.897  23.115  21.301  1.00  0.00     0.041 C 
HETATM    7  C7  UNL     1      11.287  23.269  20.767  1.00  0.00     0.004 C 
HETATM    8  C8  UNL     1      12.225  24.082  21.610  1.00  0.00     0.079 C 
HETATM    9  C10 UNL     1      11.972  21.976  20.498  1.00  0.00     0.018 C 
HETATM   10  S1  UNL     1      13.762  23.810  20.616  1.00  0.00    -0.168 SA
HETATM   11  C9  UNL     1      13.132  22.414  19.587  1.00  0.00     0.080 C 
HETATM   12  C11 UNL     1      11.069  20.985  19.899  1.00  0.00     0.133 C 
HETATM   13  N2  UNL     1       9.882  21.667  19.345  1.00  0.00    -0.332 N 
HETATM   14  C12 UNL     1       9.656  21.543  17.977  1.00  0.00     0.290 C 
HETATM   15  O2  UNL     1      10.552  20.864  17.328  1.00  0.00    -0.264 OA
BRANCH  14  16
HETATM   16  C13 UNL     1       8.588  22.043  17.158  1.00  0.00     0.221 C 
HETATM   17  O3  UNL     1       8.749  23.091  16.494  1.00  0.00    -0.287 OA
BRANCH  16  18
HETATM   18  C14 UNL     1       7.257  21.380  17.043  1.00  0.00     0.069 C 
HETATM   19  C15 UNL     1       6.107  22.265  17.386  1.00  0.00     0.019 C 
BRANCH  18  20
HETATM   20  C16 UNL     1       7.046  20.557  15.839  1.00  0.00    -0.041 C 
HETATM   21  C17 UNL     1       5.619  20.002  15.876  1.00  0.00     0.015 C 
HETATM   22  C18 UNL     1       7.217  21.215  14.513  1.00  0.00     0.015 C 
HETATM   23  C19 UNL     1       7.941  19.321  15.834  1.00  0.00     0.015 C 
ENDBRANCH  18  20
ENDBRANCH  16  18
ENDBRANCH  14  16
ENDBRANCH   3   5
BRANCH   1  24
HETATM   24  C3  UNL     1       5.606  21.139  21.529  1.00  0.00     0.164 C 
BRANCH  24  25
HETATM   25  C2  UNL     1       4.353  21.560  20.824  1.00  0.00     0.029 C 
HETATM   26  C1  UNL     1       3.782  20.658  19.809  1.00  0.00     0.007 C 
ENDBRANCH  24  25
BRANCH  24  27
HETATM   27  C20 UNL     1       5.659  21.392  22.965  1.00  0.00     0.238 C 
HETATM   28  O4  UNL     1       4.868  20.684  23.685  1.00  0.00    -0.285 OA
BRANCH  27  29
HETATM   29  C21 UNL     1       6.484  22.335  23.684  1.00  0.00     0.289 C 
HETATM   30  O5  UNL     1       6.214  23.548  23.658  1.00  0.00    -0.264 OA
HETATM   31  N3  UNL     1       7.615  21.929  24.437  1.00  0.00    -0.352 N 
ATOM     32  H3  UNL     1       7.851  20.937  24.473  1.00  0.00     0.162 HD
BRANCH  31  33
HETATM   33  C22 UNL     1       8.448  22.865  25.154  1.00  0.00     0.157 C 
BRANCH  33  34
HETATM   34  C23 UNL     1       9.811  22.326  25.459  1.00  0.00     0.169 C 
HETATM   35  C24 UNL     1      10.113  21.225  24.446  1.00  0.00     0.159 C 
HETATM   36  N4  UNL     1      11.578  21.272  24.327  1.00  0.00    -0.334 N 
HETATM   37  C25 UNL     1      11.989  22.511  24.901  1.00  0.00     0.361 C 
ATOM     38  H4  UNL     1      12.180  20.560  23.915  1.00  0.00     0.164 HD
HETATM   39  O6  UNL     1      13.197  22.819  25.113  1.00  0.00    -0.239 OA
HETATM   40  O7  UNL     1      10.837  23.252  25.158  1.00  0.00    -0.295 OA
ENDBRANCH  33  34
ENDBRANCH  31  33
ENDBRANCH  27  29
ENDBRANCH  24  27
ENDBRANCH   1  24
TORSDOF 10
ENDMDL
MODEL 2
REMARK VINA RESULT: -7.838418508      1.235      1.497
REMARK  10 active torsions:
REMARK  status: ('A' for Active; 'I' for Inactive)
REMARK    1  A    between atoms: C2_2  and  C3_3 
REMARK    2  A    between atoms: C3_3  and  N1_4 
REMARK    3  A    between atoms: C3_3  and  C20_27 
REMARK       I    between atoms: N1_4  and  C4_6 
REMARK    4  A    between atoms: C4_6  and  C5_8 
REMARK       I    between atoms: N2_16  and  C12_17 
REMARK    5  A    between atoms: C12_17  and  C13_19 
REMARK    6  A    between atoms: C13_19  and  C14_21 
REMARK    7  A    between atoms: C14_21  and  C16_23 
REMARK    8  A    between atoms: C20_27  and  C21_29 
REMARK       I    between atoms: C21_29  and  N3_31 
REMARK    9  A    between atoms: N3_31  and  C22_33 
REMARK   10  A    between atoms: C22_33  and  C23_34 
ROOT
HETATM    1  N1  UNL     1       6.656  21.944  20.869  1.00  0.00    -0.347 N 
ATOM      2  H1  UNL     1       6.396  22.789  20.360  1.00  0.00     0.163 HD
HETATM    3  C4  UNL     1       8.010  21.571  20.932  1.00  0.00     0.241 C 
HETATM    4  O1  UNL     1       8.373  20.524  21.561  1.00  0.00    -0.271 OA
ENDROOT
BRANCH   3   5
HETATM    5  C5  UNL     1       9.019  22.397  20.263  1.00  0.00     0.180 C 
HETATM    6  C6  UNL     1       9.892  23.111  21.297  1.00  0.00     0.041 C 
HETATM    7  C7  UNL     1      11.281  23.260  20.757  1.00  0.00     0.004 C 
HETATM    8  C8  UNL     1      12.225  24.069  21.598  1.00  0.00     0.079 C 
HETATM    9  C10 UNL     1      11.960  21.965  20.485  1.00  0.00     0.018 C 
HETATM   10  S1  UNL     1      13.756  23.793  20.598  1.00  0.00    -0.168 SA
HETATM   11  C9  UNL     1      13.119  22.399  19.570  1.00  0.00     0.080 C 
HETATM   12  C11 UNL     1      11.052  20.976  19.890  1.00  0.00     0.133 C 
HETATM   13  N2  UNL     1       9.865  21.663  19.340  1.00  0.00    -0.332 N 
HETATM   14  C12 UNL     1       9.634  21.540  17.973  1.00  0.00     0.290 C 
HETATM   15  O2  UNL     1      10.526  20.859  17.321  1.00  0.00    -0.264 OA
BRANCH  14  16
HETATM   16  C13 UNL     1       8.565  22.044  17.158  1.00  0.00     0.221 C 
HETATM   17  O3  UNL     1       8.724  23.097  16.501  1.00  0.00    -0.287 OA
BRANCH  16  18
HETATM   18  C14 UNL     1       7.236  21.380  17.039  1.00  0.00     0.069 C 
HETATM   19  C15 UNL     1       6.083  22.262  17.381  1.00  0.00     0.019 C 
BRANCH  18  20
HETATM   20  C16 UNL     1       7.027  20.558  15.833  1.00  0.00    -0.041 C 
HETATM   21  C17 UNL     1       5.611  19.978  15.879  1.00  0.00     0.015 C 
HETATM   22  C18 UNL     1       7.176  21.225  14.508  1.00  0.00     0.015 C 
HETATM   23  C19 UNL     1       7.944  19.338  15.814  1.00  0.00     0.015 C 
ENDBRANCH  18  20
ENDBRANCH  16  18
ENDBRANCH  14  16
ENDBRANCH   3   5
BRANCH   1  24
HETATM   24  C3  UNL     1       5.593  21.138  21.524  1.00  0.00     0.164 C 
BRANCH  24  25
HETATM   25  C2  UNL     1       4.343  21.548  20.809  1.00  0.00     0.029 C 
HETATM   26  C1  UNL     1       3.776  20.630  19.805  1.00  0.00     0.007 C 
ENDBRANCH  24  25
BRANCH  24  27
HETATM   27  C20 UNL     1       5.639  21.405  22.957  1.00  0.00     0.238 C 
HETATM   28  O4  UNL     1       4.843  20.706  23.679  1.00  0.00    -0.285 OA
BRANCH  27  29
HETATM   29  C21 UNL     1       6.461  22.354  23.672  1.00  0.00     0.289 C 
HETATM   30  O5  UNL     1       6.156  23.560  23.683  1.00  0.00    -0.264 OA
HETATM   31  N3  UNL     1       7.627  21.964  24.378  1.00  0.00    -0.352 N 
ATOM     32  H3  UNL     1       7.890  20.978  24.383  1.00  0.00     0.162 HD
BRANCH  31  33
HETATM   33  C22 UNL     1       8.456  22.907  25.091  1.00  0.00     0.157 C 
BRANCH  33  34
HETATM   34  C23 UNL     1       9.024  22.349  26.358  1.00  0.00     0.169 C 
HETATM   35  C24 UNL     1       7.865  21.801  27.187  1.00  0.00     0.159 C 
HETATM   36  N4  UNL     1       8.486  20.713  27.954  1.00  0.00    -0.334 N 
HETATM   37  C25 UNL     1       9.737  20.440  27.328  1.00  0.00     0.361 C 
ATOM     38  H4  UNL     1       8.099  20.244  28.774  1.00  0.00     0.164 HD
HETATM   39  O6  UNL     1      10.612  19.668  27.814  1.00  0.00    -0.239 OA
HETATM   40  O7  UNL     1       9.774  21.169  26.140  1.00  0.00    -0.295 OA
ENDBRANCH  33  34
ENDBRANCH  31  33
ENDBRANCH  27  29
ENDBRANCH  24  27
ENDBRANCH   1  24
TORSDOF 10
ENDMDL
MODEL 3
REMARK VINA RESULT: -7.749960608      2.539      7.167
REMARK  10 active torsions:
REMARK  status: ('A' for Active; 'I' for Inactive)
REMARK    1  A    between atoms: C2_2  and  C3_3 
REMARK    2  A    between atoms: C3_3  and  N1_4 
REMARK    3  A    between atoms: C3_3  and  C20_27 
REMARK       I    between atoms: N1_4  and  C4_6 
REMARK    4  A    between atoms: C4_6  and  C5_8 
REMARK       I    between atoms: N2_16  and  C12_17 
REMARK    5  A    between atoms: C12_17  and  C13_19 
REMARK    6  A    between atoms: C13_19  and  C14_21 
REMARK    7  A    between atoms: C14_21  and  C16_23 
REMARK    8  A    between atoms: C20_27  and  C21_29 
REMARK       I    between atoms: C21_29  and  N3_31 
REMARK    9  A    between atoms: N3_31  and  C22_33 
REMARK   10  A    between atoms: C22_33  and  C23_34 
ROOT
HETATM    1  N1  UNL     1      10.904  22.779  20.859  1.00  0.00    -0.347 N 
ATOM      2  H1  UNL     1      10.097  23.081  20.313  1.00  0.00     0.163 HD
HETATM    3  C4  UNL     1      10.702  22.255  22.148  1.00  0.00     0.241 C 
HETATM    4  O1  UNL     1      11.685  21.864  22.859  1.00  0.00    -0.271 OA
ENDROOT
BRANCH   3   5
HETATM    5  C5  UNL     1       9.341  22.159  22.683  1.00  0.00     0.180 C 
HETATM    6  C6  UNL     1       9.379  21.841  24.179  1.00  0.00     0.041 C 
HETATM    7  C7  UNL     1       8.214  22.495  24.857  1.00  0.00     0.004 C 
HETATM    8  C8  UNL     1       8.031  22.160  26.308  1.00  0.00     0.079 C 
HETATM    9  C10 UNL     1       8.222  23.979  24.763  1.00  0.00     0.018 C 
HETATM   10  S1  UNL     1       6.629  23.314  26.660  1.00  0.00    -0.168 SA
HETATM   11  C9  UNL     1       6.768  24.329  25.125  1.00  0.00     0.080 C 
HETATM   12  C11 UNL     1       8.649  24.448  23.438  1.00  0.00     0.133 C 
HETATM   13  N2  UNL     1       8.534  23.346  22.462  1.00  0.00    -0.332 N 
HETATM   14  C12 UNL     1       7.672  23.534  21.386  1.00  0.00     0.290 C 
HETATM   15  O2  UNL     1       7.025  24.659  21.386  1.00  0.00    -0.264 OA
BRANCH  14  16
HETATM   16  C13 UNL     1       7.377  22.685  20.266  1.00  0.00     0.221 C 
HETATM   17  O3  UNL     1       8.310  22.181  19.601  1.00  0.00    -0.287 OA
BRANCH  16  18
HETATM   18  C14 UNL     1       5.992  22.353  19.826  1.00  0.00     0.069 C 
HETATM   19  C15 UNL     1       5.898  21.900  18.408  1.00  0.00     0.019 C 
BRANCH  18  20
HETATM   20  C16 UNL     1       5.186  21.555  20.767  1.00  0.00    -0.041 C 
HETATM   21  C17 UNL     1       4.135  20.778  19.969  1.00  0.00     0.015 C 
HETATM   22  C18 UNL     1       5.900  20.562  21.619  1.00  0.00     0.015 C 
HETATM   23  C19 UNL     1       4.377  22.441  21.711  1.00  0.00     0.015 C 
ENDBRANCH  18  20
ENDBRANCH  16  18
ENDBRANCH  14  16
ENDBRANCH   3   5
BRANCH   1  24
HETATM   24  C3  UNL     1      12.263  22.904  20.272  1.00  0.00     0.164 C 
BRANCH  24  25
HETATM   25  C2  UNL     1      12.230  24.229  19.575  1.00  0.00     0.029 C 
HETATM   26  C1  UNL     1      13.509  24.901  19.284  1.00  0.00     0.007 C 
ENDBRANCH  24  25
BRANCH  24  27
HETATM   27  C20 UNL     1      12.506  21.735  19.434  1.00  0.00     0.238 C 
HETATM   28  O4  UNL     1      13.737  21.471  19.190  1.00  0.00    -0.285 OA
BRANCH  27  29
HETATM   29  C21 UNL     1      11.543  20.836  18.841  1.00  0.00     0.289 C 
HETATM   30  O5  UNL     1      11.310  19.735  19.370  1.00  0.00    -0.264 OA
HETATM   31  N3  UNL     1      10.836  21.159  17.655  1.00  0.00    -0.352 N 
ATOM     32  H3  UNL     1      11.012  22.060  17.210  1.00  0.00     0.162 HD
BRANCH  31  33
HETATM   33  C22 UNL     1       9.877  20.264  17.054  1.00  0.00     0.157 C 
BRANCH  33  34
HETATM   34  C23 UNL     1       9.262  20.815  15.805  1.00  0.00     0.169 C 
HETATM   35  C24 UNL     1       7.924  20.111  15.595  1.00  0.00     0.159 C 
HETATM   36  N4  UNL     1       7.123  21.119  14.885  1.00  0.00    -0.334 N 
HETATM   37  C25 UNL     1       7.806  22.361  15.043  1.00  0.00     0.361 C 
ATOM     38  H4  UNL     1       6.251  20.962  14.380  1.00  0.00     0.164 HD
HETATM   39  O6  UNL     1       7.486  23.420  14.431  1.00  0.00    -0.239 OA
HETATM   40  O7  UNL     1       8.836  22.155  15.960  1.00  0.00    -0.295 OA
ENDBRANCH  33  34
ENDBRANCH  31  33
ENDBRANCH  27  29
ENDBRANCH  24  27
ENDBRANCH   1  24
TORSDOF 10
ENDMDL
MODEL 4
REMARK VINA RESULT: -7.712003903      3.454      5.525
REMARK  10 active torsions:
REMARK  status: ('A' for Active; 'I' for Inactive)
REMARK    1  A    between atoms: C2_2  and  C3_3 
REMARK    2  A    between atoms: C3_3  and  N1_4 
REMARK    3  A    between atoms: C3_3  and  C20_27 
REMARK       I    between atoms: N1_4  and  C4_6 
REMARK    4  A    between atoms: C4_6  and  C5_8 
REMARK       I    between atoms: N2_16  and  C12_17 
REMARK    5  A    between atoms: C12_17  and  C13_19 
REMARK    6  A    between atoms: C13_19  and  C14_21 
REMARK    7  A    between atoms: C14_21  and  C16_23 
REMARK    8  A    between atoms: C20_27  and  C21_29 
REMARK       I    between atoms: C21_29  and  N3_31 
REMARK    9  A    between atoms: N3_31  and  C22_33 
REMARK   10  A    between atoms: C22_33  and  C23_34 
ROOT
HETATM    1  N1  UNL     1       4.888  21.764  20.955  1.00  0.00    -0.347 N 
ATOM      2  H1  UNL     1       4.758  22.686  20.540  1.00  0.00     0.163 HD
HETATM    3  C4  UNL     1       6.168  21.384  21.395  1.00  0.00     0.241 C 
HETATM    4  O1  UNL     1       6.369  20.241  21.921  1.00  0.00    -0.271 OA
ENDROOT
BRANCH   3   5
HETATM    5  C5  UNL     1       7.289  22.316  21.244  1.00  0.00     0.180 C 
HETATM    6  C6  UNL     1       7.639  22.949  22.592  1.00  0.00     0.041 C 
HETATM    7  C7  UNL     1       9.112  23.210  22.652  1.00  0.00     0.004 C 
HETATM    8  C8  UNL     1       9.594  23.962  23.858  1.00  0.00     0.079 C 
HETATM    9  C10 UNL     1       9.943  21.980  22.560  1.00  0.00     0.018 C 
HETATM   10  S1  UNL     1      11.409  23.854  23.516  1.00  0.00    -0.168 SA
HETATM   11  C9  UNL     1      11.326  22.554  22.210  1.00  0.00     0.080 C 
HETATM   12  C11 UNL     1       9.413  21.025  21.577  1.00  0.00     0.133 C 
HETATM   13  N2  UNL     1       8.480  21.719  20.667  1.00  0.00    -0.332 N 
HETATM   14  C12 UNL     1       8.803  21.734  19.313  1.00  0.00     0.290 C 
HETATM   15  O2  UNL     1       9.927  21.162  19.006  1.00  0.00    -0.264 OA
BRANCH  14  16
HETATM   16  C13 UNL     1       8.094  22.280  18.190  1.00  0.00     0.221 C 
HETATM   17  O3  UNL     1       8.406  23.405  17.741  1.00  0.00    -0.287 OA
BRANCH  16  18
HETATM   18  C14 UNL     1       6.974  21.577  17.502  1.00  0.00     0.069 C 
HETATM   19  C15 UNL     1       5.707  22.362  17.446  1.00  0.00     0.019 C 
BRANCH  18  20
HETATM   20  C16 UNL     1       7.315  20.894  16.241  1.00  0.00    -0.041 C 
HETATM   21  C17 UNL     1       7.461  21.949  15.141  1.00  0.00     0.015 C 
HETATM   22  C18 UNL     1       8.556  20.070  16.215  1.00  0.00     0.015 C 
HETATM   23  C19 UNL     1       6.180  19.992  15.761  1.00  0.00     0.015 C 
ENDBRANCH  18  20
ENDBRANCH  16  18
ENDBRANCH  14  16
ENDBRANCH   3   5
BRANCH   1  24
HETATM   24  C3  UNL     1       3.719  20.854  21.079  1.00  0.00     0.164 C 
BRANCH  24  25
HETATM   25  C2  UNL     1       3.121  20.853  19.706  1.00  0.00     0.029 C 
HETATM   26  C1  UNL     1       3.753  20.023  18.665  1.00  0.00     0.007 C 
ENDBRANCH  24  25
BRANCH  24  27
HETATM   27  C20 UNL     1       2.870  21.349  22.156  1.00  0.00     0.238 C 
HETATM   28  O4  UNL     1       3.300  22.390  22.770  1.00  0.00    -0.285 OA
BRANCH  27  29
HETATM   29  C21 UNL     1       1.609  20.823  22.625  1.00  0.00     0.289 C 
HETATM   30  O5  UNL     1       0.669  21.593  22.883  1.00  0.00    -0.264 OA
HETATM   31  N3  UNL     1       1.391  19.434  22.809  1.00  0.00    -0.352 N 
ATOM     32  H3  UNL     1       2.150  18.786  22.598  1.00  0.00     0.162 HD
BRANCH  31  33
HETATM   33  C22 UNL     1       0.136  18.900  23.282  1.00  0.00     0.157 C 
BRANCH  33  34
HETATM   34  C23 UNL     1       0.249  18.221  24.611  1.00  0.00     0.169 C 
HETATM   35  C24 UNL     1      -0.225  16.781  24.441  1.00  0.00     0.159 C 
HETATM   36  N4  UNL     1       0.548  16.052  25.457  1.00  0.00    -0.334 N 
HETATM   37  C25 UNL     1       1.604  16.920  25.860  1.00  0.00     0.361 C 
ATOM     38  H4  UNL     1       0.364  15.110  25.805  1.00  0.00     0.164 HD
HETATM   39  O6  UNL     1       2.374  16.682  26.835  1.00  0.00    -0.239 OA
HETATM   40  O7  UNL     1       1.595  18.014  24.997  1.00  0.00    -0.295 OA
ENDBRANCH  33  34
ENDBRANCH  31  33
ENDBRANCH  27  29
ENDBRANCH  24  27
ENDBRANCH   1  24
TORSDOF 10
ENDMDL
MODEL 5
REMARK VINA RESULT: -7.700572975      3.269      5.333
REMARK  10 active torsions:
REMARK  status: ('A' for Active; 'I' for Inactive)
REMARK    1  A    between atoms: C2_2  and  C3_3 
REMARK    2  A    between atoms: C3_3  and  N1_4 
REMARK    3  A    between atoms: C3_3  and  C20_27 
REMARK       I    between atoms: N1_4  and  C4_6 
REMARK    4  A    between atoms: C4_6  and  C5_8 
REMARK       I    between atoms: N2_16  and  C12_17 
REMARK    5  A    between atoms: C12_17  and  C13_19 
REMARK    6  A    between atoms: C13_19  and  C14_21 
REMARK    7  A    between atoms: C14_21  and  C16_23 
REMARK    8  A    between atoms: C20_27  and  C21_29 
REMARK       I    between atoms: C21_29  and  N3_31 
REMARK    9  A    between atoms: N3_31  and  C22_33 
REMARK   10  A    between atoms: C22_33  and  C23_34 
ROOT
HETATM    1  N1  UNL     1       5.698  21.626  20.725  1.00  0.00    -0.347 N 
ATOM      2  H1  UNL     1       5.552  22.440  20.129  1.00  0.00     0.163 HD
HETATM    3  C4  UNL     1       6.986  21.363  21.225  1.00  0.00     0.241 C 
HETATM    4  O1  UNL     1       7.206  20.357  21.974  1.00  0.00    -0.271 OA
ENDROOT
BRANCH   3   5
HETATM    5  C5  UNL     1       8.092  22.259  20.875  1.00  0.00     0.180 C 
HETATM    6  C6  UNL     1       8.674  22.902  22.135  1.00  0.00     0.041 C 
HETATM    7  C7  UNL     1      10.144  23.119  21.950  1.00  0.00     0.004 C 
HETATM    8  C8  UNL     1      10.836  23.874  23.046  1.00  0.00     0.079 C 
HETATM    9  C10 UNL     1      10.915  21.863  21.749  1.00  0.00     0.018 C 
HETATM   10  S1  UNL     1      12.567  23.707  22.417  1.00  0.00    -0.168 SA
HETATM   11  C9  UNL     1      12.238  22.390  21.167  1.00  0.00     0.080 C 
HETATM   12  C11 UNL     1      10.207  20.910  20.885  1.00  0.00     0.133 C 
HETATM   13  N2  UNL     1       9.157  21.617  20.124  1.00  0.00    -0.332 N 
HETATM   14  C12 UNL     1       9.255  21.602  18.736  1.00  0.00     0.290 C 
HETATM   15  O2  UNL     1      10.298  20.991  18.263  1.00  0.00    -0.264 OA
BRANCH  14  16
HETATM   16  C13 UNL     1       8.387  22.151  17.732  1.00  0.00     0.221 C 
HETATM   17  O3  UNL     1       8.608  23.294  17.273  1.00  0.00    -0.287 OA
BRANCH  16  18
HETATM   18  C14 UNL     1       7.202  21.432  17.184  1.00  0.00     0.069 C 
HETATM   19  C15 UNL     1       5.916  22.170  17.344  1.00  0.00     0.019 C 
BRANCH  18  20
HETATM   20  C16 UNL     1       7.378  20.808  15.860  1.00  0.00    -0.041 C 
HETATM   21  C17 UNL     1       6.147  19.948  15.561  1.00  0.00     0.015 C 
HETATM   22  C18 UNL     1       7.565  21.712  14.690  1.00  0.00     0.015 C 
HETATM   23  C19 UNL     1       8.547  19.827  15.847  1.00  0.00     0.015 C 
ENDBRANCH  18  20
ENDBRANCH  16  18
ENDBRANCH  14  16
ENDBRANCH   3   5
BRANCH   1  24
HETATM   24  C3  UNL     1       4.544  20.746  21.044  1.00  0.00     0.164 C 
BRANCH  24  25
HETATM   25  C2  UNL     1       3.709  20.788  19.801  1.00  0.00     0.029 C 
HETATM   26  C1  UNL     1       2.317  20.311  19.874  1.00  0.00     0.007 C 
ENDBRANCH  24  25
BRANCH  24  27
HETATM   27  C20 UNL     1       3.917  21.243  22.264  1.00  0.00     0.238 C 
HETATM   28  O4  UNL     1       3.740  22.512  22.321  1.00  0.00    -0.285 OA
BRANCH  27  29
HETATM   29  C21 UNL     1       3.469  20.496  23.416  1.00  0.00     0.289 C 
HETATM   30  O5  UNL     1       4.294  19.911  24.140  1.00  0.00    -0.264 OA
HETATM   31  N3  UNL     1       2.099  20.398  23.768  1.00  0.00    -0.352 N 
ATOM     32  H3  UNL     1       1.408  20.874  23.189  1.00  0.00     0.162 HD
BRANCH  31  33
HETATM   33  C22 UNL     1       1.643  19.650  24.916  1.00  0.00     0.157 C 
BRANCH  33  34
HETATM   34  C23 UNL     1       1.428  18.198  24.623  1.00  0.00     0.169 C 
HETATM   35  C24 UNL     1       1.936  17.400  25.821  1.00  0.00     0.159 C 
HETATM   36  N4  UNL     1       1.091  16.197  25.805  1.00  0.00    -0.334 N 
HETATM   37  C25 UNL     1      -0.008  16.487  24.945  1.00  0.00     0.361 C 
ATOM     38  H4  UNL     1       1.259  15.326  26.309  1.00  0.00     0.164 HD
HETATM   39  O6  UNL     1      -0.853  15.624  24.572  1.00  0.00    -0.239 OA
HETATM   40  O7  UNL     1       0.058  17.844  24.630  1.00  0.00    -0.295 OA
ENDBRANCH  33  34
ENDBRANCH  31  33
ENDBRANCH  27  29
ENDBRANCH  24  27
ENDBRANCH   1  24
TORSDOF 10
ENDMDL
