MODEL 1
REMARK VINA RESULT: -7.247468965      0.000      0.000
REMARK  10 active torsions:
REMARK  status: ('A' for Active; 'I' for Inactive)
REMARK    1  A    between atoms: C2_2  and  C4_4 
REMARK    2  A    between atoms: C4_4  and  N1_5 
REMARK    3  A    between atoms: C4_4  and  C10_17 
REMARK       I    between atoms: N1_5  and  C5_7 
REMARK    4  A    between atoms: C5_7  and  C6_9 
REMARK    5  A    between atoms: C6_9  and  N2_10 
REMARK    6  A    between atoms: C9_14  and  O2_15 
REMARK       I    between atoms: C10_17  and  N3_19 
REMARK    7  A    between atoms: C14_23  and  C15_24 
REMARK       I    between atoms: C15_24  and  N4_26 
REMARK    8  A    between atoms: N4_26  and  C16_28 
REMARK    9  A    between atoms: C17_29  and  C18_30 
REMARK   10  A    between atoms: C22_36  and  C23_37 
ROOT
HETATM    1  C10 UNL     1       9.974  21.572  21.479  1.00  0.00     0.243 C 
HETATM    2  O3  UNL     1       8.814  21.386  21.045  1.00  0.00    -0.271 OA
HETATM    3  N3  UNL     1      10.148  21.674  22.897  1.00  0.00    -0.337 N 
HETATM    4  C11 UNL     1      11.455  21.796  23.480  1.00  0.00     0.127 C 
HETATM    5  C12 UNL     1      11.150  22.818  24.586  1.00  0.00     0.022 C 
HETATM    6  C13 UNL     1       9.825  22.299  25.129  1.00  0.00     0.037 C 
HETATM    7  C14 UNL     1       9.194  21.661  23.942  1.00  0.00     0.179 C 
ENDROOT
BRANCH   1   8
HETATM    8  C4  UNL     1      11.044  21.663  20.476  1.00  0.00     0.180 C 
BRANCH   8   9
HETATM    9  C2  UNL     1      11.807  22.979  20.559  1.00  0.00     0.009 C 
HETATM   10  C1  UNL     1      11.016  24.153  20.040  1.00  0.00     0.012 C 
HETATM   11  C3  UNL     1      13.176  22.915  19.962  1.00  0.00     0.012 C 
ENDBRANCH   8   9
BRANCH   8  12
HETATM   12  N1  UNL     1      10.488  21.588  19.114  1.00  0.00    -0.346 N 
HETATM   13  C5  UNL     1      10.875  20.604  18.169  1.00  0.00     0.246 C 
HETATM   14  O1  UNL     1      11.749  19.755  18.540  1.00  0.00    -0.272 OA
ATOM     15  H1  UNL     1       9.791  22.279  18.837  1.00  0.00     0.163 HD
BRANCH  13  16
HETATM   16  C6  UNL     1      10.322  20.529  16.819  1.00  0.00     0.379 C 
BRANCH  16  17
HETATM   17  N2  UNL     1       8.902  20.503  16.817  1.00  0.00     0.136 N 
HETATM   18  C7  UNL     1       8.330  21.847  16.754  1.00  0.00     0.287 C 
HETATM   19  C8  UNL     1       8.849  22.500  15.482  1.00  0.00     0.108 C 
HETATM   20  S1  UNL     1       8.653  21.061  14.352  1.00  0.00    -0.105 SA
HETATM   21  C9  UNL     1       8.341  19.806  15.668  1.00  0.00     0.422 C 
BRANCH  21  22
HETATM   22  O2  UNL     1       6.995  19.558  15.804  1.00  0.00    -0.360 OA
ATOM     23  H2  UNL     1       6.511  20.320  16.099  1.00  0.00     0.213 HD
ENDBRANCH  21  22
ENDBRANCH  16  17
ENDBRANCH  13  16
ENDBRANCH   8  12
ENDBRANCH   1   8
BRANCH   7  24
HETATM   24  C15 UNL     1       7.890  22.296  23.617  1.00  0.00     0.241 C 
HETATM   25  O4  UNL     1       7.786  23.538  23.775  1.00  0.00    -0.271 OA
HETATM   26  N4  UNL     1       6.813  21.511  23.144  1.00  0.00    -0.351 N 
ATOM     27  H4  UNL     1       6.957  20.506  23.036  1.00  0.00     0.163 HD
BRANCH  26  28
HETATM   28  C16 UNL     1       5.536  22.050  22.811  1.00  0.00     0.128 C 
HETATM   29  C17 UNL     1       5.155  21.396  21.464  1.00  0.00     0.158 C 
HETATM   30  O5  UNL     1       3.890  20.786  21.668  1.00  0.00    -0.313 OA
HETATM   31  C21 UNL     1       3.283  21.274  22.781  1.00  0.00     0.266 C 
HETATM   32  O6  UNL     1       2.080  21.305  23.060  1.00  0.00    -0.265 OA
HETATM   33  C22 UNL     1       4.380  21.790  23.649  1.00  0.00     0.114 C 
BRANCH  29  34
HETATM   34  C18 UNL     1       5.131  22.391  20.342  1.00  0.00     0.009 C 
HETATM   35  C19 UNL     1       5.466  21.844  18.992  1.00  0.00     0.012 C 
HETATM   36  C20 UNL     1       6.142  23.477  20.664  1.00  0.00     0.012 C 
ENDBRANCH  29  34
BRANCH  33  37
HETATM   37  C23 UNL     1       4.525  20.962  24.891  1.00  0.00    -0.007 C 
HETATM   38  C24 UNL     1       4.207  19.524  24.620  1.00  0.00     0.010 C 
HETATM   39  C25 UNL     1       3.889  21.542  26.113  1.00  0.00     0.010 C 
ENDBRANCH  33  37
ENDBRANCH  26  28
ENDBRANCH   7  24
TORSDOF 10
ENDMDL
MODEL 2
REMARK VINA RESULT: -7.166640980      0.807      1.082
REMARK  10 active torsions:
REMARK  status: ('A' for Active; 'I' for Inactive)
REMARK    1  A    between atoms: C2_2  and  C4_4 
REMARK    2  A    between atoms: C4_4  and  N1_5 
REMARK    3  A    between atoms: C4_4  and  C10_17 
REMARK       I    between atoms: N1_5  and  C5_7 
REMARK    4  A    between atoms: C5_7  and  C6_9 
REMARK    5  A    between atoms: C6_9  and  N2_10 
REMARK    6  A    between atoms: C9_14  and  O2_15 
REMARK       I    between atoms: C10_17  and  N3_19 
REMARK    7  A    between atoms: C14_23  and  C15_24 
REMARK       I    between atoms: C15_24  and  N4_26 
REMARK    8  A    between atoms: N4_26  and  C16_28 
REMARK    9  A    between atoms: C17_29  and  C18_30 
REMARK   10  A    between atoms: C22_36  and  C23_37 
ROOT
HETATM    1  C10 UNL     1      10.264  21.590  21.409  1.00  0.00     0.243 C 
HETATM    2  O3  UNL     1       9.099  21.321  21.039  1.00  0.00    -0.271 OA
HETATM    3  N3  UNL     1      10.488  21.802  22.807  1.00  0.00    -0.337 N 
HETATM    4  C11 UNL     1      11.810  22.025  23.325  1.00  0.00     0.127 C 
HETATM    5  C12 UNL     1      11.500  23.110  24.367  1.00  0.00     0.022 C 
HETATM    6  C13 UNL     1      10.223  22.574  25.001  1.00  0.00     0.037 C 
HETATM    7  C14 UNL     1       9.577  21.824  23.890  1.00  0.00     0.179 C 
ENDROOT
BRANCH   1   8
HETATM    8  C4  UNL     1      11.289  21.654  20.358  1.00  0.00     0.180 C 
BRANCH   8   9
HETATM    9  C2  UNL     1      12.129  22.922  20.444  1.00  0.00     0.009 C 
HETATM   10  C1  UNL     1      11.352  24.170  20.110  1.00  0.00     0.012 C 
HETATM   11  C3  UNL     1      13.414  22.840  19.684  1.00  0.00     0.012 C 
ENDBRANCH   8   9
BRANCH   8  12
HETATM   12  N1  UNL     1      10.666  21.657  19.023  1.00  0.00    -0.346 N 
HETATM   13  C5  UNL     1      10.850  20.616  18.077  1.00  0.00     0.246 C 
HETATM   14  O1  UNL     1      11.595  19.643  18.421  1.00  0.00    -0.272 OA
ATOM     15  H1  UNL     1      10.074  22.446  18.766  1.00  0.00     0.163 HD
BRANCH  13  16
HETATM   16  C6  UNL     1      10.229  20.618  16.755  1.00  0.00     0.379 C 
BRANCH  16  17
HETATM   17  N2  UNL     1       8.829  20.390  16.813  1.00  0.00     0.136 N 
HETATM   18  C7  UNL     1       8.074  21.639  16.914  1.00  0.00     0.287 C 
HETATM   19  C8  UNL     1       8.423  22.477  15.694  1.00  0.00     0.108 C 
HETATM   20  S1  UNL     1       8.361  21.139  14.432  1.00  0.00    -0.105 SA
HETATM   21  C9  UNL     1       8.303  19.733  15.624  1.00  0.00     0.422 C 
BRANCH  21  22
HETATM   22  O2  UNL     1       7.014  19.284  15.795  1.00  0.00    -0.360 OA
ATOM     23  H2  UNL     1       6.439  19.949  16.155  1.00  0.00     0.213 HD
ENDBRANCH  21  22
ENDBRANCH  16  17
ENDBRANCH  13  16
ENDBRANCH   8  12
ENDBRANCH   1   8
BRANCH   7  24
HETATM   24  C15 UNL     1       8.233  22.374  23.576  1.00  0.00     0.241 C 
HETATM   25  O4  UNL     1       8.106  23.623  23.533  1.00  0.00    -0.271 OA
HETATM   26  N4  UNL     1       7.144  21.504  23.335  1.00  0.00    -0.351 N 
ATOM     27  H4  UNL     1       7.309  20.498  23.384  1.00  0.00     0.163 HD
BRANCH  26  28
HETATM   28  C16 UNL     1       5.830  21.960  23.026  1.00  0.00     0.128 C 
HETATM   29  C17 UNL     1       5.135  20.767  22.332  1.00  0.00     0.158 C 
HETATM   30  O5  UNL     1       3.950  20.519  23.071  1.00  0.00    -0.313 OA
HETATM   31  C21 UNL     1       3.628  21.581  23.854  1.00  0.00     0.266 C 
HETATM   32  O6  UNL     1       2.525  21.908  24.305  1.00  0.00    -0.265 OA
HETATM   33  C22 UNL     1       4.902  22.319  24.084  1.00  0.00     0.114 C 
BRANCH  29  34
HETATM   34  C18 UNL     1       4.855  21.043  20.885  1.00  0.00     0.009 C 
HETATM   35  C19 UNL     1       5.226  22.410  20.408  1.00  0.00     0.012 C 
HETATM   36  C20 UNL     1       3.363  20.866  20.660  1.00  0.00     0.012 C 
ENDBRANCH  29  34
BRANCH  33  37
HETATM   37  C23 UNL     1       5.330  22.230  25.519  1.00  0.00    -0.007 C 
HETATM   38  C24 UNL     1       4.847  20.959  26.147  1.00  0.00     0.010 C 
HETATM   39  C25 UNL     1       5.106  23.470  26.321  1.00  0.00     0.010 C 
ENDBRANCH  33  37
ENDBRANCH  26  28
ENDBRANCH   7  24
TORSDOF 10
ENDMDL
MODEL 3
REMARK VINA RESULT: -7.100487042      1.094      1.207
REMARK  10 active torsions:
REMARK  status: ('A' for Active; 'I' for Inactive)
REMARK    1  A    between atoms: C2_2  and  C4_4 
REMARK    2  A    between atoms: C4_4  and  N1_5 
REMARK    3  A    between atoms: C4_4  and  C10_17 
REMARK       I    between atoms: N1_5  and  C5_7 
REMARK    4  A    between atoms: C5_7  and  C6_9 
REMARK    5  A    between atoms: C6_9  and  N2_10 
REMARK    6  A    between atoms: C9_14  and  O2_15 
REMARK       I    between atoms: C10_17  and  N3_19 
REMARK    7  A    between atoms: C14_23  and  C15_24 
REMARK       I    between atoms: C15_24  and  N4_26 
REMARK    8  A    between atoms: N4_26  and  C16_28 
REMARK    9  A    between atoms: C17_29  and  C18_30 
REMARK   10  A    between atoms: C22_36  and  C23_37 
ROOT
HETATM    1  C10 UNL     1       9.748  21.717  21.221  1.00  0.00     0.243 C 
HETATM    2  O3  UNL     1       8.557  21.575  20.861  1.00  0.00    -0.271 OA
HETATM    3  N3  UNL     1      10.027  21.707  22.625  1.00  0.00    -0.337 N 
HETATM    4  C11 UNL     1      11.375  21.771  23.118  1.00  0.00     0.127 C 
HETATM    5  C12 UNL     1      11.167  22.706  24.318  1.00  0.00     0.022 C 
HETATM    6  C13 UNL     1       9.878  22.160  24.917  1.00  0.00     0.037 C 
HETATM    7  C14 UNL     1       9.152  21.622  23.734  1.00  0.00     0.179 C 
ENDROOT
BRANCH   1   8
HETATM    8  C4  UNL     1      10.743  21.875  20.151  1.00  0.00     0.180 C 
BRANCH   8   9
HETATM    9  C2  UNL     1      11.508  23.188  20.260  1.00  0.00     0.009 C 
HETATM   10  C1  UNL     1      10.806  24.338  19.582  1.00  0.00     0.012 C 
HETATM   11  C3  UNL     1      12.940  23.081  19.846  1.00  0.00     0.012 C 
ENDBRANCH   8   9
BRANCH   8  12
HETATM   12  N1  UNL     1      10.091  21.880  18.831  1.00  0.00    -0.346 N 
HETATM   13  C5  UNL     1      10.395  20.945  17.809  1.00  0.00     0.246 C 
HETATM   14  O1  UNL     1      11.280  20.067  18.070  1.00  0.00    -0.272 OA
ATOM     15  H1  UNL     1       9.386  22.592  18.641  1.00  0.00     0.163 HD
BRANCH  13  16
HETATM   16  C6  UNL     1       9.746  20.949  16.501  1.00  0.00     0.379 C 
BRANCH  16  17
HETATM   17  N2  UNL     1       8.665  21.867  16.436  1.00  0.00     0.136 N 
HETATM   18  C7  UNL     1       8.449  22.364  15.078  1.00  0.00     0.287 C 
HETATM   19  C8  UNL     1       8.173  21.158  14.194  1.00  0.00     0.108 C 
HETATM   20  S1  UNL     1       7.043  20.255  15.331  1.00  0.00    -0.105 SA
HETATM   21  C9  UNL     1       7.389  21.281  16.824  1.00  0.00     0.422 C 
BRANCH  21  22
HETATM   22  O2  UNL     1       6.407  22.227  17.010  1.00  0.00    -0.360 OA
ATOM     23  H2  UNL     1       5.542  21.903  16.792  1.00  0.00     0.213 HD
ENDBRANCH  21  22
ENDBRANCH  16  17
ENDBRANCH  13  16
ENDBRANCH   8  12
ENDBRANCH   1   8
BRANCH   7  24
HETATM   24  C15 UNL     1       7.838  22.292  23.557  1.00  0.00     0.241 C 
HETATM   25  O4  UNL     1       7.806  23.546  23.616  1.00  0.00    -0.271 OA
HETATM   26  N4  UNL     1       6.671  21.525  23.327  1.00  0.00    -0.351 N 
ATOM     27  H4  UNL     1       6.760  20.509  23.289  1.00  0.00     0.163 HD
BRANCH  26  28
HETATM   28  C16 UNL     1       5.380  22.098  23.145  1.00  0.00     0.128 C 
HETATM   29  C17 UNL     1       4.611  21.101  22.249  1.00  0.00     0.158 C 
HETATM   30  O5  UNL     1       3.425  20.773  22.954  1.00  0.00    -0.313 OA
HETATM   31  C21 UNL     1       3.172  21.676  23.937  1.00  0.00     0.266 C 
HETATM   32  O6  UNL     1       2.095  21.963  24.470  1.00  0.00    -0.265 OA
HETATM   33  C22 UNL     1       4.488  22.289  24.276  1.00  0.00     0.114 C 
BRANCH  29  34
HETATM   34  C18 UNL     1       4.326  21.669  20.891  1.00  0.00     0.009 C 
HETATM   35  C19 UNL     1       4.025  20.666  19.825  1.00  0.00     0.012 C 
HETATM   36  C20 UNL     1       5.548  22.457  20.452  1.00  0.00     0.012 C 
ENDBRANCH  29  34
BRANCH  33  37
HETATM   37  C23 UNL     1       4.930  21.899  25.654  1.00  0.00    -0.007 C 
HETATM   38  C24 UNL     1       4.442  20.528  26.009  1.00  0.00     0.010 C 
HETATM   39  C25 UNL     1       4.727  22.946  26.701  1.00  0.00     0.010 C 
ENDBRANCH  33  37
ENDBRANCH  26  28
ENDBRANCH   7  24
TORSDOF 10
ENDMDL
MODEL 4
REMARK VINA RESULT: -6.913053707      3.670      7.373
REMARK  10 active torsions:
REMARK  status: ('A' for Active; 'I' for Inactive)
REMARK    1  A    between atoms: C2_2  and  C4_4 
REMARK    2  A    between atoms: C4_4  and  N1_5 
REMARK    3  A    between atoms: C4_4  and  C10_17 
REMARK       I    between atoms: N1_5  and  C5_7 
REMARK    4  A    between atoms: C5_7  and  C6_9 
REMARK    5  A    between atoms: C6_9  and  N2_10 
REMARK    6  A    between atoms: C9_14  and  O2_15 
REMARK       I    between atoms: C10_17  and  N3_19 
REMARK    7  A    between atoms: C14_23  and  C15_24 
REMARK       I    between atoms: C15_24  and  N4_26 
REMARK    8  A    between atoms: N4_26  and  C16_28 
REMARK    9  A    between atoms: C17_29  and  C18_30 
REMARK   10  A    between atoms: C22_36  and  C23_37 
ROOT
HETATM    1  C10 UNL     1       9.550  23.340  21.395  1.00  0.00     0.243 C 
HETATM    2  O3  UNL     1       8.894  24.225  20.799  1.00  0.00    -0.271 OA
HETATM    3  N3  UNL     1      10.525  22.612  20.640  1.00  0.00    -0.337 N 
HETATM    4  C11 UNL     1      11.383  21.645  21.268  1.00  0.00     0.127 C 
HETATM    5  C12 UNL     1      11.392  20.562  20.180  1.00  0.00     0.022 C 
HETATM    6  C13 UNL     1      11.535  21.396  18.914  1.00  0.00     0.037 C 
HETATM    7  C14 UNL     1      10.855  22.673  19.266  1.00  0.00     0.179 C 
ENDROOT
BRANCH   1   8
HETATM    8  C4  UNL     1       9.249  23.145  22.820  1.00  0.00     0.180 C 
BRANCH   8   9
HETATM    9  C2  UNL     1       7.888  22.499  23.042  1.00  0.00     0.009 C 
HETATM   10  C1  UNL     1       7.450  22.525  24.484  1.00  0.00     0.012 C 
HETATM   11  C3  UNL     1       7.770  21.134  22.443  1.00  0.00     0.012 C 
ENDBRANCH   8   9
BRANCH   8  12
HETATM   12  N1  UNL     1       9.217  24.437  23.526  1.00  0.00    -0.346 N 
HETATM   13  C5  UNL     1      10.076  24.753  24.610  1.00  0.00     0.246 C 
HETATM   14  O1  UNL     1      10.907  23.858  24.972  1.00  0.00    -0.272 OA
ATOM     15  H1  UNL     1       8.543  25.139  23.221  1.00  0.00     0.163 HD
BRANCH  13  16
HETATM   16  C6  UNL     1      10.046  26.035  25.308  1.00  0.00     0.379 C 
BRANCH  16  17
HETATM   17  N2  UNL     1       8.722  26.469  25.586  1.00  0.00     0.136 N 
HETATM   18  C7  UNL     1       8.109  25.699  26.667  1.00  0.00     0.287 C 
HETATM   19  C8  UNL     1       8.989  25.865  27.896  1.00  0.00     0.108 C 
HETATM   20  S1  UNL     1       9.308  27.671  27.745  1.00  0.00    -0.105 SA
HETATM   21  C9  UNL     1       8.653  27.855  26.031  1.00  0.00     0.422 C 
BRANCH  21  22
HETATM   22  O2  UNL     1       7.366  28.342  26.044  1.00  0.00    -0.360 OA
ATOM     23  H2  UNL     1       6.765  27.775  26.513  1.00  0.00     0.213 HD
ENDBRANCH  21  22
ENDBRANCH  16  17
ENDBRANCH  13  16
ENDBRANCH   8  12
ENDBRANCH   1   8
BRANCH   7  24
HETATM   24  C15 UNL     1       9.716  22.947  18.353  1.00  0.00     0.241 C 
HETATM   25  O4  UNL     1       9.741  24.012  17.686  1.00  0.00    -0.271 OA
HETATM   26  N4  UNL     1       8.646  22.027  18.250  1.00  0.00    -0.351 N 
ATOM     27  H4  UNL     1       8.681  21.179  18.816  1.00  0.00     0.163 HD
BRANCH  26  28
HETATM   28  C16 UNL     1       7.524  22.223  17.394  1.00  0.00     0.128 C 
HETATM   29  C17 UNL     1       7.495  20.986  16.468  1.00  0.00     0.158 C 
HETATM   30  O5  UNL     1       6.203  20.417  16.611  1.00  0.00    -0.313 OA
HETATM   31  C21 UNL     1       5.337  21.301  17.172  1.00  0.00     0.266 C 
HETATM   32  O6  UNL     1       4.104  21.339  17.092  1.00  0.00    -0.265 OA
HETATM   33  C22 UNL     1       6.177  22.266  17.937  1.00  0.00     0.114 C 
BRANCH  29  34
HETATM   34  C18 UNL     1       7.803  21.343  15.044  1.00  0.00     0.009 C 
HETATM   35  C19 UNL     1       9.146  20.913  14.551  1.00  0.00     0.012 C 
HETATM   36  C20 UNL     1       7.727  22.855  14.918  1.00  0.00     0.012 C 
ENDBRANCH  29  34
BRANCH  33  37
HETATM   37  C23 UNL     1       5.959  22.124  19.414  1.00  0.00    -0.007 C 
HETATM   38  C24 UNL     1       4.850  21.160  19.704  1.00  0.00     0.010 C 
HETATM   39  C25 UNL     1       5.907  23.412  20.169  1.00  0.00     0.010 C 
ENDBRANCH  33  37
ENDBRANCH  26  28
ENDBRANCH   7  24
TORSDOF 10
ENDMDL
MODEL 5
REMARK VINA RESULT: -6.876267418      3.124      6.093
REMARK  10 active torsions:
REMARK  status: ('A' for Active; 'I' for Inactive)
REMARK    1  A    between atoms: C2_2  and  C4_4 
REMARK    2  A    between atoms: C4_4  and  N1_5 
REMARK    3  A    between atoms: C4_4  and  C10_17 
REMARK       I    between atoms: N1_5  and  C5_7 
REMARK    4  A    between atoms: C5_7  and  C6_9 
REMARK    5  A    between atoms: C6_9  and  N2_10 
REMARK    6  A    between atoms: C9_14  and  O2_15 
REMARK       I    between atoms: C10_17  and  N3_19 
REMARK    7  A    between atoms: C14_23  and  C15_24 
REMARK       I    between atoms: C15_24  and  N4_26 
REMARK    8  A    between atoms: N4_26  and  C16_28 
REMARK    9  A    between atoms: C17_29  and  C18_30 
REMARK   10  A    between atoms: C22_36  and  C23_37 
ROOT
HETATM    1  C10 UNL     1       9.854  22.470  18.279  1.00  0.00     0.243 C 
HETATM    2  O3  UNL     1       9.193  23.440  18.715  1.00  0.00    -0.271 OA
HETATM    3  N3  UNL     1       9.306  21.728  17.184  1.00  0.00    -0.337 N 
HETATM    4  C11 UNL     1      10.042  20.659  16.566  1.00  0.00     0.127 C 
HETATM    5  C12 UNL     1       8.901  19.657  16.338  1.00  0.00     0.022 C 
HETATM    6  C13 UNL     1       7.788  20.566  15.833  1.00  0.00     0.037 C 
HETATM    7  C14 UNL     1       8.068  21.861  16.512  1.00  0.00     0.179 C 
ENDROOT
BRANCH   1   8
HETATM    8  C4  UNL     1      11.136  22.197  18.943  1.00  0.00     0.180 C 
BRANCH   8   9
HETATM    9  C2  UNL     1      10.988  21.246  20.123  1.00  0.00     0.009 C 
HETATM   10  C1  UNL     1      11.393  21.866  21.436  1.00  0.00     0.012 C 
HETATM   11  C3  UNL     1      11.637  19.917  19.904  1.00  0.00     0.012 C 
ENDBRANCH   8   9
BRANCH   8  12
HETATM   12  N1  UNL     1      11.719  23.439  19.480  1.00  0.00    -0.346 N 
HETATM   13  C5  UNL     1      13.114  23.687  19.527  1.00  0.00     0.246 C 
HETATM   14  O1  UNL     1      13.882  22.774  19.078  1.00  0.00    -0.272 OA
ATOM     15  H1  UNL     1      11.087  24.157  19.835  1.00  0.00     0.163 HD
BRANCH  13  16
HETATM   16  C6  UNL     1      13.691  24.920  20.056  1.00  0.00     0.379 C 
BRANCH  16  17
HETATM   17  N2  UNL     1      13.427  25.090  21.441  1.00  0.00     0.136 N 
HETATM   18  C7  UNL     1      14.249  24.208  22.268  1.00  0.00     0.287 C 
HETATM   19  C8  UNL     1      15.704  24.530  21.964  1.00  0.00     0.108 C 
HETATM   20  S1  UNL     1      15.565  26.365  21.942  1.00  0.00    -0.105 SA
HETATM   21  C9  UNL     1      13.723  26.433  21.922  1.00  0.00     0.422 C 
BRANCH  21  22
HETATM   22  O2  UNL     1      13.224  26.665  23.183  1.00  0.00    -0.360 OA
ATOM     23  H2  UNL     1      13.589  26.077  23.834  1.00  0.00     0.213 HD
ENDBRANCH  21  22
ENDBRANCH  16  17
ENDBRANCH  13  16
ENDBRANCH   8  12
ENDBRANCH   1   8
BRANCH   7  24
HETATM   24  C15 UNL     1       6.927  22.282  17.365  1.00  0.00     0.241 C 
HETATM   25  O4  UNL     1       6.035  22.996  16.843  1.00  0.00    -0.271 OA
HETATM   26  N4  UNL     1       6.863  21.879  18.720  1.00  0.00    -0.351 N 
ATOM     27  H4  UNL     1       7.617  21.299  19.089  1.00  0.00     0.163 HD
BRANCH  26  28
HETATM   28  C16 UNL     1       5.799  22.242  19.596  1.00  0.00     0.128 C 
HETATM   29  C17 UNL     1       5.005  20.938  19.836  1.00  0.00     0.158 C 
HETATM   30  O5  UNL     1       4.959  20.760  21.243  1.00  0.00    -0.313 OA
HETATM   31  C21 UNL     1       5.262  21.913  21.895  1.00  0.00     0.266 C 
HETATM   32  O6  UNL     1       4.951  22.265  23.038  1.00  0.00    -0.265 OA
HETATM   33  C22 UNL     1       6.076  22.718  20.940  1.00  0.00     0.114 C 
BRANCH  29  34
HETATM   34  C18 UNL     1       3.636  20.993  19.226  1.00  0.00     0.009 C 
HETATM   35  C19 UNL     1       2.556  20.321  20.010  1.00  0.00     0.012 C 
HETATM   36  C20 UNL     1       3.708  20.319  17.867  1.00  0.00     0.012 C 
ENDBRANCH  29  34
BRANCH  33  37
HETATM   37  C23 UNL     1       7.493  22.852  21.412  1.00  0.00    -0.007 C 
HETATM   38  C24 UNL     1       7.913  21.651  22.202  1.00  0.00     0.010 C 
HETATM   39  C25 UNL     1       7.832  24.174  22.021  1.00  0.00     0.010 C 
ENDBRANCH  33  37
ENDBRANCH  26  28
ENDBRANCH   7  24
TORSDOF 10
ENDMDL
