MODEL 1
REMARK VINA RESULT: -6.865647279      0.000      0.000
REMARK  4 active torsions:
REMARK  status: ('A' for Active; 'I' for Inactive)
REMARK    1  A    between atoms: C4_5  and  C5_6 
REMARK       I    between atoms: C5_6  and  N2_8 
REMARK    2  A    between atoms: N2_8  and  C6_10 
REMARK    3  A    between atoms: C6_10  and  N3_12 
REMARK    4  A    between atoms: N3_12  and  C7_14 
ROOT
HETATM    1  C1  UNL     1      -6.329   1.792  17.880  1.00  0.00     0.060 C 
HETATM    2  C2  UNL     1      -5.696   1.923  16.516  1.00  0.00     0.024 C 
HETATM    3  C3  UNL     1      -5.226   0.700  15.932  1.00  0.00     0.095 C 
HETATM    4  N1  UNL     1      -4.851  -0.304  15.476  1.00  0.00    -0.192 NA
HETATM    5  C4  UNL     1      -5.606   3.104  15.949  1.00  0.00     0.092 C 
ENDROOT
BRANCH   5   6
HETATM    6  C5  UNL     1      -5.013   3.314  14.644  1.00  0.00     0.248 C 
HETATM    7  O1  UNL     1      -5.795   3.456  13.646  1.00  0.00    -0.268 OA
HETATM    8  N2  UNL     1      -3.614   3.361  14.478  1.00  0.00    -0.300 N 
ATOM      9  H2  UNL     1      -3.018   3.243  15.298  1.00  0.00     0.171 HD
BRANCH   8  10
HETATM   10  C6  UNL     1      -3.000   3.566  13.204  1.00  0.00     0.174 C 
HETATM   11  S1  UNL     1      -1.918   4.774  13.015  1.00  0.00    -0.041 SA
BRANCH  10  12
HETATM   12  N3  UNL     1      -3.316   2.754  12.091  1.00  0.00    -0.362 N 
ATOM     13  H3  UNL     1      -3.587   3.200  11.215  1.00  0.00     0.162 HD
BRANCH  12  14
HETATM   14  C7  UNL     1      -3.270   1.333  12.154  1.00  0.00     0.083 C 
HETATM   15  C8  UNL     1      -4.594   0.630  12.021  1.00  0.00     0.025 C 
HETATM   16  C9  UNL     1      -4.120  -0.801  11.709  1.00  0.00     0.002 C 
HETATM   17  C10 UNL     1      -3.144  -0.535  10.597  1.00  0.00     0.002 C 
HETATM   18  C11 UNL     1      -2.431   0.717  11.062  1.00  0.00     0.025 C 
ENDBRANCH  12  14
ENDBRANCH  10  12
ENDBRANCH   8  10
ENDBRANCH   5   6
TORSDOF 4
ENDMDL
MODEL 2
REMARK VINA RESULT: -6.771103206      0.570      1.117
REMARK  4 active torsions:
REMARK  status: ('A' for Active; 'I' for Inactive)
REMARK    1  A    between atoms: C4_5  and  C5_6 
REMARK       I    between atoms: C5_6  and  N2_8 
REMARK    2  A    between atoms: N2_8  and  C6_10 
REMARK    3  A    between atoms: C6_10  and  N3_12 
REMARK    4  A    between atoms: N3_12  and  C7_14 
ROOT
HETATM    1  C1  UNL     1      -6.622   2.229  18.035  1.00  0.00     0.060 C 
HETATM    2  C2  UNL     1      -5.967   2.203  16.676  1.00  0.00     0.024 C 
HETATM    3  C3  UNL     1      -5.500   0.919  16.238  1.00  0.00     0.095 C 
HETATM    4  N1  UNL     1      -5.128  -0.131  15.902  1.00  0.00    -0.192 NA
HETATM    5  C4  UNL     1      -5.857   3.314  15.983  1.00  0.00     0.092 C 
ENDROOT
BRANCH   5   6
HETATM    6  C5  UNL     1      -5.242   3.374  14.673  1.00  0.00     0.248 C 
HETATM    7  O1  UNL     1      -6.001   3.307  13.651  1.00  0.00    -0.268 OA
HETATM    8  N2  UNL     1      -3.845   3.500  14.528  1.00  0.00    -0.300 N 
ATOM      9  H2  UNL     1      -3.267   3.550  15.367  1.00  0.00     0.171 HD
BRANCH   8  10
HETATM   10  C6  UNL     1      -3.210   3.561  13.249  1.00  0.00     0.174 C 
HETATM   11  S1  UNL     1      -3.196   4.968  12.421  1.00  0.00    -0.041 SA
BRANCH  10  12
HETATM   12  N3  UNL     1      -2.600   2.424  12.671  1.00  0.00    -0.362 N 
ATOM     13  H3  UNL     1      -1.627   2.217  12.896  1.00  0.00     0.162 HD
BRANCH  12  14
HETATM   14  C7  UNL     1      -3.300   1.557  11.786  1.00  0.00     0.083 C 
HETATM   15  C8  UNL     1      -2.443   0.740  10.859  1.00  0.00     0.025 C 
HETATM   16  C9  UNL     1      -3.459  -0.324  10.404  1.00  0.00     0.002 C 
HETATM   17  C10 UNL     1      -4.005  -0.773  11.730  1.00  0.00     0.002 C 
HETATM   18  C11 UNL     1      -4.133   0.524  12.501  1.00  0.00     0.025 C 
ENDBRANCH  12  14
ENDBRANCH  10  12
ENDBRANCH   8  10
ENDBRANCH   5   6
TORSDOF 4
ENDMDL
MODEL 3
REMARK VINA RESULT: -6.437969298      2.472      3.180
REMARK  4 active torsions:
REMARK  status: ('A' for Active; 'I' for Inactive)
REMARK    1  A    between atoms: C4_5  and  C5_6 
REMARK       I    between atoms: C5_6  and  N2_8 
REMARK    2  A    between atoms: N2_8  and  C6_10 
REMARK    3  A    between atoms: C6_10  and  N3_12 
REMARK    4  A    between atoms: N3_12  and  C7_14 
ROOT
HETATM    1  C1  UNL     1      -6.929   3.169  17.016  1.00  0.00     0.060 C 
HETATM    2  C2  UNL     1      -5.962   2.323  16.225  1.00  0.00     0.024 C 
HETATM    3  C3  UNL     1      -5.904   0.938  16.594  1.00  0.00     0.095 C 
HETATM    4  N1  UNL     1      -5.872  -0.182  16.910  1.00  0.00    -0.192 NA
HETATM    5  C4  UNL     1      -5.245   2.872  15.270  1.00  0.00     0.092 C 
ENDROOT
BRANCH   5   6
HETATM    6  C5  UNL     1      -4.296   2.130  14.466  1.00  0.00     0.248 C 
HETATM    7  O1  UNL     1      -3.123   1.954  14.933  1.00  0.00    -0.268 OA
HETATM    8  N2  UNL     1      -4.654   1.618  13.202  1.00  0.00    -0.300 N 
ATOM      9  H2  UNL     1      -5.601   1.778  12.858  1.00  0.00     0.171 HD
BRANCH   8  10
HETATM   10  C6  UNL     1      -3.740   0.883  12.385  1.00  0.00     0.174 C 
HETATM   11  S1  UNL     1      -4.182  -0.569  11.785  1.00  0.00    -0.041 SA
BRANCH  10  12
HETATM   12  N3  UNL     1      -2.448   1.377  12.093  1.00  0.00    -0.362 N 
ATOM     13  H3  UNL     1      -1.637   0.905  12.491  1.00  0.00     0.162 HD
BRANCH  12  14
HETATM   14  C7  UNL     1      -2.243   2.513  11.260  1.00  0.00     0.083 C 
HETATM   15  C8  UNL     1      -1.880   3.787  11.973  1.00  0.00     0.025 C 
HETATM   16  C9  UNL     1      -1.338   4.620  10.797  1.00  0.00     0.002 C 
HETATM   17  C10 UNL     1      -0.374   3.643  10.184  1.00  0.00     0.002 C 
HETATM   18  C11 UNL     1      -1.122   2.329  10.269  1.00  0.00     0.025 C 
ENDBRANCH  12  14
ENDBRANCH  10  12
ENDBRANCH   8  10
ENDBRANCH   5   6
TORSDOF 4
ENDMDL
MODEL 4
REMARK VINA RESULT: -6.373976278      1.430      5.321
REMARK  4 active torsions:
REMARK  status: ('A' for Active; 'I' for Inactive)
REMARK    1  A    between atoms: C4_5  and  C5_6 
REMARK       I    between atoms: C5_6  and  N2_8 
REMARK    2  A    between atoms: N2_8  and  C6_10 
REMARK    3  A    between atoms: C6_10  and  N3_12 
REMARK    4  A    between atoms: N3_12  and  C7_14 
ROOT
HETATM    1  C1  UNL     1      -2.980  -1.562  10.985  1.00  0.00     0.060 C 
HETATM    2  C2  UNL     1      -3.128  -0.162  11.527  1.00  0.00     0.024 C 
HETATM    3  C3  UNL     1      -2.018   0.715  11.288  1.00  0.00     0.095 C 
HETATM    4  N1  UNL     1      -1.107   1.411  11.083  1.00  0.00    -0.192 NA
HETATM    5  C4  UNL     1      -4.224   0.178  12.167  1.00  0.00     0.092 C 
ENDROOT
BRANCH   5   6
HETATM    6  C5  UNL     1      -4.444   1.500  12.717  1.00  0.00     0.248 C 
HETATM    7  O1  UNL     1      -5.339   2.231  12.179  1.00  0.00    -0.268 OA
HETATM    8  N2  UNL     1      -3.691   1.968  13.814  1.00  0.00    -0.300 N 
ATOM      9  H2  UNL     1      -2.982   1.357  14.220  1.00  0.00     0.171 HD
BRANCH   8  10
HETATM   10  C6  UNL     1      -3.885   3.267  14.377  1.00  0.00     0.174 C 
HETATM   11  S1  UNL     1      -2.732   4.407  14.193  1.00  0.00    -0.041 SA
BRANCH  10  12
HETATM   12  N3  UNL     1      -5.053   3.590  15.107  1.00  0.00    -0.362 N 
ATOM     13  H3  UNL     1      -5.399   4.549  15.087  1.00  0.00     0.162 HD
BRANCH  12  14
HETATM   14  C7  UNL     1      -5.760   2.619  15.870  1.00  0.00     0.083 C 
HETATM   15  C8  UNL     1      -4.912   1.703  16.709  1.00  0.00     0.025 C 
HETATM   16  C9  UNL     1      -5.976   1.131  17.662  1.00  0.00     0.002 C 
HETATM   17  C10 UNL     1      -6.641   2.395  18.129  1.00  0.00     0.002 C 
HETATM   18  C11 UNL     1      -6.717   3.226  16.865  1.00  0.00     0.025 C 
ENDBRANCH  12  14
ENDBRANCH  10  12
ENDBRANCH   8  10
ENDBRANCH   5   6
TORSDOF 4
ENDMDL
MODEL 5
REMARK VINA RESULT: -6.299800620      1.551      2.137
REMARK  4 active torsions:
REMARK  status: ('A' for Active; 'I' for Inactive)
REMARK    1  A    between atoms: C4_5  and  C5_6 
REMARK       I    between atoms: C5_6  and  N2_8 
REMARK    2  A    between atoms: N2_8  and  C6_10 
REMARK    3  A    between atoms: C6_10  and  N3_12 
REMARK    4  A    between atoms: N3_12  and  C7_14 
ROOT
HETATM    1  C1  UNL     1      -7.111   1.336  17.061  1.00  0.00     0.060 C 
HETATM    2  C2  UNL     1      -6.032   1.914  16.179  1.00  0.00     0.024 C 
HETATM    3  C3  UNL     1      -4.768   1.237  16.223  1.00  0.00     0.095 C 
HETATM    4  N1  UNL     1      -3.750   0.674  16.273  1.00  0.00    -0.192 NA
HETATM    5  C4  UNL     1      -6.289   2.970  15.440  1.00  0.00     0.092 C 
ENDROOT
BRANCH   5   6
HETATM    6  C5  UNL     1      -5.309   3.584  14.567  1.00  0.00     0.248 C 
HETATM    7  O1  UNL     1      -5.632   3.784  13.350  1.00  0.00    -0.268 OA
HETATM    8  N2  UNL     1      -4.034   3.950  15.046  1.00  0.00    -0.300 N 
ATOM      9  H2  UNL     1      -3.808   3.776  16.025  1.00  0.00     0.171 HD
BRANCH   8  10
HETATM   10  C6  UNL     1      -3.047   4.558  14.209  1.00  0.00     0.174 C 
HETATM   11  S1  UNL     1      -3.066   6.174  13.982  1.00  0.00    -0.041 SA
BRANCH  10  12
HETATM   12  N3  UNL     1      -2.056   3.789  13.557  1.00  0.00    -0.362 N 
ATOM     13  H3  UNL     1      -1.234   3.494  14.084  1.00  0.00     0.162 HD
BRANCH  12  14
HETATM   14  C7  UNL     1      -2.168   3.412  12.189  1.00  0.00     0.083 C 
HETATM   15  C8  UNL     1      -0.870   3.266  11.444  1.00  0.00     0.025 C 
HETATM   16  C9  UNL     1      -1.342   2.471  10.213  1.00  0.00     0.002 C 
HETATM   17  C10 UNL     1      -2.111   1.363  10.875  1.00  0.00     0.002 C 
HETATM   18  C11 UNL     1      -2.841   2.077  11.994  1.00  0.00     0.025 C 
ENDBRANCH  12  14
ENDBRANCH  10  12
ENDBRANCH   8  10
ENDBRANCH   5   6
TORSDOF 4
ENDMDL
