MODEL 1
REMARK VINA RESULT: -6.967475609      0.000      0.000
REMARK  3 active torsions:
REMARK  status: ('A' for Active; 'I' for Inactive)
REMARK    1  A    between atoms: C2_2  and  O1_3 
REMARK    2  A    between atoms: C2_2  and  C3_5 
REMARK    3  A    between atoms: C3_5  and  N1_6 
ROOT
HETATM    1  N1  UNL     1      -5.053   2.922  15.543  1.00  0.00     0.101 N 
HETATM    2  C4  UNL     1      -6.268   3.489  15.020  1.00  0.00     0.274 C 
HETATM    3  C5  UNL     1      -5.757   4.622  14.114  1.00  0.00     0.046 C 
HETATM    4  C6  UNL     1      -4.487   4.112  13.665  1.00  0.00     0.039 A 
HETATM    5  C7  UNL     1      -4.138   3.897  12.311  1.00  0.00     0.046 A 
HETATM    6  C8  UNL     1      -3.892   2.428  12.174  1.00  0.00    -0.038 C 
HETATM    7  C9  UNL     1      -2.596   2.057  11.546  1.00  0.00     0.015 C 
HETATM    8  C10 UNL     1      -5.013   1.874  11.282  1.00  0.00     0.015 C 
HETATM    9  C11 UNL     1      -4.066   1.822  13.572  1.00  0.00     0.052 C 
HETATM   10  C12 UNL     1      -4.056   2.960  14.532  1.00  0.00     0.174 C 
HETATM   11  C13 UNL     1      -2.699   3.368  14.989  1.00  0.00     0.077 C 
HETATM   12  C14 UNL     1      -2.417   4.633  14.221  1.00  0.00     0.161 A 
HETATM   13  O2  UNL     1      -2.060   4.493  12.941  1.00  0.00    -0.368 OA
HETATM   14  C15 UNL     1      -3.355   4.810  13.141  1.00  0.00     0.103 A 
ENDROOT
BRANCH   1  15
HETATM   15  C3  UNL     1      -5.194   1.679  16.198  1.00  0.00     0.304 C 
BRANCH  15  16
HETATM   16  C2  UNL     1      -6.466   1.573  16.992  1.00  0.00     0.142 C 
HETATM   17  C1  UNL     1      -6.332   1.967  18.427  1.00  0.00     0.041 C 
BRANCH  16  18
HETATM   18  O1  UNL     1      -6.858   0.220  16.951  1.00  0.00    -0.394 OA
ATOM     19  H1  UNL     1      -7.804   0.189  17.027  1.00  0.00     0.210 HD
ENDBRANCH  16  18
ENDBRANCH  15  16
ENDBRANCH   1  15
TORSDOF 3
ENDMDL
MODEL 2
REMARK VINA RESULT: -6.827974718      0.984      1.007
REMARK  3 active torsions:
REMARK  status: ('A' for Active; 'I' for Inactive)
REMARK    1  A    between atoms: C2_2  and  O1_3 
REMARK    2  A    between atoms: C2_2  and  C3_5 
REMARK    3  A    between atoms: C3_5  and  N1_6 
ROOT
HETATM    1  N1  UNL     1      -4.536   2.996  15.549  1.00  0.00     0.101 N 
HETATM    2  C4  UNL     1      -5.922   3.251  15.256  1.00  0.00     0.274 C 
HETATM    3  C5  UNL     1      -5.860   4.495  14.354  1.00  0.00     0.046 C 
HETATM    4  C6  UNL     1      -4.596   4.330  13.684  1.00  0.00     0.039 A 
HETATM    5  C7  UNL     1      -4.434   4.239  12.281  1.00  0.00     0.046 A 
HETATM    6  C8  UNL     1      -3.863   2.882  12.017  1.00  0.00    -0.038 C 
HETATM    7  C9  UNL     1      -2.638   2.861  11.174  1.00  0.00     0.015 C 
HETATM    8  C10 UNL     1      -4.946   2.084  11.277  1.00  0.00     0.015 C 
HETATM    9  C11 UNL     1      -3.650   2.222  13.384  1.00  0.00     0.052 C 
HETATM   10  C12 UNL     1      -3.760   3.305  14.400  1.00  0.00     0.174 C 
HETATM   11  C13 UNL     1      -2.487   4.031  14.666  1.00  0.00     0.077 C 
HETATM   12  C14 UNL     1      -2.654   5.342  13.943  1.00  0.00     0.161 A 
HETATM   13  O2  UNL     1      -2.490   5.323  12.617  1.00  0.00    -0.368 OA
HETATM   14  C15 UNL     1      -3.772   5.301  13.035  1.00  0.00     0.103 A 
ENDROOT
BRANCH   1  15
HETATM   15  C3  UNL     1      -4.258   1.744  16.140  1.00  0.00     0.304 C 
BRANCH  15  16
HETATM   16  C2  UNL     1      -5.424   0.796  16.085  1.00  0.00     0.142 C 
HETATM   17  C1  UNL     1      -5.972   0.415  17.421  1.00  0.00     0.041 C 
BRANCH  16  18
HETATM   18  O1  UNL     1      -4.963  -0.378  15.457  1.00  0.00    -0.394 OA
ATOM     19  H1  UNL     1      -5.676  -1.005  15.452  1.00  0.00     0.210 HD
ENDBRANCH  16  18
ENDBRANCH  15  16
ENDBRANCH   1  15
TORSDOF 3
ENDMDL
MODEL 3
REMARK VINA RESULT: -6.434732235      2.283      3.906
REMARK  3 active torsions:
REMARK  status: ('A' for Active; 'I' for Inactive)
REMARK    1  A    between atoms: C2_2  and  O1_3 
REMARK    2  A    between atoms: C2_2  and  C3_5 
REMARK    3  A    between atoms: C3_5  and  N1_6 
ROOT
HETATM    1  N1  UNL     1      -3.688   1.556  13.510  1.00  0.00     0.101 N 
HETATM    2  C4  UNL     1      -4.034   1.403  14.899  1.00  0.00     0.274 C 
HETATM    3  C5  UNL     1      -3.284   2.565  15.571  1.00  0.00     0.046 C 
HETATM    4  C6  UNL     1      -3.269   3.565  14.535  1.00  0.00     0.039 A 
HETATM    5  C7  UNL     1      -3.831   4.858  14.655  1.00  0.00     0.046 A 
HETATM    6  C8  UNL     1      -4.917   4.935  13.630  1.00  0.00    -0.038 C 
HETATM    7  C9  UNL     1      -4.856   6.115  12.727  1.00  0.00     0.015 C 
HETATM    8  C10 UNL     1      -6.244   5.010  14.398  1.00  0.00     0.015 C 
HETATM    9  C11 UNL     1      -4.895   3.606  12.867  1.00  0.00     0.052 C 
HETATM   10  C12 UNL     1      -3.606   2.942  13.209  1.00  0.00     0.174 C 
HETATM   11  C13 UNL     1      -2.461   3.340  12.345  1.00  0.00     0.077 C 
HETATM   12  C14 UNL     1      -1.658   4.279  13.208  1.00  0.00     0.161 A 
HETATM   13  O2  UNL     1      -2.128   5.523  13.341  1.00  0.00    -0.368 OA
HETATM   14  C15 UNL     1      -2.408   4.694  14.367  1.00  0.00     0.103 A 
ENDROOT
BRANCH   1  15
HETATM   15  C3  UNL     1      -4.453   0.790  12.604  1.00  0.00     0.304 C 
BRANCH  15  16
HETATM   16  C2  UNL     1      -3.636  -0.225  11.855  1.00  0.00     0.142 C 
HETATM   17  C1  UNL     1      -3.190   0.220  10.501  1.00  0.00     0.041 C 
BRANCH  16  18
HETATM   18  O1  UNL     1      -4.453  -1.360  11.689  1.00  0.00    -0.394 OA
ATOM     19  H1  UNL     1      -4.596  -1.482  10.758  1.00  0.00     0.210 HD
ENDBRANCH  16  18
ENDBRANCH  15  16
ENDBRANCH   1  15
TORSDOF 3
ENDMDL
MODEL 4
REMARK VINA RESULT: -6.330424921      1.335      2.798
REMARK  3 active torsions:
REMARK  status: ('A' for Active; 'I' for Inactive)
REMARK    1  A    between atoms: C2_2  and  O1_3 
REMARK    2  A    between atoms: C2_2  and  C3_5 
REMARK    3  A    between atoms: C3_5  and  N1_6 
ROOT
HETATM    1  N1  UNL     1      -4.999   1.868  14.710  1.00  0.00     0.101 N 
HETATM    2  C4  UNL     1      -4.404   1.264  13.547  1.00  0.00     0.274 C 
HETATM    3  C5  UNL     1      -4.668   2.305  12.446  1.00  0.00     0.046 C 
HETATM    4  C6  UNL     1      -4.660   3.543  13.180  1.00  0.00     0.039 A 
HETATM    5  C7  UNL     1      -3.779   4.622  12.932  1.00  0.00     0.046 A 
HETATM    6  C8  UNL     1      -2.964   4.785  14.176  1.00  0.00    -0.038 C 
HETATM    7  C9  UNL     1      -2.925   6.164  14.733  1.00  0.00     0.015 C 
HETATM    8  C10 UNL     1      -1.524   4.393  13.815  1.00  0.00     0.015 C 
HETATM    9  C11 UNL     1      -3.490   3.756  15.183  1.00  0.00     0.052 C 
HETATM   10  C12 UNL     1      -4.794   3.272  14.653  1.00  0.00     0.174 C 
HETATM   11  C13 UNL     1      -5.965   4.104  15.047  1.00  0.00     0.077 C 
HETATM   12  C14 UNL     1      -6.292   4.889  13.803  1.00  0.00     0.161 A 
HETATM   13  O2  UNL     1      -5.507   5.936  13.529  1.00  0.00    -0.368 OA
HETATM   14  C15 UNL     1      -5.224   4.812  12.839  1.00  0.00     0.103 A 
ENDROOT
BRANCH   1  15
HETATM   15  C3  UNL     1      -4.673   1.264  15.944  1.00  0.00     0.304 C 
BRANCH  15  16
HETATM   16  C2  UNL     1      -5.883   0.904  16.761  1.00  0.00     0.142 C 
HETATM   17  C1  UNL     1      -6.035   1.695  18.018  1.00  0.00     0.041 C 
BRANCH  16  18
HETATM   18  O1  UNL     1      -5.741  -0.452  17.118  1.00  0.00    -0.394 OA
ATOM     19  H1  UNL     1      -4.901  -0.553  17.547  1.00  0.00     0.210 HD
ENDBRANCH  16  18
ENDBRANCH  15  16
ENDBRANCH   1  15
TORSDOF 3
ENDMDL
MODEL 5
REMARK VINA RESULT: -6.037218146      1.221      2.786
REMARK  3 active torsions:
REMARK  status: ('A' for Active; 'I' for Inactive)
REMARK    1  A    between atoms: C2_2  and  O1_3 
REMARK    2  A    between atoms: C2_2  and  C3_5 
REMARK    3  A    between atoms: C3_5  and  N1_6 
ROOT
HETATM    1  N1  UNL     1      -5.358   2.307  15.347  1.00  0.00     0.101 N 
HETATM    2  C4  UNL     1      -4.267   2.369  16.284  1.00  0.00     0.274 C 
HETATM    3  C5  UNL     1      -3.032   2.438  15.371  1.00  0.00     0.046 C 
HETATM    4  C6  UNL     1      -3.540   3.126  14.213  1.00  0.00     0.039 A 
HETATM    5  C7  UNL     1      -3.035   4.351  13.716  1.00  0.00     0.046 A 
HETATM    6  C8  UNL     1      -4.155   5.336  13.824  1.00  0.00    -0.038 C 
HETATM    7  C9  UNL     1      -4.462   6.087  12.578  1.00  0.00     0.015 C 
HETATM    8  C10 UNL     1      -3.742   6.361  14.890  1.00  0.00     0.015 C 
HETATM    9  C11 UNL     1      -5.366   4.566  14.363  1.00  0.00     0.052 C 
HETATM   10  C12 UNL     1      -5.044   3.118  14.224  1.00  0.00     0.174 C 
HETATM   11  C13 UNL     1      -5.391   2.535  12.899  1.00  0.00     0.077 C 
HETATM   12  C14 UNL     1      -4.065   2.410  12.194  1.00  0.00     0.161 A 
HETATM   13  O2  UNL     1      -3.548   3.531  11.683  1.00  0.00    -0.368 OA
HETATM   14  C15 UNL     1      -3.038   3.157  12.875  1.00  0.00     0.103 A 
ENDROOT
BRANCH   1  15
HETATM   15  C3  UNL     1      -6.643   2.513  15.894  1.00  0.00     0.304 C 
BRANCH  15  16
HETATM   16  C2  UNL     1      -7.004   1.502  16.947  1.00  0.00     0.142 C 
HETATM   17  C1  UNL     1      -6.324   1.710  18.260  1.00  0.00     0.041 C 
BRANCH  16  18
HETATM   18  O1  UNL     1      -6.611   0.243  16.452  1.00  0.00    -0.394 OA
ATOM     19  H1  UNL     1      -5.763   0.346  16.036  1.00  0.00     0.210 HD
ENDBRANCH  16  18
ENDBRANCH  15  16
ENDBRANCH   1  15
TORSDOF 3
ENDMDL
