MODEL 1
REMARK VINA RESULT: -6.721496058      0.000      0.000
REMARK  4 active torsions:
REMARK  status: ('A' for Active; 'I' for Inactive)
REMARK    1  A    between atoms: C2_2  and  O1_3 
REMARK    2  A    between atoms: C7_9  and  O2_10 
REMARK    3  A    between atoms: C9_13  and  C10_14 
REMARK    4  A    between atoms: C10_14  and  N1_15 
ROOT
HETATM    1  C1  UNL     1      -4.914   1.741  11.304  1.00  0.00     0.046 C 
HETATM    2  C2  UNL     1      -3.724   2.221  12.076  1.00  0.00     0.060 C 
HETATM    3  C3  UNL     1      -2.785   2.875  11.125  1.00  0.00     0.038 C 
HETATM    4  C4  UNL     1      -2.519   4.297  11.524  1.00  0.00     0.008 C 
HETATM    5  C5  UNL     1      -1.904   4.252  12.904  1.00  0.00    -0.005 C 
HETATM    6  C6  UNL     1      -1.855   5.625  13.510  1.00  0.00     0.037 C 
HETATM    7  C7  UNL     1      -3.145   5.267  14.241  1.00  0.00     0.123 C 
HETATM    8  C8  UNL     1      -2.984   3.823  13.862  1.00  0.00     0.027 C 
HETATM    9  C9  UNL     1      -4.132   3.112  13.257  1.00  0.00     0.055 C 
ENDROOT
BRANCH   9  10
HETATM   10  C10 UNL     1      -4.656   2.105  14.291  1.00  0.00     0.280 C 
BRANCH  10  11
HETATM   11  N1  UNL     1      -4.919   2.690  15.568  1.00  0.00     0.088 N 
HETATM   12  C11 UNL     1      -6.242   3.252  15.689  1.00  0.00     0.272 C 
HETATM   13  C12 UNL     1      -6.948   2.843  16.965  1.00  0.00     0.030 C 
HETATM   14  C13 UNL     1      -7.133   1.354  17.000  1.00  0.00     0.003 C 
HETATM   15  C14 UNL     1      -5.854   0.680  16.645  1.00  0.00     0.030 C 
HETATM   16  C15 UNL     1      -4.732   1.665  16.571  1.00  0.00     0.272 C 
ENDBRANCH  10  11
ENDBRANCH   9  10
BRANCH   2  17
HETATM   17  O1  UNL     1      -3.095   1.093  12.621  1.00  0.00    -0.390 OA
ATOM     18  H1  UNL     1      -3.355   1.036  13.533  1.00  0.00     0.210 HD
ENDBRANCH   2  17
BRANCH   7  19
HETATM   19  O2  UNL     1      -4.195   5.964  13.699  1.00  0.00    -0.395 OA
ATOM     20  H2  UNL     1      -5.016   5.585  13.989  1.00  0.00     0.210 HD
ENDBRANCH   7  19
TORSDOF 4
ENDMDL
MODEL 2
REMARK VINA RESULT: -6.719148101      1.285      3.118
REMARK  4 active torsions:
REMARK  status: ('A' for Active; 'I' for Inactive)
REMARK    1  A    between atoms: C2_2  and  O1_3 
REMARK    2  A    between atoms: C7_9  and  O2_10 
REMARK    3  A    between atoms: C9_13  and  C10_14 
REMARK    4  A    between atoms: C10_14  and  N1_15 
ROOT
HETATM    1  C1  UNL     1      -4.063   5.640  14.536  1.00  0.00     0.046 C 
HETATM    2  C2  UNL     1      -4.647   4.859  13.401  1.00  0.00     0.060 C 
HETATM    3  C3  UNL     1      -3.861   5.161  12.175  1.00  0.00     0.038 C 
HETATM    4  C4  UNL     1      -3.281   3.908  11.585  1.00  0.00     0.008 C 
HETATM    5  C5  UNL     1      -4.447   3.011  11.241  1.00  0.00    -0.005 C 
HETATM    6  C6  UNL     1      -3.973   1.627  10.904  1.00  0.00     0.037 C 
HETATM    7  C7  UNL     1      -4.304   1.245  12.343  1.00  0.00     0.123 C 
HETATM    8  C8  UNL     1      -5.046   2.535  12.537  1.00  0.00     0.027 C 
HETATM    9  C9  UNL     1      -4.740   3.363  13.726  1.00  0.00     0.055 C 
ENDROOT
BRANCH   9  10
HETATM   10  C10 UNL     1      -5.946   3.284  14.674  1.00  0.00     0.280 C 
BRANCH  10  11
HETATM   11  N1  UNL     1      -5.578   3.179  16.051  1.00  0.00     0.088 N 
HETATM   12  C11 UNL     1      -6.686   2.889  16.928  1.00  0.00     0.272 C 
HETATM   13  C12 UNL     1      -6.392   1.772  17.908  1.00  0.00     0.030 C 
HETATM   14  C13 UNL     1      -6.112   0.496  17.170  1.00  0.00     0.003 C 
HETATM   15  C14 UNL     1      -5.142   0.754  16.072  1.00  0.00     0.030 C 
HETATM   16  C15 UNL     1      -4.582   2.137  16.164  1.00  0.00     0.272 C 
ENDBRANCH  10  11
ENDBRANCH   9  10
BRANCH   2  17
HETATM   17  O1  UNL     1      -5.961   5.312  13.212  1.00  0.00    -0.390 OA
ATOM     18  H1  UNL     1      -6.051   5.547  12.296  1.00  0.00     0.210 HD
ENDBRANCH   2  17
BRANCH   7  19
HETATM   19  O2  UNL     1      -3.144   1.054  13.051  1.00  0.00    -0.395 OA
ATOM     20  H2  UNL     1      -3.344   0.960  13.975  1.00  0.00     0.210 HD
ENDBRANCH   7  19
TORSDOF 4
ENDMDL
MODEL 3
REMARK VINA RESULT: -6.714735559      1.194      3.361
REMARK  4 active torsions:
REMARK  status: ('A' for Active; 'I' for Inactive)
REMARK    1  A    between atoms: C2_2  and  O1_3 
REMARK    2  A    between atoms: C7_9  and  O2_10 
REMARK    3  A    between atoms: C9_13  and  C10_14 
REMARK    4  A    between atoms: C10_14  and  N1_15 
ROOT
HETATM    1  C1  UNL     1      -3.316   5.482  13.590  1.00  0.00     0.046 C 
HETATM    2  C2  UNL     1      -4.312   4.513  13.032  1.00  0.00     0.060 C 
HETATM    3  C3  UNL     1      -4.332   4.666  11.553  1.00  0.00     0.038 C 
HETATM    4  C4  UNL     1      -4.003   3.369  10.873  1.00  0.00     0.008 C 
HETATM    5  C5  UNL     1      -5.057   2.375  11.302  1.00  0.00    -0.005 C 
HETATM    6  C6  UNL     1      -4.668   0.981  10.903  1.00  0.00     0.037 C 
HETATM    7  C7  UNL     1      -4.143   0.803  12.324  1.00  0.00     0.123 C 
HETATM    8  C8  UNL     1      -4.821   2.070  12.757  1.00  0.00     0.027 C 
HETATM    9  C9  UNL     1      -4.038   3.079  13.504  1.00  0.00     0.055 C 
ENDROOT
BRANCH   9  10
HETATM   10  C10 UNL     1      -4.545   3.085  14.954  1.00  0.00     0.280 C 
BRANCH  10  11
HETATM   11  N1  UNL     1      -5.414   1.990  15.254  1.00  0.00     0.088 N 
HETATM   12  C11 UNL     1      -4.860   1.050  16.198  1.00  0.00     0.272 C 
HETATM   13  C12 UNL     1      -5.826   0.680  17.305  1.00  0.00     0.030 C 
HETATM   14  C13 UNL     1      -6.187   1.898  18.105  1.00  0.00     0.003 C 
HETATM   15  C14 UNL     1      -6.547   3.013  17.188  1.00  0.00     0.030 C 
HETATM   16  C15 UNL     1      -6.648   2.534  15.775  1.00  0.00     0.272 C 
ENDBRANCH  10  11
ENDBRANCH   9  10
BRANCH   2  17
HETATM   17  O1  UNL     1      -5.571   4.869  13.536  1.00  0.00    -0.390 OA
ATOM     18  H1  UNL     1      -5.715   4.361  14.325  1.00  0.00     0.210 HD
ENDBRANCH   2  17
BRANCH   7  19
HETATM   19  O2  UNL     1      -2.771   0.775  12.313  1.00  0.00    -0.395 OA
ATOM     20  H2  UNL     1      -2.464  -0.073  12.611  1.00  0.00     0.210 HD
ENDBRANCH   7  19
TORSDOF 4
ENDMDL
MODEL 4
REMARK VINA RESULT: -6.664817311      1.738      5.331
REMARK  4 active torsions:
REMARK  status: ('A' for Active; 'I' for Inactive)
REMARK    1  A    between atoms: C2_2  and  O1_3 
REMARK    2  A    between atoms: C7_9  and  O2_10 
REMARK    3  A    between atoms: C9_13  and  C10_14 
REMARK    4  A    between atoms: C10_14  and  N1_15 
ROOT
HETATM    1  C1  UNL     1      -5.465   5.058  13.291  1.00  0.00     0.046 C 
HETATM    2  C2  UNL     1      -4.947   4.380  14.521  1.00  0.00     0.060 C 
HETATM    3  C3  UNL     1      -6.069   4.247  15.488  1.00  0.00     0.038 C 
HETATM    4  C4  UNL     1      -6.296   2.810  15.855  1.00  0.00     0.008 C 
HETATM    5  C5  UNL     1      -5.014   2.316  16.485  1.00  0.00    -0.005 C 
HETATM    6  C6  UNL     1      -5.036   0.822  16.635  1.00  0.00     0.037 C 
HETATM    7  C7  UNL     1      -4.241   0.756  15.335  1.00  0.00     0.123 C 
HETATM    8  C8  UNL     1      -3.981   2.233  15.393  1.00  0.00     0.027 C 
HETATM    9  C9  UNL     1      -4.251   3.053  14.191  1.00  0.00     0.055 C 
ENDROOT
BRANCH   9  10
HETATM   10  C10 UNL     1      -2.899   3.499  13.616  1.00  0.00     0.280 C 
BRANCH  10  11
HETATM   11  N1  UNL     1      -2.880   3.546  12.187  1.00  0.00     0.088 N 
HETATM   12  C11 UNL     1      -1.553   3.626  11.626  1.00  0.00     0.272 C 
HETATM   13  C12 UNL     1      -1.326   2.645  10.494  1.00  0.00     0.030 C 
HETATM   14  C13 UNL     1      -1.475   1.237  10.991  1.00  0.00     0.003 C 
HETATM   15  C14 UNL     1      -2.720   1.118  11.798  1.00  0.00     0.030 C 
HETATM   16  C15 UNL     1      -3.546   2.360  11.696  1.00  0.00     0.272 C 
ENDBRANCH  10  11
ENDBRANCH   9  10
BRANCH   2  17
HETATM   17  O1  UNL     1      -3.971   5.217  15.082  1.00  0.00    -0.390 OA
ATOM     18  H1  UNL     1      -4.294   5.502  15.929  1.00  0.00     0.210 HD
ENDBRANCH   2  17
BRANCH   7  19
HETATM   19  O2  UNL     1      -5.040   0.280  14.326  1.00  0.00    -0.395 OA
ATOM     20  H2  UNL     1      -4.775   0.662  13.498  1.00  0.00     0.210 HD
ENDBRANCH   7  19
TORSDOF 4
ENDMDL
MODEL 5
REMARK VINA RESULT: -6.663916115      1.992      4.439
REMARK  4 active torsions:
REMARK  status: ('A' for Active; 'I' for Inactive)
REMARK    1  A    between atoms: C2_2  and  O1_3 
REMARK    2  A    between atoms: C7_9  and  O2_10 
REMARK    3  A    between atoms: C9_13  and  C10_14 
REMARK    4  A    between atoms: C10_14  and  N1_15 
ROOT
HETATM    1  C1  UNL     1      -5.932   2.684  15.795  1.00  0.00     0.046 C 
HETATM    2  C2  UNL     1      -5.484   3.621  14.717  1.00  0.00     0.060 C 
HETATM    3  C3  UNL     1      -5.581   5.011  15.237  1.00  0.00     0.038 C 
HETATM    4  C4  UNL     1      -4.250   5.702  15.176  1.00  0.00     0.008 C 
HETATM    5  C5  UNL     1      -3.839   5.725  13.722  1.00  0.00    -0.005 C 
HETATM    6  C6  UNL     1      -2.404   6.143  13.581  1.00  0.00     0.037 C 
HETATM    7  C7  UNL     1      -2.060   4.659  13.495  1.00  0.00     0.123 C 
HETATM    8  C8  UNL     1      -3.510   4.310  13.327  1.00  0.00     0.027 C 
HETATM    9  C9  UNL     1      -4.093   3.253  14.183  1.00  0.00     0.055 C 
ENDROOT
BRANCH   9  10
HETATM   10  C10 UNL     1      -4.371   2.032  13.294  1.00  0.00     0.280 C 
BRANCH  10  11
HETATM   11  N1  UNL     1      -3.783   2.132  11.995  1.00  0.00     0.088 N 
HETATM   12  C11 UNL     1      -2.554   1.390  11.854  1.00  0.00     0.272 C 
HETATM   13  C12 UNL     1      -2.510   0.547  10.596  1.00  0.00     0.030 C 
HETATM   14  C13 UNL     1      -3.606  -0.478  10.620  1.00  0.00     0.003 C 
HETATM   15  C14 UNL     1      -4.891   0.169  10.999  1.00  0.00     0.030 C 
HETATM   16  C15 UNL     1      -4.753   1.658  11.032  1.00  0.00     0.272 C 
ENDBRANCH  10  11
ENDBRANCH   9  10
BRANCH   2  17
HETATM   17  O1  UNL     1      -6.376   3.482  13.644  1.00  0.00    -0.390 OA
ATOM     18  H1  UNL     1      -7.162   3.970  13.863  1.00  0.00     0.210 HD
ENDBRANCH   2  17
BRANCH   7  19
HETATM   19  O2  UNL     1      -1.429   4.261  14.647  1.00  0.00    -0.395 OA
ATOM     20  H2  UNL     1      -1.214   5.022  15.175  1.00  0.00     0.210 HD
ENDBRANCH   7  19
TORSDOF 4
ENDMDL
