MODEL 1
REMARK VINA RESULT: -5.977607939      0.000      0.000
REMARK  3 active torsions:
REMARK  status: ('A' for Active; 'I' for Inactive)
REMARK       I    between atoms: N1_2  and  C2_4 
REMARK       I    between atoms: C2_4  and  N2_6 
REMARK    1  A    between atoms: N2_6  and  C3_8 
REMARK    2  A    between atoms: C7_13  and  S1_14 
REMARK    3  A    between atoms: S1_14  and  C8_15 
ROOT
HETATM    1  C3  UNL     1      -4.097   3.654  14.153  1.00  0.00     0.131 C 
HETATM    2  C4  UNL     1      -3.455   4.986  13.741  1.00  0.00     0.032 C 
HETATM    3  C5  UNL     1      -4.124   5.532  12.489  1.00  0.00     0.014 C 
HETATM    4  C6  UNL     1      -3.910   5.908  14.866  1.00  0.00     0.175 C 
HETATM    5  O2  UNL     1      -5.195   5.419  15.044  1.00  0.00    -0.373 OA
HETATM    6  C7  UNL     1      -4.889   4.053  15.353  1.00  0.00     0.206 C 
ENDROOT
BRANCH   1   7
HETATM    7  N2  UNL     1      -4.848   3.106  13.063  1.00  0.00    -0.335 N 
HETATM    8  C2  UNL     1      -4.451   1.889  12.463  1.00  0.00     0.316 C 
HETATM    9  N1  UNL     1      -5.159   1.327  11.372  1.00  0.00    -0.347 N 
HETATM   10  O1  UNL     1      -3.433   1.248  12.890  1.00  0.00    -0.247 OA
HETATM   11  C1  UNL     1      -4.734   0.062  10.825  1.00  0.00     0.151 C 
ATOM     12  H1  UNL     1      -5.963   1.813  10.976  1.00  0.00     0.163 HD
ATOM     13  H2  UNL     1      -5.672   3.597  12.717  1.00  0.00     0.164 HD
ENDBRANCH   1   7
BRANCH   6  14
HETATM   14  S1  UNL     1      -6.440   3.162  15.562  1.00  0.00    -0.126 SA
BRANCH  14  15
HETATM   15  C8  UNL     1      -6.223   1.879  16.804  1.00  0.00    -0.000 C 
HETATM   16  C9  UNL     1      -6.166   2.507  18.176  1.00  0.00     0.026 C 
HETATM   17  C10 UNL     1      -5.016   1.042  16.508  1.00  0.00     0.026 C 
HETATM   18  C11 UNL     1      -7.439   0.943  16.862  1.00  0.00     0.026 C 
ENDBRANCH  14  15
ENDBRANCH   6  14
TORSDOF 3
ENDMDL
MODEL 2
REMARK VINA RESULT: -5.767606438      1.670      4.054
REMARK  3 active torsions:
REMARK  status: ('A' for Active; 'I' for Inactive)
REMARK       I    between atoms: N1_2  and  C2_4 
REMARK       I    between atoms: C2_4  and  N2_6 
REMARK    1  A    between atoms: N2_6  and  C3_8 
REMARK    2  A    between atoms: C7_13  and  S1_14 
REMARK    3  A    between atoms: S1_14  and  C8_15 
ROOT
HETATM    1  C3  UNL     1      -4.582   2.821  13.546  1.00  0.00     0.131 C 
HETATM    2  C4  UNL     1      -4.138   2.092  12.271  1.00  0.00     0.032 C 
HETATM    3  C5  UNL     1      -2.623   2.108  12.152  1.00  0.00     0.014 C 
HETATM    4  C6  UNL     1      -4.494   0.648  12.603  1.00  0.00     0.175 C 
HETATM    5  O2  UNL     1      -4.144   0.639  13.945  1.00  0.00    -0.373 OA
HETATM    6  C7  UNL     1      -5.000   1.686  14.420  1.00  0.00     0.206 C 
ENDROOT
BRANCH   1   7
HETATM    7  N2  UNL     1      -3.517   3.637  14.048  1.00  0.00    -0.335 N 
HETATM    8  C2  UNL     1      -3.655   5.044  14.094  1.00  0.00     0.316 C 
HETATM    9  N1  UNL     1      -2.616   5.882  14.568  1.00  0.00    -0.347 N 
HETATM   10  O1  UNL     1      -4.732   5.610  13.708  1.00  0.00    -0.247 OA
HETATM   11  C1  UNL     1      -2.826   7.307  14.630  1.00  0.00     0.151 C 
ATOM     12  H1  UNL     1      -1.726   5.481  14.862  1.00  0.00     0.163 HD
ATOM     13  H2  UNL     1      -2.655   3.201  14.375  1.00  0.00     0.164 HD
ENDBRANCH   1   7
BRANCH   6  14
HETATM   14  S1  UNL     1      -4.674   1.926  16.175  1.00  0.00    -0.126 SA
BRANCH  14  15
HETATM   15  C8  UNL     1      -6.232   2.185  17.036  1.00  0.00    -0.000 C 
HETATM   16  C9  UNL     1      -7.163   1.031  16.755  1.00  0.00     0.026 C 
HETATM   17  C10 UNL     1      -6.834   3.508  16.673  1.00  0.00     0.026 C 
HETATM   18  C11 UNL     1      -6.041   2.160  18.560  1.00  0.00     0.026 C 
ENDBRANCH  14  15
ENDBRANCH   6  14
TORSDOF 3
ENDMDL
MODEL 3
REMARK VINA RESULT: -5.758527240      2.262      4.497
REMARK  3 active torsions:
REMARK  status: ('A' for Active; 'I' for Inactive)
REMARK       I    between atoms: N1_2  and  C2_4 
REMARK       I    between atoms: C2_4  and  N2_6 
REMARK    1  A    between atoms: N2_6  and  C3_8 
REMARK    2  A    between atoms: C7_13  and  S1_14 
REMARK    3  A    between atoms: S1_14  and  C8_15 
ROOT
HETATM    1  C3  UNL     1      -3.805   1.797  12.050  1.00  0.00     0.131 C 
HETATM    2  C4  UNL     1      -3.624   0.744  10.948  1.00  0.00     0.032 C 
HETATM    3  C5  UNL     1      -2.212   0.184  10.977  1.00  0.00     0.014 C 
HETATM    4  C6  UNL     1      -4.510  -0.387  11.455  1.00  0.00     0.175 C 
HETATM    5  O2  UNL     1      -4.237  -0.288  12.811  1.00  0.00    -0.373 OA
HETATM    6  C7  UNL     1      -4.650   1.065  13.038  1.00  0.00     0.206 C 
ENDROOT
BRANCH   1   7
HETATM    7  N2  UNL     1      -2.529   2.241  12.527  1.00  0.00    -0.335 N 
HETATM    8  C2  UNL     1      -2.054   3.532  12.200  1.00  0.00     0.316 C 
HETATM    9  N1  UNL     1      -0.789   3.997  12.639  1.00  0.00    -0.347 N 
HETATM   10  O1  UNL     1      -2.755   4.329  11.491  1.00  0.00    -0.247 OA
HETATM   11  C1  UNL     1      -0.371   5.337  12.309  1.00  0.00     0.151 C 
ATOM     12  H1  UNL     1      -0.180   3.388  13.184  1.00  0.00     0.163 HD
ATOM     13  H2  UNL     1      -1.961   1.623  13.106  1.00  0.00     0.164 HD
ENDBRANCH   1   7
BRANCH   6  14
HETATM   14  S1  UNL     1      -4.320   1.472  14.761  1.00  0.00    -0.126 SA
BRANCH  14  15
HETATM   15  C8  UNL     1      -5.192   2.986  15.190  1.00  0.00    -0.000 C 
HETATM   16  C9  UNL     1      -4.218   4.139  15.225  1.00  0.00     0.026 C 
HETATM   17  C10 UNL     1      -5.940   2.830  16.479  1.00  0.00     0.026 C 
HETATM   18  C11 UNL     1      -6.206   3.376  14.104  1.00  0.00     0.026 C 
ENDBRANCH  14  15
ENDBRANCH   6  14
TORSDOF 3
ENDMDL
MODEL 4
REMARK VINA RESULT: -5.751449278      2.199      5.011
REMARK  3 active torsions:
REMARK  status: ('A' for Active; 'I' for Inactive)
REMARK       I    between atoms: N1_2  and  C2_4 
REMARK       I    between atoms: C2_4  and  N2_6 
REMARK    1  A    between atoms: N2_6  and  C3_8 
REMARK    2  A    between atoms: C7_13  and  S1_14 
REMARK    3  A    between atoms: S1_14  and  C8_15 
ROOT
HETATM    1  C3  UNL     1      -4.118   3.381  13.876  1.00  0.00     0.131 C 
HETATM    2  C4  UNL     1      -3.103   4.531  13.842  1.00  0.00     0.032 C 
HETATM    3  C5  UNL     1      -2.085   4.373  14.960  1.00  0.00     0.014 C 
HETATM    4  C6  UNL     1      -2.334   4.225  12.562  1.00  0.00     0.175 C 
HETATM    5  O2  UNL     1      -2.290   2.843  12.658  1.00  0.00    -0.373 OA
HETATM    6  C7  UNL     1      -3.695   2.563  12.702  1.00  0.00     0.206 C 
ENDROOT
BRANCH   1   7
HETATM    7  N2  UNL     1      -4.076   2.718  15.145  1.00  0.00    -0.335 N 
HETATM    8  C2  UNL     1      -5.262   2.531  15.893  1.00  0.00     0.316 C 
HETATM    9  N1  UNL     1      -5.255   1.898  17.160  1.00  0.00    -0.347 N 
HETATM   10  O1  UNL     1      -6.389   2.931  15.446  1.00  0.00    -0.247 OA
HETATM   11  C1  UNL     1      -6.499   1.697  17.861  1.00  0.00     0.151 C 
ATOM     12  H1  UNL     1      -4.377   1.585  17.573  1.00  0.00     0.163 HD
ATOM     13  H2  UNL     1      -3.186   2.380  15.512  1.00  0.00     0.164 HD
ENDBRANCH   1   7
BRANCH   6  14
HETATM   14  S1  UNL     1      -3.908   0.786  12.904  1.00  0.00    -0.126 SA
BRANCH  14  15
HETATM   15  C8  UNL     1      -3.705  -0.020  11.308  1.00  0.00    -0.000 C 
HETATM   16  C9  UNL     1      -2.473   0.518  10.623  1.00  0.00     0.026 C 
HETATM   17  C10 UNL     1      -4.937   0.130  10.469  1.00  0.00     0.026 C 
HETATM   18  C11 UNL     1      -3.429  -1.522  11.470  1.00  0.00     0.026 C 
ENDBRANCH  14  15
ENDBRANCH   6  14
TORSDOF 3
ENDMDL
MODEL 5
REMARK VINA RESULT: -5.740270398      2.394      5.231
REMARK  3 active torsions:
REMARK  status: ('A' for Active; 'I' for Inactive)
REMARK       I    between atoms: N1_2  and  C2_4 
REMARK       I    between atoms: C2_4  and  N2_6 
REMARK    1  A    between atoms: N2_6  and  C3_8 
REMARK    2  A    between atoms: C7_13  and  S1_14 
REMARK    3  A    between atoms: S1_14  and  C8_15 
ROOT
HETATM    1  C3  UNL     1      -3.783   2.115  15.509  1.00  0.00     0.131 C 
HETATM    2  C4  UNL     1      -4.628   1.646  16.701  1.00  0.00     0.032 C 
HETATM    3  C5  UNL     1      -5.811   2.578  16.910  1.00  0.00     0.014 C 
HETATM    4  C6  UNL     1      -5.233   0.355  16.161  1.00  0.00     0.175 C 
HETATM    5  O2  UNL     1      -5.464   0.752  14.853  1.00  0.00    -0.373 OA
HETATM    6  C7  UNL     1      -4.128   1.100  14.470  1.00  0.00     0.206 C 
ENDROOT
BRANCH   1   7
HETATM    7  N2  UNL     1      -4.095   3.474  15.182  1.00  0.00    -0.335 N 
HETATM    8  C2  UNL     1      -3.064   4.383  14.849  1.00  0.00     0.316 C 
HETATM    9  N1  UNL     1      -3.334   5.739  14.539  1.00  0.00    -0.347 N 
HETATM   10  O1  UNL     1      -1.844   4.008  14.817  1.00  0.00    -0.247 OA
HETATM   11  C1  UNL     1      -2.249   6.613  14.167  1.00  0.00     0.151 C 
ATOM     12  H1  UNL     1      -4.289   6.094  14.577  1.00  0.00     0.163 HD
ATOM     13  H2  UNL     1      -5.065   3.788  15.189  1.00  0.00     0.164 HD
ENDBRANCH   1   7
BRANCH   6  14
HETATM   14  S1  UNL     1      -4.172   1.732  12.784  1.00  0.00    -0.126 SA
BRANCH  14  15
HETATM   15  C8  UNL     1      -3.920   0.372  11.635  1.00  0.00    -0.000 C 
HETATM   16  C9  UNL     1      -2.511   0.419  11.096  1.00  0.00     0.026 C 
HETATM   17  C10 UNL     1      -4.949   0.389  10.546  1.00  0.00     0.026 C 
HETATM   18  C11 UNL     1      -4.012  -0.987  12.345  1.00  0.00     0.026 C 
ENDBRANCH  14  15
ENDBRANCH   6  14
TORSDOF 3
ENDMDL
