MODEL 1
REMARK VINA RESULT: -7.436370660      0.000      0.000
REMARK  4 active torsions:
REMARK  status: ('A' for Active; 'I' for Inactive)
REMARK    1  A    between atoms: C2_2  and  C3_3 
REMARK    2  A    between atoms: C7_7  and  C8_8 
REMARK    3  A    between atoms: C8_8  and  O1_9 
REMARK    4  A    between atoms: C12_15  and  C13_16 
ROOT
HETATM    1  C3  UNL     1      -4.086   3.746  13.971  1.00  0.00    -0.001 C 
HETATM    2  C4  UNL     1      -3.680   3.300  12.575  1.00  0.00     0.012 C 
HETATM    3  C5  UNL     1      -4.302   1.927  12.447  1.00  0.00     0.003 C 
HETATM    4  C6  UNL     1      -4.046   1.410  13.853  1.00  0.00     0.045 C 
HETATM    5  C7  UNL     1      -4.429   2.548  14.781  1.00  0.00     0.189 C 
HETATM    6  N1  UNL     1      -5.788   2.576  14.940  1.00  0.00     0.120 N 
HETATM    7  C9  UNL     1      -6.304   3.928  14.682  1.00  0.00     0.226 C 
HETATM    8  C10 UNL     1      -6.345   4.562  16.062  1.00  0.00     0.038 C 
HETATM    9  C11 UNL     1      -6.563   3.388  16.988  1.00  0.00     0.049 C 
HETATM   10  C12 UNL     1      -6.581   2.200  15.993  1.00  0.00     0.324 C 
HETATM   11  C14 UNL     1      -5.349   4.575  13.765  1.00  0.00     0.048 C 
ENDROOT
BRANCH   5  12
HETATM   12  C8  UNL     1      -3.585   2.362  16.011  1.00  0.00     0.206 C 
BRANCH  12  13
HETATM   13  O1  UNL     1      -3.166   1.049  16.214  1.00  0.00    -0.398 OA
ATOM     14  H1  UNL     1      -3.399   0.699  17.065  1.00  0.00     0.209 HD
ENDBRANCH  12  13
ENDBRANCH   5  12
BRANCH   1  15
HETATM   15  C2  UNL     1      -3.049   4.687  14.454  1.00  0.00     0.008 C 
HETATM   16  C1  UNL     1      -3.510   6.101  14.090  1.00  0.00     0.006 C 
ENDBRANCH   1  15
BRANCH  10  17
HETATM   17  C13 UNL     1      -6.660   0.923  16.619  1.00  0.00     0.207 C 
HETATM   18  O2  UNL     1      -7.726   0.681  17.303  1.00  0.00    -0.646 OA
HETATM   19  O3  UNL     1      -5.773  -0.122  16.619  1.00  0.00    -0.646 OA
ENDBRANCH  10  17
TORSDOF 4
ENDMDL
MODEL 2
REMARK VINA RESULT: -7.267011175      1.556      1.932
REMARK  4 active torsions:
REMARK  status: ('A' for Active; 'I' for Inactive)
REMARK    1  A    between atoms: C2_2  and  C3_3 
REMARK    2  A    between atoms: C7_7  and  C8_8 
REMARK    3  A    between atoms: C8_8  and  O1_9 
REMARK    4  A    between atoms: C12_15  and  C13_16 
ROOT
HETATM    1  C3  UNL     1      -4.459   4.962  14.016  1.00  0.00    -0.001 C 
HETATM    2  C4  UNL     1      -4.182   5.263  12.551  1.00  0.00     0.012 C 
HETATM    3  C5  UNL     1      -4.025   3.891  11.932  1.00  0.00     0.003 C 
HETATM    4  C6  UNL     1      -3.255   3.205  13.049  1.00  0.00     0.045 C 
HETATM    5  C7  UNL     1      -3.963   3.597  14.332  1.00  0.00     0.189 C 
HETATM    6  N1  UNL     1      -5.078   2.820  14.499  1.00  0.00     0.120 N 
HETATM    7  C9  UNL     1      -6.254   3.665  14.759  1.00  0.00     0.226 C 
HETATM    8  C10 UNL     1      -6.326   3.717  16.275  1.00  0.00     0.038 C 
HETATM    9  C11 UNL     1      -5.715   2.405  16.707  1.00  0.00     0.049 C 
HETATM   10  C12 UNL     1      -5.329   1.773  15.346  1.00  0.00     0.324 C 
HETATM   11  C14 UNL     1      -5.979   4.972  14.136  1.00  0.00     0.048 C 
ENDROOT
BRANCH   5  12
HETATM   12  C8  UNL     1      -2.910   3.547  15.403  1.00  0.00     0.206 C 
BRANCH  12  13
HETATM   13  O1  UNL     1      -1.613   3.726  14.926  1.00  0.00    -0.398 OA
ATOM     14  H1  UNL     1      -0.955   3.242  15.411  1.00  0.00     0.209 HD
ENDBRANCH  12  13
ENDBRANCH   5  12
BRANCH   1  15
HETATM   15  C2  UNL     1      -3.975   6.120  14.804  1.00  0.00     0.008 C 
HETATM   16  C1  UNL     1      -3.062   6.943  13.891  1.00  0.00     0.006 C 
ENDBRANCH   1  15
BRANCH  10  17
HETATM   17  C13 UNL     1      -4.611   0.548  15.461  1.00  0.00     0.207 C 
HETATM   18  O2  UNL     1      -3.704   0.494  16.377  1.00  0.00    -0.646 OA
HETATM   19  O3  UNL     1      -4.724  -0.618  14.748  1.00  0.00    -0.646 OA
ENDBRANCH  10  17
TORSDOF 4
ENDMDL
MODEL 3
REMARK VINA RESULT: -7.057100132      0.863      1.042
REMARK  4 active torsions:
REMARK  status: ('A' for Active; 'I' for Inactive)
REMARK    1  A    between atoms: C2_2  and  C3_3 
REMARK    2  A    between atoms: C7_7  and  C8_8 
REMARK    3  A    between atoms: C8_8  and  O1_9 
REMARK    4  A    between atoms: C12_15  and  C13_16 
ROOT
HETATM    1  C3  UNL     1      -3.938   3.332  13.594  1.00  0.00    -0.001 C 
HETATM    2  C4  UNL     1      -3.620   2.508  12.356  1.00  0.00     0.012 C 
HETATM    3  C5  UNL     1      -4.407   1.233  12.567  1.00  0.00     0.003 C 
HETATM    4  C6  UNL     1      -4.186   1.053  14.060  1.00  0.00     0.045 C 
HETATM    5  C7  UNL     1      -4.406   2.424  14.673  1.00  0.00     0.189 C 
HETATM    6  N1  UNL     1      -5.748   2.658  14.808  1.00  0.00     0.120 N 
HETATM    7  C9  UNL     1      -6.101   3.958  14.217  1.00  0.00     0.226 C 
HETATM    8  C10 UNL     1      -6.033   4.913  15.396  1.00  0.00     0.038 C 
HETATM    9  C11 UNL     1      -6.372   4.042  16.582  1.00  0.00     0.049 C 
HETATM   10  C12 UNL     1      -6.557   2.656  15.914  1.00  0.00     0.324 C 
HETATM   11  C14 UNL     1      -5.094   4.234  13.176  1.00  0.00     0.048 C 
ENDROOT
BRANCH   5  12
HETATM   12  C8  UNL     1      -3.563   2.446  15.917  1.00  0.00     0.206 C 
BRANCH  12  13
HETATM   13  O1  UNL     1      -3.106   1.190  16.311  1.00  0.00    -0.398 OA
ATOM     14  H1  UNL     1      -2.568   0.756  15.660  1.00  0.00     0.209 HD
ENDBRANCH  12  13
ENDBRANCH   5  12
BRANCH   1  15
HETATM   15  C2  UNL     1      -2.783   4.228  13.837  1.00  0.00     0.008 C 
HETATM   16  C1  UNL     1      -1.879   4.153  12.602  1.00  0.00     0.006 C 
ENDBRANCH   1  15
BRANCH  10  17
HETATM   17  C13 UNL     1      -6.777   1.595  16.837  1.00  0.00     0.207 C 
HETATM   18  O2  UNL     1      -6.551   1.855  18.081  1.00  0.00    -0.646 OA
HETATM   19  O3  UNL     1      -7.201   0.308  16.626  1.00  0.00    -0.646 OA
ENDBRANCH  10  17
TORSDOF 4
ENDMDL
MODEL 4
REMARK VINA RESULT: -6.523776096      2.585      4.701
REMARK  4 active torsions:
REMARK  status: ('A' for Active; 'I' for Inactive)
REMARK    1  A    between atoms: C2_2  and  C3_3 
REMARK    2  A    between atoms: C7_7  and  C8_8 
REMARK    3  A    between atoms: C8_8  and  O1_9 
REMARK    4  A    between atoms: C12_15  and  C13_16 
ROOT
HETATM    1  C3  UNL     1      -4.860   3.241  14.713  1.00  0.00    -0.001 C 
HETATM    2  C4  UNL     1      -4.842   2.436  16.004  1.00  0.00     0.012 C 
HETATM    3  C5  UNL     1      -3.804   1.367  15.741  1.00  0.00     0.003 C 
HETATM    4  C6  UNL     1      -4.134   1.057  14.290  1.00  0.00     0.045 C 
HETATM    5  C7  UNL     1      -4.308   2.405  13.615  1.00  0.00     0.189 C 
HETATM    6  N1  UNL     1      -3.080   2.934  13.319  1.00  0.00     0.120 N 
HETATM    7  C9  UNL     1      -2.982   4.311  13.825  1.00  0.00     0.226 C 
HETATM    8  C10 UNL     1      -3.396   5.158  12.634  1.00  0.00     0.038 C 
HETATM    9  C11 UNL     1      -2.990   4.322  11.443  1.00  0.00     0.049 C 
HETATM   10  C12 UNL     1      -2.415   3.056  12.127  1.00  0.00     0.324 C 
HETATM   11  C14 UNL     1      -3.910   4.406  14.967  1.00  0.00     0.048 C 
ENDROOT
BRANCH   5  12
HETATM   12  C8  UNL     1      -5.258   2.163  12.476  1.00  0.00     0.206 C 
BRANCH  12  13
HETATM   13  O1  UNL     1      -5.213   0.866  11.971  1.00  0.00    -0.398 OA
ATOM     14  H1  UNL     1      -5.079   0.199  12.634  1.00  0.00     0.209 HD
ENDBRANCH  12  13
ENDBRANCH   5  12
BRANCH   1  15
HETATM   15  C2  UNL     1      -6.211   3.831  14.579  1.00  0.00     0.008 C 
HETATM   16  C1  UNL     1      -6.199   5.173  15.317  1.00  0.00     0.006 C 
ENDBRANCH   1  15
BRANCH  10  17
HETATM   17  C13 UNL     1      -2.050   2.023  11.216  1.00  0.00     0.207 C 
HETATM   18  O2  UNL     1      -0.857   1.547  11.332  1.00  0.00    -0.646 OA
HETATM   19  O3  UNL     1      -2.771   1.431  10.211  1.00  0.00    -0.646 OA
ENDBRANCH  10  17
TORSDOF 4
ENDMDL
MODEL 5
REMARK VINA RESULT: -6.477323383      1.698      2.603
REMARK  4 active torsions:
REMARK  status: ('A' for Active; 'I' for Inactive)
REMARK    1  A    between atoms: C2_2  and  C3_3 
REMARK    2  A    between atoms: C7_7  and  C8_8 
REMARK    3  A    between atoms: C8_8  and  O1_9 
REMARK    4  A    between atoms: C12_15  and  C13_16 
ROOT
HETATM    1  C3  UNL     1      -4.424   5.474  14.092  1.00  0.00    -0.001 C 
HETATM    2  C4  UNL     1      -4.241   6.243  12.792  1.00  0.00     0.012 C 
HETATM    3  C5  UNL     1      -4.090   5.153  11.754  1.00  0.00     0.003 C 
HETATM    4  C6  UNL     1      -3.241   4.174  12.548  1.00  0.00     0.045 C 
HETATM    5  C7  UNL     1      -3.880   4.101  13.923  1.00  0.00     0.189 C 
HETATM    6  N1  UNL     1      -4.965   3.268  13.882  1.00  0.00     0.120 N 
HETATM    7  C9  UNL     1      -6.142   3.934  14.459  1.00  0.00     0.226 C 
HETATM    8  C10 UNL     1      -6.125   3.491  15.912  1.00  0.00     0.038 C 
HETATM    9  C11 UNL     1      -5.460   2.135  15.864  1.00  0.00     0.049 C 
HETATM   10  C12 UNL     1      -5.142   1.993  14.354  1.00  0.00     0.324 C 
HETATM   11  C14 UNL     1      -5.934   5.383  14.283  1.00  0.00     0.048 C 
ENDROOT
BRANCH   5  12
HETATM   12  C8  UNL     1      -2.764   3.751  14.866  1.00  0.00     0.206 C 
BRANCH  12  13
HETATM   13  O1  UNL     1      -1.493   3.887  14.311  1.00  0.00    -0.398 OA
ATOM     14  H1  UNL     1      -0.786   3.753  14.931  1.00  0.00     0.209 HD
ENDBRANCH  12  13
ENDBRANCH   5  12
BRANCH   1  15
HETATM   15  C2  UNL     1      -3.920   6.333  15.189  1.00  0.00     0.008 C 
HETATM   16  C1  UNL     1      -2.886   7.287  14.583  1.00  0.00     0.006 C 
ENDBRANCH   1  15
BRANCH  10  17
HETATM   17  C13 UNL     1      -4.391   0.827  14.029  1.00  0.00     0.207 C 
HETATM   18  O2  UNL     1      -4.724  -0.261  14.637  1.00  0.00    -0.646 OA
HETATM   19  O3  UNL     1      -3.348   0.657  13.156  1.00  0.00    -0.646 OA
ENDBRANCH  10  17
TORSDOF 4
ENDMDL
