MODEL 1
REMARK VINA RESULT: -5.684073777      0.000      0.000
REMARK  4 active torsions:
REMARK  status: ('A' for Active; 'I' for Inactive)
REMARK    1  A    between atoms: C2_2  and  C3_3 
REMARK    2  A    between atoms: N2_10  and  C8_12 
REMARK    3  A    between atoms: C8_12  and  C9_13 
REMARK    4  A    between atoms: C9_13  and  N3_14 
ROOT
HETATM    1  C3  UNL     1      96.567 -39.034  14.388  1.00  0.00     0.193 C 
HETATM    2  C4  UNL     1      96.716 -37.807  15.232  1.00  0.00     0.061 C 
HETATM    3  C5  UNL     1      96.045 -36.668  14.488  1.00  0.00     0.236 C 
HETATM    4  N1  UNL     1      94.657 -37.053  14.341  1.00  0.00    -0.051 N 
ATOM      5  H11 UNL     1      94.066 -36.291  14.010  1.00  0.00     0.279 HD
ATOM      6  H12 UNL     1      94.190 -37.206  15.235  1.00  0.00     0.279 HD
HETATM    7  C6  UNL     1      94.616 -38.207  13.482  1.00  0.00     0.467 C 
HETATM    8  N2  UNL     1      95.185 -39.384  14.114  1.00  0.00    -0.041 N 
HETATM    9  C7  UNL     1      95.263 -40.395  13.042  1.00  0.00     0.275 C 
ENDROOT
BRANCH   8  10
HETATM   10  C8  UNL     1      94.492 -39.945  15.194  1.00  0.00     0.266 C 
BRANCH  10  11
HETATM   11  C9  UNL     1      93.748 -41.195  14.932  1.00  0.00     0.257 C 
BRANCH  11  12
HETATM   12  N3  UNL     1      92.318 -41.050  14.847  1.00  0.00    -0.078 N 
ATOM     13  H33 UNL     1      91.935 -41.731  14.191  1.00  0.00     0.274 HD
ATOM     14  H32 UNL     1      91.881 -41.369  15.711  1.00  0.00     0.274 HD
ATOM     15  H31 UNL     1      91.990 -40.112  14.613  1.00  0.00     0.274 HD
ENDBRANCH  11  12
ENDBRANCH  10  11
ENDBRANCH   8  10
BRANCH   1  16
HETATM   16  C2  UNL     1      97.494 -40.132  14.717  1.00  0.00     0.029 C 
HETATM   17  C1  UNL     1      98.909 -39.753  15.034  1.00  0.00     0.007 C 
ENDBRANCH   1  16
TORSDOF 4
ENDMDL
MODEL 2
REMARK VINA RESULT: -5.136647429      1.060      1.121
REMARK  4 active torsions:
REMARK  status: ('A' for Active; 'I' for Inactive)
REMARK    1  A    between atoms: C2_2  and  C3_3 
REMARK    2  A    between atoms: N2_10  and  C8_12 
REMARK    3  A    between atoms: C8_12  and  C9_13 
REMARK    4  A    between atoms: C9_13  and  N3_14 
ROOT
HETATM    1  C3  UNL     1      95.829 -39.449  13.876  1.00  0.00     0.193 C 
HETATM    2  C4  UNL     1      96.089 -38.370  14.879  1.00  0.00     0.061 C 
HETATM    3  C5  UNL     1      95.598 -37.069  14.274  1.00  0.00     0.236 C 
HETATM    4  N1  UNL     1      94.181 -37.251  14.038  1.00  0.00    -0.051 N 
ATOM      5  H11 UNL     1      93.703 -36.383  13.794  1.00  0.00     0.279 HD
ATOM      6  H12 UNL     1      93.659 -37.456  14.890  1.00  0.00     0.279 HD
HETATM    7  C6  UNL     1      94.037 -38.271  13.033  1.00  0.00     0.467 C 
HETATM    8  N2  UNL     1      94.427 -39.582  13.519  1.00  0.00    -0.041 N 
HETATM    9  C7  UNL     1      94.429 -40.449  12.325  1.00  0.00     0.275 C 
ENDROOT
BRANCH   8  10
HETATM   10  C8  UNL     1      93.623 -40.184  14.494  1.00  0.00     0.266 C 
BRANCH  10  11
HETATM   11  C9  UNL     1      92.535 -41.060  14.014  1.00  0.00     0.257 C 
BRANCH  11  12
HETATM   12  N3  UNL     1      92.787 -42.473  14.139  1.00  0.00    -0.078 N 
ATOM     13  H33 UNL     1      93.682 -42.630  14.601  1.00  0.00     0.274 HD
ATOM     14  H32 UNL     1      92.156 -42.882  14.829  1.00  0.00     0.274 HD
ATOM     15  H31 UNL     1      92.743 -43.000  13.267  1.00  0.00     0.274 HD
ENDBRANCH  11  12
ENDBRANCH  10  11
ENDBRANCH   8  10
BRANCH   1  16
HETATM   16  C2  UNL     1      96.597 -40.690  14.083  1.00  0.00     0.029 C 
HETATM   17  C1  UNL     1      97.827 -40.592  14.934  1.00  0.00     0.007 C 
ENDBRANCH   1  16
TORSDOF 4
ENDMDL
MODEL 3
REMARK VINA RESULT: -5.122452168      1.577      3.111
REMARK  4 active torsions:
REMARK  status: ('A' for Active; 'I' for Inactive)
REMARK    1  A    between atoms: C2_2  and  C3_3 
REMARK    2  A    between atoms: N2_10  and  C8_12 
REMARK    3  A    between atoms: C8_12  and  C9_13 
REMARK    4  A    between atoms: C9_13  and  N3_14 
ROOT
HETATM    1  C3  UNL     1      95.965 -38.709  14.661  1.00  0.00     0.193 C 
HETATM    2  C4  UNL     1      97.442 -38.804  14.439  1.00  0.00     0.061 C 
HETATM    3  C5  UNL     1      97.978 -39.830  15.420  1.00  0.00     0.236 C 
HETATM    4  N1  UNL     1      97.306 -41.072  15.100  1.00  0.00    -0.051 N 
ATOM      5  H11 UNL     1      97.711 -41.877  15.578  1.00  0.00     0.279 HD
ATOM      6  H12 UNL     1      97.480 -41.383  14.145  1.00  0.00     0.279 HD
HETATM    7  C6  UNL     1      95.907 -40.896  15.388  1.00  0.00     0.467 C 
HETATM    8  N2  UNL     1      95.269 -39.970  14.470  1.00  0.00    -0.041 N 
HETATM    9  C7  UNL     1      93.924 -39.739  15.030  1.00  0.00     0.275 C 
ENDROOT
BRANCH   8  10
HETATM   10  C8  UNL     1      95.124 -40.368  13.135  1.00  0.00     0.266 C 
BRANCH  10  11
HETATM   11  C9  UNL     1      93.752 -40.661  12.672  1.00  0.00     0.257 C 
BRANCH  11  12
HETATM   12  N3  UNL     1      93.624 -41.827  11.836  1.00  0.00    -0.078 N 
ATOM     13  H33 UNL     1      94.437 -41.913  11.227  1.00  0.00     0.274 HD
ATOM     14  H32 UNL     1      93.728 -42.673  12.396  1.00  0.00     0.274 HD
ATOM     15  H31 UNL     1      92.765 -41.873  11.286  1.00  0.00     0.274 HD
ENDBRANCH  11  12
ENDBRANCH  10  11
ENDBRANCH   8  10
BRANCH   1  16
HETATM   16  C2  UNL     1      95.331 -37.494  14.120  1.00  0.00     0.029 C 
HETATM   17  C1  UNL     1      95.834 -36.180  14.636  1.00  0.00     0.007 C 
ENDBRANCH   1  16
TORSDOF 4
ENDMDL
MODEL 4
REMARK VINA RESULT: -5.090954776      1.388      2.266
REMARK  4 active torsions:
REMARK  status: ('A' for Active; 'I' for Inactive)
REMARK    1  A    between atoms: C2_2  and  C3_3 
REMARK    2  A    between atoms: N2_10  and  C8_12 
REMARK    3  A    between atoms: C8_12  and  C9_13 
REMARK    4  A    between atoms: C9_13  and  N3_14 
ROOT
HETATM    1  C3  UNL     1      95.413 -38.415  13.923  1.00  0.00     0.193 C 
HETATM    2  C4  UNL     1      94.237 -37.521  13.687  1.00  0.00     0.061 C 
HETATM    3  C5  UNL     1      93.640 -37.909  12.348  1.00  0.00     0.236 C 
HETATM    4  N1  UNL     1      93.243 -39.296  12.479  1.00  0.00    -0.051 N 
ATOM      5  H11 UNL     1      92.669 -39.620  11.700  1.00  0.00     0.279 HD
ATOM      6  H12 UNL     1      92.558 -39.445  13.219  1.00  0.00     0.279 HD
HETATM    7  C6  UNL     1      94.439 -40.075  12.656  1.00  0.00     0.467 C 
HETATM    8  N2  UNL     1      95.073 -39.827  13.938  1.00  0.00    -0.041 N 
HETATM    9  C7  UNL     1      96.372 -40.523  13.866  1.00  0.00     0.275 C 
ENDROOT
BRANCH   8  10
HETATM   10  C8  UNL     1      94.408 -40.263  15.091  1.00  0.00     0.266 C 
BRANCH  10  11
HETATM   11  C9  UNL     1      93.576 -41.477  14.963  1.00  0.00     0.257 C 
BRANCH  11  12
HETATM   12  N3  UNL     1      92.154 -41.246  14.962  1.00  0.00    -0.078 N 
ATOM     13  H33 UNL     1      91.675 -42.012  14.489  1.00  0.00     0.274 HD
ATOM     14  H32 UNL     1      91.780 -41.357  15.904  1.00  0.00     0.274 HD
ATOM     15  H31 UNL     1      91.860 -40.351  14.570  1.00  0.00     0.274 HD
ENDBRANCH  11  12
ENDBRANCH  10  11
ENDBRANCH   8  10
BRANCH   1  16
HETATM   16  C2  UNL     1      96.366 -37.936  14.940  1.00  0.00     0.029 C 
HETATM   17  C1  UNL     1      96.657 -36.465  14.957  1.00  0.00     0.007 C 
ENDBRANCH   1  16
TORSDOF 4
ENDMDL
MODEL 5
REMARK VINA RESULT: -5.026777390      2.128      3.973
REMARK  4 active torsions:
REMARK  status: ('A' for Active; 'I' for Inactive)
REMARK    1  A    between atoms: C2_2  and  C3_3 
REMARK    2  A    between atoms: N2_10  and  C8_12 
REMARK    3  A    between atoms: C8_12  and  C9_13 
REMARK    4  A    between atoms: C9_13  and  N3_14 
ROOT
HETATM    1  C3  UNL     1      95.713 -38.591  14.579  1.00  0.00     0.193 C 
HETATM    2  C4  UNL     1      95.846 -37.221  13.991  1.00  0.00     0.061 C 
HETATM    3  C5  UNL     1      96.330 -36.304  15.099  1.00  0.00     0.236 C 
HETATM    4  N1  UNL     1      97.610 -36.834  15.521  1.00  0.00    -0.051 N 
ATOM      5  H11 UNL     1      98.116 -36.202  16.141  1.00  0.00     0.279 HD
ATOM      6  H12 UNL     1      98.297 -36.860  14.768  1.00  0.00     0.279 HD
HETATM    7  C6  UNL     1      97.372 -38.126  16.109  1.00  0.00     0.467 C 
HETATM    8  N2  UNL     1      96.954 -39.109  15.126  1.00  0.00    -0.041 N 
HETATM    9  C7  UNL     1      96.549 -40.290  15.913  1.00  0.00     0.275 C 
ENDROOT
BRANCH   8  10
HETATM   10  C8  UNL     1      97.894 -39.522  14.174  1.00  0.00     0.266 C 
BRANCH  10  11
HETATM   11  C9  UNL     1      99.051 -40.295  14.669  1.00  0.00     0.257 C 
BRANCH  11  12
HETATM   12  N3  UNL     1     100.300 -39.577  14.696  1.00  0.00    -0.078 N 
ATOM     13  H33 UNL     1     100.474 -39.142  13.790  1.00  0.00     0.274 HD
ATOM     14  H32 UNL     1     100.215 -38.746  15.281  1.00  0.00     0.274 HD
ATOM     15  H31 UNL     1     101.110 -40.127  14.984  1.00  0.00     0.274 HD
ENDBRANCH  11  12
ENDBRANCH  10  11
ENDBRANCH   8  10
BRANCH   1  16
HETATM   16  C2  UNL     1      94.871 -39.521  13.805  1.00  0.00     0.029 C 
HETATM   17  C1  UNL     1      93.890 -38.913  12.849  1.00  0.00     0.007 C 
ENDBRANCH   1  16
TORSDOF 4
ENDMDL
