MODEL 1
REMARK VINA RESULT: -6.375545097      0.000      0.000
REMARK  2 active torsions:
REMARK  status: ('A' for Active; 'I' for Inactive)
REMARK    1  A    between atoms: N2_4  and  N3_5 
REMARK    2  A    between atoms: N3_5  and  N4_7 
ROOT
HETATM    1  C1  UNL     1      99.294 -39.031  15.306  1.00  0.00     0.311 C 
HETATM    2  N1  UNL     1      97.925 -39.426  15.425  1.00  0.00     0.100 N 
HETATM    3  C2  UNL     1      97.091 -38.243  15.524  1.00  0.00     0.387 C 
HETATM    4  N2  UNL     1      95.797 -38.597  14.979  1.00  0.00    -0.177 NA
HETATM    5  C3  UNL     1      95.911 -39.940  14.513  1.00  0.00     0.055 C 
HETATM    6  C4  UNL     1      95.721 -40.891  15.699  1.00  0.00     0.035 C 
HETATM    7  C5  UNL     1      95.050 -40.303  13.369  1.00  0.00     0.035 C 
HETATM    8  C6  UNL     1      97.411 -40.023  14.184  1.00  0.00     0.299 C 
ENDROOT
BRANCH   4   9
HETATM    9  N3  UNL     1      95.311 -37.696  14.060  1.00  0.00    -0.246 N 
ATOM     10  H3  UNL     1      95.861 -37.543  13.216  1.00  0.00     0.203 HD
BRANCH   9  11
HETATM   11  N4  UNL     1      94.120 -36.973  14.197  1.00  0.00    -0.239 N 
HETATM   12  N5  UNL     1      92.972 -37.502  14.063  1.00  0.00    -0.330 N 
ATOM     13  H52 UNL     1      92.935 -38.498  13.847  1.00  0.00     0.178 HD
ATOM     14  H51 UNL     1      92.105 -36.976  14.162  1.00  0.00     0.178 HD
ATOM     15  H4  UNL     1      94.175 -35.979  14.414  1.00  0.00     0.209 HD
ENDBRANCH   9  11
ENDBRANCH   4   9
TORSDOF 2
ENDMDL
MODEL 2
REMARK VINA RESULT: -6.324697169      1.773      2.352
REMARK  2 active torsions:
REMARK  status: ('A' for Active; 'I' for Inactive)
REMARK    1  A    between atoms: N2_4  and  N3_5 
REMARK    2  A    between atoms: N3_5  and  N4_7 
ROOT
HETATM    1  C1  UNL     1      97.196 -38.606  14.560  1.00  0.00     0.311 C 
HETATM    2  N1  UNL     1      95.875 -39.146  14.649  1.00  0.00     0.100 N 
HETATM    3  C2  UNL     1      94.939 -38.226  14.032  1.00  0.00     0.387 C 
HETATM    4  N2  UNL     1      93.833 -39.020  13.541  1.00  0.00    -0.177 NA
HETATM    5  C3  UNL     1      94.165 -40.380  13.810  1.00  0.00     0.055 C 
HETATM    6  C4  UNL     1      93.803 -40.697  15.265  1.00  0.00     0.035 C 
HETATM    7  C5  UNL     1      93.612 -41.379  12.873  1.00  0.00     0.035 C 
HETATM    8  C6  UNL     1      95.702 -40.329  13.794  1.00  0.00     0.299 C 
ENDROOT
BRANCH   4   9
HETATM    9  N3  UNL     1      93.483 -38.748  12.239  1.00  0.00    -0.246 N 
ATOM     10  H3  UNL     1      94.109 -39.078  11.505  1.00  0.00     0.203 HD
BRANCH   9  11
HETATM   11  N4  UNL     1      92.334 -38.052  11.844  1.00  0.00    -0.239 N 
HETATM   12  N5  UNL     1      91.234 -38.121  12.476  1.00  0.00    -0.330 N 
ATOM     13  H52 UNL     1      91.205 -38.714  13.306  1.00  0.00     0.178 HD
ATOM     14  H51 UNL     1      90.397 -37.615  12.189  1.00  0.00     0.178 HD
ATOM     15  H4  UNL     1      92.382 -37.464  11.013  1.00  0.00     0.209 HD
ENDBRANCH   9  11
ENDBRANCH   4   9
TORSDOF 2
ENDMDL
MODEL 3
REMARK VINA RESULT: -6.038538270      2.700      3.889
REMARK  2 active torsions:
REMARK  status: ('A' for Active; 'I' for Inactive)
REMARK    1  A    between atoms: N2_4  and  N3_5 
REMARK    2  A    between atoms: N3_5  and  N4_7 
ROOT
HETATM    1  C1  UNL     1      92.754 -41.969  14.509  1.00  0.00     0.311 C 
HETATM    2  N1  UNL     1      93.819 -41.144  14.032  1.00  0.00     0.100 N 
HETATM    3  C2  UNL     1      93.551 -40.759  12.660  1.00  0.00     0.387 C 
HETATM    4  N2  UNL     1      94.200 -39.482  12.448  1.00  0.00    -0.177 NA
HETATM    5  C3  UNL     1      94.771 -39.110  13.700  1.00  0.00     0.055 C 
HETATM    6  C4  UNL     1      96.120 -39.819  13.856  1.00  0.00     0.035 C 
HETATM    7  C5  UNL     1      94.875 -37.660  13.958  1.00  0.00     0.035 C 
HETATM    8  C6  UNL     1      93.837 -39.829  14.688  1.00  0.00     0.299 C 
ENDROOT
BRANCH   4   9
HETATM    9  N3  UNL     1      93.392 -38.533  11.866  1.00  0.00    -0.246 N 
ATOM     10  H3  UNL     1      93.842 -37.703  11.483  1.00  0.00     0.203 HD
BRANCH   9  11
HETATM   11  N4  UNL     1      91.998 -38.620  11.762  1.00  0.00    -0.239 N 
HETATM   12  N5  UNL     1      91.207 -38.026  12.558  1.00  0.00    -0.330 N 
ATOM     13  H52 UNL     1      91.622 -37.463  13.301  1.00  0.00     0.178 HD
ATOM     14  H51 UNL     1      90.193 -38.089  12.482  1.00  0.00     0.178 HD
ATOM     15  H4  UNL     1      91.600 -39.187  11.012  1.00  0.00     0.209 HD
ENDBRANCH   9  11
ENDBRANCH   4   9
TORSDOF 2
ENDMDL
MODEL 4
REMARK VINA RESULT: -5.637593306      1.165      2.653
REMARK  2 active torsions:
REMARK  status: ('A' for Active; 'I' for Inactive)
REMARK    1  A    between atoms: N2_4  and  N3_5 
REMARK    2  A    between atoms: N3_5  and  N4_7 
ROOT
HETATM    1  C1  UNL     1      94.847 -41.408  15.680  1.00  0.00     0.311 C 
HETATM    2  N1  UNL     1      95.820 -40.583  15.034  1.00  0.00     0.100 N 
HETATM    3  C2  UNL     1      95.143 -39.544  14.282  1.00  0.00     0.387 C 
HETATM    4  N2  UNL     1      96.045 -38.412  14.227  1.00  0.00    -0.177 NA
HETATM    5  C3  UNL     1      97.190 -38.774  14.996  1.00  0.00     0.055 C 
HETATM    6  C4  UNL     1      98.125 -39.617  14.121  1.00  0.00     0.035 C 
HETATM    7  C5  UNL     1      97.904 -37.663  15.656  1.00  0.00     0.035 C 
HETATM    8  C6  UNL     1      96.585 -39.775  15.995  1.00  0.00     0.299 C 
ENDROOT
BRANCH   4   9
HETATM    9  N3  UNL     1      95.462 -37.215  14.571  1.00  0.00    -0.246 N 
ATOM     10  H3  UNL     1      95.932 -36.649  15.277  1.00  0.00     0.203 HD
BRANCH   9  11
HETATM   11  N4  UNL     1      94.274 -36.714  14.025  1.00  0.00    -0.239 N 
HETATM   12  N5  UNL     1      93.148 -37.279  14.186  1.00  0.00    -0.330 N 
ATOM     13  H52 UNL     1      93.126 -38.134  14.741  1.00  0.00     0.178 HD
ATOM     14  H51 UNL     1      92.283 -36.915  13.788  1.00  0.00     0.178 HD
ATOM     15  H4  UNL     1      94.315 -35.857  13.473  1.00  0.00     0.209 HD
ENDBRANCH   9  11
ENDBRANCH   4   9
TORSDOF 2
ENDMDL
MODEL 5
REMARK VINA RESULT: -5.535356176      1.242      2.926
REMARK  2 active torsions:
REMARK  status: ('A' for Active; 'I' for Inactive)
REMARK    1  A    between atoms: N2_4  and  N3_5 
REMARK    2  A    between atoms: N3_5  and  N4_7 
ROOT
HETATM    1  C1  UNL     1      93.441 -41.573  14.480  1.00  0.00     0.311 C 
HETATM    2  N1  UNL     1      94.732 -41.004  14.245  1.00  0.00     0.100 N 
HETATM    3  C2  UNL     1      94.577 -39.703  13.623  1.00  0.00     0.387 C 
HETATM    4  N2  UNL     1      95.730 -38.916  14.006  1.00  0.00    -0.177 NA
HETATM    5  C3  UNL     1      96.497 -39.732  14.889  1.00  0.00     0.055 C 
HETATM    6  C4  UNL     1      97.366 -40.679  14.056  1.00  0.00     0.035 C 
HETATM    7  C5  UNL     1      97.285 -39.014  15.912  1.00  0.00     0.035 C 
HETATM    8  C6  UNL     1      95.409 -40.633  15.496  1.00  0.00     0.299 C 
ENDROOT
BRANCH   4   9
HETATM    9  N3  UNL     1      95.420 -37.664  14.483  1.00  0.00    -0.246 N 
ATOM     10  H3  UNL     1      96.018 -37.277  15.213  1.00  0.00     0.203 HD
BRANCH   9  11
HETATM   11  N4  UNL     1      94.346 -36.881  14.044  1.00  0.00    -0.239 N 
HETATM   12  N5  UNL     1      93.133 -37.227  14.193  1.00  0.00    -0.330 N 
ATOM     13  H52 UNL     1      92.951 -38.118  14.654  1.00  0.00     0.178 HD
ATOM     14  H51 UNL     1      92.350 -36.657  13.872  1.00  0.00     0.178 HD
ATOM     15  H4  UNL     1      94.546 -35.993  13.585  1.00  0.00     0.209 HD
ENDBRANCH   9  11
ENDBRANCH   4   9
TORSDOF 2
ENDMDL
