MODEL 1
REMARK VINA RESULT: -6.046418984      0.000      0.000
REMARK  3 active torsions:
REMARK  status: ('A' for Active; 'I' for Inactive)
REMARK    1  A    between atoms: N1_2  and  C3_4 
REMARK    2  A    between atoms: C7_8  and  N2_9 
REMARK    3  A    between atoms: N2_9  and  N3_11 
ROOT
HETATM    1  C3  UNL     1      95.865 -39.882  14.494  1.00  0.00     0.102 C 
HETATM    2  C4  UNL     1      96.757 -40.437  15.554  1.00  0.00     0.027 C 
HETATM    3  C5  UNL     1      97.966 -39.532  15.410  1.00  0.00     0.004 C 
HETATM    4  C6  UNL     1      97.475 -38.258  14.722  1.00  0.00     0.029 C 
HETATM    5  C7  UNL     1      95.978 -38.382  14.797  1.00  0.00     0.123 C 
ENDROOT
BRANCH   5   6
HETATM    6  N2  UNL     1      95.288 -37.593  13.829  1.00  0.00    -0.316 N 
ATOM      7  H2  UNL     1      95.646 -37.510  12.878  1.00  0.00     0.182 HD
BRANCH   6   8
HETATM    8  N3  UNL     1      94.116 -36.938  14.205  1.00  0.00    -0.253 N 
HETATM    9  N4  UNL     1      92.994 -37.426  13.985  1.00  0.00    -0.331 N 
ATOM     10  H42 UNL     1      92.948 -38.331  13.516  1.00  0.00     0.178 HD
ATOM     11  H41 UNL     1      92.137 -36.947  14.260  1.00  0.00     0.178 HD
ATOM     12  H3  UNL     1      94.181 -36.034  14.673  1.00  0.00     0.207 HD
ENDBRANCH   6   8
ENDBRANCH   5   6
BRANCH   1  13
HETATM   13  N1  UNL     1      94.603 -40.409  14.335  1.00  0.00    -0.415 N 
HETATM   14  C1  UNL     1      93.864 -40.775  15.493  1.00  0.00     0.143 C 
HETATM   15  C2  UNL     1      94.280 -41.038  13.114  1.00  0.00     0.143 C 
ENDBRANCH   1  13
TORSDOF 3
ENDMDL
MODEL 2
REMARK VINA RESULT: -5.978284822      1.336      3.030
REMARK  3 active torsions:
REMARK  status: ('A' for Active; 'I' for Inactive)
REMARK    1  A    between atoms: N1_2  and  C3_4 
REMARK    2  A    between atoms: C7_8  and  N2_9 
REMARK    3  A    between atoms: N2_9  and  N3_11 
ROOT
HETATM    1  C3  UNL     1      95.970 -39.369  15.223  1.00  0.00     0.102 C 
HETATM    2  C4  UNL     1      96.032 -40.850  15.391  1.00  0.00     0.027 C 
HETATM    3  C5  UNL     1      94.569 -41.170  15.634  1.00  0.00     0.004 C 
HETATM    4  C6  UNL     1      93.768 -40.004  15.052  1.00  0.00     0.029 C 
HETATM    5  C7  UNL     1      94.792 -39.252  14.247  1.00  0.00     0.123 C 
ENDROOT
BRANCH   5   6
HETATM    6  N2  UNL     1      94.441 -37.891  14.002  1.00  0.00    -0.316 N 
ATOM      7  H2  UNL     1      95.136 -37.151  14.097  1.00  0.00     0.182 HD
BRANCH   6   8
HETATM    8  N3  UNL     1      93.130 -37.589  13.628  1.00  0.00    -0.253 N 
HETATM    9  N4  UNL     1      92.776 -37.576  12.438  1.00  0.00    -0.331 N 
ATOM     10  H42 UNL     1      93.474 -37.794  11.726  1.00  0.00     0.178 HD
ATOM     11  H41 UNL     1      91.819 -37.356  12.165  1.00  0.00     0.178 HD
ATOM     12  H3  UNL     1      92.445 -37.374  14.353  1.00  0.00     0.207 HD
ENDBRANCH   6   8
ENDBRANCH   5   6
BRANCH   1  13
HETATM   13  N1  UNL     1      97.123 -38.679  14.919  1.00  0.00    -0.415 N 
HETATM   14  C1  UNL     1      98.153 -39.350  14.205  1.00  0.00     0.143 C 
HETATM   15  C2  UNL     1      97.480 -37.571  15.716  1.00  0.00     0.143 C 
ENDBRANCH   1  13
TORSDOF 3
ENDMDL
MODEL 3
REMARK VINA RESULT: -5.952612674      0.193      1.053
REMARK  3 active torsions:
REMARK  status: ('A' for Active; 'I' for Inactive)
REMARK    1  A    between atoms: N1_2  and  C3_4 
REMARK    2  A    between atoms: C7_8  and  N2_9 
REMARK    3  A    between atoms: N2_9  and  N3_11 
ROOT
HETATM    1  C3  UNL     1      96.040 -39.961  14.538  1.00  0.00     0.102 C 
HETATM    2  C4  UNL     1      96.945 -40.403  15.640  1.00  0.00     0.027 C 
HETATM    3  C5  UNL     1      98.054 -39.376  15.526  1.00  0.00     0.004 C 
HETATM    4  C6  UNL     1      97.456 -38.170  14.799  1.00  0.00     0.029 C 
HETATM    5  C7  UNL     1      95.980 -38.454  14.821  1.00  0.00     0.123 C 
ENDROOT
BRANCH   5   6
HETATM    6  N2  UNL     1      95.247 -37.756  13.814  1.00  0.00    -0.316 N 
ATOM      7  H2  UNL     1      95.558 -37.769  12.844  1.00  0.00     0.182 HD
BRANCH   6   8
HETATM    8  N3  UNL     1      94.097 -37.057  14.181  1.00  0.00    -0.253 N 
HETATM    9  N4  UNL     1      92.960 -37.507  13.963  1.00  0.00    -0.331 N 
ATOM     10  H42 UNL     1      92.882 -38.415  13.503  1.00  0.00     0.178 HD
ATOM     11  H41 UNL     1      92.119 -36.996  14.231  1.00  0.00     0.178 HD
ATOM     12  H3  UNL     1      94.192 -36.151  14.640  1.00  0.00     0.207 HD
ENDBRANCH   6   8
ENDBRANCH   5   6
BRANCH   1  13
HETATM   13  N1  UNL     1      94.849 -40.623  14.341  1.00  0.00    -0.415 N 
HETATM   14  C1  UNL     1      94.376 -40.800  13.011  1.00  0.00     0.143 C 
HETATM   15  C2  UNL     1      93.906 -40.651  15.391  1.00  0.00     0.143 C 
ENDBRANCH   1  13
TORSDOF 3
ENDMDL
MODEL 4
REMARK VINA RESULT: -5.741829880      1.803      2.312
REMARK  3 active torsions:
REMARK  status: ('A' for Active; 'I' for Inactive)
REMARK    1  A    between atoms: N1_2  and  C3_4 
REMARK    2  A    between atoms: C7_8  and  N2_9 
REMARK    3  A    between atoms: N2_9  and  N3_11 
ROOT
HETATM    1  C3  UNL     1      94.447 -39.593  13.568  1.00  0.00     0.102 C 
HETATM    2  C4  UNL     1      95.201 -39.574  14.856  1.00  0.00     0.027 C 
HETATM    3  C5  UNL     1      95.959 -38.266  14.722  1.00  0.00     0.004 C 
HETATM    4  C6  UNL     1      95.190 -37.423  13.703  1.00  0.00     0.029 C 
HETATM    5  C7  UNL     1      93.891 -38.163  13.554  1.00  0.00     0.123 C 
ENDROOT
BRANCH   5   6
HETATM    6  N2  UNL     1      93.203 -37.875  12.338  1.00  0.00    -0.316 N 
ATOM      7  H2  UNL     1      93.721 -37.632  11.494  1.00  0.00     0.182 HD
BRANCH   6   8
HETATM    8  N3  UNL     1      91.809 -37.930  12.322  1.00  0.00    -0.253 N 
HETATM    9  N4  UNL     1      91.192 -38.674  11.541  1.00  0.00    -0.331 N 
ATOM     10  H42 UNL     1      91.735 -39.253  10.900  1.00  0.00     0.178 HD
ATOM     11  H41 UNL     1      90.174 -38.714  11.529  1.00  0.00     0.178 HD
ATOM     12  H3  UNL     1      91.281 -37.344  12.969  1.00  0.00     0.207 HD
ENDBRANCH   6   8
ENDBRANCH   5   6
BRANCH   1  13
HETATM   13  N1  UNL     1      93.569 -40.624  13.320  1.00  0.00    -0.415 N 
HETATM   14  C1  UNL     1      92.738 -41.084  14.379  1.00  0.00     0.143 C 
HETATM   15  C2  UNL     1      93.847 -41.512  12.259  1.00  0.00     0.143 C 
ENDBRANCH   1  13
TORSDOF 3
ENDMDL
MODEL 5
REMARK VINA RESULT: -5.704549714      1.024      1.337
REMARK  3 active torsions:
REMARK  status: ('A' for Active; 'I' for Inactive)
REMARK    1  A    between atoms: N1_2  and  C3_4 
REMARK    2  A    between atoms: C7_8  and  N2_9 
REMARK    3  A    between atoms: N2_9  and  N3_11 
ROOT
HETATM    1  C3  UNL     1      95.930 -38.880  14.411  1.00  0.00     0.102 C 
HETATM    2  C4  UNL     1      96.967 -38.860  15.484  1.00  0.00     0.027 C 
HETATM    3  C5  UNL     1      97.562 -37.480  15.278  1.00  0.00     0.004 C 
HETATM    4  C6  UNL     1      96.506 -36.659  14.536  1.00  0.00     0.029 C 
HETATM    5  C7  UNL     1      95.273 -37.513  14.639  1.00  0.00     0.123 C 
ENDROOT
BRANCH   5   6
HETATM    6  N2  UNL     1      94.291 -37.224  13.644  1.00  0.00    -0.316 N 
ATOM      7  H2  UNL     1      94.563 -36.808  12.754  1.00  0.00     0.182 HD
BRANCH   6   8
HETATM    8  N3  UNL     1      92.955 -37.522  13.909  1.00  0.00    -0.253 N 
HETATM    9  N4  UNL     1      92.193 -37.953  13.027  1.00  0.00    -0.331 N 
ATOM     10  H42 UNL     1      92.571 -38.088  12.090  1.00  0.00     0.178 HD
ATOM     11  H41 UNL     1      91.216 -38.171  13.221  1.00  0.00     0.178 HD
ATOM     12  H3  UNL     1      92.592 -37.380  14.852  1.00  0.00     0.207 HD
ENDBRANCH   6   8
ENDBRANCH   5   6
BRANCH   1  13
HETATM   13  N1  UNL     1      95.104 -39.976  14.296  1.00  0.00    -0.415 N 
HETATM   14  C1  UNL     1      94.889 -40.793  15.441  1.00  0.00     0.143 C 
HETATM   15  C2  UNL     1      94.914 -40.553  13.023  1.00  0.00     0.143 C 
ENDBRANCH   1  13
TORSDOF 3
ENDMDL
