MODEL 1
REMARK VINA RESULT: -7.362779672      0.000      0.000
REMARK  13 active torsions:
REMARK  status: ('A' for Active; 'I' for Inactive)
REMARK    1  A    between atoms: O1_2  and  C2_3 
REMARK    2  A    between atoms: C5_6  and  C6_7 
REMARK    3  A    between atoms: C6_7  and  C7_8 
REMARK    4  A    between atoms: N1_9  and  C8_11 
REMARK    5  A    between atoms: C8_11  and  C9_12 
REMARK    6  A    between atoms: C8_11  and  C15_20 
REMARK    7  A    between atoms: C9_12  and  C10_13 
REMARK    8  A    between atoms: C10_13  and  N2_14 
REMARK    9  A    between atoms: N3_24  and  C19_25 
REMARK   10  A    between atoms: C19_25  and  O3_26 
REMARK   11  A    between atoms: N4_28  and  O4_30 
REMARK   12  A    between atoms: C20_32  and  C21_33 
REMARK   13  A    between atoms: C25_38  and  O5_39 
ROOT
HETATM    1  C8  UNL     1      38.531 -19.997  23.860  1.00  0.00     0.088 C 
ENDROOT
BRANCH   1   2
HETATM    2  N1  UNL     1      39.834 -19.611  23.708  1.00  0.00    -0.397 N 
HETATM    3  C7  UNL     1      41.008 -19.645  24.370  1.00  0.00     0.060 C 
ATOM      4  H1  UNL     1      39.956 -19.152  22.806  1.00  0.00     0.159 HD
BRANCH   3   5
HETATM    5  C6  UNL     1      41.881 -20.770  24.688  1.00  0.00     0.082 C 
BRANCH   5   6
HETATM    6  C5  UNL     1      42.323 -20.718  26.118  1.00  0.00    -0.051 A 
HETATM    7  C4  UNL     1      43.642 -21.005  26.395  1.00  0.00     0.010 A 
HETATM    8  C3  UNL     1      44.122 -21.009  27.710  1.00  0.00     0.040 A 
HETATM    9  C2  UNL     1      43.220 -20.714  28.739  1.00  0.00     0.101 A 
HETATM   10  C25 UNL     1      41.903 -20.428  28.445  1.00  0.00     0.102 A 
HETATM   11  C24 UNL     1      41.436 -20.427  27.128  1.00  0.00     0.047 A 
BRANCH   9  12
HETATM   12  O1  UNL     1      43.621 -20.704  30.039  1.00  0.00    -0.353 OA
HETATM   13  C1  UNL     1      43.965 -21.755  30.873  1.00  0.00     0.210 C 
ENDBRANCH   9  12
BRANCH  10  14
HETATM   14  O5  UNL     1      41.058 -20.143  29.506  1.00  0.00    -0.353 OA
HETATM   15  C26 UNL     1      40.332 -21.217  30.074  1.00  0.00     0.210 C 
ENDBRANCH  10  14
ENDBRANCH   5   6
ENDBRANCH   3   5
ENDBRANCH   1   2
BRANCH   1  16
HETATM   16  C9  UNL     1      37.740 -20.382  22.680  1.00  0.00     0.055 C 
BRANCH  16  17
HETATM   17  C10 UNL     1      37.559 -21.802  22.312  1.00  0.00     0.274 C 
BRANCH  17  18
HETATM   18  N2  UNL     1      36.315 -22.342  22.876  1.00  0.00     0.092 N 
HETATM   19  C11 UNL     1      36.696 -23.429  23.774  1.00  0.00     0.298 C 
HETATM   20  C12 UNL     1      35.452 -23.739  24.595  1.00  0.00     0.198 C 
HETATM   21  O2  UNL     1      34.492 -24.231  23.704  1.00  0.00    -0.388 OA
HETATM   22  C13 UNL     1      34.172 -23.331  22.710  1.00  0.00     0.198 C 
HETATM   23  C14 UNL     1      35.411 -22.874  21.919  1.00  0.00     0.298 C 
ENDBRANCH  17  18
ENDBRANCH  16  17
ENDBRANCH   1  16
BRANCH   1  24
HETATM   24  C15 UNL     1      37.718 -18.973  24.695  1.00  0.00     0.033 C 
HETATM   25  C16 UNL     1      36.595 -19.721  25.363  1.00  0.00     0.010 C 
HETATM   26  C17 UNL     1      37.097 -20.789  26.284  1.00  0.00     0.020 C 
HETATM   27  C18 UNL     1      38.204 -20.280  27.180  1.00  0.00     0.127 C 
HETATM   28  N3  UNL     1      38.238 -18.815  27.033  1.00  0.00    -0.339 N 
HETATM   29  C20 UNL     1      38.539 -18.273  25.749  1.00  0.00     0.116 C 
BRANCH  28  30
HETATM   30  C19 UNL     1      37.979 -18.126  28.244  1.00  0.00     0.239 C 
HETATM   31  N4  UNL     1      38.804 -17.903  29.174  1.00  0.00    -0.233 N 
ATOM     32  H4  UNL     1      39.763 -18.239  29.083  1.00  0.00     0.198 HD
BRANCH  30  33
HETATM   33  O3  UNL     1      36.659 -17.657  28.396  1.00  0.00    -0.331 OA
ATOM     34  H3  UNL     1      36.562 -16.898  28.959  1.00  0.00     0.221 HD
ENDBRANCH  30  33
BRANCH  31  35
HETATM   35  O4  UNL     1      38.433 -17.216  30.309  1.00  0.00    -0.287 OA
ATOM     36  H4  UNL     1      38.267 -16.281  30.287  1.00  0.00     0.244 HD
ENDBRANCH  31  35
ENDBRANCH  28  30
BRANCH  29  37
HETATM   37  C21 UNL     1      38.624 -16.801  25.674  1.00  0.00     0.051 C 
HETATM   38  C22 UNL     1      38.974 -16.369  24.251  1.00  0.00     0.034 C 
HETATM   39  C23 UNL     1      37.349 -16.049  25.993  1.00  0.00     0.034 C 
HETATM   40 CL1  UNL     1      39.972 -16.242  26.691  1.00  0.00    -0.118 Cl
ENDBRANCH  29  37
ENDBRANCH   1  24
TORSDOF 13
ENDMDL
MODEL 2
REMARK VINA RESULT: -7.155288260      3.849      7.791
REMARK  13 active torsions:
REMARK  status: ('A' for Active; 'I' for Inactive)
REMARK    1  A    between atoms: O1_2  and  C2_3 
REMARK    2  A    between atoms: C5_6  and  C6_7 
REMARK    3  A    between atoms: C6_7  and  C7_8 
REMARK    4  A    between atoms: N1_9  and  C8_11 
REMARK    5  A    between atoms: C8_11  and  C9_12 
REMARK    6  A    between atoms: C8_11  and  C15_20 
REMARK    7  A    between atoms: C9_12  and  C10_13 
REMARK    8  A    between atoms: C10_13  and  N2_14 
REMARK    9  A    between atoms: N3_24  and  C19_25 
REMARK   10  A    between atoms: C19_25  and  O3_26 
REMARK   11  A    between atoms: N4_28  and  O4_30 
REMARK   12  A    between atoms: C20_32  and  C21_33 
REMARK   13  A    between atoms: C25_38  and  O5_39 
ROOT
HETATM    1  C8  UNL     1      37.756 -19.433  24.965  1.00  0.00     0.088 C 
ENDROOT
BRANCH   1   2
HETATM    2  N1  UNL     1      37.892 -20.687  24.438  1.00  0.00    -0.397 N 
HETATM    3  C7  UNL     1      38.490 -21.865  24.709  1.00  0.00     0.060 C 
ATOM      4  H1  UNL     1      37.375 -20.753  23.562  1.00  0.00     0.159 HD
BRANCH   3   5
HETATM    5  C6  UNL     1      38.205 -22.853  25.745  1.00  0.00     0.082 C 
BRANCH   5   6
HETATM    6  C5  UNL     1      37.241 -23.886  25.249  1.00  0.00    -0.051 A 
HETATM    7  C4  UNL     1      37.604 -25.211  25.362  1.00  0.00     0.010 A 
HETATM    8  C3  UNL     1      36.772 -26.233  24.891  1.00  0.00     0.040 A 
HETATM    9  C2  UNL     1      35.557 -25.869  24.298  1.00  0.00     0.101 A 
HETATM   10  C25 UNL     1      35.208 -24.539  24.193  1.00  0.00     0.102 A 
HETATM   11  C24 UNL     1      36.048 -23.528  24.668  1.00  0.00     0.047 A 
BRANCH   9  12
HETATM   12  O1  UNL     1      34.704 -26.813  23.817  1.00  0.00    -0.353 OA
HETATM   13  C1  UNL     1      34.788 -27.590  22.673  1.00  0.00     0.210 C 
ENDBRANCH   9  12
BRANCH  10  14
HETATM   14  O5  UNL     1      33.993 -24.242  23.598  1.00  0.00    -0.353 OA
HETATM   15  C26 UNL     1      34.018 -23.689  22.295  1.00  0.00     0.210 C 
ENDBRANCH  10  14
ENDBRANCH   5   6
ENDBRANCH   3   5
ENDBRANCH   1   2
BRANCH   1  16
HETATM   16  C9  UNL     1      37.232 -19.266  26.331  1.00  0.00     0.055 C 
BRANCH  16  17
HETATM   17  C10 UNL     1      37.990 -18.516  27.354  1.00  0.00     0.274 C 
BRANCH  17  18
HETATM   18  N2  UNL     1      37.464 -17.154  27.513  1.00  0.00     0.092 N 
HETATM   19  C11 UNL     1      38.618 -16.259  27.555  1.00  0.00     0.298 C 
HETATM   20  C12 UNL     1      38.056 -14.856  27.373  1.00  0.00     0.198 C 
HETATM   21  O2  UNL     1      37.262 -14.591  28.493  1.00  0.00    -0.388 OA
HETATM   22  C13 UNL     1      36.222 -15.484  28.638  1.00  0.00     0.198 C 
HETATM   23  C14 UNL     1      36.714 -16.942  28.699  1.00  0.00     0.298 C 
ENDBRANCH  17  18
ENDBRANCH  16  17
ENDBRANCH   1  16
BRANCH   1  24
HETATM   24  C15 UNL     1      36.981 -18.486  24.012  1.00  0.00     0.033 C 
HETATM   25  C16 UNL     1      37.511 -17.093  24.225  1.00  0.00     0.010 C 
HETATM   26  C17 UNL     1      38.971 -16.989  23.911  1.00  0.00     0.020 C 
HETATM   27  C18 UNL     1      39.307 -17.651  22.593  1.00  0.00     0.127 C 
HETATM   28  N3  UNL     1      38.029 -17.946  21.921  1.00  0.00    -0.339 N 
HETATM   29  C20 UNL     1      37.128 -18.850  22.556  1.00  0.00     0.116 C 
BRANCH  28  30
HETATM   30  C19 UNL     1      37.885 -17.281  20.679  1.00  0.00     0.239 C 
HETATM   31  N4  UNL     1      38.078 -17.777  19.532  1.00  0.00    -0.233 N 
ATOM     32  H4  UNL     1      38.370 -18.750  19.451  1.00  0.00     0.198 HD
BRANCH  30  33
HETATM   33  O3  UNL     1      37.488 -15.932  20.764  1.00  0.00    -0.331 OA
ATOM     34  H3  UNL     1      37.550 -15.440  19.954  1.00  0.00     0.221 HD
ENDBRANCH  30  33
BRANCH  31  35
HETATM   35  O4  UNL     1      37.901 -17.026  18.390  1.00  0.00    -0.287 OA
ATOM     36  H4  UNL     1      38.624 -16.852  17.799  1.00  0.00     0.244 HD
ENDBRANCH  31  35
ENDBRANCH  28  30
BRANCH  29  37
HETATM   37  C21 UNL     1      35.893 -19.160  21.808  1.00  0.00     0.051 C 
HETATM   38  C22 UNL     1      34.968 -20.025  22.662  1.00  0.00     0.034 C 
HETATM   39  C23 UNL     1      35.042 -17.971  21.417  1.00  0.00     0.034 C 
HETATM   40 CL1  UNL     1      36.304 -20.152  20.390  1.00  0.00    -0.118 Cl
ENDBRANCH  29  37
ENDBRANCH   1  24
TORSDOF 13
ENDMDL
MODEL 3
REMARK VINA RESULT: -7.154221610      2.005      5.542
REMARK  13 active torsions:
REMARK  status: ('A' for Active; 'I' for Inactive)
REMARK    1  A    between atoms: O1_2  and  C2_3 
REMARK    2  A    between atoms: C5_6  and  C6_7 
REMARK    3  A    between atoms: C6_7  and  C7_8 
REMARK    4  A    between atoms: N1_9  and  C8_11 
REMARK    5  A    between atoms: C8_11  and  C9_12 
REMARK    6  A    between atoms: C8_11  and  C15_20 
REMARK    7  A    between atoms: C9_12  and  C10_13 
REMARK    8  A    between atoms: C10_13  and  N2_14 
REMARK    9  A    between atoms: N3_24  and  C19_25 
REMARK   10  A    between atoms: C19_25  and  O3_26 
REMARK   11  A    between atoms: N4_28  and  O4_30 
REMARK   12  A    between atoms: C20_32  and  C21_33 
REMARK   13  A    between atoms: C25_38  and  O5_39 
ROOT
HETATM    1  C8  UNL     1      39.109 -18.603  25.099  1.00  0.00     0.088 C 
ENDROOT
BRANCH   1   2
HETATM    2  N1  UNL     1      40.087 -19.235  24.384  1.00  0.00    -0.397 N 
HETATM    3  C7  UNL     1      41.263 -19.867  24.572  1.00  0.00     0.060 C 
ATOM      4  H1  UNL     1      39.851 -19.228  23.392  1.00  0.00     0.159 HD
BRANCH   3   5
HETATM    5  C6  UNL     1      41.555 -21.154  25.195  1.00  0.00     0.082 C 
BRANCH   5   6
HETATM    6  C5  UNL     1      42.211 -20.967  26.528  1.00  0.00    -0.051 A 
HETATM    7  C4  UNL     1      43.586 -20.891  26.563  1.00  0.00     0.010 A 
HETATM    8  C3  UNL     1      44.274 -20.750  27.774  1.00  0.00     0.040 A 
HETATM    9  C2  UNL     1      43.521 -20.689  28.953  1.00  0.00     0.101 A 
HETATM   10  C25 UNL     1      42.144 -20.765  28.901  1.00  0.00     0.102 A 
HETATM   11  C24 UNL     1      41.470 -20.906  27.685  1.00  0.00     0.047 A 
BRANCH   9  12
HETATM   12  O1  UNL     1      44.126 -20.555  30.164  1.00  0.00    -0.353 OA
HETATM   13  C1  UNL     1      45.450 -20.286  30.472  1.00  0.00     0.210 C 
ENDBRANCH   9  12
BRANCH  10  14
HETATM   14  O5  UNL     1      41.454 -20.699  30.100  1.00  0.00    -0.353 OA
HETATM   15  C26 UNL     1      40.623 -21.792  30.441  1.00  0.00     0.210 C 
ENDBRANCH  10  14
ENDBRANCH   5   6
ENDBRANCH   3   5
ENDBRANCH   1   2
BRANCH   1  16
HETATM   16  C9  UNL     1      39.427 -18.017  26.412  1.00  0.00     0.055 C 
BRANCH  16  17
HETATM   17  C10 UNL     1      39.628 -16.562  26.571  1.00  0.00     0.274 C 
BRANCH  17  18
HETATM   18  N2  UNL     1      38.606 -15.977  27.449  1.00  0.00     0.092 N 
HETATM   19  C11 UNL     1      38.162 -17.041  28.345  1.00  0.00     0.298 C 
HETATM   20  C12 UNL     1      37.377 -16.347  29.450  1.00  0.00     0.198 C 
HETATM   21  O2  UNL     1      36.245 -15.787  28.849  1.00  0.00    -0.388 OA
HETATM   22  C13 UNL     1      36.556 -14.872  27.866  1.00  0.00     0.198 C 
HETATM   23  C14 UNL     1      37.460 -15.477  26.777  1.00  0.00     0.298 C 
ENDBRANCH  17  18
ENDBRANCH  16  17
ENDBRANCH   1  16
BRANCH   1  24
HETATM   24  C15 UNL     1      37.835 -19.476  25.236  1.00  0.00     0.033 C 
HETATM   25  C16 UNL     1      36.654 -18.619  24.863  1.00  0.00     0.010 C 
HETATM   26  C17 UNL     1      36.738 -18.123  23.453  1.00  0.00     0.020 C 
HETATM   27  C18 UNL     1      37.106 -19.232  22.492  1.00  0.00     0.127 C 
HETATM   28  N3  UNL     1      36.995 -20.500  23.234  1.00  0.00    -0.339 N 
HETATM   29  C20 UNL     1      37.850 -20.701  24.356  1.00  0.00     0.116 C 
BRANCH  28  30
HETATM   30  C19 UNL     1      36.030 -21.383  22.689  1.00  0.00     0.239 C 
HETATM   31  N4  UNL     1      34.789 -21.381  22.925  1.00  0.00    -0.233 N 
ATOM     32  H4  UNL     1      34.404 -20.691  23.569  1.00  0.00     0.198 HD
BRANCH  30  33
HETATM   33  O3  UNL     1      36.538 -22.350  21.798  1.00  0.00    -0.331 OA
ATOM     34  H3  UNL     1      36.001 -23.127  21.696  1.00  0.00     0.221 HD
ENDBRANCH  30  33
BRANCH  31  35
HETATM   35  O4  UNL     1      33.946 -22.293  22.328  1.00  0.00    -0.287 OA
ATOM     36  H4  UNL     1      33.011 -22.135  22.270  1.00  0.00     0.244 HD
ENDBRANCH  31  35
ENDBRANCH  28  30
BRANCH  29  37
HETATM   37  C21 UNL     1      37.743 -22.014  25.023  1.00  0.00     0.051 C 
HETATM   38  C22 UNL     1      38.410 -21.960  26.396  1.00  0.00     0.034 C 
HETATM   39  C23 UNL     1      36.336 -22.497  25.306  1.00  0.00     0.034 C 
HETATM   40 CL1  UNL     1      38.661 -23.219  24.090  1.00  0.00    -0.118 Cl
ENDBRANCH  29  37
ENDBRANCH   1  24
TORSDOF 13
ENDMDL
MODEL 4
REMARK VINA RESULT: -7.058380416      3.028      6.241
REMARK  13 active torsions:
REMARK  status: ('A' for Active; 'I' for Inactive)
REMARK    1  A    between atoms: O1_2  and  C2_3 
REMARK    2  A    between atoms: C5_6  and  C6_7 
REMARK    3  A    between atoms: C6_7  and  C7_8 
REMARK    4  A    between atoms: N1_9  and  C8_11 
REMARK    5  A    between atoms: C8_11  and  C9_12 
REMARK    6  A    between atoms: C8_11  and  C15_20 
REMARK    7  A    between atoms: C9_12  and  C10_13 
REMARK    8  A    between atoms: C10_13  and  N2_14 
REMARK    9  A    between atoms: N3_24  and  C19_25 
REMARK   10  A    between atoms: C19_25  and  O3_26 
REMARK   11  A    between atoms: N4_28  and  O4_30 
REMARK   12  A    between atoms: C20_32  and  C21_33 
REMARK   13  A    between atoms: C25_38  and  O5_39 
ROOT
HETATM    1  C8  UNL     1      37.872 -18.463  27.074  1.00  0.00     0.088 C 
ENDROOT
BRANCH   1   2
HETATM    2  N1  UNL     1      38.268 -19.650  27.625  1.00  0.00    -0.397 N 
HETATM    3  C7  UNL     1      39.391 -20.291  28.007  1.00  0.00     0.060 C 
ATOM      4  H1  UNL     1      37.455 -20.238  27.804  1.00  0.00     0.159 HD
BRANCH   3   5
HETATM    5  C6  UNL     1      40.299 -20.024  29.119  1.00  0.00     0.082 C 
BRANCH   5   6
HETATM    6  C5  UNL     1      41.169 -21.211  29.396  1.00  0.00    -0.051 A 
HETATM    7  C4  UNL     1      42.513 -21.103  29.110  1.00  0.00     0.010 A 
HETATM    8  C3  UNL     1      43.385 -22.180  29.310  1.00  0.00     0.040 A 
HETATM    9  C2  UNL     1      42.850 -23.374  29.809  1.00  0.00     0.101 A 
HETATM   10  C25 UNL     1      41.502 -23.465  30.091  1.00  0.00     0.102 A 
HETATM   11  C24 UNL     1      40.643 -22.382  29.887  1.00  0.00     0.047 A 
BRANCH   9  12
HETATM   12  O1  UNL     1      43.641 -24.459  30.024  1.00  0.00    -0.353 OA
HETATM   13  C1  UNL     1      44.174 -25.365  29.121  1.00  0.00     0.210 C 
ENDBRANCH   9  12
BRANCH  10  14
HETATM   14  O5  UNL     1      41.032 -24.672  30.583  1.00  0.00    -0.353 OA
HETATM   15  C26 UNL     1      40.381 -25.541  29.676  1.00  0.00     0.210 C 
ENDBRANCH  10  14
ENDBRANCH   5   6
ENDBRANCH   3   5
ENDBRANCH   1   2
BRANCH   1  16
HETATM   16  C9  UNL     1      37.138 -17.486  27.895  1.00  0.00     0.055 C 
BRANCH  16  17
HETATM   17  C10 UNL     1      37.848 -16.414  28.624  1.00  0.00     0.274 C 
BRANCH  17  18
HETATM   18  N2  UNL     1      37.173 -15.120  28.457  1.00  0.00     0.092 N 
HETATM   19  C11 UNL     1      35.766 -15.333  28.788  1.00  0.00     0.298 C 
HETATM   20  C12 UNL     1      35.166 -13.942  28.944  1.00  0.00     0.198 C 
HETATM   21  O2  UNL     1      35.227 -13.334  27.686  1.00  0.00    -0.388 OA
HETATM   22  C13 UNL     1      36.513 -13.225  27.203  1.00  0.00     0.198 C 
HETATM   23  C14 UNL     1      37.227 -14.588  27.142  1.00  0.00     0.298 C 
ENDBRANCH  17  18
ENDBRANCH  16  17
ENDBRANCH   1  16
BRANCH   1  24
HETATM   24  C15 UNL     1      37.109 -18.670  25.740  1.00  0.00     0.033 C 
HETATM   25  C16 UNL     1      37.257 -17.409  24.931  1.00  0.00     0.010 C 
HETATM   26  C17 UNL     1      38.689 -17.105  24.615  1.00  0.00     0.020 C 
HETATM   27  C18 UNL     1      39.421 -18.328  24.110  1.00  0.00     0.127 C 
HETATM   28  N3  UNL     1      38.404 -19.359  23.839  1.00  0.00    -0.339 N 
HETATM   29  C20 UNL     1      37.621 -19.835  24.932  1.00  0.00     0.116 C 
BRANCH  28  30
HETATM   30  C19 UNL     1      38.364 -19.760  22.481  1.00  0.00     0.239 C 
HETATM   31  N4  UNL     1      38.972 -20.742  21.969  1.00  0.00    -0.233 N 
ATOM     32  H4  UNL     1      39.563 -21.328  22.559  1.00  0.00     0.198 HD
BRANCH  30  33
HETATM   33  O3  UNL     1      37.557 -18.965  21.644  1.00  0.00    -0.331 OA
ATOM     34  H3  UNL     1      36.632 -19.180  21.650  1.00  0.00     0.221 HD
ENDBRANCH  30  33
BRANCH  31  35
HETATM   35  O4  UNL     1      38.851 -21.037  20.628  1.00  0.00    -0.287 OA
ATOM     36  H4  UNL     1      38.236 -21.692  20.321  1.00  0.00     0.244 HD
ENDBRANCH  31  35
ENDBRANCH  28  30
BRANCH  29  37
HETATM   37  C21 UNL     1      36.663 -20.914  24.616  1.00  0.00     0.051 C 
HETATM   38  C22 UNL     1      35.834 -21.255  25.852  1.00  0.00     0.034 C 
HETATM   39  C23 UNL     1      35.637 -20.593  23.551  1.00  0.00     0.034 C 
HETATM   40 CL1  UNL     1      37.563 -22.395  24.217  1.00  0.00    -0.118 Cl
ENDBRANCH  29  37
ENDBRANCH   1  24
TORSDOF 13
ENDMDL
MODEL 5
REMARK VINA RESULT: -7.056039644      2.964      7.944
REMARK  13 active torsions:
REMARK  status: ('A' for Active; 'I' for Inactive)
REMARK    1  A    between atoms: O1_2  and  C2_3 
REMARK    2  A    between atoms: C5_6  and  C6_7 
REMARK    3  A    between atoms: C6_7  and  C7_8 
REMARK    4  A    between atoms: N1_9  and  C8_11 
REMARK    5  A    between atoms: C8_11  and  C9_12 
REMARK    6  A    between atoms: C8_11  and  C15_20 
REMARK    7  A    between atoms: C9_12  and  C10_13 
REMARK    8  A    between atoms: C10_13  and  N2_14 
REMARK    9  A    between atoms: N3_24  and  C19_25 
REMARK   10  A    between atoms: C19_25  and  O3_26 
REMARK   11  A    between atoms: N4_28  and  O4_30 
REMARK   12  A    between atoms: C20_32  and  C21_33 
REMARK   13  A    between atoms: C25_38  and  O5_39 
ROOT
HETATM    1  C8  UNL     1      39.745 -21.453  27.828  1.00  0.00     0.088 C 
ENDROOT
BRANCH   1   2
HETATM    2  N1  UNL     1      39.970 -22.485  26.961  1.00  0.00    -0.397 N 
HETATM    3  C7  UNL     1      39.292 -23.341  26.172  1.00  0.00     0.060 C 
ATOM      4  H1  UNL     1      40.972 -22.663  26.887  1.00  0.00     0.159 HD
BRANCH   3   5
HETATM    5  C6  UNL     1      38.548 -23.102  24.939  1.00  0.00     0.082 C 
BRANCH   5   6
HETATM    6  C5  UNL     1      37.485 -24.140  24.745  1.00  0.00    -0.051 A 
HETATM    7  C4  UNL     1      37.804 -25.448  25.036  1.00  0.00     0.010 A 
HETATM    8  C3  UNL     1      36.875 -26.479  24.849  1.00  0.00     0.040 A 
HETATM    9  C2  UNL     1      35.610 -26.140  24.355  1.00  0.00     0.101 A 
HETATM   10  C25 UNL     1      35.306 -24.825  24.069  1.00  0.00     0.102 A 
HETATM   11  C24 UNL     1      36.242 -23.806  24.260  1.00  0.00     0.047 A 
BRANCH   9  12
HETATM   12  O1  UNL     1      34.662 -27.094  24.148  1.00  0.00    -0.353 OA
HETATM   13  C1  UNL     1      34.540 -28.021  23.126  1.00  0.00     0.210 C 
ENDBRANCH   9  12
BRANCH  10  14
HETATM   14  O5  UNL     1      34.037 -24.553  23.583  1.00  0.00    -0.353 OA
HETATM   15  C26 UNL     1      33.936 -23.722  22.443  1.00  0.00     0.210 C 
ENDBRANCH  10  14
ENDBRANCH   5   6
ENDBRANCH   3   5
ENDBRANCH   1   2
BRANCH   1  16
HETATM   16  C9  UNL     1      39.166 -20.194  27.331  1.00  0.00     0.055 C 
BRANCH  16  17
HETATM   17  C10 UNL     1      39.987 -18.971  27.210  1.00  0.00     0.274 C 
BRANCH  17  18
HETATM   18  N2  UNL     1      39.204 -17.771  27.534  1.00  0.00     0.092 N 
HETATM   19  C11 UNL     1      37.796 -18.139  27.401  1.00  0.00     0.298 C 
HETATM   20  C12 UNL     1      37.014 -17.012  28.062  1.00  0.00     0.198 C 
HETATM   21  O2  UNL     1      37.235 -15.863  27.296  1.00  0.00    -0.388 OA
HETATM   22  C13 UNL     1      38.566 -15.514  27.224  1.00  0.00     0.198 C 
HETATM   23  C14 UNL     1      39.439 -16.661  26.681  1.00  0.00     0.298 C 
ENDBRANCH  17  18
ENDBRANCH  16  17
ENDBRANCH   1  16
BRANCH   1  24
HETATM   24  C15 UNL     1      41.001 -21.125  28.677  1.00  0.00     0.033 C 
HETATM   25  C16 UNL     1      40.569 -21.044  30.117  1.00  0.00     0.010 C 
HETATM   26  C17 UNL     1      39.990 -22.335  30.607  1.00  0.00     0.020 C 
HETATM   27  C18 UNL     1      40.852 -23.516  30.221  1.00  0.00     0.127 C 
HETATM   28  N3  UNL     1      42.126 -22.973  29.717  1.00  0.00    -0.339 N 
HETATM   29  C20 UNL     1      42.095 -22.155  28.550  1.00  0.00     0.116 C 
BRANCH  28  30
HETATM   30  C19 UNL     1      43.247 -23.378  30.484  1.00  0.00     0.239 C 
HETATM   31  N4  UNL     1      43.735 -22.773  31.480  1.00  0.00    -0.233 N 
ATOM     32  H4  UNL     1      43.310 -21.901  31.794  1.00  0.00     0.198 HD
BRANCH  30  33
HETATM   33  O3  UNL     1      43.856 -24.577  30.067  1.00  0.00    -0.331 OA
ATOM     34  H3  UNL     1      44.739 -24.487  29.729  1.00  0.00     0.221 HD
ENDBRANCH  30  33
BRANCH  31  35
HETATM   35  O4  UNL     1      44.832 -23.270  32.151  1.00  0.00    -0.287 OA
ATOM     36  H4  UNL     1      45.551 -22.704  32.406  1.00  0.00     0.244 HD
ENDBRANCH  31  35
ENDBRANCH  28  30
BRANCH  29  37
HETATM   37  C21 UNL     1      43.406 -21.692  28.052  1.00  0.00     0.051 C 
HETATM   38  C22 UNL     1      43.219 -20.844  26.796  1.00  0.00     0.034 C 
HETATM   39  C23 UNL     1      44.193 -20.804  28.993  1.00  0.00     0.034 C 
HETATM   40 CL1  UNL     1      44.367 -23.100  27.543  1.00  0.00    -0.118 Cl
ENDBRANCH  29  37
ENDBRANCH   1  24
TORSDOF 13
ENDMDL
