MODEL 1
REMARK VINA RESULT: -6.732620166      0.000      0.000
REMARK  14 active torsions:
REMARK  status: ('A' for Active; 'I' for Inactive)
REMARK    1  A    between atoms: C2_2  and  C4_4 
REMARK    2  A    between atoms: C4_4  and  C5_5 
REMARK    3  A    between atoms: C5_5  and  C6_6 
REMARK    4  A    between atoms: C15_16  and  C16_17 
REMARK    5  A    between atoms: C19_22  and  C20_23 
REMARK    6  A    between atoms: C20_23  and  O3_24 
REMARK    7  A    between atoms: C20_23  and  C21_26 
REMARK    8  A    between atoms: C21_26  and  C22_27 
REMARK    9  A    between atoms: C22_27  and  O4_28 
REMARK   10  A    between atoms: C23_30  and  C24_31 
REMARK   11  A    between atoms: C24_31  and  C25_32 
REMARK   12  A    between atoms: C25_32  and  N1_33 
REMARK   13  A    between atoms: C25_32  and  C27_37 
REMARK   14  A    between atoms: C27_37  and  O6_39 
ROOT
HETATM    1  C6  UNL     1      40.075 -21.604  25.611  1.00  0.00    -0.002 C 
HETATM    2  C7  UNL     1      39.733 -23.151  25.426  1.00  0.00     0.009 C 
HETATM    3  C8  UNL     1      40.027 -23.908  26.690  1.00  0.00     0.014 C 
HETATM    4  C9  UNL     1      38.463 -23.213  24.932  1.00  0.00    -0.010 C 
HETATM    5  C10 UNL     1      37.307 -24.026  24.693  1.00  0.00    -0.004 C 
HETATM    6  C11 UNL     1      36.995 -25.277  24.714  1.00  0.00    -0.014 C 
HETATM    7  C12 UNL     1      35.579 -25.429  24.351  1.00  0.00     0.033 C 
HETATM    8  C13 UNL     1      34.982 -24.015  24.527  1.00  0.00     0.078 C 
HETATM    9  C14 UNL     1      36.120 -23.129  24.296  1.00  0.00     0.193 C 
HETATM   10  O1  UNL     1      36.310 -22.643  23.020  1.00  0.00    -0.341 OA
HETATM   11  C15 UNL     1      36.163 -21.247  23.066  1.00  0.00     0.183 C 
HETATM   12  C17 UNL     1      36.656 -20.898  24.481  1.00  0.00     0.162 C 
HETATM   13  O2  UNL     1      36.197 -21.981  25.132  1.00  0.00    -0.342 OA
HETATM   14  C18 UNL     1      38.045 -20.413  24.541  1.00  0.00     0.029 C 
HETATM   15  C19 UNL     1      38.379 -18.981  24.721  1.00  0.00     0.026 C 
HETATM   16  C23 UNL     1      39.054 -19.300  26.074  1.00  0.00    -0.000 C 
HETATM   17  C29 UNL     1      38.896 -20.746  25.713  1.00  0.00     0.002 C 
ENDROOT
BRANCH  16  18
HETATM   18  C24 UNL     1      38.271 -18.709  27.202  1.00  0.00     0.049 C 
BRANCH  18  19
HETATM   19  C25 UNL     1      38.873 -18.004  28.328  1.00  0.00     0.284 C 
BRANCH  19  20
HETATM   20  N1  UNL     1      37.633 -17.496  29.083  1.00  0.00    -0.066 N 
HETATM   21  C26 UNL     1      37.544 -16.075  28.937  1.00  0.00     0.267 C 
ATOM     22  H12 UNL     1      36.779 -17.970  28.789  1.00  0.00     0.277 HD
ATOM     23  H11 UNL     1      37.629 -17.787  30.061  1.00  0.00     0.277 HD
ENDBRANCH  19  20
BRANCH  19  24
HETATM   24  C27 UNL     1      39.586 -18.694  29.389  1.00  0.00     0.289 C 
HETATM   25  O5  UNL     1      39.441 -18.413  30.628  1.00  0.00    -0.263 OA
BRANCH  24  26
HETATM   26  O6  UNL     1      40.487 -19.701  29.129  1.00  0.00    -0.325 OA
HETATM   27  C28 UNL     1      40.082 -21.065  29.354  1.00  0.00     0.213 C 
ENDBRANCH  24  26
ENDBRANCH  19  24
ENDBRANCH  18  19
ENDBRANCH  16  18
BRANCH  15  28
HETATM   28  C20 UNL     1      37.308 -17.950  24.706  1.00  0.00     0.125 C 
BRANCH  28  29
HETATM   29  O3  UNL     1      37.037 -17.741  23.315  1.00  0.00    -0.395 OA
ATOM     30  H3  UNL     1      36.522 -18.497  23.059  1.00  0.00     0.210 HD
ENDBRANCH  28  29
BRANCH  28  31
HETATM   31  C21 UNL     1      37.916 -16.592  25.066  1.00  0.00     0.058 C 
BRANCH  31  32
HETATM   32  C22 UNL     1      39.045 -16.200  24.173  1.00  0.00     0.166 C 
BRANCH  32  33
HETATM   33  O4  UNL     1      38.658 -15.142  23.386  1.00  0.00    -0.401 OA
ATOM     34  H4  UNL     1      38.864 -14.327  23.829  1.00  0.00     0.209 HD
ENDBRANCH  32  33
ENDBRANCH  31  32
ENDBRANCH  28  31
ENDBRANCH  15  28
BRANCH   1  35
HETATM   35  C5  UNL     1      41.216 -21.338  24.739  1.00  0.00     0.010 C 
BRANCH  35  36
HETATM   36  C4  UNL     1      42.449 -20.655  25.176  1.00  0.00     0.033 C 
BRANCH  36  37
HETATM   37  C2  UNL     1      43.138 -21.494  26.264  1.00  0.00    -0.093 C 
HETATM   38  C1  UNL     1      43.296 -20.935  27.431  1.00  0.00     0.014 C 
HETATM   39  C3  UNL     1      43.567 -22.858  25.921  1.00  0.00     0.042 C 
ENDBRANCH  36  37
ENDBRANCH  35  36
ENDBRANCH   1  35
BRANCH  11  40
HETATM   40  C16 UNL     1      34.651 -21.028  22.995  1.00  0.00     0.256 C 
HETATM   41  F1  UNL     1      34.485 -19.675  22.723  1.00  0.00    -0.253 F 
ENDBRANCH  11  40
TORSDOF 14
ENDMDL
MODEL 2
REMARK VINA RESULT: -6.644192223      1.285      1.625
REMARK  14 active torsions:
REMARK  status: ('A' for Active; 'I' for Inactive)
REMARK    1  A    between atoms: C2_2  and  C4_4 
REMARK    2  A    between atoms: C4_4  and  C5_5 
REMARK    3  A    between atoms: C5_5  and  C6_6 
REMARK    4  A    between atoms: C15_16  and  C16_17 
REMARK    5  A    between atoms: C19_22  and  C20_23 
REMARK    6  A    between atoms: C20_23  and  O3_24 
REMARK    7  A    between atoms: C20_23  and  C21_26 
REMARK    8  A    between atoms: C21_26  and  C22_27 
REMARK    9  A    between atoms: C22_27  and  O4_28 
REMARK   10  A    between atoms: C23_30  and  C24_31 
REMARK   11  A    between atoms: C24_31  and  C25_32 
REMARK   12  A    between atoms: C25_32  and  N1_33 
REMARK   13  A    between atoms: C25_32  and  C27_37 
REMARK   14  A    between atoms: C27_37  and  O6_39 
ROOT
HETATM    1  C6  UNL     1      39.492 -21.814  25.001  1.00  0.00    -0.002 C 
HETATM    2  C7  UNL     1      38.666 -23.088  24.514  1.00  0.00     0.009 C 
HETATM    3  C8  UNL     1      38.482 -24.058  25.648  1.00  0.00     0.014 C 
HETATM    4  C9  UNL     1      37.545 -22.615  23.899  1.00  0.00    -0.010 C 
HETATM    5  C10 UNL     1      36.229 -22.907  23.412  1.00  0.00    -0.004 C 
HETATM    6  C11 UNL     1      35.502 -23.947  23.183  1.00  0.00    -0.014 C 
HETATM    7  C12 UNL     1      34.194 -23.519  22.666  1.00  0.00     0.033 C 
HETATM    8  C13 UNL     1      34.107 -22.021  23.031  1.00  0.00     0.078 C 
HETATM    9  C14 UNL     1      35.503 -21.593  23.069  1.00  0.00     0.193 C 
HETATM   10  O1  UNL     1      36.042 -21.050  21.922  1.00  0.00    -0.341 OA
HETATM   11  C15 UNL     1      36.385 -19.716  22.199  1.00  0.00     0.183 C 
HETATM   12  C17 UNL     1      36.747 -19.760  23.694  1.00  0.00     0.162 C 
HETATM   13  O2  UNL     1      35.847 -20.673  24.097  1.00  0.00    -0.342 OA
HETATM   14  C18 UNL     1      38.192 -19.832  23.970  1.00  0.00     0.029 C 
HETATM   15  C19 UNL     1      38.972 -18.659  24.430  1.00  0.00     0.026 C 
HETATM   16  C23 UNL     1      39.280 -19.377  25.763  1.00  0.00    -0.000 C 
HETATM   17  C29 UNL     1      38.685 -20.603  25.140  1.00  0.00     0.002 C 
ENDROOT
BRANCH  16  18
HETATM   18  C24 UNL     1      38.589 -18.691  26.898  1.00  0.00     0.049 C 
BRANCH  18  19
HETATM   19  C25 UNL     1      39.278 -18.179  28.078  1.00  0.00     0.284 C 
BRANCH  19  20
HETATM   20  N1  UNL     1      38.146 -17.434  28.806  1.00  0.00    -0.066 N 
HETATM   21  C26 UNL     1      37.022 -17.315  27.928  1.00  0.00     0.267 C 
ATOM     22  H12 UNL     1      37.900 -17.875  29.693  1.00  0.00     0.277 HD
ATOM     23  H11 UNL     1      38.449 -16.532  29.173  1.00  0.00     0.277 HD
ENDBRANCH  19  20
BRANCH  19  24
HETATM   24  C27 UNL     1      39.768 -19.048  29.134  1.00  0.00     0.289 C 
HETATM   25  O5  UNL     1      39.634 -18.783  30.378  1.00  0.00    -0.263 OA
BRANCH  24  26
HETATM   26  O6  UNL     1      40.428 -20.224  28.864  1.00  0.00    -0.325 OA
HETATM   27  C28 UNL     1      39.732 -21.470  29.064  1.00  0.00     0.213 C 
ENDBRANCH  24  26
ENDBRANCH  19  24
ENDBRANCH  18  19
ENDBRANCH  16  18
BRANCH  15  28
HETATM   28  C20 UNL     1      38.342 -17.314  24.495  1.00  0.00     0.125 C 
BRANCH  28  29
HETATM   29  O3  UNL     1      38.160 -16.942  23.124  1.00  0.00    -0.395 OA
ATOM     30  H3  UNL     1      38.954 -16.470  22.900  1.00  0.00     0.210 HD
ENDBRANCH  28  29
BRANCH  28  31
HETATM   31  C21 UNL     1      39.398 -16.288  24.912  1.00  0.00     0.058 C 
BRANCH  31  32
HETATM   32  C22 UNL     1      38.831 -15.144  25.685  1.00  0.00     0.166 C 
BRANCH  32  33
HETATM   33  O4  UNL     1      37.503 -14.992  25.365  1.00  0.00    -0.401 OA
ATOM     34  H4  UNL     1      37.412 -14.304  24.717  1.00  0.00     0.209 HD
ENDBRANCH  32  33
ENDBRANCH  31  32
ENDBRANCH  28  31
ENDBRANCH  15  28
BRANCH   1  35
HETATM   35  C5  UNL     1      40.773 -21.876  24.301  1.00  0.00     0.010 C 
BRANCH  35  36
HETATM   36  C4  UNL     1      41.922 -22.689  24.749  1.00  0.00     0.033 C 
BRANCH  36  37
HETATM   37  C2  UNL     1      42.368 -22.215  26.141  1.00  0.00    -0.093 C 
HETATM   38  C1  UNL     1      42.364 -23.101  27.098  1.00  0.00     0.014 C 
HETATM   39  C3  UNL     1      42.767 -20.809  26.301  1.00  0.00     0.042 C 
ENDBRANCH  36  37
ENDBRANCH  35  36
ENDBRANCH   1  35
BRANCH  11  40
HETATM   40  C16 UNL     1      35.073 -18.949  22.025  1.00  0.00     0.256 C 
HETATM   41  F1  UNL     1      35.177 -17.842  22.860  1.00  0.00    -0.253 F 
ENDBRANCH  11  40
TORSDOF 14
ENDMDL
MODEL 3
REMARK VINA RESULT: -6.573129944      1.606      2.338
REMARK  14 active torsions:
REMARK  status: ('A' for Active; 'I' for Inactive)
REMARK    1  A    between atoms: C2_2  and  C4_4 
REMARK    2  A    between atoms: C4_4  and  C5_5 
REMARK    3  A    between atoms: C5_5  and  C6_6 
REMARK    4  A    between atoms: C15_16  and  C16_17 
REMARK    5  A    between atoms: C19_22  and  C20_23 
REMARK    6  A    between atoms: C20_23  and  O3_24 
REMARK    7  A    between atoms: C20_23  and  C21_26 
REMARK    8  A    between atoms: C21_26  and  C22_27 
REMARK    9  A    between atoms: C22_27  and  O4_28 
REMARK   10  A    between atoms: C23_30  and  C24_31 
REMARK   11  A    between atoms: C24_31  and  C25_32 
REMARK   12  A    between atoms: C25_32  and  N1_33 
REMARK   13  A    between atoms: C25_32  and  C27_37 
REMARK   14  A    between atoms: C27_37  and  O6_39 
ROOT
HETATM    1  C6  UNL     1      39.485 -21.773  25.010  1.00  0.00    -0.002 C 
HETATM    2  C7  UNL     1      38.661 -23.050  24.527  1.00  0.00     0.009 C 
HETATM    3  C8  UNL     1      38.474 -24.014  25.664  1.00  0.00     0.014 C 
HETATM    4  C9  UNL     1      37.541 -22.580  23.906  1.00  0.00    -0.010 C 
HETATM    5  C10 UNL     1      36.227 -22.875  23.416  1.00  0.00    -0.004 C 
HETATM    6  C11 UNL     1      35.501 -23.917  23.190  1.00  0.00    -0.014 C 
HETATM    7  C12 UNL     1      34.194 -23.492  22.667  1.00  0.00     0.033 C 
HETATM    8  C13 UNL     1      34.105 -21.992  23.025  1.00  0.00     0.078 C 
HETATM    9  C14 UNL     1      35.502 -21.563  23.065  1.00  0.00     0.193 C 
HETATM   10  O1  UNL     1      36.043 -21.024  21.917  1.00  0.00    -0.341 OA
HETATM   11  C15 UNL     1      36.385 -19.690  22.190  1.00  0.00     0.183 C 
HETATM   12  C17 UNL     1      36.743 -19.726  23.685  1.00  0.00     0.162 C 
HETATM   13  O2  UNL     1      35.842 -20.638  24.090  1.00  0.00    -0.342 OA
HETATM   14  C18 UNL     1      38.187 -19.796  23.966  1.00  0.00     0.029 C 
HETATM   15  C19 UNL     1      38.965 -18.621  24.424  1.00  0.00     0.026 C 
HETATM   16  C23 UNL     1      39.269 -19.333  25.761  1.00  0.00    -0.000 C 
HETATM   17  C29 UNL     1      38.676 -20.562  25.141  1.00  0.00     0.002 C 
ENDROOT
BRANCH  16  18
HETATM   18  C24 UNL     1      38.574 -18.642  26.891  1.00  0.00     0.049 C 
BRANCH  18  19
HETATM   19  C25 UNL     1      39.252 -18.165  28.091  1.00  0.00     0.284 C 
BRANCH  19  20
HETATM   20  N1  UNL     1      38.142 -17.355  28.780  1.00  0.00    -0.066 N 
HETATM   21  C26 UNL     1      36.984 -17.334  27.938  1.00  0.00     0.267 C 
ATOM     22  H12 UNL     1      37.934 -17.701  29.717  1.00  0.00     0.277 HD
ATOM     23  H11 UNL     1      38.450 -16.417  29.039  1.00  0.00     0.277 HD
ENDBRANCH  19  20
BRANCH  19  24
HETATM   24  C27 UNL     1      39.658 -19.056  29.164  1.00  0.00     0.289 C 
HETATM   25  O5  UNL     1      39.625 -18.725  30.400  1.00  0.00    -0.263 OA
BRANCH  24  26
HETATM   26  O6  UNL     1      40.123 -20.328  28.921  1.00  0.00    -0.325 OA
HETATM   27  C28 UNL     1      41.512 -20.504  28.584  1.00  0.00     0.213 C 
ENDBRANCH  24  26
ENDBRANCH  19  24
ENDBRANCH  18  19
ENDBRANCH  16  18
BRANCH  15  28
HETATM   28  C20 UNL     1      38.334 -17.276  24.481  1.00  0.00     0.125 C 
BRANCH  28  29
HETATM   29  O3  UNL     1      38.172 -16.902  23.107  1.00  0.00    -0.395 OA
ATOM     30  H3  UNL     1      38.936 -16.370  22.917  1.00  0.00     0.210 HD
ENDBRANCH  28  29
BRANCH  28  31
HETATM   31  C21 UNL     1      39.384 -16.250  24.915  1.00  0.00     0.058 C 
BRANCH  31  32
HETATM   32  C22 UNL     1      38.817 -15.147  25.745  1.00  0.00     0.166 C 
BRANCH  32  33
HETATM   33  O4  UNL     1      37.496 -14.958  25.412  1.00  0.00    -0.401 OA
ATOM     34  H4  UNL     1      37.385 -14.090  25.044  1.00  0.00     0.209 HD
ENDBRANCH  32  33
ENDBRANCH  31  32
ENDBRANCH  28  31
ENDBRANCH  15  28
BRANCH   1  35
HETATM   35  C5  UNL     1      40.768 -21.837  24.315  1.00  0.00     0.010 C 
BRANCH  35  36
HETATM   36  C4  UNL     1      40.943 -22.376  22.951  1.00  0.00     0.033 C 
BRANCH  36  37
HETATM   37  C2  UNL     1      40.671 -21.264  21.926  1.00  0.00    -0.093 C 
HETATM   38  C1  UNL     1      39.733 -21.484  21.048  1.00  0.00     0.014 C 
HETATM   39  C3  UNL     1      41.477 -20.037  22.003  1.00  0.00     0.042 C 
ENDBRANCH  36  37
ENDBRANCH  35  36
ENDBRANCH   1  35
BRANCH  11  40
HETATM   40  C16 UNL     1      35.073 -18.924  22.008  1.00  0.00     0.256 C 
HETATM   41  F1  UNL     1      35.165 -17.824  22.854  1.00  0.00    -0.253 F 
ENDBRANCH  11  40
TORSDOF 14
ENDMDL
MODEL 4
REMARK VINA RESULT: -6.543520291      2.986      5.944
REMARK  14 active torsions:
REMARK  status: ('A' for Active; 'I' for Inactive)
REMARK    1  A    between atoms: C2_2  and  C4_4 
REMARK    2  A    between atoms: C4_4  and  C5_5 
REMARK    3  A    between atoms: C5_5  and  C6_6 
REMARK    4  A    between atoms: C15_16  and  C16_17 
REMARK    5  A    between atoms: C19_22  and  C20_23 
REMARK    6  A    between atoms: C20_23  and  O3_24 
REMARK    7  A    between atoms: C20_23  and  C21_26 
REMARK    8  A    between atoms: C21_26  and  C22_27 
REMARK    9  A    between atoms: C22_27  and  O4_28 
REMARK   10  A    between atoms: C23_30  and  C24_31 
REMARK   11  A    between atoms: C24_31  and  C25_32 
REMARK   12  A    between atoms: C25_32  and  N1_33 
REMARK   13  A    between atoms: C25_32  and  C27_37 
REMARK   14  A    between atoms: C27_37  and  O6_39 
ROOT
HETATM    1  C6  UNL     1      37.773 -22.045  25.364  1.00  0.00    -0.002 C 
HETATM    2  C7  UNL     1      37.972 -23.627  25.329  1.00  0.00     0.009 C 
HETATM    3  C8  UNL     1      38.292 -24.083  23.933  1.00  0.00     0.014 C 
HETATM    4  C9  UNL     1      38.864 -23.930  26.314  1.00  0.00    -0.010 C 
HETATM    5  C10 UNL     1      39.766 -24.902  26.858  1.00  0.00    -0.004 C 
HETATM    6  C11 UNL     1      40.038 -26.152  26.697  1.00  0.00    -0.014 C 
HETATM    7  C12 UNL     1      41.120 -26.534  27.616  1.00  0.00     0.033 C 
HETATM    8  C13 UNL     1      41.747 -25.191  28.053  1.00  0.00     0.078 C 
HETATM    9  C14 UNL     1      40.643 -24.242  27.939  1.00  0.00     0.193 C 
HETATM   10  O1  UNL     1      39.886 -23.996  29.065  1.00  0.00    -0.341 OA
HETATM   11  C15 UNL     1      40.053 -22.644  29.407  1.00  0.00     0.183 C 
HETATM   12  C17 UNL     1      40.280 -21.971  28.042  1.00  0.00     0.162 C 
HETATM   13  O2  UNL     1      40.977 -22.952  27.443  1.00  0.00    -0.342 OA
HETATM   14  C18 UNL     1      39.084 -21.327  27.473  1.00  0.00     0.029 C 
HETATM   15  C19 UNL     1      38.889 -19.858  27.490  1.00  0.00     0.026 C 
HETATM   16  C23 UNL     1      38.918 -19.828  25.946  1.00  0.00    -0.000 C 
HETATM   17  C29 UNL     1      38.874 -21.325  26.002  1.00  0.00     0.002 C 
ENDROOT
BRANCH  16  18
HETATM   18  C24 UNL     1      40.143 -19.122  25.459  1.00  0.00     0.049 C 
BRANCH  18  19
HETATM   19  C25 UNL     1      40.142 -18.142  24.379  1.00  0.00     0.284 C 
BRANCH  19  20
HETATM   20  N1  UNL     1      38.896 -18.556  23.578  1.00  0.00    -0.066 N 
HETATM   21  C26 UNL     1      39.294 -18.956  22.263  1.00  0.00     0.267 C 
ATOM     22  H12 UNL     1      38.351 -19.277  24.054  1.00  0.00     0.277 HD
ATOM     23  H11 UNL     1      38.184 -17.825  23.563  1.00  0.00     0.277 HD
ENDBRANCH  19  20
BRANCH  19  24
HETATM   24  C27 UNL     1      39.877 -16.733  24.604  1.00  0.00     0.289 C 
HETATM   25  O5  UNL     1      40.774 -15.902  24.979  1.00  0.00    -0.263 OA
BRANCH  24  26
HETATM   26  O6  UNL     1      38.623 -16.189  24.439  1.00  0.00    -0.325 OA
HETATM   27  C28 UNL     1      38.006 -15.524  25.557  1.00  0.00     0.213 C 
ENDBRANCH  24  26
ENDBRANCH  19  24
ENDBRANCH  18  19
ENDBRANCH  16  18
BRANCH  15  28
HETATM   28  C20 UNL     1      39.842 -18.980  28.220  1.00  0.00     0.125 C 
BRANCH  28  29
HETATM   29  O3  UNL     1      39.654 -19.323  29.598  1.00  0.00    -0.395 OA
ATOM     30  H3  UNL     1      40.053 -18.605  30.076  1.00  0.00     0.210 HD
ENDBRANCH  28  29
BRANCH  28  31
HETATM   31  C21 UNL     1      39.299 -17.549  28.225  1.00  0.00     0.058 C 
BRANCH  31  32
HETATM   32  C22 UNL     1      37.970 -17.429  28.892  1.00  0.00     0.166 C 
BRANCH  32  33
HETATM   33  O4  UNL     1      38.151 -17.113  30.217  1.00  0.00    -0.401 OA
ATOM     34  H4  UNL     1      37.574 -16.396  30.453  1.00  0.00     0.209 HD
ENDBRANCH  32  33
ENDBRANCH  31  32
ENDBRANCH  28  31
ENDBRANCH  15  28
BRANCH   1  35
HETATM   35  C5  UNL     1      36.360 -21.824  25.662  1.00  0.00     0.010 C 
BRANCH  35  36
HETATM   36  C4  UNL     1      35.538 -20.768  25.037  1.00  0.00     0.033 C 
BRANCH  36  37
HETATM   37  C2  UNL     1      35.383 -21.065  23.537  1.00  0.00    -0.093 C 
HETATM   38  C1  UNL     1      35.665 -20.097  22.710  1.00  0.00     0.014 C 
HETATM   39  C3  UNL     1      34.933 -22.406  23.138  1.00  0.00     0.042 C 
ENDBRANCH  36  37
ENDBRANCH  35  36
ENDBRANCH   1  35
BRANCH  11  40
HETATM   40  C16 UNL     1      41.361 -22.618  30.200  1.00  0.00     0.256 C 
HETATM   41  F1  UNL     1      41.938 -21.384  29.924  1.00  0.00    -0.253 F 
ENDBRANCH  11  40
TORSDOF 14
ENDMDL
MODEL 5
REMARK VINA RESULT: -6.462460493      3.053      6.081
REMARK  14 active torsions:
REMARK  status: ('A' for Active; 'I' for Inactive)
REMARK    1  A    between atoms: C2_2  and  C4_4 
REMARK    2  A    between atoms: C4_4  and  C5_5 
REMARK    3  A    between atoms: C5_5  and  C6_6 
REMARK    4  A    between atoms: C15_16  and  C16_17 
REMARK    5  A    between atoms: C19_22  and  C20_23 
REMARK    6  A    between atoms: C20_23  and  O3_24 
REMARK    7  A    between atoms: C20_23  and  C21_26 
REMARK    8  A    between atoms: C21_26  and  C22_27 
REMARK    9  A    between atoms: C22_27  and  O4_28 
REMARK   10  A    between atoms: C23_30  and  C24_31 
REMARK   11  A    between atoms: C24_31  and  C25_32 
REMARK   12  A    between atoms: C25_32  and  N1_33 
REMARK   13  A    between atoms: C25_32  and  C27_37 
REMARK   14  A    between atoms: C27_37  and  O6_39 
ROOT
HETATM    1  C6  UNL     1      37.839 -21.641  25.365  1.00  0.00    -0.002 C 
HETATM    2  C7  UNL     1      38.244 -23.184  25.395  1.00  0.00     0.009 C 
HETATM    3  C8  UNL     1      38.680 -23.637  24.030  1.00  0.00     0.014 C 
HETATM    4  C9  UNL     1      39.126 -23.335  26.424  1.00  0.00    -0.010 C 
HETATM    5  C10 UNL     1      40.123 -24.162  27.037  1.00  0.00    -0.004 C 
HETATM    6  C11 UNL     1      40.563 -25.370  26.932  1.00  0.00    -0.014 C 
HETATM    7  C12 UNL     1      41.646 -25.577  27.905  1.00  0.00     0.033 C 
HETATM    8  C13 UNL     1      42.072 -24.150  28.316  1.00  0.00     0.078 C 
HETATM    9  C14 UNL     1      40.859 -23.359  28.126  1.00  0.00     0.193 C 
HETATM   10  O1  UNL     1      40.029 -23.180  29.213  1.00  0.00    -0.341 OA
HETATM   11  C15 UNL     1      40.004 -21.808  29.511  1.00  0.00     0.183 C 
HETATM   12  C17 UNL     1      40.199 -21.154  28.133  1.00  0.00     0.162 C 
HETATM   13  O2  UNL     1      41.042 -22.052  27.596  1.00  0.00    -0.342 OA
HETATM   14  C18 UNL     1      38.954 -20.691  27.495  1.00  0.00     0.029 C 
HETATM   15  C19 UNL     1      38.568 -19.262  27.452  1.00  0.00     0.026 C 
HETATM   16  C23 UNL     1      38.658 -19.276  25.910  1.00  0.00    -0.000 C 
HETATM   17  C29 UNL     1      38.808 -20.763  26.019  1.00  0.00     0.002 C 
ENDROOT
BRANCH  16  18
HETATM   18  C24 UNL     1      39.800 -18.430  25.445  1.00  0.00     0.049 C 
BRANCH  18  19
HETATM   19  C25 UNL     1      39.785 -17.649  24.212  1.00  0.00     0.284 C 
BRANCH  19  20
HETATM   20  N1  UNL     1      38.590 -18.264  23.464  1.00  0.00    -0.066 N 
HETATM   21  C26 UNL     1      39.075 -19.033  22.358  1.00  0.00     0.267 C 
ATOM     22  H12 UNL     1      37.986 -18.809  24.080  1.00  0.00     0.277 HD
ATOM     23  H11 UNL     1      37.908 -17.561  23.179  1.00  0.00     0.277 HD
ENDBRANCH  19  20
BRANCH  19  24
HETATM   24  C27 UNL     1      39.438 -16.239  24.186  1.00  0.00     0.289 C 
HETATM   25  O5  UNL     1      39.239 -15.547  25.243  1.00  0.00    -0.263 OA
BRANCH  24  26
HETATM   26  O6  UNL     1      39.288 -15.546  23.008  1.00  0.00    -0.325 OA
HETATM   27  C28 UNL     1      40.378 -15.538  22.066  1.00  0.00     0.213 C 
ENDBRANCH  24  26
ENDBRANCH  19  24
ENDBRANCH  18  19
ENDBRANCH  16  18
BRANCH  15  28
HETATM   28  C20 UNL     1      39.366 -18.243  28.185  1.00  0.00     0.125 C 
BRANCH  28  29
HETATM   29  O3  UNL     1      39.266 -18.637  29.559  1.00  0.00    -0.395 OA
ATOM     30  H3  UNL     1      39.460 -17.844  30.046  1.00  0.00     0.210 HD
ENDBRANCH  28  29
BRANCH  28  31
HETATM   31  C21 UNL     1      38.582 -16.929  28.226  1.00  0.00     0.058 C 
BRANCH  31  32
HETATM   32  C22 UNL     1      37.110 -17.120  28.067  1.00  0.00     0.166 C 
BRANCH  32  33
HETATM   33  O4  UNL     1      36.534 -17.275  29.305  1.00  0.00    -0.401 OA
ATOM     34  H4  UNL     1      35.592 -17.179  29.229  1.00  0.00     0.209 HD
ENDBRANCH  32  33
ENDBRANCH  31  32
ENDBRANCH  28  31
ENDBRANCH  15  28
BRANCH   1  35
HETATM   35  C5  UNL     1      36.398 -21.600  25.601  1.00  0.00     0.010 C 
BRANCH  35  36
HETATM   36  C4  UNL     1      35.472 -20.680  24.911  1.00  0.00     0.033 C 
BRANCH  36  37
HETATM   37  C2  UNL     1      35.326 -21.111  23.443  1.00  0.00    -0.093 C 
HETATM   38  C1  UNL     1      35.463 -20.184  22.537  1.00  0.00     0.014 C 
HETATM   39  C3  UNL     1      35.046 -22.527  23.161  1.00  0.00     0.042 C 
ENDBRANCH  36  37
ENDBRANCH  35  36
ENDBRANCH   1  35
BRANCH  11  40
HETATM   40  C16 UNL     1      41.262 -21.585  30.353  1.00  0.00     0.256 C 
HETATM   41  F1  UNL     1      40.805 -21.278  31.629  1.00  0.00    -0.253 F 
ENDBRANCH  11  40
TORSDOF 14
ENDMDL
