MODEL 1
REMARK VINA RESULT: -7.318352489      0.000      0.000
REMARK  10 active torsions:
REMARK  status: ('A' for Active; 'I' for Inactive)
REMARK    1  A    between atoms: O1_2  and  C2_3 
REMARK    2  A    between atoms: C2_3  and  C3_4 
REMARK    3  A    between atoms: C3_4  and  N1_6 
REMARK    4  A    between atoms: N1_6  and  C5_8 
REMARK    5  A    between atoms: C5_8  and  C6_9 
REMARK    6  A    between atoms: C8_13  and  C9_14 
REMARK    7  A    between atoms: N4_19  and  C12_21 
REMARK    8  A    between atoms: C19_32  and  O4_33 
REMARK    9  A    between atoms: O4_33  and  C20_34 
REMARK   10  A    between atoms: C20_34  and  C21_35 
ROOT
HETATM    1  C6  UNL     1      37.524 -19.112  25.467  1.00  0.00     0.010 A 
HETATM    2  C7  UNL     1      37.423 -20.446  25.174  1.00  0.00     0.100 A 
HETATM    3  N2  UNL     1      38.186 -21.120  26.057  1.00  0.00    -0.362 N 
ATOM      4  H2  UNL     1      38.316 -22.130  26.098  1.00  0.00     0.165 HD
HETATM    5  C8  UNL     1      38.760 -20.187  26.893  1.00  0.00     0.078 A 
HETATM    6  C19 UNL     1      38.368 -18.970  26.531  1.00  0.00     0.105 A 
ENDROOT
BRANCH   5   7
HETATM    7  C9  UNL     1      39.733 -20.669  27.857  1.00  0.00     0.011 A 
HETATM    8  C10 UNL     1      40.971 -19.995  27.897  1.00  0.00     0.103 A 
HETATM    9  N3  UNL     1      41.986 -20.408  28.583  1.00  0.00    -0.350 N 
HETATM   10  C11 UNL     1      41.968 -21.511  29.349  1.00  0.00     0.123 A 
ATOM     11  H3  UNL     1      42.848 -19.867  28.539  1.00  0.00     0.166 HD
HETATM   12  N4  UNL     1      42.918 -21.986  29.973  1.00  0.00    -0.370 N 
HETATM   13  C17 UNL     1      40.752 -22.218  29.349  1.00  0.00     0.078 A 
ATOM     14  H4  UNL     1      42.703 -22.826  30.512  1.00  0.00     0.161 HD
HETATM   15 CL1  UNL     1      40.627 -23.722  30.236  1.00  0.00    -0.080 Cl
HETATM   16  C18 UNL     1      39.658 -21.790  28.602  1.00  0.00     0.043 A 
BRANCH  12  17
HETATM   17  C12 UNL     1      44.288 -21.540  30.059  1.00  0.00     0.084 C 
HETATM   18  C13 UNL     1      44.628 -21.114  31.431  1.00  0.00     0.040 C 
HETATM   19  C14 UNL     1      45.749 -21.889  32.057  1.00  0.00     0.142 C 
HETATM   20  S1  UNL     1      47.122 -21.907  30.922  1.00  0.00     0.144 S 
HETATM   21  O2  UNL     1      47.506 -20.505  30.611  1.00  0.00    -0.228 OA
HETATM   22  O3  UNL     1      48.257 -22.739  31.445  1.00  0.00    -0.228 OA
HETATM   23  C15 UNL     1      46.492 -22.599  29.392  1.00  0.00     0.142 C 
HETATM   24  C16 UNL     1      45.040 -22.786  29.571  1.00  0.00     0.040 C 
ENDBRANCH  12  17
ENDBRANCH   5   7
BRANCH   6  25
HETATM   25  O4  UNL     1      38.631 -17.714  26.965  1.00  0.00    -0.347 OA
BRANCH  25  26
HETATM   26  C20 UNL     1      38.410 -17.094  28.187  1.00  0.00     0.191 C 
BRANCH  26  27
HETATM   27  C21 UNL     1      37.088 -16.332  27.966  1.00  0.00     0.072 C 
HETATM   28  C22 UNL     1      36.785 -15.421  29.111  1.00  0.00     0.027 C 
HETATM   29  C23 UNL     1      36.191 -14.406  28.224  1.00  0.00     0.075 C 
HETATM   30  S2  UNL     1      37.478 -14.766  27.006  1.00  0.00    -0.162 SA
ENDBRANCH  26  27
ENDBRANCH  25  26
ENDBRANCH   6  25
BRANCH   1  31
HETATM   31  C5  UNL     1      36.824 -17.988  24.617  1.00  0.00     0.157 C 
BRANCH  31  32
HETATM   32  N1  UNL     1      37.938 -17.236  24.273  1.00  0.00    -0.411 N 
ATOM     33  H1  UNL     1      38.059 -16.380  24.815  1.00  0.00     0.153 HD
BRANCH  32  34
HETATM   34  C3  UNL     1      38.894 -17.454  23.333  1.00  0.00     0.096 C 
HETATM   35  C4  UNL     1      40.222 -16.795  23.888  1.00  0.00     0.034 C 
BRANCH  34  36
HETATM   36  C2  UNL     1      38.713 -16.944  21.982  1.00  0.00     0.191 C 
BRANCH  36  37
HETATM   37  O1  UNL     1      39.197 -15.617  21.803  1.00  0.00    -0.394 OA
HETATM   38  C1  UNL     1      39.675 -15.515  20.486  1.00  0.00     0.201 C 
ENDBRANCH  36  37
ENDBRANCH  34  36
ENDBRANCH  32  34
ENDBRANCH  31  32
ENDBRANCH   1  31
TORSDOF 10
ENDMDL
MODEL 2
REMARK VINA RESULT: -7.315151978      6.230      8.630
REMARK  10 active torsions:
REMARK  status: ('A' for Active; 'I' for Inactive)
REMARK    1  A    between atoms: O1_2  and  C2_3 
REMARK    2  A    between atoms: C2_3  and  C3_4 
REMARK    3  A    between atoms: C3_4  and  N1_6 
REMARK    4  A    between atoms: N1_6  and  C5_8 
REMARK    5  A    between atoms: C5_8  and  C6_9 
REMARK    6  A    between atoms: C8_13  and  C9_14 
REMARK    7  A    between atoms: N4_19  and  C12_21 
REMARK    8  A    between atoms: C19_32  and  O4_33 
REMARK    9  A    between atoms: O4_33  and  C20_34 
REMARK   10  A    between atoms: C20_34  and  C21_35 
ROOT
HETATM    1  C6  UNL     1      37.956 -16.621  27.144  1.00  0.00     0.010 A 
HETATM    2  C7  UNL     1      37.440 -17.357  28.177  1.00  0.00     0.100 A 
HETATM    3  N2  UNL     1      37.029 -18.539  27.677  1.00  0.00    -0.362 N 
ATOM      4  H2  UNL     1      36.601 -19.302  28.201  1.00  0.00     0.165 HD
HETATM    5  C8  UNL     1      37.294 -18.522  26.325  1.00  0.00     0.078 A 
HETATM    6  C19 UNL     1      37.846 -17.358  25.999  1.00  0.00     0.105 A 
ENDROOT
BRANCH   5   7
HETATM    7  C9  UNL     1      36.819 -19.647  25.542  1.00  0.00     0.011 A 
HETATM    8  C10 UNL     1      36.692 -20.879  26.215  1.00  0.00     0.103 A 
HETATM    9  N3  UNL     1      36.437 -21.997  25.617  1.00  0.00    -0.350 N 
HETATM   10  C11 UNL     1      36.244 -22.105  24.292  1.00  0.00     0.123 A 
ATOM     11  H3  UNL     1      36.380 -22.843  26.182  1.00  0.00     0.166 HD
HETATM   12  N4  UNL     1      36.061 -23.147  23.661  1.00  0.00    -0.370 N 
HETATM   13  C17 UNL     1      36.354 -20.902  23.573  1.00  0.00     0.078 A 
ATOM     14  H4  UNL     1      35.920 -23.024  22.657  1.00  0.00     0.161 HD
HETATM   15 CL1  UNL     1      36.214 -20.922  21.828  1.00  0.00    -0.080 Cl
HETATM   16  C18 UNL     1      36.643 -19.696  24.205  1.00  0.00     0.043 A 
BRANCH  12  17
HETATM   17  C12 UNL     1      36.016 -24.515  24.119  1.00  0.00     0.084 C 
HETATM   18  C13 UNL     1      34.641 -25.049  24.078  1.00  0.00     0.040 C 
HETATM   19  C14 UNL     1      34.472 -26.249  23.194  1.00  0.00     0.142 C 
HETATM   20  S1  UNL     1      35.722 -27.444  23.625  1.00  0.00     0.144 S 
HETATM   21  O2  UNL     1      35.589 -27.779  25.067  1.00  0.00    -0.228 OA
HETATM   22  O3  UNL     1      35.671 -28.643  22.722  1.00  0.00    -0.228 OA
HETATM   23  C15 UNL     1      37.295 -26.600  23.454  1.00  0.00     0.142 C 
HETATM   24  C16 UNL     1      36.995 -25.189  23.147  1.00  0.00     0.040 C 
ENDBRANCH  12  17
ENDBRANCH   5   7
BRANCH   6  25
HETATM   25  O4  UNL     1      38.273 -16.794  24.843  1.00  0.00    -0.347 OA
BRANCH  25  26
HETATM   26  C20 UNL     1      39.518 -16.781  24.228  1.00  0.00     0.191 C 
BRANCH  26  27
HETATM   27  C21 UNL     1      39.289 -15.900  22.983  1.00  0.00     0.072 C 
HETATM   28  C22 UNL     1      40.532 -15.785  22.161  1.00  0.00     0.027 C 
HETATM   29  C23 UNL     1      39.770 -15.770  20.901  1.00  0.00     0.075 C 
HETATM   30  S2  UNL     1      38.649 -17.003  21.605  1.00  0.00    -0.162 SA
ENDBRANCH  26  27
ENDBRANCH  25  26
ENDBRANCH   6  25
BRANCH   1  31
HETATM   31  C5  UNL     1      38.485 -15.150  27.314  1.00  0.00     0.157 C 
BRANCH  31  32
HETATM   32  N1  UNL     1      37.464 -14.630  28.097  1.00  0.00    -0.411 N 
ATOM     33  H1  UNL     1      37.686 -14.549  29.089  1.00  0.00     0.153 HD
BRANCH  32  34
HETATM   34  C3  UNL     1      36.217 -14.213  27.757  1.00  0.00     0.096 C 
HETATM   35  C4  UNL     1      36.409 -12.924  26.859  1.00  0.00     0.034 C 
BRANCH  34  36
HETATM   36  C2  UNL     1      35.264 -13.855  28.795  1.00  0.00     0.191 C 
BRANCH  36  37
HETATM   37  O1  UNL     1      34.447 -14.940  29.220  1.00  0.00    -0.394 OA
HETATM   38  C1  UNL     1      33.427 -14.412  30.030  1.00  0.00     0.201 C 
ENDBRANCH  36  37
ENDBRANCH  34  36
ENDBRANCH  32  34
ENDBRANCH  31  32
ENDBRANCH   1  31
TORSDOF 10
ENDMDL
MODEL 3
REMARK VINA RESULT: -7.280950349      0.966      1.360
REMARK  10 active torsions:
REMARK  status: ('A' for Active; 'I' for Inactive)
REMARK    1  A    between atoms: O1_2  and  C2_3 
REMARK    2  A    between atoms: C2_3  and  C3_4 
REMARK    3  A    between atoms: C3_4  and  N1_6 
REMARK    4  A    between atoms: N1_6  and  C5_8 
REMARK    5  A    between atoms: C5_8  and  C6_9 
REMARK    6  A    between atoms: C8_13  and  C9_14 
REMARK    7  A    between atoms: N4_19  and  C12_21 
REMARK    8  A    between atoms: C19_32  and  O4_33 
REMARK    9  A    between atoms: O4_33  and  C20_34 
REMARK   10  A    between atoms: C20_34  and  C21_35 
ROOT
HETATM    1  C6  UNL     1      37.418 -19.188  25.624  1.00  0.00     0.010 A 
HETATM    2  C7  UNL     1      37.221 -20.527  25.414  1.00  0.00     0.100 A 
HETATM    3  N2  UNL     1      38.003 -21.200  26.279  1.00  0.00    -0.362 N 
ATOM      4  H2  UNL     1      38.077 -22.213  26.367  1.00  0.00     0.165 HD
HETATM    5  C8  UNL     1      38.687 -20.263  27.022  1.00  0.00     0.078 A 
HETATM    6  C19 UNL     1      38.342 -19.044  26.620  1.00  0.00     0.105 A 
ENDROOT
BRANCH   5   7
HETATM    7  C9  UNL     1      39.696 -20.753  27.944  1.00  0.00     0.011 A 
HETATM    8  C10 UNL     1      40.927 -20.066  27.959  1.00  0.00     0.103 A 
HETATM    9  N3  UNL     1      41.967 -20.482  28.603  1.00  0.00    -0.350 N 
HETATM   10  C11 UNL     1      41.986 -21.601  29.346  1.00  0.00     0.123 A 
ATOM     11  H3  UNL     1      42.822 -19.929  28.544  1.00  0.00     0.166 HD
HETATM   12  N4  UNL     1      42.961 -22.077  29.929  1.00  0.00    -0.370 N 
HETATM   13  C17 UNL     1      40.779 -22.322  29.369  1.00  0.00     0.078 A 
ATOM     14  H4  UNL     1      42.774 -22.931  30.456  1.00  0.00     0.161 HD
HETATM   15 CL1  UNL     1      40.699 -23.846  30.227  1.00  0.00    -0.080 Cl
HETATM   16  C18 UNL     1      39.658 -21.891  28.666  1.00  0.00     0.043 A 
BRANCH  12  17
HETATM   17  C12 UNL     1      44.328 -21.617  29.982  1.00  0.00     0.084 C 
HETATM   18  C13 UNL     1      44.709 -21.223  31.352  1.00  0.00     0.040 C 
HETATM   19  C14 UNL     1      45.860 -22.001  31.920  1.00  0.00     0.142 C 
HETATM   20  S1  UNL     1      47.194 -21.971  30.739  1.00  0.00     0.144 S 
HETATM   21  O2  UNL     1      47.551 -20.557  30.453  1.00  0.00    -0.228 OA
HETATM   22  O3  UNL     1      48.355 -22.803  31.201  1.00  0.00    -0.228 OA
HETATM   23  C15 UNL     1      46.520 -22.631  29.213  1.00  0.00     0.142 C 
HETATM   24  C16 UNL     1      45.078 -22.840  29.435  1.00  0.00     0.040 C 
ENDBRANCH  12  17
ENDBRANCH   5   7
BRANCH   6  25
HETATM   25  O4  UNL     1      38.707 -17.786  26.964  1.00  0.00    -0.347 OA
BRANCH  25  26
HETATM   26  C20 UNL     1      38.586 -17.083  28.156  1.00  0.00     0.191 C 
BRANCH  26  27
HETATM   27  C21 UNL     1      37.246 -16.336  27.992  1.00  0.00     0.072 C 
HETATM   28  C22 UNL     1      37.024 -15.366  29.107  1.00  0.00     0.027 C 
HETATM   29  C23 UNL     1      36.360 -14.400  28.214  1.00  0.00     0.075 C 
HETATM   30  S2  UNL     1      37.556 -14.823  26.925  1.00  0.00    -0.162 SA
ENDBRANCH  26  27
ENDBRANCH  25  26
ENDBRANCH   6  25
BRANCH   1  31
HETATM   31  C5  UNL     1      36.727 -18.069  24.762  1.00  0.00     0.157 C 
BRANCH  31  32
HETATM   32  N1  UNL     1      37.856 -17.448  24.247  1.00  0.00    -0.411 N 
ATOM     33  H1  UNL     1      38.358 -16.858  24.910  1.00  0.00     0.153 HD
BRANCH  32  34
HETATM   34  C3  UNL     1      38.402 -17.499  23.004  1.00  0.00     0.096 C 
HETATM   35  C4  UNL     1      37.316 -18.170  22.070  1.00  0.00     0.034 C 
BRANCH  34  36
HETATM   36  C2  UNL     1      39.642 -18.228  22.786  1.00  0.00     0.191 C 
BRANCH  36  37
HETATM   37  O1  UNL     1      40.463 -18.320  23.945  1.00  0.00    -0.394 OA
HETATM   38  C1  UNL     1      40.899 -19.651  24.051  1.00  0.00     0.201 C 
ENDBRANCH  36  37
ENDBRANCH  34  36
ENDBRANCH  32  34
ENDBRANCH  31  32
ENDBRANCH   1  31
TORSDOF 10
ENDMDL
MODEL 4
REMARK VINA RESULT: -7.190131927      0.976      1.215
REMARK  10 active torsions:
REMARK  status: ('A' for Active; 'I' for Inactive)
REMARK    1  A    between atoms: O1_2  and  C2_3 
REMARK    2  A    between atoms: C2_3  and  C3_4 
REMARK    3  A    between atoms: C3_4  and  N1_6 
REMARK    4  A    between atoms: N1_6  and  C5_8 
REMARK    5  A    between atoms: C5_8  and  C6_9 
REMARK    6  A    between atoms: C8_13  and  C9_14 
REMARK    7  A    between atoms: N4_19  and  C12_21 
REMARK    8  A    between atoms: C19_32  and  O4_33 
REMARK    9  A    between atoms: O4_33  and  C20_34 
REMARK   10  A    between atoms: C20_34  and  C21_35 
ROOT
HETATM    1  C6  UNL     1      37.395 -19.156  25.589  1.00  0.00     0.010 A 
HETATM    2  C7  UNL     1      37.109 -20.491  25.477  1.00  0.00     0.100 A 
HETATM    3  N2  UNL     1      37.885 -21.154  26.355  1.00  0.00    -0.362 N 
ATOM      4  H2  UNL     1      37.901 -22.162  26.509  1.00  0.00     0.165 HD
HETATM    5  C8  UNL     1      38.654 -20.215  27.007  1.00  0.00     0.078 A 
HETATM    6  C19 UNL     1      38.367 -19.006  26.537  1.00  0.00     0.105 A 
ENDROOT
BRANCH   5   7
HETATM    7  C9  UNL     1      39.669 -20.708  27.921  1.00  0.00     0.011 A 
HETATM    8  C10 UNL     1      40.914 -20.045  27.901  1.00  0.00     0.103 A 
HETATM    9  N3  UNL     1      41.958 -20.469  28.535  1.00  0.00    -0.350 N 
HETATM   10  C11 UNL     1      41.967 -21.573  29.300  1.00  0.00     0.123 A 
ATOM     11  H3  UNL     1      42.822 -19.935  28.450  1.00  0.00     0.166 HD
HETATM   12  N4  UNL     1      42.943 -22.057  29.876  1.00  0.00    -0.370 N 
HETATM   13  C17 UNL     1      40.747 -22.268  29.359  1.00  0.00     0.078 A 
ATOM     14  H4  UNL     1      42.747 -22.896  30.424  1.00  0.00     0.161 HD
HETATM   15 CL1  UNL     1      40.651 -23.772  30.250  1.00  0.00    -0.080 Cl
HETATM   16  C18 UNL     1      39.621 -21.829  28.668  1.00  0.00     0.043 A 
BRANCH  12  17
HETATM   17  C12 UNL     1      44.319 -21.624  29.895  1.00  0.00     0.084 C 
HETATM   18  C13 UNL     1      44.717 -21.161  31.238  1.00  0.00     0.040 C 
HETATM   19  C14 UNL     1      45.855 -21.929  31.844  1.00  0.00     0.142 C 
HETATM   20  S1  UNL     1      47.182 -21.996  30.657  1.00  0.00     0.144 S 
HETATM   21  O2  UNL     1      47.567 -20.609  30.288  1.00  0.00    -0.228 OA
HETATM   22  O3  UNL     1      48.328 -22.825  31.160  1.00  0.00    -0.228 OA
HETATM   23  C15 UNL     1      46.485 -22.727  29.175  1.00  0.00     0.142 C 
HETATM   24  C16 UNL     1      45.039 -22.893  29.416  1.00  0.00     0.040 C 
ENDBRANCH  12  17
ENDBRANCH   5   7
BRANCH   6  25
HETATM   25  O4  UNL     1      38.822 -17.753  26.782  1.00  0.00    -0.347 OA
BRANCH  25  26
HETATM   26  C20 UNL     1      38.801 -16.972  27.929  1.00  0.00     0.191 C 
BRANCH  26  27
HETATM   27  C21 UNL     1      37.399 -16.331  27.898  1.00  0.00     0.072 C 
HETATM   28  C22 UNL     1      37.199 -15.402  29.051  1.00  0.00     0.027 C 
HETATM   29  C23 UNL     1      36.388 -14.476  28.241  1.00  0.00     0.075 C 
HETATM   30  S2  UNL     1      37.497 -14.779  26.845  1.00  0.00    -0.162 SA
ENDBRANCH  26  27
ENDBRANCH  25  26
ENDBRANCH   6  25
BRANCH   1  31
HETATM   31  C5  UNL     1      36.737 -18.054  24.680  1.00  0.00     0.157 C 
BRANCH  31  32
HETATM   32  N1  UNL     1      37.862 -17.631  23.985  1.00  0.00    -0.411 N 
ATOM     33  H1  UNL     1      38.402 -16.903  24.451  1.00  0.00     0.153 HD
BRANCH  32  34
HETATM   34  C3  UNL     1      38.359 -18.029  22.786  1.00  0.00     0.096 C 
HETATM   35  C4  UNL     1      38.898 -16.723  22.073  1.00  0.00     0.034 C 
BRANCH  34  36
HETATM   36  C2  UNL     1      37.493 -18.696  21.826  1.00  0.00     0.191 C 
BRANCH  36  37
HETATM   37  O1  UNL     1      36.706 -17.801  21.048  1.00  0.00    -0.394 OA
HETATM   38  C1  UNL     1      35.360 -18.170  21.208  1.00  0.00     0.201 C 
ENDBRANCH  36  37
ENDBRANCH  34  36
ENDBRANCH  32  34
ENDBRANCH  31  32
ENDBRANCH   1  31
TORSDOF 10
ENDMDL
MODEL 5
REMARK VINA RESULT: -7.188179286      1.652      2.321
REMARK  10 active torsions:
REMARK  status: ('A' for Active; 'I' for Inactive)
REMARK    1  A    between atoms: O1_2  and  C2_3 
REMARK    2  A    between atoms: C2_3  and  C3_4 
REMARK    3  A    between atoms: C3_4  and  N1_6 
REMARK    4  A    between atoms: N1_6  and  C5_8 
REMARK    5  A    between atoms: C5_8  and  C6_9 
REMARK    6  A    between atoms: C8_13  and  C9_14 
REMARK    7  A    between atoms: N4_19  and  C12_21 
REMARK    8  A    between atoms: C19_32  and  O4_33 
REMARK    9  A    between atoms: O4_33  and  C20_34 
REMARK   10  A    between atoms: C20_34  and  C21_35 
ROOT
HETATM    1  C6  UNL     1      37.401 -19.326  25.627  1.00  0.00     0.010 A 
HETATM    2  C7  UNL     1      37.062 -20.652  25.592  1.00  0.00     0.100 A 
HETATM    3  N2  UNL     1      37.836 -21.299  26.484  1.00  0.00    -0.362 N 
ATOM      4  H2  UNL     1      37.818 -22.298  26.690  1.00  0.00     0.165 HD
HETATM    5  C8  UNL     1      38.656 -20.359  27.068  1.00  0.00     0.078 A 
HETATM    6  C19 UNL     1      38.402 -19.165  26.543  1.00  0.00     0.105 A 
ENDROOT
BRANCH   5   7
HETATM    7  C9  UNL     1      39.676 -20.843  27.981  1.00  0.00     0.011 A 
HETATM    8  C10 UNL     1      40.904 -20.148  27.984  1.00  0.00     0.103 A 
HETATM    9  N3  UNL     1      41.952 -20.558  28.619  1.00  0.00    -0.350 N 
HETATM   10  C11 UNL     1      41.984 -21.675  29.364  1.00  0.00     0.123 A 
ATOM     11  H3  UNL     1      42.803 -20.001  28.552  1.00  0.00     0.166 HD
HETATM   12  N4  UNL     1      42.967 -22.146  29.938  1.00  0.00    -0.370 N 
HETATM   13  C17 UNL     1      40.781 -22.403  29.398  1.00  0.00     0.078 A 
ATOM     14  H4  UNL     1      42.788 -22.999  30.469  1.00  0.00     0.161 HD
HETATM   15 CL1  UNL     1      40.717 -23.925  30.260  1.00  0.00    -0.080 Cl
HETATM   16  C18 UNL     1      39.651 -21.979  28.706  1.00  0.00     0.043 A 
BRANCH  12  17
HETATM   17  C12 UNL     1      44.332 -21.678  29.978  1.00  0.00     0.084 C 
HETATM   18  C13 UNL     1      44.707 -21.235  31.334  1.00  0.00     0.040 C 
HETATM   19  C14 UNL     1      45.860 -21.987  31.932  1.00  0.00     0.142 C 
HETATM   20  S1  UNL     1      47.197 -21.994  30.754  1.00  0.00     0.144 S 
HETATM   21  O2  UNL     1      47.549 -20.589  30.418  1.00  0.00    -0.228 OA
HETATM   22  O3  UNL     1      48.361 -22.804  31.248  1.00  0.00    -0.228 OA
HETATM   23  C15 UNL     1      46.530 -22.710  29.251  1.00  0.00     0.142 C 
HETATM   24  C16 UNL     1      45.087 -22.918  29.477  1.00  0.00     0.040 C 
ENDBRANCH  12  17
ENDBRANCH   5   7
BRANCH   6  25
HETATM   25  O4  UNL     1      38.909 -17.920  26.710  1.00  0.00    -0.347 OA
BRANCH  25  26
HETATM   26  C20 UNL     1      38.970 -17.090  27.822  1.00  0.00     0.191 C 
BRANCH  26  27
HETATM   27  C21 UNL     1      37.543 -16.512  27.911  1.00  0.00     0.072 C 
HETATM   28  C22 UNL     1      37.399 -15.593  29.081  1.00  0.00     0.027 C 
HETATM   29  C23 UNL     1      36.483 -14.704  28.347  1.00  0.00     0.075 C 
HETATM   30  S2  UNL     1      37.484 -14.956  26.862  1.00  0.00    -0.162 SA
ENDBRANCH  26  27
ENDBRANCH  25  26
ENDBRANCH   6  25
BRANCH   1  31
HETATM   31  C5  UNL     1      36.761 -18.247  24.678  1.00  0.00     0.157 C 
BRANCH  31  32
HETATM   32  N1  UNL     1      37.205 -18.728  23.455  1.00  0.00    -0.411 N 
ATOM     33  H1  UNL     1      38.213 -18.870  23.393  1.00  0.00     0.153 HD
BRANCH  32  34
HETATM   34  C3  UNL     1      36.516 -19.040  22.327  1.00  0.00     0.096 C 
HETATM   35  C4  UNL     1      35.214 -18.141  22.338  1.00  0.00     0.034 C 
BRANCH  34  36
HETATM   36  C2  UNL     1      36.071 -20.408  22.103  1.00  0.00     0.191 C 
BRANCH  36  37
HETATM   37  O1  UNL     1      34.827 -20.713  22.723  1.00  0.00    -0.394 OA
HETATM   38  C1  UNL     1      34.795 -22.099  22.951  1.00  0.00     0.201 C 
ENDBRANCH  36  37
ENDBRANCH  34  36
ENDBRANCH  32  34
ENDBRANCH  31  32
ENDBRANCH   1  31
TORSDOF 10
ENDMDL
