MODEL 1
REMARK VINA RESULT: -7.764074941      0.000      0.000
REMARK  14 active torsions:
REMARK  status: ('A' for Active; 'I' for Inactive)
REMARK    1  A    between atoms: C2_2  and  N1_4 
REMARK    2  A    between atoms: C4_6  and  N2_7 
REMARK    3  A    between atoms: C4_6  and  S1_34 
REMARK    4  A    between atoms: N2_7  and  C5_9 
REMARK    5  A    between atoms: C5_9  and  C6_11 
REMARK    6  A    between atoms: C6_11  and  O1_12 
REMARK    7  A    between atoms: C6_11  and  C7_14 
REMARK    8  A    between atoms: C7_14  and  N3_15 
REMARK    9  A    between atoms: C7_14  and  C14_28 
REMARK       I    between atoms: N3_15  and  C8_17 
REMARK       I    between atoms: C8_17  and  N4_19 
REMARK   10  A    between atoms: N4_19  and  C9_21 
REMARK   11  A    between atoms: C14_28  and  C15_30 
REMARK   12  A    between atoms: S1_34  and  O6_37 
REMARK   13  A    between atoms: O6_37  and  C19_38 
REMARK   14  A    between atoms: C19_38  and  C20_39 
ROOT
HETATM    1  C6  UNL     1      39.907 -20.127  25.490  1.00  0.00     0.202 C 
ENDROOT
BRANCH   1   2
HETATM    2  C5  UNL     1      40.607 -21.128  26.383  1.00  0.00     0.302 C 
HETATM    3  F1  UNL     1      41.191 -22.132  25.655  1.00  0.00    -0.224 F 
BRANCH   2   4
HETATM    4  N2  UNL     1      41.599 -20.554  27.241  1.00  0.00    -0.333 N 
ATOM      5  H2  UNL     1      42.202 -19.845  26.822  1.00  0.00     0.164 HD
BRANCH   4   6
HETATM    6  C4  UNL     1      41.837 -20.852  28.594  1.00  0.00     0.225 C 
HETATM    7  N1  UNL     1      43.024 -21.099  28.985  1.00  0.00    -0.361 N 
ATOM      8  H1  UNL     1      43.743 -21.059  28.263  1.00  0.00     0.162 HD
BRANCH   7   9
HETATM    9  C2  UNL     1      43.483 -21.422  30.293  1.00  0.00     0.075 C 
HETATM   10  C1  UNL     1      44.807 -20.756  30.605  1.00  0.00     0.032 C 
HETATM   11  C3  UNL     1      43.718 -22.919  30.380  1.00  0.00     0.032 C 
ENDBRANCH   7   9
BRANCH   6  12
HETATM   12  S1  UNL     1      40.507 -20.887  29.714  1.00  0.00     0.330 S 
HETATM   13  O4  UNL     1      39.579 -19.701  29.485  1.00  0.00    -0.190 OA
HETATM   14  O5  UNL     1      40.893 -20.838  31.138  1.00  0.00    -0.190 OA
BRANCH  12  15
HETATM   15  O6  UNL     1      39.558 -22.274  29.463  1.00  0.00    -0.269 OA
BRANCH  15  16
HETATM   16  C19 UNL     1      40.077 -23.344  30.190  1.00  0.00     0.195 C 
BRANCH  16  17
HETATM   17  C20 UNL     1      39.964 -24.640  29.418  1.00  0.00     0.011 C 
HETATM   18  C21 UNL     1      40.709 -25.700  30.181  1.00  0.00     0.007 C 
HETATM   19  C22 UNL     1      41.139 -26.869  29.343  1.00  0.00     0.000 C 
HETATM   20  C23 UNL     1      41.751 -26.459  28.029  1.00  0.00     0.000 C 
HETATM   21  C24 UNL     1      41.844 -24.954  27.893  1.00  0.00     0.000 C 
HETATM   22  C25 UNL     1      40.431 -24.420  28.020  1.00  0.00     0.007 C 
ENDBRANCH  16  17
ENDBRANCH  15  16
ENDBRANCH  12  15
ENDBRANCH   6  12
ENDBRANCH   4   6
ENDBRANCH   2   4
ENDBRANCH   1   2
BRANCH   1  23
HETATM   23  O1  UNL     1      40.610 -18.889  25.647  1.00  0.00    -0.388 OA
ATOM     24  H1  UNL     1      40.003 -18.290  26.065  1.00  0.00     0.210 HD
ENDBRANCH   1  23
BRANCH   1  25
HETATM   25  C7  UNL     1      38.510 -19.803  25.935  1.00  0.00     0.190 C 
BRANCH  25  26
HETATM   26  N3  UNL     1      38.601 -18.795  26.988  1.00  0.00    -0.329 N 
HETATM   27  C8  UNL     1      37.749 -17.617  26.987  1.00  0.00     0.321 C 
HETATM   28  O2  UNL     1      36.962 -17.576  26.017  1.00  0.00    -0.247 OA
HETATM   29  N4  UNL     1      37.880 -16.687  28.018  1.00  0.00    -0.308 N 
ATOM     30  H4  UNL     1      38.584 -16.868  28.734  1.00  0.00     0.170 HD
ATOM     31  H3  UNL     1      39.278 -18.920  27.741  1.00  0.00     0.165 HD
BRANCH  29  32
HETATM   32  C9  UNL     1      37.100 -15.505  28.141  1.00  0.00     0.051 A 
HETATM   33  C10 UNL     1      35.861 -15.599  28.814  1.00  0.00     0.032 A 
HETATM   34  C11 UNL     1      35.064 -14.503  28.943  1.00  0.00     0.019 A 
HETATM   35  C12 UNL     1      35.453 -13.291  28.422  1.00  0.00     0.088 A 
HETATM   36  N5  UNL     1      36.628 -13.222  27.790  1.00  0.00    -0.373 N 
HETATM   37  C13 UNL     1      37.465 -14.291  27.631  1.00  0.00     0.117 A 
ATOM     38  H5  UNL     1      36.915 -12.323  27.405  1.00  0.00     0.164 HD
ENDBRANCH  29  32
ENDBRANCH  25  26
BRANCH  25  39
HETATM   39  C14 UNL     1      37.647 -20.915  26.290  1.00  0.00     0.159 C 
HETATM   40  O3  UNL     1      37.295 -20.974  27.485  1.00  0.00    -0.295 OA
BRANCH  39  41
HETATM   41  C15 UNL     1      37.129 -21.979  25.420  1.00  0.00     0.012 C 
HETATM   42  C16 UNL     1      37.737 -23.338  25.762  1.00  0.00     0.022 C 
HETATM   43  C17 UNL     1      37.219 -21.775  23.955  1.00  0.00     0.022 C 
HETATM   44  C18 UNL     1      35.616 -22.129  25.720  1.00  0.00     0.022 C 
ENDBRANCH  39  41
ENDBRANCH  25  39
ENDBRANCH   1  25
TORSDOF 14
ENDMDL
MODEL 2
REMARK VINA RESULT: -7.617059492      2.800      9.242
REMARK  14 active torsions:
REMARK  status: ('A' for Active; 'I' for Inactive)
REMARK    1  A    between atoms: C2_2  and  N1_4 
REMARK    2  A    between atoms: C4_6  and  N2_7 
REMARK    3  A    between atoms: C4_6  and  S1_34 
REMARK    4  A    between atoms: N2_7  and  C5_9 
REMARK    5  A    between atoms: C5_9  and  C6_11 
REMARK    6  A    between atoms: C6_11  and  O1_12 
REMARK    7  A    between atoms: C6_11  and  C7_14 
REMARK    8  A    between atoms: C7_14  and  N3_15 
REMARK    9  A    between atoms: C7_14  and  C14_28 
REMARK       I    between atoms: N3_15  and  C8_17 
REMARK       I    between atoms: C8_17  and  N4_19 
REMARK   10  A    between atoms: N4_19  and  C9_21 
REMARK   11  A    between atoms: C14_28  and  C15_30 
REMARK   12  A    between atoms: S1_34  and  O6_37 
REMARK   13  A    between atoms: O6_37  and  C19_38 
REMARK   14  A    between atoms: C19_38  and  C20_39 
ROOT
HETATM    1  C6  UNL     1      41.451 -22.435  30.262  1.00  0.00     0.202 C 
ENDROOT
BRANCH   1   2
HETATM    2  C5  UNL     1      40.357 -22.645  29.239  1.00  0.00     0.302 C 
HETATM    3  F1  UNL     1      39.827 -23.907  29.318  1.00  0.00    -0.224 F 
BRANCH   2   4
HETATM    4  N2  UNL     1      39.288 -21.698  29.321  1.00  0.00    -0.333 N 
ATOM      5  H2  UNL     1      38.750 -21.700  30.188  1.00  0.00     0.164 HD
BRANCH   4   6
HETATM    6  C4  UNL     1      38.894 -20.764  28.346  1.00  0.00     0.225 C 
HETATM    7  N1  UNL     1      38.364 -21.171  27.261  1.00  0.00    -0.361 N 
ATOM      8  H1  UNL     1      38.259 -22.182  27.174  1.00  0.00     0.162 HD
BRANCH   7   9
HETATM    9  C2  UNL     1      37.900 -20.407  26.155  1.00  0.00     0.075 C 
HETATM   10  C1  UNL     1      36.455 -20.717  25.823  1.00  0.00     0.032 C 
HETATM   11  C3  UNL     1      38.715 -20.769  24.926  1.00  0.00     0.032 C 
ENDBRANCH   7   9
BRANCH   6  12
HETATM   12  S1  UNL     1      39.140 -19.066  28.632  1.00  0.00     0.330 S 
HETATM   13  O4  UNL     1      39.991 -18.451  27.528  1.00  0.00    -0.190 OA
HETATM   14  O5  UNL     1      39.818 -18.742  29.903  1.00  0.00    -0.190 OA
BRANCH  12  15
HETATM   15  O6  UNL     1      37.656 -18.238  28.589  1.00  0.00    -0.269 OA
BRANCH  15  16
HETATM   16  C19 UNL     1      37.786 -17.067  27.846  1.00  0.00     0.195 C 
BRANCH  16  17
HETATM   17  C20 UNL     1      37.323 -15.861  28.633  1.00  0.00     0.011 C 
HETATM   18  C21 UNL     1      35.835 -15.974  28.819  1.00  0.00     0.007 C 
HETATM   19  C22 UNL     1      35.153 -14.666  29.100  1.00  0.00     0.000 C 
HETATM   20  C23 UNL     1      35.615 -13.554  28.194  1.00  0.00     0.000 C 
HETATM   21  C24 UNL     1      36.619 -14.039  27.170  1.00  0.00     0.000 C 
HETATM   22  C25 UNL     1      37.783 -14.621  27.947  1.00  0.00     0.007 C 
ENDBRANCH  16  17
ENDBRANCH  15  16
ENDBRANCH  12  15
ENDBRANCH   6  12
ENDBRANCH   4   6
ENDBRANCH   2   4
ENDBRANCH   1   2
BRANCH   1  23
HETATM   23  O1  UNL     1      41.140 -21.209  30.934  1.00  0.00    -0.388 OA
ATOM     24  H1  UNL     1      40.359 -20.867  30.515  1.00  0.00     0.210 HD
ENDBRANCH   1  23
BRANCH   1  25
HETATM   25  C7  UNL     1      42.799 -22.176  29.652  1.00  0.00     0.190 C 
BRANCH  25  26
HETATM   26  N3  UNL     1      43.671 -21.659  30.704  1.00  0.00    -0.329 N 
HETATM   27  C8  UNL     1      45.101 -21.921  30.701  1.00  0.00     0.321 C 
HETATM   28  O2  UNL     1      45.476 -22.611  29.730  1.00  0.00    -0.247 OA
HETATM   29  N4  UNL     1      45.885 -21.402  31.732  1.00  0.00    -0.308 N 
ATOM     30  H4  UNL     1      45.417 -20.863  32.460  1.00  0.00     0.170 HD
ATOM     31  H3  UNL     1      43.267 -21.102  31.458  1.00  0.00     0.165 HD
BRANCH  29  32
HETATM   32  C9  UNL     1      47.293 -21.572  31.837  1.00  0.00     0.051 A 
HETATM   33  C10 UNL     1      47.785 -22.357  32.905  1.00  0.00     0.032 A 
HETATM   34  C11 UNL     1      49.124 -22.536  33.065  1.00  0.00     0.019 A 
HETATM   35  C12 UNL     1      50.016 -21.960  32.191  1.00  0.00     0.088 A 
HETATM   36  N5  UNL     1      49.532 -21.223  31.189  1.00  0.00    -0.373 N 
HETATM   37  C13 UNL     1      48.198 -21.009  30.982  1.00  0.00     0.117 A 
ATOM     38  H5  UNL     1      50.195 -20.796  30.541  1.00  0.00     0.164 HD
ENDBRANCH  29  32
ENDBRANCH  25  26
BRANCH  25  39
HETATM   39  C14 UNL     1      42.842 -21.379  28.440  1.00  0.00     0.159 C 
HETATM   40  O3  UNL     1      42.514 -20.182  28.561  1.00  0.00    -0.295 OA
BRANCH  39  41
HETATM   41  C15 UNL     1      43.228 -21.800  27.088  1.00  0.00     0.012 C 
HETATM   42  C16 UNL     1      43.137 -23.316  26.917  1.00  0.00     0.022 C 
HETATM   43  C17 UNL     1      44.541 -21.343  26.573  1.00  0.00     0.022 C 
HETATM   44  C18 UNL     1      42.180 -21.222  26.103  1.00  0.00     0.022 C 
ENDBRANCH  39  41
ENDBRANCH  25  39
ENDBRANCH   1  25
TORSDOF 14
ENDMDL
MODEL 3
REMARK VINA RESULT: -7.549152239      1.894      2.441
REMARK  14 active torsions:
REMARK  status: ('A' for Active; 'I' for Inactive)
REMARK    1  A    between atoms: C2_2  and  N1_4 
REMARK    2  A    between atoms: C4_6  and  N2_7 
REMARK    3  A    between atoms: C4_6  and  S1_34 
REMARK    4  A    between atoms: N2_7  and  C5_9 
REMARK    5  A    between atoms: C5_9  and  C6_11 
REMARK    6  A    between atoms: C6_11  and  O1_12 
REMARK    7  A    between atoms: C6_11  and  C7_14 
REMARK    8  A    between atoms: C7_14  and  N3_15 
REMARK    9  A    between atoms: C7_14  and  C14_28 
REMARK       I    between atoms: N3_15  and  C8_17 
REMARK       I    between atoms: C8_17  and  N4_19 
REMARK   10  A    between atoms: N4_19  and  C9_21 
REMARK   11  A    between atoms: C14_28  and  C15_30 
REMARK   12  A    between atoms: S1_34  and  O6_37 
REMARK   13  A    between atoms: O6_37  and  C19_38 
REMARK   14  A    between atoms: C19_38  and  C20_39 
ROOT
HETATM    1  C6  UNL     1      40.819 -20.055  28.982  1.00  0.00     0.202 C 
ENDROOT
BRANCH   1   2
HETATM    2  C5  UNL     1      41.852 -20.707  28.090  1.00  0.00     0.302 C 
HETATM    3  F1  UNL     1      41.862 -20.149  26.838  1.00  0.00    -0.224 F 
BRANCH   2   4
HETATM    4  N2  UNL     1      43.183 -20.672  28.614  1.00  0.00    -0.333 N 
ATOM      5  H2  UNL     1      43.754 -19.871  28.341  1.00  0.00     0.164 HD
BRANCH   4   6
HETATM    6  C4  UNL     1      43.796 -21.612  29.462  1.00  0.00     0.225 C 
HETATM    7  N1  UNL     1      44.601 -21.216  30.365  1.00  0.00    -0.361 N 
ATOM      8  H1  UNL     1      44.750 -20.208  30.412  1.00  0.00     0.162 HD
BRANCH   7   9
HETATM    9  C2  UNL     1      45.322 -21.988  31.318  1.00  0.00     0.075 C 
HETATM   10  C1  UNL     1      44.865 -21.705  32.734  1.00  0.00     0.032 C 
HETATM   11  C3  UNL     1      46.792 -21.611  31.252  1.00  0.00     0.032 C 
ENDBRANCH   7   9
BRANCH   6  12
HETATM   12  S1  UNL     1      43.448 -23.305  29.261  1.00  0.00     0.330 S 
HETATM   13  O4  UNL     1      43.403 -24.009  30.612  1.00  0.00    -0.190 OA
HETATM   14  O5  UNL     1      44.427 -24.047  28.443  1.00  0.00    -0.190 OA
BRANCH  12  15
HETATM   15  O6  UNL     1      41.907 -23.515  28.577  1.00  0.00    -0.269 OA
BRANCH  15  16
HETATM   16  C19 UNL     1      41.121 -24.310  29.409  1.00  0.00     0.195 C 
BRANCH  16  17
HETATM   17  C20 UNL     1      40.559 -25.500  28.663  1.00  0.00     0.011 C 
HETATM   18  C21 UNL     1      40.807 -26.728  29.494  1.00  0.00     0.007 C 
HETATM   19  C22 UNL     1      40.797 -28.009  28.710  1.00  0.00     0.000 C 
HETATM   20  C23 UNL     1      41.579 -27.920  27.426  1.00  0.00     0.000 C 
HETATM   21  C24 UNL     1      42.244 -26.571  27.260  1.00  0.00     0.000 C 
HETATM   22  C25 UNL     1      41.137 -25.536  27.291  1.00  0.00     0.007 C 
ENDBRANCH  16  17
ENDBRANCH  15  16
ENDBRANCH  12  15
ENDBRANCH   6  12
ENDBRANCH   4   6
ENDBRANCH   2   4
ENDBRANCH   1   2
BRANCH   1  23
HETATM   23  O1  UNL     1      40.228 -21.110  29.748  1.00  0.00    -0.388 OA
ATOM     24  H1  UNL     1      39.470 -20.732  30.181  1.00  0.00     0.210 HD
ENDBRANCH   1  23
BRANCH   1  25
HETATM   25  C7  UNL     1      39.659 -19.471  28.225  1.00  0.00     0.190 C 
BRANCH  25  26
HETATM   26  N3  UNL     1      39.210 -18.284  28.949  1.00  0.00    -0.329 N 
HETATM   27  C8  UNL     1      38.454 -17.233  28.286  1.00  0.00     0.321 C 
HETATM   28  O2  UNL     1      38.246 -17.460  27.076  1.00  0.00    -0.247 OA
HETATM   29  N4  UNL     1      38.050 -16.121  29.026  1.00  0.00    -0.308 N 
ATOM     30  H4  UNL     1      38.314 -16.086  30.011  1.00  0.00     0.170 HD
ATOM     31  H3  UNL     1      39.430 -18.191  29.940  1.00  0.00     0.165 HD
BRANCH  29  32
HETATM   32  C9  UNL     1      37.297 -15.036  28.503  1.00  0.00     0.051 A 
HETATM   33  C10 UNL     1      35.951 -14.907  28.914  1.00  0.00     0.032 A 
HETATM   34  C11 UNL     1      35.178 -13.897  28.429  1.00  0.00     0.019 A 
HETATM   35  C12 UNL     1      35.694 -12.990  27.535  1.00  0.00     0.088 A 
HETATM   36  N5  UNL     1      36.968 -13.127  27.159  1.00  0.00    -0.373 N 
HETATM   37  C13 UNL     1      37.788 -14.122  27.613  1.00  0.00     0.117 A 
ATOM     38  H5  UNL     1      37.350 -12.453  26.495  1.00  0.00     0.164 HD
ENDBRANCH  29  32
ENDBRANCH  25  26
BRANCH  25  39
HETATM   39  C14 UNL     1      38.572 -20.365  27.875  1.00  0.00     0.159 C 
HETATM   40  O3  UNL     1      37.685 -20.513  28.739  1.00  0.00    -0.295 OA
BRANCH  39  41
HETATM   41  C15 UNL     1      38.377 -21.116  26.628  1.00  0.00     0.012 C 
HETATM   42  C16 UNL     1      38.911 -22.544  26.735  1.00  0.00     0.022 C 
HETATM   43  C17 UNL     1      38.888 -20.513  25.374  1.00  0.00     0.022 C 
HETATM   44  C18 UNL     1      36.851 -21.273  26.413  1.00  0.00     0.022 C 
ENDBRANCH  39  41
ENDBRANCH  25  39
ENDBRANCH   1  25
TORSDOF 14
ENDMDL
MODEL 4
REMARK VINA RESULT: -7.537944295      1.604      3.568
REMARK  14 active torsions:
REMARK  status: ('A' for Active; 'I' for Inactive)
REMARK    1  A    between atoms: C2_2  and  N1_4 
REMARK    2  A    between atoms: C4_6  and  N2_7 
REMARK    3  A    between atoms: C4_6  and  S1_34 
REMARK    4  A    between atoms: N2_7  and  C5_9 
REMARK    5  A    between atoms: C5_9  and  C6_11 
REMARK    6  A    between atoms: C6_11  and  O1_12 
REMARK    7  A    between atoms: C6_11  and  C7_14 
REMARK    8  A    between atoms: C7_14  and  N3_15 
REMARK    9  A    between atoms: C7_14  and  C14_28 
REMARK       I    between atoms: N3_15  and  C8_17 
REMARK       I    between atoms: C8_17  and  N4_19 
REMARK   10  A    between atoms: N4_19  and  C9_21 
REMARK   11  A    between atoms: C14_28  and  C15_30 
REMARK   12  A    between atoms: S1_34  and  O6_37 
REMARK   13  A    between atoms: O6_37  and  C19_38 
REMARK   14  A    between atoms: C19_38  and  C20_39 
ROOT
HETATM    1  C6  UNL     1      38.508 -22.011  26.587  1.00  0.00     0.202 C 
ENDROOT
BRANCH   1   2
HETATM    2  C5  UNL     1      39.860 -21.878  25.921  1.00  0.00     0.302 C 
HETATM    3  F1  UNL     1      39.959 -20.711  25.208  1.00  0.00    -0.224 F 
BRANCH   2   4
HETATM    4  N2  UNL     1      40.967 -21.954  26.824  1.00  0.00    -0.333 N 
ATOM      5  H2  UNL     1      41.836 -21.522  26.509  1.00  0.00     0.164 HD
BRANCH   4   6
HETATM    6  C4  UNL     1      40.996 -22.554  28.096  1.00  0.00     0.225 C 
HETATM    7  N1  UNL     1      41.215 -23.805  28.198  1.00  0.00    -0.361 N 
ATOM      8  H1  UNL     1      41.361 -24.300  27.318  1.00  0.00     0.162 HD
BRANCH   7   9
HETATM    9  C2  UNL     1      41.285 -24.605  29.372  1.00  0.00     0.075 C 
HETATM   10  C1  UNL     1      42.647 -25.249  29.534  1.00  0.00     0.032 C 
HETATM   11  C3  UNL     1      40.279 -25.737  29.261  1.00  0.00     0.032 C 
ENDBRANCH   7   9
BRANCH   6  12
HETATM   12  S1  UNL     1      40.727 -21.582  29.512  1.00  0.00     0.330 S 
HETATM   13  O4  UNL     1      40.239 -22.441  30.672  1.00  0.00    -0.190 OA
HETATM   14  O5  UNL     1      39.727 -20.508  29.348  1.00  0.00    -0.190 OA
BRANCH  12  15
HETATM   15  O6  UNL     1      42.185 -20.882  30.035  1.00  0.00    -0.269 OA
BRANCH  15  16
HETATM   16  C19 UNL     1      42.837 -21.743  30.915  1.00  0.00     0.195 C 
BRANCH  16  17
HETATM   17  C20 UNL     1      44.271 -21.978  30.492  1.00  0.00     0.011 C 
HETATM   18  C21 UNL     1      45.101 -22.134  31.736  1.00  0.00     0.007 C 
HETATM   19  C22 UNL     1      46.563 -21.854  31.535  1.00  0.00     0.000 C 
HETATM   20  C23 UNL     1      46.819 -20.606  30.731  1.00  0.00     0.000 C 
HETATM   21  C24 UNL     1      45.534 -19.894  30.368  1.00  0.00     0.000 C 
HETATM   22  C25 UNL     1      44.699 -20.882  29.579  1.00  0.00     0.007 C 
ENDBRANCH  16  17
ENDBRANCH  15  16
ENDBRANCH  12  15
ENDBRANCH   6  12
ENDBRANCH   4   6
ENDBRANCH   2   4
ENDBRANCH   1   2
BRANCH   1  23
HETATM   23  O1  UNL     1      37.984 -23.280  26.179  1.00  0.00    -0.388 OA
ATOM     24  H1  UNL     1      37.295 -23.495  26.798  1.00  0.00     0.210 HD
ENDBRANCH   1  23
BRANCH   1  25
HETATM   25  C7  UNL     1      37.492 -21.027  26.080  1.00  0.00     0.190 C 
BRANCH  25  26
HETATM   26  N3  UNL     1      37.271 -20.036  27.131  1.00  0.00    -0.329 N 
HETATM   27  C8  UNL     1      37.129 -18.622  26.822  1.00  0.00     0.321 C 
HETATM   28  O2  UNL     1      37.215 -18.370  25.602  1.00  0.00    -0.247 OA
HETATM   29  N4  UNL     1      36.920 -17.721  27.867  1.00  0.00    -0.308 N 
ATOM     30  H4  UNL     1      36.885 -18.093  28.816  1.00  0.00     0.170 HD
ATOM     31  H3  UNL     1      37.215 -20.343  28.102  1.00  0.00     0.165 HD
BRANCH  29  32
HETATM   32  C9  UNL     1      36.751 -16.320  27.699  1.00  0.00     0.051 A 
HETATM   33  C10 UNL     1      35.925 -15.639  28.622  1.00  0.00     0.032 A 
HETATM   34  C11 UNL     1      35.712 -14.300  28.497  1.00  0.00     0.019 A 
HETATM   35  C12 UNL     1      36.298 -13.593  27.474  1.00  0.00     0.088 A 
HETATM   36  N5  UNL     1      37.075 -14.253  26.612  1.00  0.00    -0.373 N 
HETATM   37  C13 UNL     1      37.321 -15.595  26.691  1.00  0.00     0.117 A 
ATOM     38  H5  UNL     1      37.509 -13.726  25.854  1.00  0.00     0.164 HD
ENDBRANCH  29  32
ENDBRANCH  25  26
BRANCH  25  39
HETATM   39  C14 UNL     1      36.257 -21.561  25.537  1.00  0.00     0.159 C 
HETATM   40  O3  UNL     1      35.404 -21.922  26.372  1.00  0.00    -0.295 OA
BRANCH  39  41
HETATM   41  C15 UNL     1      35.878 -21.724  24.128  1.00  0.00     0.012 C 
HETATM   42  C16 UNL     1      34.896 -20.644  23.675  1.00  0.00     0.022 C 
HETATM   43  C17 UNL     1      35.357 -23.046  23.703  1.00  0.00     0.022 C 
HETATM   44  C18 UNL     1      37.151 -21.493  23.275  1.00  0.00     0.022 C 
ENDBRANCH  39  41
ENDBRANCH  25  39
ENDBRANCH   1  25
TORSDOF 14
ENDMDL
MODEL 5
REMARK VINA RESULT: -7.458535614      2.515      9.138
REMARK  14 active torsions:
REMARK  status: ('A' for Active; 'I' for Inactive)
REMARK    1  A    between atoms: C2_2  and  N1_4 
REMARK    2  A    between atoms: C4_6  and  N2_7 
REMARK    3  A    between atoms: C4_6  and  S1_34 
REMARK    4  A    between atoms: N2_7  and  C5_9 
REMARK    5  A    between atoms: C5_9  and  C6_11 
REMARK    6  A    between atoms: C6_11  and  O1_12 
REMARK    7  A    between atoms: C6_11  and  C7_14 
REMARK    8  A    between atoms: C7_14  and  N3_15 
REMARK    9  A    between atoms: C7_14  and  C14_28 
REMARK       I    between atoms: N3_15  and  C8_17 
REMARK       I    between atoms: C8_17  and  N4_19 
REMARK   10  A    between atoms: N4_19  and  C9_21 
REMARK   11  A    between atoms: C14_28  and  C15_30 
REMARK   12  A    between atoms: S1_34  and  O6_37 
REMARK   13  A    between atoms: O6_37  and  C19_38 
REMARK   14  A    between atoms: C19_38  and  C20_39 
ROOT
HETATM    1  C6  UNL     1      41.683 -22.053  30.432  1.00  0.00     0.202 C 
ENDROOT
BRANCH   1   2
HETATM    2  C5  UNL     1      40.924 -20.869  29.876  1.00  0.00     0.302 C 
HETATM    3  F1  UNL     1      41.665 -20.186  28.946  1.00  0.00    -0.224 F 
BRANCH   2   4
HETATM    4  N2  UNL     1      39.661 -21.204  29.293  1.00  0.00    -0.333 N 
ATOM      5  H2  UNL     1      39.257 -22.098  29.575  1.00  0.00     0.164 HD
BRANCH   4   6
HETATM    6  C4  UNL     1      38.912 -20.444  28.378  1.00  0.00     0.225 C 
HETATM    7  N1  UNL     1      38.285 -21.030  27.436  1.00  0.00    -0.361 N 
ATOM      8  H1  UNL     1      38.373 -22.046  27.414  1.00  0.00     0.162 HD
BRANCH   7   9
HETATM    9  C2  UNL     1      37.477 -20.460  26.413  1.00  0.00     0.075 C 
HETATM   10  C1  UNL     1      36.268 -21.318  26.106  1.00  0.00     0.032 C 
HETATM   11  C3  UNL     1      38.288 -20.378  25.131  1.00  0.00     0.032 C 
ENDBRANCH   7   9
BRANCH   6  12
HETATM   12  S1  UNL     1      38.855 -18.713  28.540  1.00  0.00     0.330 S 
HETATM   13  O4  UNL     1      39.738 -18.044  27.493  1.00  0.00    -0.190 OA
HETATM   14  O5  UNL     1      39.305 -18.196  29.847  1.00  0.00    -0.190 OA
BRANCH  12  15
HETATM   15  O6  UNL     1      37.280 -18.143  28.251  1.00  0.00    -0.269 OA
BRANCH  15  16
HETATM   16  C19 UNL     1      37.331 -16.941  27.548  1.00  0.00     0.195 C 
BRANCH  16  17
HETATM   17  C20 UNL     1      37.061 -15.761  28.456  1.00  0.00     0.011 C 
HETATM   18  C21 UNL     1      35.594 -15.755  28.784  1.00  0.00     0.007 C 
HETATM   19  C22 UNL     1      35.070 -14.416  29.218  1.00  0.00     0.000 C 
HETATM   20  C23 UNL     1      35.550 -13.284  28.346  1.00  0.00     0.000 C 
HETATM   21  C24 UNL     1      36.402 -13.778  27.197  1.00  0.00     0.000 C 
HETATM   22  C25 UNL     1      37.572 -14.519  27.812  1.00  0.00     0.007 C 
ENDBRANCH  16  17
ENDBRANCH  15  16
ENDBRANCH  12  15
ENDBRANCH   6  12
ENDBRANCH   4   6
ENDBRANCH   2   4
ENDBRANCH   1   2
BRANCH   1  23
HETATM   23  O1  UNL     1      42.335 -21.589  31.620  1.00  0.00    -0.388 OA
ATOM     24  H1  UNL     1      42.576 -22.366  32.112  1.00  0.00     0.210 HD
ENDBRANCH   1  23
BRANCH   1  25
HETATM   25  C7  UNL     1      42.817 -22.502  29.555  1.00  0.00     0.190 C 
BRANCH  25  26
HETATM   26  N3  UNL     1      42.553 -23.882  29.158  1.00  0.00    -0.329 N 
HETATM   27  C8  UNL     1      41.760 -24.194  27.979  1.00  0.00     0.321 C 
HETATM   28  O2  UNL     1      41.352 -23.181  27.374  1.00  0.00    -0.247 OA
HETATM   29  N4  UNL     1      41.540 -25.532  27.648  1.00  0.00    -0.308 N 
ATOM     30  H4  UNL     1      41.939 -26.244  28.260  1.00  0.00     0.170 HD
ATOM     31  H3  UNL     1      42.933 -24.644  29.720  1.00  0.00     0.165 HD
BRANCH  29  32
HETATM   32  C9  UNL     1      40.798 -25.970  26.518  1.00  0.00     0.051 A 
HETATM   33  C10 UNL     1      41.519 -26.403  25.383  1.00  0.00     0.032 A 
HETATM   34  C11 UNL     1      40.859 -26.814  24.265  1.00  0.00     0.019 A 
HETATM   35  C12 UNL     1      39.485 -26.814  24.226  1.00  0.00     0.088 A 
HETATM   36  N5  UNL     1      38.821 -26.402  25.309  1.00  0.00    -0.373 N 
HETATM   37  C13 UNL     1      39.433 -25.978  26.455  1.00  0.00     0.117 A 
ATOM     38  H5  UNL     1      37.802 -26.403  25.278  1.00  0.00     0.164 HD
ENDBRANCH  29  32
ENDBRANCH  25  26
BRANCH  25  39
HETATM   39  C14 UNL     1      44.167 -22.305  30.054  1.00  0.00     0.159 C 
HETATM   40  O3  UNL     1      44.532 -23.078  30.961  1.00  0.00    -0.295 OA
BRANCH  39  41
HETATM   41  C15 UNL     1      45.160 -21.314  29.622  1.00  0.00     0.012 C 
HETATM   42  C16 UNL     1      46.548 -21.934  29.463  1.00  0.00     0.022 C 
HETATM   43  C17 UNL     1      45.285 -20.071  30.421  1.00  0.00     0.022 C 
HETATM   44  C18 UNL     1      44.764 -20.847  28.199  1.00  0.00     0.022 C 
ENDBRANCH  39  41
ENDBRANCH  25  39
ENDBRANCH   1  25
TORSDOF 14
ENDMDL
