MODEL 1
REMARK VINA RESULT: -7.526257145      0.000      0.000
REMARK  12 active torsions:
REMARK  status: ('A' for Active; 'I' for Inactive)
REMARK    1  A    between atoms: C2_2  and  N1_4 
REMARK    2  A    between atoms: N1_4  and  C4_6 
REMARK    3  A    between atoms: C6_10  and  C7_11 
REMARK    4  A    between atoms: C7_11  and  C8_12 
REMARK    5  A    between atoms: C8_12  and  N3_13 
REMARK    6  A    between atoms: N3_13  and  C9_15 
REMARK    7  A    between atoms: C9_15  and  C10_16 
REMARK    8  A    between atoms: C13_19  and  C14_20 
REMARK    9  A    between atoms: C14_20  and  N4_21 
REMARK   10  A    between atoms: N4_21  and  C15_23 
REMARK   11  A    between atoms: C18_29  and  N7_30 
REMARK   12  A    between atoms: N7_30  and  C19_32 
ROOT
HETATM    1  C14 UNL     1      38.450 -25.988  24.891  1.00  0.00     0.126 C 
ENDROOT
BRANCH   1   2
HETATM    2  C13 UNL     1      37.561 -26.379  23.677  1.00  0.00     0.003 C 
HETATM    3  C12 UNL     1      37.844 -25.371  22.635  1.00  0.00     0.007 C 
HETATM    4  C11 UNL     1      36.721 -25.076  21.660  1.00  0.00     0.007 C 
HETATM    5  C10 UNL     1      35.456 -24.943  22.496  1.00  0.00     0.003 C 
HETATM    6  C27 UNL     1      35.112 -26.254  23.129  1.00  0.00     0.007 C 
HETATM    7  C26 UNL     1      36.185 -26.504  24.206  1.00  0.00     0.007 C 
BRANCH   5   8
HETATM    8  C9  UNL     1      34.358 -24.213  21.872  1.00  0.00     0.118 C 
BRANCH   8   9
HETATM    9  N3  UNL     1      33.801 -23.054  22.458  1.00  0.00    -0.420 N 
ATOM     10  H3  UNL     1      32.792 -22.909  22.474  1.00  0.00     0.153 HD
BRANCH   9  11
HETATM   11  C8  UNL     1      34.690 -22.090  23.026  1.00  0.00     0.119 C 
BRANCH  11  12
HETATM   12  C7  UNL     1      35.559 -21.436  22.011  1.00  0.00     0.067 C 
BRANCH  12  13
HETATM   13  C6  UNL     1      36.054 -20.111  22.458  1.00  0.00     0.003 A 
HETATM   14  C5  UNL     1      35.413 -18.972  22.851  1.00  0.00     0.105 A 
HETATM   15  N2  UNL     1      36.120 -17.940  23.194  1.00  0.00    -0.346 N 
HETATM   16  C4  UNL     1      37.448 -18.026  23.151  1.00  0.00     0.145 A 
ATOM     17  H2  UNL     1      35.666 -17.077  23.493  1.00  0.00     0.167 HD
HETATM   18  S1  UNL     1      37.713 -19.619  22.609  1.00  0.00    -0.057 SA
BRANCH  16  19
HETATM   19  N1  UNL     1      38.315 -17.086  23.463  1.00  0.00    -0.367 N 
ATOM     20  H1  UNL     1      38.026 -16.119  23.617  1.00  0.00     0.162 HD
BRANCH  19  21
HETATM   21  C2  UNL     1      39.691 -17.493  23.575  1.00  0.00     0.075 C 
HETATM   22  C1  UNL     1      40.611 -16.490  22.893  1.00  0.00     0.032 C 
HETATM   23  C3  UNL     1      40.065 -17.706  25.007  1.00  0.00     0.032 C 
ENDBRANCH  19  21
ENDBRANCH  16  19
ENDBRANCH  12  13
ENDBRANCH  11  12
ENDBRANCH   9  11
ENDBRANCH   8   9
ENDBRANCH   5   8
ENDBRANCH   1   2
BRANCH   1  24
HETATM   24  N4  UNL     1      37.681 -25.221  25.821  1.00  0.00    -0.376 N 
ATOM     25  H4  UNL     1      36.927 -25.713  26.301  1.00  0.00     0.161 HD
BRANCH  24  26
HETATM   26  C15 UNL     1      37.835 -23.986  26.118  1.00  0.00     0.118 A 
HETATM   27  C16 UNL     1      39.010 -23.620  26.773  1.00  0.00     0.068 A 
HETATM   28  C17 UNL     1      39.243 -22.313  27.130  1.00  0.00     0.139 A 
HETATM   29  N5  UNL     1      38.332 -21.338  26.855  1.00  0.00    -0.083 N 
HETATM   30  N6  UNL     1      38.309 -20.044  27.090  1.00  0.00    -0.111 N 
HETATM   31  C25 UNL     1      37.219 -21.719  26.227  1.00  0.00     0.719 A 
HETATM   32  C18 UNL     1      37.128 -19.523  26.600  1.00  0.00     0.708 A 
ATOM     33  H6  UNL     1      39.044 -19.513  27.557  1.00  0.00     0.207 HD
HETATM   34  N9  UNL     1      36.490 -20.572  26.082  1.00  0.00    -0.019 N 
ATOM     35  H9  UNL     1      35.575 -20.525  25.634  1.00  0.00     0.203 HD
HETATM   36  N10 UNL     1      36.956 -23.004  25.859  1.00  0.00    -0.175 N 
ATOM     37  H10 UNL     1      36.082 -23.223  25.380  1.00  0.00     0.186 HD
BRANCH  32  38
HETATM   38  N7  UNL     1      36.884 -18.308  26.721  1.00  0.00    -0.220 N 
ATOM     39  H7  UNL     1      36.157 -18.049  26.053  1.00  0.00     0.178 HD
BRANCH  38  40
HETATM   40  C19 UNL     1      37.246 -17.197  27.433  1.00  0.00     0.102 C 
HETATM   41  C20 UNL     1      36.634 -16.903  28.757  1.00  0.00     0.056 C 
HETATM   42  C21 UNL     1      35.894 -15.578  28.776  1.00  0.00     0.274 C 
HETATM   43  N8  UNL     1      36.790 -14.472  28.496  1.00  0.00     0.084 N 
HETATM   44  C22 UNL     1      36.027 -13.429  27.853  1.00  0.00     0.309 C 
HETATM   45  C23 UNL     1      37.848 -14.858  27.582  1.00  0.00     0.274 C 
HETATM   46  C24 UNL     1      37.215 -15.886  26.637  1.00  0.00     0.056 C 
ENDBRANCH  38  40
ENDBRANCH  32  38
ENDBRANCH  24  26
ENDBRANCH   1  24
TORSDOF 12
ENDMDL
MODEL 2
REMARK VINA RESULT: -7.422508146      2.587      5.542
REMARK  12 active torsions:
REMARK  status: ('A' for Active; 'I' for Inactive)
REMARK    1  A    between atoms: C2_2  and  N1_4 
REMARK    2  A    between atoms: N1_4  and  C4_6 
REMARK    3  A    between atoms: C6_10  and  C7_11 
REMARK    4  A    between atoms: C7_11  and  C8_12 
REMARK    5  A    between atoms: C8_12  and  N3_13 
REMARK    6  A    between atoms: N3_13  and  C9_15 
REMARK    7  A    between atoms: C9_15  and  C10_16 
REMARK    8  A    between atoms: C13_19  and  C14_20 
REMARK    9  A    between atoms: C14_20  and  N4_21 
REMARK   10  A    between atoms: N4_21  and  C15_23 
REMARK   11  A    between atoms: C18_29  and  N7_30 
REMARK   12  A    between atoms: N7_30  and  C19_32 
ROOT
HETATM    1  C14 UNL     1      34.750 -24.615  22.839  1.00  0.00     0.126 C 
ENDROOT
BRANCH   1   2
HETATM    2  C13 UNL     1      35.544 -25.920  23.129  1.00  0.00     0.003 C 
HETATM    3  C12 UNL     1      35.506 -26.093  24.596  1.00  0.00     0.007 C 
HETATM    4  C11 UNL     1      36.678 -26.826  25.219  1.00  0.00     0.007 C 
HETATM    5  C10 UNL     1      37.931 -26.251  24.572  1.00  0.00     0.003 C 
HETATM    6  C27 UNL     1      37.966 -26.591  23.117  1.00  0.00     0.007 C 
HETATM    7  C26 UNL     1      36.852 -25.758  22.455  1.00  0.00     0.007 C 
BRANCH   5   8
HETATM    8  C9  UNL     1      39.171 -26.442  25.316  1.00  0.00     0.118 C 
BRANCH   8   9
HETATM    9  N3  UNL     1      39.205 -26.433  26.729  1.00  0.00    -0.420 N 
ATOM     10  H3  UNL     1      38.347 -26.347  27.273  1.00  0.00     0.153 HD
BRANCH   9  11
HETATM   11  C8  UNL     1      40.474 -26.549  27.376  1.00  0.00     0.119 C 
BRANCH  11  12
HETATM   12  C7  UNL     1      40.367 -26.569  28.859  1.00  0.00     0.067 C 
BRANCH  12  13
HETATM   13  C6  UNL     1      40.619 -25.238  29.464  1.00  0.00     0.003 A 
HETATM   14  C5  UNL     1      41.378 -24.836  30.524  1.00  0.00     0.105 A 
HETATM   15  N2  UNL     1      41.409 -23.576  30.833  1.00  0.00    -0.346 N 
HETATM   16  C4  UNL     1      40.698 -22.717  30.105  1.00  0.00     0.145 A 
ATOM     17  H2  UNL     1      41.970 -23.249  31.620  1.00  0.00     0.167 HD
HETATM   18  S1  UNL     1      39.959 -23.718  28.942  1.00  0.00    -0.057 SA
BRANCH  16  19
HETATM   19  N1  UNL     1      40.614 -21.415  30.273  1.00  0.00    -0.367 N 
ATOM     20  H1  UNL     1      40.565 -20.995  31.202  1.00  0.00     0.162 HD
BRANCH  19  21
HETATM   21  C2  UNL     1      40.596 -20.613  29.078  1.00  0.00     0.075 C 
HETATM   22  C1  UNL     1      39.867 -19.299  29.316  1.00  0.00     0.032 C 
HETATM   23  C3  UNL     1      41.985 -20.394  28.567  1.00  0.00     0.032 C 
ENDBRANCH  19  21
ENDBRANCH  16  19
ENDBRANCH  12  13
ENDBRANCH  11  12
ENDBRANCH   9  11
ENDBRANCH   8   9
ENDBRANCH   5   8
ENDBRANCH   1   2
BRANCH   1  24
HETATM   24  N4  UNL     1      34.835 -23.742  23.969  1.00  0.00    -0.376 N 
ATOM     25  H4  UNL     1      34.595 -24.146  24.874  1.00  0.00     0.161 HD
BRANCH  24  26
HETATM   26  C15 UNL     1      35.179 -22.510  23.968  1.00  0.00     0.118 A 
HETATM   27  C16 UNL     1      34.812 -21.737  22.867  1.00  0.00     0.068 A 
HETATM   28  C17 UNL     1      35.152 -20.407  22.792  1.00  0.00     0.139 A 
HETATM   29  N5  UNL     1      35.859 -19.806  23.790  1.00  0.00    -0.083 N 
HETATM   30  N6  UNL     1      36.307 -18.581  23.955  1.00  0.00    -0.111 N 
HETATM   31  C25 UNL     1      36.195 -20.572  24.828  1.00  0.00     0.719 A 
HETATM   32  C18 UNL     1      36.977 -18.511  25.160  1.00  0.00     0.708 A 
ATOM     33  H6  UNL     1      36.180 -17.809  23.300  1.00  0.00     0.207 HD
HETATM   34  N9  UNL     1      36.888 -19.741  25.663  1.00  0.00    -0.019 N 
ATOM     35  H9  UNL     1      37.287 -20.026  26.558  1.00  0.00     0.203 HD
HETATM   36  N10 UNL     1      35.874 -21.891  24.936  1.00  0.00    -0.175 N 
ATOM     37  H10 UNL     1      36.165 -22.415  25.762  1.00  0.00     0.186 HD
BRANCH  32  38
HETATM   38  N7  UNL     1      37.498 -17.439  25.523  1.00  0.00    -0.220 N 
ATOM     39  H7  UNL     1      37.955 -17.005  24.720  1.00  0.00     0.178 HD
BRANCH  38  40
HETATM   40  C19 UNL     1      37.675 -16.638  26.618  1.00  0.00     0.102 C 
HETATM   41  C20 UNL     1      37.075 -16.994  27.932  1.00  0.00     0.056 C 
HETATM   42  C21 UNL     1      36.101 -15.942  28.432  1.00  0.00     0.274 C 
HETATM   43  N8  UNL     1      36.761 -14.666  28.627  1.00  0.00     0.084 N 
HETATM   44  C22 UNL     1      35.789 -13.621  28.407  1.00  0.00     0.309 C 
HETATM   45  C23 UNL     1      37.833 -14.465  27.672  1.00  0.00     0.274 C 
HETATM   46  C24 UNL     1      37.365 -15.153  26.384  1.00  0.00     0.056 C 
ENDBRANCH  38  40
ENDBRANCH  32  38
ENDBRANCH  24  26
ENDBRANCH   1  24
TORSDOF 12
ENDMDL
MODEL 3
REMARK VINA RESULT: -7.251635270      2.730      5.347
REMARK  12 active torsions:
REMARK  status: ('A' for Active; 'I' for Inactive)
REMARK    1  A    between atoms: C2_2  and  N1_4 
REMARK    2  A    between atoms: N1_4  and  C4_6 
REMARK    3  A    between atoms: C6_10  and  C7_11 
REMARK    4  A    between atoms: C7_11  and  C8_12 
REMARK    5  A    between atoms: C8_12  and  N3_13 
REMARK    6  A    between atoms: N3_13  and  C9_15 
REMARK    7  A    between atoms: C9_15  and  C10_16 
REMARK    8  A    between atoms: C13_19  and  C14_20 
REMARK    9  A    between atoms: C14_20  and  N4_21 
REMARK   10  A    between atoms: N4_21  and  C15_23 
REMARK   11  A    between atoms: C18_29  and  N7_30 
REMARK   12  A    between atoms: N7_30  and  C19_32 
ROOT
HETATM    1  C14 UNL     1      34.699 -23.389  21.888  1.00  0.00     0.126 C 
ENDROOT
BRANCH   1   2
HETATM    2  C13 UNL     1      35.446 -24.637  22.439  1.00  0.00     0.003 C 
HETATM    3  C12 UNL     1      34.775 -24.973  23.712  1.00  0.00     0.007 C 
HETATM    4  C11 UNL     1      35.627 -25.655  24.764  1.00  0.00     0.007 C 
HETATM    5  C10 UNL     1      36.946 -24.895  24.799  1.00  0.00     0.003 C 
HETATM    6  C27 UNL     1      37.679 -25.067  23.508  1.00  0.00     0.007 C 
HETATM    7  C26 UNL     1      36.882 -24.277  22.453  1.00  0.00     0.007 C 
BRANCH   5   8
HETATM    8  C9  UNL     1      37.731 -25.047  26.019  1.00  0.00     0.118 C 
BRANCH   8   9
HETATM    9  N3  UNL     1      39.123 -25.288  25.988  1.00  0.00    -0.420 N 
ATOM     10  H3  UNL     1      39.490 -26.203  25.731  1.00  0.00     0.153 HD
BRANCH   9  11
HETATM   11  C8  UNL     1      40.003 -24.214  26.328  1.00  0.00     0.119 C 
BRANCH  11  12
HETATM   12  C7  UNL     1      39.283 -23.020  26.846  1.00  0.00     0.067 C 
BRANCH  12  13
HETATM   13  C6  UNL     1      39.917 -22.461  28.065  1.00  0.00     0.003 A 
HETATM   14  C5  UNL     1      39.628 -21.375  28.840  1.00  0.00     0.105 A 
HETATM   15  N2  UNL     1      40.374 -21.122  29.871  1.00  0.00    -0.346 N 
HETATM   16  C4  UNL     1      41.398 -21.929  30.139  1.00  0.00     0.145 A 
ATOM     17  H2  UNL     1      40.179 -20.317  30.466  1.00  0.00     0.167 HD
HETATM   18  S1  UNL     1      41.307 -23.090  28.895  1.00  0.00    -0.057 SA
BRANCH  16  19
HETATM   19  N1  UNL     1      42.250 -21.825  31.135  1.00  0.00    -0.367 N 
ATOM     20  H1  UNL     1      41.937 -21.699  32.099  1.00  0.00     0.162 HD
BRANCH  19  21
HETATM   21  C2  UNL     1      43.647 -21.900  30.796  1.00  0.00     0.075 C 
HETATM   22  C1  UNL     1      44.022 -20.811  29.801  1.00  0.00     0.032 C 
HETATM   23  C3  UNL     1      44.495 -21.844  32.028  1.00  0.00     0.032 C 
ENDBRANCH  19  21
ENDBRANCH  16  19
ENDBRANCH  12  13
ENDBRANCH  11  12
ENDBRANCH   9  11
ENDBRANCH   8   9
ENDBRANCH   5   8
ENDBRANCH   1   2
BRANCH   1  24
HETATM   24  N4  UNL     1      34.298 -22.552  22.975  1.00  0.00    -0.376 N 
ATOM     25  H4  UNL     1      33.409 -22.782  23.421  1.00  0.00     0.161 HD
BRANCH  24  26
HETATM   26  C15 UNL     1      34.930 -21.546  23.449  1.00  0.00     0.118 A 
HETATM   27  C16 UNL     1      35.124 -20.450  22.610  1.00  0.00     0.068 A 
HETATM   28  C17 UNL     1      35.801 -19.336  23.046  1.00  0.00     0.139 A 
HETATM   29  N5  UNL     1      36.302 -19.271  24.312  1.00  0.00    -0.083 N 
HETATM   30  N6  UNL     1      36.977 -18.346  24.959  1.00  0.00    -0.111 N 
HETATM   31  C25 UNL     1      36.099 -20.334  25.091  1.00  0.00     0.719 A 
HETATM   32  C18 UNL     1      37.246 -18.802  26.235  1.00  0.00     0.708 A 
ATOM     33  H6  UNL     1      37.257 -17.441  24.581  1.00  0.00     0.207 HD
HETATM   34  N9  UNL     1      36.696 -20.015  26.278  1.00  0.00    -0.019 N 
ATOM     35  H9  UNL     1      36.717 -20.627  27.094  1.00  0.00     0.203 HD
HETATM   36  N10 UNL     1      35.433 -21.453  24.691  1.00  0.00    -0.175 N 
ATOM     37  H10 UNL     1      35.316 -22.229  25.342  1.00  0.00     0.186 HD
BRANCH  32  38
HETATM   38  N7  UNL     1      37.889 -18.091  27.030  1.00  0.00    -0.220 N 
ATOM     39  H7  UNL     1      38.811 -18.504  27.171  1.00  0.00     0.178 HD
BRANCH  38  40
HETATM   40  C19 UNL     1      37.796 -16.951  27.780  1.00  0.00     0.102 C 
HETATM   41  C20 UNL     1      36.870 -16.872  28.943  1.00  0.00     0.056 C 
HETATM   42  C21 UNL     1      35.824 -15.784  28.782  1.00  0.00     0.274 C 
HETATM   43  N8  UNL     1      36.440 -14.476  28.673  1.00  0.00     0.084 N 
HETATM   44  C22 UNL     1      35.580 -13.642  27.866  1.00  0.00     0.309 C 
HETATM   45  C23 UNL     1      37.726 -14.542  28.006  1.00  0.00     0.274 C 
HETATM   46  C24 UNL     1      37.589 -15.664  26.970  1.00  0.00     0.056 C 
ENDBRANCH  38  40
ENDBRANCH  32  38
ENDBRANCH  24  26
ENDBRANCH   1  24
TORSDOF 12
ENDMDL
MODEL 4
REMARK VINA RESULT: -7.204695041      2.992      5.533
REMARK  12 active torsions:
REMARK  status: ('A' for Active; 'I' for Inactive)
REMARK    1  A    between atoms: C2_2  and  N1_4 
REMARK    2  A    between atoms: N1_4  and  C4_6 
REMARK    3  A    between atoms: C6_10  and  C7_11 
REMARK    4  A    between atoms: C7_11  and  C8_12 
REMARK    5  A    between atoms: C8_12  and  N3_13 
REMARK    6  A    between atoms: N3_13  and  C9_15 
REMARK    7  A    between atoms: C9_15  and  C10_16 
REMARK    8  A    between atoms: C13_19  and  C14_20 
REMARK    9  A    between atoms: C14_20  and  N4_21 
REMARK   10  A    between atoms: N4_21  and  C15_23 
REMARK   11  A    between atoms: C18_29  and  N7_30 
REMARK   12  A    between atoms: N7_30  and  C19_32 
ROOT
HETATM    1  C14 UNL     1      35.302 -25.082  22.682  1.00  0.00     0.126 C 
ENDROOT
BRANCH   1   2
HETATM    2  C13 UNL     1      36.045 -26.332  23.231  1.00  0.00     0.003 C 
HETATM    3  C12 UNL     1      35.918 -26.258  24.702  1.00  0.00     0.007 C 
HETATM    4  C11 UNL     1      37.034 -26.893  25.508  1.00  0.00     0.007 C 
HETATM    5  C10 UNL     1      38.336 -26.453  24.853  1.00  0.00     0.003 C 
HETATM    6  C27 UNL     1      38.446 -27.031  23.478  1.00  0.00     0.007 C 
HETATM    7  C26 UNL     1      37.393 -26.303  22.621  1.00  0.00     0.007 C 
BRANCH   5   8
HETATM    8  C9  UNL     1      39.526 -26.536  25.692  1.00  0.00     0.118 C 
BRANCH   8   9
HETATM    9  N3  UNL     1      40.505 -25.517  25.704  1.00  0.00    -0.420 N 
ATOM     10  H3  UNL     1      41.426 -25.672  25.295  1.00  0.00     0.153 HD
BRANCH   9  11
HETATM   11  C8  UNL     1      40.170 -24.264  26.305  1.00  0.00     0.119 C 
BRANCH  11  12
HETATM   12  C7  UNL     1      39.585 -24.414  27.664  1.00  0.00     0.067 C 
BRANCH  12  13
HETATM   13  C6  UNL     1      40.195 -23.488  28.649  1.00  0.00     0.003 A 
HETATM   14  C5  UNL     1      39.898 -22.209  29.021  1.00  0.00     0.105 A 
HETATM   15  N2  UNL     1      40.622 -21.634  29.930  1.00  0.00    -0.346 N 
HETATM   16  C4  UNL     1      41.634 -22.310  30.470  1.00  0.00     0.145 A 
ATOM     17  H2  UNL     1      40.420 -20.680  30.226  1.00  0.00     0.167 HD
HETATM   18  S1  UNL     1      41.562 -23.813  29.670  1.00  0.00    -0.057 SA
BRANCH  16  19
HETATM   19  N1  UNL     1      42.465 -21.888  31.399  1.00  0.00    -0.367 N 
ATOM     20  H1  UNL     1      42.133 -21.547  32.301  1.00  0.00     0.162 HD
BRANCH  19  21
HETATM   21  C2  UNL     1      43.867 -21.931  31.073  1.00  0.00     0.075 C 
HETATM   22  C1  UNL     1      44.226 -20.838  30.076  1.00  0.00     0.032 C 
HETATM   23  C3  UNL     1      44.700 -21.849  32.313  1.00  0.00     0.032 C 
ENDBRANCH  19  21
ENDBRANCH  16  19
ENDBRANCH  12  13
ENDBRANCH  11  12
ENDBRANCH   9  11
ENDBRANCH   8   9
ENDBRANCH   5   8
ENDBRANCH   1   2
BRANCH   1  24
HETATM   24  N4  UNL     1      36.188 -23.960  22.681  1.00  0.00    -0.376 N 
ATOM     25  H4  UNL     1      36.899 -23.943  21.948  1.00  0.00     0.161 HD
BRANCH  24  26
HETATM   26  C15 UNL     1      36.189 -22.974  23.497  1.00  0.00     0.118 A 
HETATM   27  C16 UNL     1      35.355 -21.894  23.207  1.00  0.00     0.068 A 
HETATM   28  C17 UNL     1      35.307 -20.797  24.033  1.00  0.00     0.139 A 
HETATM   29  N5  UNL     1      36.072 -20.732  25.159  1.00  0.00    -0.083 N 
HETATM   30  N6  UNL     1      36.215 -19.816  26.091  1.00  0.00    -0.111 N 
HETATM   31  C25 UNL     1      36.858 -21.780  25.409  1.00  0.00     0.719 A 
HETATM   32  C18 UNL     1      37.138 -20.261  27.016  1.00  0.00     0.708 A 
ATOM     33  H6  UNL     1      35.723 -18.922  26.126  1.00  0.00     0.207 HD
HETATM   34  N9  UNL     1      37.508 -21.460  26.568  1.00  0.00    -0.019 N 
ATOM     35  H9  UNL     1      38.188 -22.062  27.031  1.00  0.00     0.203 HD
HETATM   36  N10 UNL     1      36.930 -22.883  24.613  1.00  0.00    -0.175 N 
ATOM     37  H10 UNL     1      37.555 -23.649  24.867  1.00  0.00     0.186 HD
BRANCH  32  38
HETATM   38  N7  UNL     1      37.441 -19.546  27.990  1.00  0.00    -0.220 N 
ATOM     39  H7  UNL     1      37.433 -20.119  28.835  1.00  0.00     0.178 HD
BRANCH  38  40
HETATM   40  C19 UNL     1      37.780 -18.265  28.328  1.00  0.00     0.102 C 
HETATM   41  C20 UNL     1      36.912 -17.453  29.223  1.00  0.00     0.056 C 
HETATM   42  C21 UNL     1      36.401 -16.191  28.551  1.00  0.00     0.274 C 
HETATM   43  N8  UNL     1      37.495 -15.323  28.163  1.00  0.00     0.084 N 
HETATM   44  C22 UNL     1      37.083 -14.575  26.998  1.00  0.00     0.309 C 
HETATM   45  C23 UNL     1      38.675 -16.080  27.793  1.00  0.00     0.274 C 
HETATM   46  C24 UNL     1      38.147 -17.364  27.141  1.00  0.00     0.056 C 
ENDBRANCH  38  40
ENDBRANCH  32  38
ENDBRANCH  24  26
ENDBRANCH   1  24
TORSDOF 12
ENDMDL
MODEL 5
REMARK VINA RESULT: -7.190118722      2.214      4.405
REMARK  12 active torsions:
REMARK  status: ('A' for Active; 'I' for Inactive)
REMARK    1  A    between atoms: C2_2  and  N1_4 
REMARK    2  A    between atoms: N1_4  and  C4_6 
REMARK    3  A    between atoms: C6_10  and  C7_11 
REMARK    4  A    between atoms: C7_11  and  C8_12 
REMARK    5  A    between atoms: C8_12  and  N3_13 
REMARK    6  A    between atoms: N3_13  and  C9_15 
REMARK    7  A    between atoms: C9_15  and  C10_16 
REMARK    8  A    between atoms: C13_19  and  C14_20 
REMARK    9  A    between atoms: C14_20  and  N4_21 
REMARK   10  A    between atoms: N4_21  and  C15_23 
REMARK   11  A    between atoms: C18_29  and  N7_30 
REMARK   12  A    between atoms: N7_30  and  C19_32 
ROOT
HETATM    1  C14 UNL     1      35.707 -22.837  21.514  1.00  0.00     0.126 C 
ENDROOT
BRANCH   1   2
HETATM    2  C13 UNL     1      35.195 -24.265  21.851  1.00  0.00     0.003 C 
HETATM    3  C12 UNL     1      34.532 -24.150  23.167  1.00  0.00     0.007 C 
HETATM    4  C11 UNL     1      34.537 -25.393  24.035  1.00  0.00     0.007 C 
HETATM    5  C10 UNL     1      35.949 -25.957  23.963  1.00  0.00     0.003 C 
HETATM    6  C27 UNL     1      36.250 -26.428  22.576  1.00  0.00     0.007 C 
HETATM    7  C26 UNL     1      36.365 -25.160  21.708  1.00  0.00     0.007 C 
BRANCH   5   8
HETATM    8  C9  UNL     1      36.331 -26.850  25.052  1.00  0.00     0.118 C 
BRANCH   8   9
HETATM    9  N3  UNL     1      37.406 -26.555  25.920  1.00  0.00    -0.420 N 
ATOM     10  H3  UNL     1      37.256 -26.459  26.924  1.00  0.00     0.153 HD
BRANCH   9  11
HETATM   11  C8  UNL     1      38.708 -26.393  25.353  1.00  0.00     0.119 C 
BRANCH  11  12
HETATM   12  C7  UNL     1      39.735 -26.025  26.364  1.00  0.00     0.067 C 
BRANCH  12  13
HETATM   13  C6  UNL     1      39.557 -24.645  26.877  1.00  0.00     0.003 A 
HETATM   14  C5  UNL     1      39.024 -23.517  26.324  1.00  0.00     0.105 A 
HETATM   15  N2  UNL     1      39.001 -22.425  27.024  1.00  0.00    -0.346 N 
HETATM   16  C4  UNL     1      39.500 -22.439  28.258  1.00  0.00     0.145 A 
ATOM     17  H2  UNL     1      38.608 -21.568  26.634  1.00  0.00     0.167 HD
HETATM   18  S1  UNL     1      40.019 -24.051  28.443  1.00  0.00    -0.057 SA
BRANCH  16  19
HETATM   19  N1  UNL     1      39.558 -21.433  29.103  1.00  0.00    -0.367 N 
ATOM     20  H1  UNL     1      39.118 -21.478  30.023  1.00  0.00     0.162 HD
BRANCH  19  21
HETATM   21  C2  UNL     1      40.273 -20.264  28.661  1.00  0.00     0.075 C 
HETATM   22  C1  UNL     1      39.813 -19.027  29.419  1.00  0.00     0.032 C 
HETATM   23  C3  UNL     1      41.750 -20.472  28.780  1.00  0.00     0.032 C 
ENDBRANCH  19  21
ENDBRANCH  16  19
ENDBRANCH  12  13
ENDBRANCH  11  12
ENDBRANCH   9  11
ENDBRANCH   8   9
ENDBRANCH   5   8
ENDBRANCH   1   2
BRANCH   1  24
HETATM   24  N4  UNL     1      36.987 -22.631  22.117  1.00  0.00    -0.376 N 
ATOM     25  H4  UNL     1      37.741 -23.243  21.801  1.00  0.00     0.161 HD
BRANCH  24  26
HETATM   26  C15 UNL     1      37.291 -21.765  23.008  1.00  0.00     0.118 A 
HETATM   27  C16 UNL     1      38.595 -21.271  23.011  1.00  0.00     0.068 A 
HETATM   28  C17 UNL     1      38.998 -20.344  23.943  1.00  0.00     0.139 A 
HETATM   29  N5  UNL     1      38.134 -19.881  24.890  1.00  0.00    -0.083 N 
HETATM   30  N6  UNL     1      38.266 -19.020  25.875  1.00  0.00    -0.111 N 
HETATM   31  C25 UNL     1      36.895 -20.371  24.860  1.00  0.00     0.719 A 
HETATM   32  C18 UNL     1      37.062 -18.922  26.545  1.00  0.00     0.708 A 
ATOM     33  H6  UNL     1      39.118 -18.509  26.107  1.00  0.00     0.207 HD
HETATM   34  N9  UNL     1      36.252 -19.758  25.898  1.00  0.00    -0.019 N 
ATOM     35  H9  UNL     1      35.276 -19.919  26.147  1.00  0.00     0.203 HD
HETATM   36  N10 UNL     1      36.462 -21.290  23.952  1.00  0.00    -0.175 N 
ATOM     37  H10 UNL     1      35.498 -21.621  23.989  1.00  0.00     0.186 HD
BRANCH  32  38
HETATM   38  N7  UNL     1      36.956 -18.165  27.529  1.00  0.00    -0.220 N 
ATOM     39  H7  UNL     1      36.519 -18.679  28.295  1.00  0.00     0.178 HD
BRANCH  38  40
HETATM   40  C19 UNL     1      37.217 -16.889  27.945  1.00  0.00     0.102 C 
HETATM   41  C20 UNL     1      36.570 -16.334  29.165  1.00  0.00     0.056 C 
HETATM   42  C21 UNL     1      35.721 -15.110  28.869  1.00  0.00     0.274 C 
HETATM   43  N8  UNL     1      36.525 -14.035  28.319  1.00  0.00     0.084 N 
HETATM   44  C22 UNL     1      35.683 -13.246  27.450  1.00  0.00     0.309 C 
HETATM   45  C23 UNL     1      37.619 -14.541  27.514  1.00  0.00     0.274 C 
HETATM   46  C24 UNL     1      37.084 -15.817  26.854  1.00  0.00     0.056 C 
ENDBRANCH  38  40
ENDBRANCH  32  38
ENDBRANCH  24  26
ENDBRANCH   1  24
TORSDOF 12
ENDMDL
