MODEL 1
REMARK VINA RESULT: -8.473786204      0.000      0.000
REMARK  12 active torsions:
REMARK  status: ('A' for Active; 'I' for Inactive)
REMARK    1  A    between atoms: C3_3  and  N1_4 
REMARK       I    between atoms: N1_4  and  C4_6 
REMARK    2  A    between atoms: C4_6  and  C5_8 
REMARK    3  A    between atoms: C5_8  and  N2_9 
REMARK    4  A    between atoms: N2_9  and  C6_11 
REMARK    5  A    between atoms: C7_16  and  C8_17 
REMARK    6  A    between atoms: C11_21  and  C12_22 
REMARK    7  A    between atoms: C12_22  and  N5_23 
REMARK    8  A    between atoms: N5_23  and  C13_25 
REMARK    9  A    between atoms: C13_25  and  C14_26 
REMARK   10  A    between atoms: C19_31  and  C20_32 
REMARK   11  A    between atoms: C20_32  and  O2_33 
REMARK   12  A    between atoms: C20_32  and  N6_35 
ROOT
HETATM    1  C6  UNL     1      39.478 -18.571  25.552  1.00  0.00     0.130 A 
HETATM    2  N3  UNL     1      39.724 -19.146  24.391  1.00  0.00    -0.285 N 
ATOM      3  H3  UNL     1      40.298 -18.757  23.643  1.00  0.00     0.188 HD
HETATM    4  N4  UNL     1      39.116 -20.281  24.359  1.00  0.00    -0.300 N 
ATOM      5  H4  UNL     1      39.147 -20.923  23.566  1.00  0.00     0.186 HD
HETATM    6  C7  UNL     1      38.425 -20.522  25.516  1.00  0.00     0.064 A 
HETATM    7  C11 UNL     1      38.643 -19.443  26.299  1.00  0.00     0.050 A 
ENDROOT
BRANCH   7   8
HETATM    8  C12 UNL     1      38.282 -19.196  27.688  1.00  0.00     0.100 C 
BRANCH   8   9
HETATM    9  N5  UNL     1      39.256 -19.177  28.703  1.00  0.00    -0.397 N 
ATOM     10  H5  UNL     1      39.497 -18.360  29.264  1.00  0.00     0.158 HD
BRANCH   9  11
HETATM   11  C13 UNL     1      39.882 -20.519  28.843  1.00  0.00     0.128 C 
BRANCH  11  12
HETATM   12  C14 UNL     1      41.361 -20.450  28.675  1.00  0.00     0.036 C 
HETATM   13  C15 UNL     1      41.778 -20.916  27.334  1.00  0.00     0.011 C 
HETATM   14  C16 UNL     1      43.223 -21.225  27.172  1.00  0.00     0.001 C 
HETATM   15  C17 UNL     1      44.075 -20.802  28.321  1.00  0.00     0.004 C 
HETATM   16  C18 UNL     1      43.556 -21.213  29.654  1.00  0.00     0.039 C 
HETATM   17  C19 UNL     1      42.076 -20.963  29.864  1.00  0.00    -0.024 C 
BRANCH  17  18
HETATM   18  C20 UNL     1      41.412 -22.020  30.648  1.00  0.00     0.141 C 
BRANCH  18  19
HETATM   19  O2  UNL     1      40.963 -21.633  31.806  1.00  0.00    -0.346 OA
ATOM     20  H2  UNL     1      40.019 -21.677  31.898  1.00  0.00     0.219 HD
ENDBRANCH  18  19
BRANCH  18  21
HETATM   21  N6  UNL     1      41.192 -23.357  30.349  1.00  0.00    -0.358 N 
HETATM   22  C21 UNL     1      42.327 -24.304  30.442  1.00  0.00     0.151 C 
HETATM   23  C22 UNL     1      42.490 -25.019  29.125  1.00  0.00     0.187 C 
HETATM   24  O3  UNL     1      41.256 -25.296  28.529  1.00  0.00    -0.388 OA
HETATM   25  C23 UNL     1      40.241 -25.391  29.488  1.00  0.00     0.187 C 
HETATM   26  C24 UNL     1      39.958 -23.949  29.949  1.00  0.00     0.151 C 
ENDBRANCH  18  21
ENDBRANCH  17  18
ENDBRANCH  11  12
ENDBRANCH   9  11
ENDBRANCH   8   9
ENDBRANCH   7   8
BRANCH   1  27
HETATM   27  N2  UNL     1      39.908 -17.299  26.007  1.00  0.00    -0.366 N 
ATOM     28  H2  UNL     1      40.596 -17.250  26.759  1.00  0.00     0.161 HD
BRANCH  27  29
HETATM   29  C5  UNL     1      39.412 -16.091  25.450  1.00  0.00     0.224 C 
BRANCH  29  30
HETATM   30  C4  UNL     1      38.072 -15.736  25.949  1.00  0.00     0.239 C 
HETATM   31  N1  UNL     1      37.982 -14.740  26.949  1.00  0.00    -0.323 N 
ATOM     32  H1  UNL     1      38.857 -14.340  27.285  1.00  0.00     0.169 HD
HETATM   33  O1  UNL     1      37.028 -16.275  25.519  1.00  0.00    -0.271 OA
BRANCH  31  34
HETATM   34  C3  UNL     1      36.781 -14.248  27.530  1.00  0.00     0.075 A 
HETATM   35  C2  UNL     1      36.000 -14.919  28.472  1.00  0.00     0.052 A 
HETATM   36  C1  UNL     1      36.287 -16.283  29.004  1.00  0.00     0.072 C 
HETATM   37  N8  UNL     1      34.972 -14.091  28.784  1.00  0.00    -0.299 N 
HETATM   38  N7  UNL     1      35.099 -12.990  28.094  1.00  0.00    -0.308 N 
HETATM   39  C26 UNL     1      33.946 -14.462  29.737  1.00  0.00     0.177 C 
HETATM   40  C25 UNL     1      36.175 -13.027  27.318  1.00  0.00     0.139 A 
ATOM     41  H7  UNL     1      34.454 -12.202  28.146  1.00  0.00     0.186 HD
ENDBRANCH  31  34
ENDBRANCH  29  30
ENDBRANCH  27  29
ENDBRANCH   1  27
BRANCH   6  42
HETATM   42  C8  UNL     1      37.650 -21.768  25.629  1.00  0.00     0.074 C 
HETATM   43  C9  UNL     1      36.262 -21.580  26.153  1.00  0.00     0.039 C 
HETATM   44  C10 UNL     1      38.378 -22.842  26.406  1.00  0.00     0.039 C 
HETATM   45 CL1  UNL     1      37.445 -22.459  23.979  1.00  0.00    -0.113 Cl
ENDBRANCH   6  42
TORSDOF 12
ENDMDL
MODEL 2
REMARK VINA RESULT: -8.174981112      2.156      3.871
REMARK  12 active torsions:
REMARK  status: ('A' for Active; 'I' for Inactive)
REMARK    1  A    between atoms: C3_3  and  N1_4 
REMARK       I    between atoms: N1_4  and  C4_6 
REMARK    2  A    between atoms: C4_6  and  C5_8 
REMARK    3  A    between atoms: C5_8  and  N2_9 
REMARK    4  A    between atoms: N2_9  and  C6_11 
REMARK    5  A    between atoms: C7_16  and  C8_17 
REMARK    6  A    between atoms: C11_21  and  C12_22 
REMARK    7  A    between atoms: C12_22  and  N5_23 
REMARK    8  A    between atoms: N5_23  and  C13_25 
REMARK    9  A    between atoms: C13_25  and  C14_26 
REMARK   10  A    between atoms: C19_31  and  C20_32 
REMARK   11  A    between atoms: C20_32  and  O2_33 
REMARK   12  A    between atoms: C20_32  and  N6_35 
ROOT
HETATM    1  C6  UNL     1      37.538 -21.207  27.004  1.00  0.00     0.130 A 
HETATM    2  N3  UNL     1      36.268 -21.010  26.707  1.00  0.00    -0.285 N 
ATOM      3  H3  UNL     1      35.684 -20.253  27.061  1.00  0.00     0.188 HD
HETATM    4  N4  UNL     1      35.890 -21.934  25.894  1.00  0.00    -0.300 N 
ATOM      5  H4  UNL     1      34.947 -22.007  25.511  1.00  0.00     0.186 HD
HETATM    6  C7  UNL     1      36.905 -22.805  25.605  1.00  0.00     0.064 A 
HETATM    7  C11 UNL     1      37.974 -22.361  26.301  1.00  0.00     0.050 A 
ENDROOT
BRANCH   7   8
HETATM    8  C12 UNL     1      39.363 -22.798  26.281  1.00  0.00     0.100 C 
BRANCH   8   9
HETATM    9  N5  UNL     1      39.784 -23.926  27.006  1.00  0.00    -0.397 N 
ATOM     10  H5  UNL     1      39.246 -24.379  27.746  1.00  0.00     0.158 HD
BRANCH   9  11
HETATM   11  C13 UNL     1      41.126 -24.367  26.542  1.00  0.00     0.128 C 
BRANCH  11  12
HETATM   12  C14 UNL     1      41.496 -25.689  27.120  1.00  0.00     0.036 C 
HETATM   13  C15 UNL     1      40.327 -26.365  27.724  1.00  0.00     0.011 C 
HETATM   14  C16 UNL     1      40.628 -27.506  28.628  1.00  0.00     0.001 C 
HETATM   15  C17 UNL     1      42.055 -27.943  28.612  1.00  0.00     0.004 C 
HETATM   16  C18 UNL     1      43.037 -26.834  28.754  1.00  0.00     0.039 C 
HETATM   17  C19 UNL     1      42.758 -25.623  27.888  1.00  0.00    -0.024 C 
BRANCH  17  18
HETATM   18  C20 UNL     1      43.078 -24.346  28.552  1.00  0.00     0.141 C 
BRANCH  18  19
HETATM   19  O2  UNL     1      44.301 -23.936  28.375  1.00  0.00    -0.346 OA
ATOM     20  H2  UNL     1      44.526 -23.748  27.472  1.00  0.00     0.219 HD
ENDBRANCH  18  19
BRANCH  18  21
HETATM   21  N6  UNL     1      42.288 -23.516  29.335  1.00  0.00    -0.358 N 
HETATM   22  C21 UNL     1      41.513 -24.111  30.447  1.00  0.00     0.151 C 
HETATM   23  C22 UNL     1      40.056 -23.762  30.283  1.00  0.00     0.187 C 
HETATM   24  O3  UNL     1      39.886 -22.468  29.785  1.00  0.00    -0.388 OA
HETATM   25  C23 UNL     1      40.978 -21.654  30.107  1.00  0.00     0.187 C 
HETATM   26  C24 UNL     1      42.129 -22.107  29.188  1.00  0.00     0.151 C 
ENDBRANCH  18  21
ENDBRANCH  17  18
ENDBRANCH  11  12
ENDBRANCH   9  11
ENDBRANCH   8   9
ENDBRANCH   7   8
BRANCH   1  27
HETATM   27  N2  UNL     1      38.356 -20.460  27.890  1.00  0.00    -0.366 N 
ATOM     28  H2  UNL     1      38.346 -20.689  28.883  1.00  0.00     0.161 HD
BRANCH  27  29
HETATM   29  C5  UNL     1      39.189 -19.403  27.436  1.00  0.00     0.224 C 
BRANCH  29  30
HETATM   30  C4  UNL     1      38.439 -18.173  27.129  1.00  0.00     0.239 C 
HETATM   31  N1  UNL     1      38.696 -17.028  27.918  1.00  0.00    -0.323 N 
ATOM     32  H1  UNL     1      39.373 -17.128  28.674  1.00  0.00     0.169 HD
HETATM   33  O1  UNL     1      37.601 -18.108  26.202  1.00  0.00    -0.271 OA
BRANCH  31  34
HETATM   34  C3  UNL     1      38.095 -15.750  27.754  1.00  0.00     0.075 A 
HETATM   35  C2  UNL     1      36.852 -15.367  28.259  1.00  0.00     0.052 A 
HETATM   36  C1  UNL     1      35.936 -16.251  29.036  1.00  0.00     0.072 C 
HETATM   37  N8  UNL     1      36.674 -14.068  27.907  1.00  0.00    -0.299 N 
HETATM   38  N7  UNL     1      37.721 -13.671  27.237  1.00  0.00    -0.308 N 
HETATM   39  C26 UNL     1      35.479 -13.331  28.262  1.00  0.00     0.177 C 
HETATM   40  C25 UNL     1      38.614 -14.644  27.111  1.00  0.00     0.139 A 
ATOM     41  H7  UNL     1      37.837 -12.732  26.857  1.00  0.00     0.186 HD
ENDBRANCH  31  34
ENDBRANCH  29  30
ENDBRANCH  27  29
ENDBRANCH   1  27
BRANCH   6  42
HETATM   42  C8  UNL     1      36.627 -23.940  24.710  1.00  0.00     0.074 C 
HETATM   43  C9  UNL     1      37.385 -23.903  23.420  1.00  0.00     0.039 C 
HETATM   44  C10 UNL     1      35.149 -24.140  24.460  1.00  0.00     0.039 C 
HETATM   45 CL1  UNL     1      37.160 -25.453  25.530  1.00  0.00    -0.113 Cl
ENDBRANCH   6  42
TORSDOF 12
ENDMDL
MODEL 3
REMARK VINA RESULT: -8.139463465      3.058      6.742
REMARK  12 active torsions:
REMARK  status: ('A' for Active; 'I' for Inactive)
REMARK    1  A    between atoms: C3_3  and  N1_4 
REMARK       I    between atoms: N1_4  and  C4_6 
REMARK    2  A    between atoms: C4_6  and  C5_8 
REMARK    3  A    between atoms: C5_8  and  N2_9 
REMARK    4  A    between atoms: N2_9  and  C6_11 
REMARK    5  A    between atoms: C7_16  and  C8_17 
REMARK    6  A    between atoms: C11_21  and  C12_22 
REMARK    7  A    between atoms: C12_22  and  N5_23 
REMARK    8  A    between atoms: N5_23  and  C13_25 
REMARK    9  A    between atoms: C13_25  and  C14_26 
REMARK   10  A    between atoms: C19_31  and  C20_32 
REMARK   11  A    between atoms: C20_32  and  O2_33 
REMARK   12  A    between atoms: C20_32  and  N6_35 
ROOT
HETATM    1  C6  UNL     1      40.410 -22.911  29.602  1.00  0.00     0.130 A 
HETATM    2  N3  UNL     1      41.067 -23.337  30.663  1.00  0.00    -0.285 N 
ATOM      3  H3  UNL     1      41.206 -22.813  31.528  1.00  0.00     0.188 HD
HETATM    4  N4  UNL     1      41.505 -24.524  30.426  1.00  0.00    -0.300 N 
ATOM      5  H4  UNL     1      42.047 -25.077  31.090  1.00  0.00     0.186 HD
HETATM    6  C7  UNL     1      41.154 -24.955  29.174  1.00  0.00     0.064 A 
HETATM    7  C11 UNL     1      40.449 -23.942  28.626  1.00  0.00     0.050 A 
ENDROOT
BRANCH   7   8
HETATM    8  C12 UNL     1      39.707 -23.876  27.376  1.00  0.00     0.100 C 
BRANCH   8   9
HETATM    9  N5  UNL     1      38.729 -24.836  27.056  1.00  0.00    -0.397 N 
ATOM     10  H5  UNL     1      38.094 -25.267  27.727  1.00  0.00     0.158 HD
BRANCH   9  11
HETATM   11  C13 UNL     1      38.754 -25.132  25.598  1.00  0.00     0.128 C 
BRANCH  11  12
HETATM   12  C14 UNL     1      37.526 -25.857  25.168  1.00  0.00     0.036 C 
HETATM   13  C15 UNL     1      37.846 -26.966  24.242  1.00  0.00     0.011 C 
HETATM   14  C16 UNL     1      36.700 -27.529  23.480  1.00  0.00     0.001 C 
HETATM   15  C17 UNL     1      35.363 -27.043  23.931  1.00  0.00     0.004 C 
HETATM   16  C18 UNL     1      35.267 -25.567  24.086  1.00  0.00     0.039 C 
HETATM   17  C19 UNL     1      36.430 -24.928  24.819  1.00  0.00    -0.024 C 
BRANCH  17  18
HETATM   18  C20 UNL     1      36.808 -23.611  24.274  1.00  0.00     0.141 C 
BRANCH  18  19
HETATM   19  O2  UNL     1      37.103 -23.615  23.006  1.00  0.00    -0.346 OA
ATOM     20  H2  UNL     1      36.970 -22.784  22.568  1.00  0.00     0.219 HD
ENDBRANCH  18  19
BRANCH  18  21
HETATM   21  N6  UNL     1      36.899 -22.373  24.894  1.00  0.00    -0.358 N 
HETATM   22  C21 UNL     1      37.855 -21.377  24.360  1.00  0.00     0.151 C 
HETATM   23  C22 UNL     1      38.786 -20.937  25.461  1.00  0.00     0.187 C 
HETATM   24  O3  UNL     1      38.128 -20.842  26.690  1.00  0.00    -0.388 OA
HETATM   25  C23 UNL     1      36.760 -20.601  26.514  1.00  0.00     0.187 C 
HETATM   26  C24 UNL     1      36.154 -21.932  26.028  1.00  0.00     0.151 C 
ENDBRANCH  18  21
ENDBRANCH  17  18
ENDBRANCH  11  12
ENDBRANCH   9  11
ENDBRANCH   8   9
ENDBRANCH   7   8
BRANCH   1  27
HETATM   27  N2  UNL     1      39.793 -21.650  29.402  1.00  0.00    -0.366 N 
ATOM     28  H2  UNL     1      38.775 -21.599  29.365  1.00  0.00     0.161 HD
BRANCH  27  29
HETATM   29  C5  UNL     1      40.548 -20.457  29.250  1.00  0.00     0.224 C 
BRANCH  29  30
HETATM   30  C4  UNL     1      39.754 -19.240  29.495  1.00  0.00     0.239 C 
HETATM   31  N1  UNL     1      38.982 -18.729  28.426  1.00  0.00    -0.323 N 
ATOM     32  H1  UNL     1      39.038 -19.223  27.536  1.00  0.00     0.169 HD
HETATM   33  O1  UNL     1      39.737 -18.658  30.603  1.00  0.00    -0.271 OA
BRANCH  31  34
HETATM   34  C3  UNL     1      38.135 -17.588  28.480  1.00  0.00     0.075 A 
HETATM   35  C2  UNL     1      38.377 -16.368  27.847  1.00  0.00     0.052 A 
HETATM   36  C1  UNL     1      39.584 -16.054  27.029  1.00  0.00     0.072 C 
HETATM   37  N8  UNL     1      37.315 -15.571  28.126  1.00  0.00    -0.299 N 
HETATM   38  N7  UNL     1      36.477 -16.237  28.871  1.00  0.00    -0.308 N 
HETATM   39  C26 UNL     1      37.222 -14.212  27.632  1.00  0.00     0.177 C 
HETATM   40  C25 UNL     1      36.919 -17.464  29.119  1.00  0.00     0.139 A 
ATOM     41  H7  UNL     1      35.595 -15.863  29.220  1.00  0.00     0.186 HD
ENDBRANCH  31  34
ENDBRANCH  29  30
ENDBRANCH  27  29
ENDBRANCH   1  27
BRANCH   6  42
HETATM   42  C8  UNL     1      41.604 -26.285  28.735  1.00  0.00     0.074 C 
HETATM   43  C9  UNL     1      40.559 -27.351  28.840  1.00  0.00     0.039 C 
HETATM   44  C10 UNL     1      42.887 -26.722  29.408  1.00  0.00     0.039 C 
HETATM   45 CL1  UNL     1      42.016 -26.196  26.984  1.00  0.00    -0.113 Cl
ENDBRANCH   6  42
TORSDOF 12
ENDMDL
MODEL 4
REMARK VINA RESULT: -8.111546391      2.611      6.180
REMARK  12 active torsions:
REMARK  status: ('A' for Active; 'I' for Inactive)
REMARK    1  A    between atoms: C3_3  and  N1_4 
REMARK       I    between atoms: N1_4  and  C4_6 
REMARK    2  A    between atoms: C4_6  and  C5_8 
REMARK    3  A    between atoms: C5_8  and  N2_9 
REMARK    4  A    between atoms: N2_9  and  C6_11 
REMARK    5  A    between atoms: C7_16  and  C8_17 
REMARK    6  A    between atoms: C11_21  and  C12_22 
REMARK    7  A    between atoms: C12_22  and  N5_23 
REMARK    8  A    between atoms: N5_23  and  C13_25 
REMARK    9  A    between atoms: C13_25  and  C14_26 
REMARK   10  A    between atoms: C19_31  and  C20_32 
REMARK   11  A    between atoms: C20_32  and  O2_33 
REMARK   12  A    between atoms: C20_32  and  N6_35 
ROOT
HETATM    1  C6  UNL     1      39.666 -21.845  28.487  1.00  0.00     0.130 A 
HETATM    2  N3  UNL     1      39.711 -22.348  29.706  1.00  0.00    -0.285 N 
ATOM      3  H3  UNL     1      39.507 -21.842  30.567  1.00  0.00     0.188 HD
HETATM    4  N4  UNL     1      40.058 -23.585  29.626  1.00  0.00    -0.300 N 
ATOM      5  H4  UNL     1      40.167 -24.202  30.431  1.00  0.00     0.186 HD
HETATM    6  C7  UNL     1      40.262 -23.974  28.329  1.00  0.00     0.064 A 
HETATM    7  C11 UNL     1      40.015 -22.879  27.579  1.00  0.00     0.050 A 
ENDROOT
BRANCH   7   8
HETATM    8  C12 UNL     1      39.934 -22.722  26.133  1.00  0.00     0.100 C 
BRANCH   8   9
HETATM    9  N5  UNL     1      38.875 -23.282  25.396  1.00  0.00    -0.397 N 
ATOM     10  H5  UNL     1      38.986 -23.861  24.564  1.00  0.00     0.158 HD
BRANCH   9  11
HETATM   11  C13 UNL     1      37.569 -22.909  26.004  1.00  0.00     0.128 C 
BRANCH  11  12
HETATM   12  C14 UNL     1      36.518 -22.721  24.965  1.00  0.00     0.036 C 
HETATM   13  C15 UNL     1      36.985 -23.164  23.633  1.00  0.00     0.011 C 
HETATM   14  C16 UNL     1      36.174 -22.708  22.474  1.00  0.00     0.001 C 
HETATM   15  C17 UNL     1      34.881 -22.062  22.844  1.00  0.00     0.004 C 
HETATM   16  C18 UNL     1      34.997 -21.017  23.898  1.00  0.00     0.039 C 
HETATM   17  C19 UNL     1      35.849 -21.408  25.089  1.00  0.00    -0.024 C 
BRANCH  17  18
HETATM   18  C20 UNL     1      36.647 -20.290  25.624  1.00  0.00     0.141 C 
BRANCH  18  19
HETATM   19  O2  UNL     1      36.621 -20.180  26.921  1.00  0.00    -0.346 OA
ATOM     20  H2  UNL     1      37.422 -20.444  27.356  1.00  0.00     0.219 HD
ENDBRANCH  18  19
BRANCH  18  21
HETATM   21  N6  UNL     1      37.419 -19.341  24.969  1.00  0.00    -0.358 N 
HETATM   22  C21 UNL     1      38.708 -19.758  24.374  1.00  0.00     0.151 C 
HETATM   23  C22 UNL     1      39.815 -18.894  24.925  1.00  0.00     0.187 C 
HETATM   24  O3  UNL     1      39.401 -17.572  25.103  1.00  0.00    -0.388 OA
HETATM   25  C23 UNL     1      38.350 -17.249  24.236  1.00  0.00     0.187 C 
HETATM   26  C24 UNL     1      37.104 -17.961  24.796  1.00  0.00     0.151 C 
ENDBRANCH  18  21
ENDBRANCH  17  18
ENDBRANCH  11  12
ENDBRANCH   9  11
ENDBRANCH   8   9
ENDBRANCH   7   8
BRANCH   1  27
HETATM   27  N2  UNL     1      39.369 -20.514  28.101  1.00  0.00    -0.366 N 
ATOM     28  H2  UNL     1      38.644 -20.353  27.401  1.00  0.00     0.161 HD
BRANCH  27  29
HETATM   29  C5  UNL     1      40.048 -19.397  28.657  1.00  0.00     0.224 C 
BRANCH  29  30
HETATM   30  C4  UNL     1      39.134 -18.322  29.081  1.00  0.00     0.239 C 
HETATM   31  N1  UNL     1      38.309 -17.730  28.098  1.00  0.00    -0.323 N 
ATOM     32  H1  UNL     1      38.411 -18.069  27.141  1.00  0.00     0.169 HD
HETATM   33  O1  UNL     1      39.063 -17.927  30.267  1.00  0.00    -0.271 OA
BRANCH  31  34
HETATM   34  C3  UNL     1      37.350 -16.705  28.321  1.00  0.00     0.075 A 
HETATM   35  C2  UNL     1      37.429 -15.399  27.833  1.00  0.00     0.052 A 
HETATM   36  C1  UNL     1      38.554 -14.859  27.015  1.00  0.00     0.072 C 
HETATM   37  N8  UNL     1      36.304 -14.763  28.245  1.00  0.00    -0.299 N 
HETATM   38  N7  UNL     1      35.579 -15.601  28.934  1.00  0.00    -0.308 N 
HETATM   39  C26 UNL     1      36.043 -13.374  27.925  1.00  0.00     0.177 C 
HETATM   40  C25 UNL     1      36.160 -16.791  29.014  1.00  0.00     0.139 A 
ATOM     41  H7  UNL     1      34.680 -15.370  29.358  1.00  0.00     0.186 HD
ENDBRANCH  31  34
ENDBRANCH  29  30
ENDBRANCH  27  29
ENDBRANCH   1  27
BRANCH   6  42
HETATM   42  C8  UNL     1      40.693 -25.356  28.066  1.00  0.00     0.074 C 
HETATM   43  C9  UNL     1      40.685 -26.240  29.274  1.00  0.00     0.039 C 
HETATM   44  C10 UNL     1      42.027 -25.429  27.356  1.00  0.00     0.039 C 
HETATM   45 CL1  UNL     1      39.525 -26.108  26.920  1.00  0.00    -0.113 Cl
ENDBRANCH   6  42
TORSDOF 12
ENDMDL
MODEL 5
REMARK VINA RESULT: -8.065809782      1.589      1.988
REMARK  12 active torsions:
REMARK  status: ('A' for Active; 'I' for Inactive)
REMARK    1  A    between atoms: C3_3  and  N1_4 
REMARK       I    between atoms: N1_4  and  C4_6 
REMARK    2  A    between atoms: C4_6  and  C5_8 
REMARK    3  A    between atoms: C5_8  and  N2_9 
REMARK    4  A    between atoms: N2_9  and  C6_11 
REMARK    5  A    between atoms: C7_16  and  C8_17 
REMARK    6  A    between atoms: C11_21  and  C12_22 
REMARK    7  A    between atoms: C12_22  and  N5_23 
REMARK    8  A    between atoms: N5_23  and  C13_25 
REMARK    9  A    between atoms: C13_25  and  C14_26 
REMARK   10  A    between atoms: C19_31  and  C20_32 
REMARK   11  A    between atoms: C20_32  and  O2_33 
REMARK   12  A    between atoms: C20_32  and  N6_35 
ROOT
HETATM    1  C6  UNL     1      39.117 -17.435  24.285  1.00  0.00     0.130 A 
HETATM    2  N3  UNL     1      38.147 -16.970  23.522  1.00  0.00    -0.285 N 
ATOM      3  H3  UNL     1      38.108 -16.038  23.110  1.00  0.00     0.188 HD
HETATM    4  N4  UNL     1      37.257 -17.890  23.385  1.00  0.00    -0.300 N 
ATOM      5  H4  UNL     1      36.402 -17.781  22.839  1.00  0.00     0.186 HD
HETATM    6  C7  UNL     1      37.596 -19.032  24.060  1.00  0.00     0.064 A 
HETATM    7  C11 UNL     1      38.786 -18.769  24.643  1.00  0.00     0.050 A 
ENDROOT
BRANCH   7   8
HETATM    8  C12 UNL     1      39.697 -19.643  25.367  1.00  0.00     0.100 C 
BRANCH   8   9
HETATM    9  N5  UNL     1      39.759 -19.630  26.772  1.00  0.00    -0.397 N 
ATOM     10  H5  UNL     1      39.405 -18.879  27.365  1.00  0.00     0.158 HD
BRANCH   9  11
HETATM   11  C13 UNL     1      40.413 -20.869  27.271  1.00  0.00     0.128 C 
BRANCH  11  12
HETATM   12  C14 UNL     1      41.875 -20.668  27.477  1.00  0.00     0.036 C 
HETATM   13  C15 UNL     1      42.674 -21.515  26.564  1.00  0.00     0.011 C 
HETATM   14  C16 UNL     1      44.112 -21.667  26.907  1.00  0.00     0.001 C 
HETATM   15  C17 UNL     1      44.585 -20.758  27.992  1.00  0.00     0.004 C 
HETATM   16  C18 UNL     1      43.715 -20.741  29.200  1.00  0.00     0.039 C 
HETATM   17  C19 UNL     1      42.231 -20.631  28.912  1.00  0.00    -0.024 C 
BRANCH  17  18
HETATM   18  C20 UNL     1      41.399 -21.424  29.835  1.00  0.00     0.141 C 
BRANCH  18  19
HETATM   19  O2  UNL     1      40.748 -20.720  30.716  1.00  0.00    -0.346 OA
ATOM     20  H2  UNL     1      40.885 -20.990  31.616  1.00  0.00     0.219 HD
ENDBRANCH  18  19
BRANCH  18  21
HETATM   21  N6  UNL     1      41.201 -22.795  29.916  1.00  0.00    -0.358 N 
HETATM   22  C21 UNL     1      42.384 -23.682  29.992  1.00  0.00     0.151 C 
HETATM   23  C22 UNL     1      42.320 -24.696  28.878  1.00  0.00     0.187 C 
HETATM   24  O3  UNL     1      41.010 -25.119  28.636  1.00  0.00    -0.388 OA
HETATM   25  C23 UNL     1      40.215 -24.983  29.781  1.00  0.00     0.187 C 
HETATM   26  C24 UNL     1      39.948 -23.474  29.935  1.00  0.00     0.151 C 
ENDBRANCH  18  21
ENDBRANCH  17  18
ENDBRANCH  11  12
ENDBRANCH   9  11
ENDBRANCH   8   9
ENDBRANCH   7   8
BRANCH   1  27
HETATM   27  N2  UNL     1      40.281 -16.758  24.731  1.00  0.00    -0.366 N 
ATOM     28  H2  UNL     1      41.187 -17.035  24.354  1.00  0.00     0.161 HD
BRANCH  27  29
HETATM   29  C5  UNL     1      40.223 -15.708  25.685  1.00  0.00     0.224 C 
BRANCH  29  30
HETATM   30  C4  UNL     1      39.301 -15.994  26.798  1.00  0.00     0.239 C 
HETATM   31  N1  UNL     1      38.011 -15.418  26.751  1.00  0.00    -0.323 N 
ATOM     32  H1  UNL     1      37.800 -14.816  25.955  1.00  0.00     0.169 HD
HETATM   33  O1  UNL     1      39.618 -16.723  27.765  1.00  0.00    -0.271 OA
BRANCH  31  34
HETATM   34  C3  UNL     1      36.980 -15.601  27.713  1.00  0.00     0.075 A 
HETATM   35  C2  UNL     1      36.032 -14.644  28.078  1.00  0.00     0.052 A 
HETATM   36  C1  UNL     1      35.962 -13.257  27.532  1.00  0.00     0.072 C 
HETATM   37  N8  UNL     1      35.221 -15.232  28.994  1.00  0.00    -0.299 N 
HETATM   38  N7  UNL     1      35.629 -16.456  29.187  1.00  0.00    -0.308 N 
HETATM   39  C26 UNL     1      34.112 -14.528  29.605  1.00  0.00     0.177 C 
HETATM   40  C25 UNL     1      36.690 -16.737  28.440  1.00  0.00     0.139 A 
ATOM     41  H7  UNL     1      35.188 -17.114  29.830  1.00  0.00     0.186 HD
ENDBRANCH  31  34
ENDBRANCH  29  30
ENDBRANCH  27  29
ENDBRANCH   1  27
BRANCH   6  42
HETATM   42  C8  UNL     1      36.667 -20.172  24.029  1.00  0.00     0.074 C 
HETATM   43  C9  UNL     1      36.054 -20.500  25.354  1.00  0.00     0.039 C 
HETATM   44  C10 UNL     1      37.274 -21.406  23.398  1.00  0.00     0.039 C 
HETATM   45 CL1  UNL     1      35.282 -19.748  22.958  1.00  0.00    -0.113 Cl
ENDBRANCH   6  42
TORSDOF 12
ENDMDL
