MODEL 1
REMARK VINA RESULT: -9.592967657      0.000      0.000
REMARK  6 active torsions:
REMARK  status: ('A' for Active; 'I' for Inactive)
REMARK    1  A    between atoms: C3_3  and  C4_4 
REMARK    2  A    between atoms: C5_5  and  C6_6 
REMARK    3  A    between atoms: C8_9  and  C9_10 
REMARK    4  A    between atoms: C9_10  and  C10_11 
REMARK    5  A    between atoms: C13_15  and  O2_16 
REMARK    6  A    between atoms: C18_22  and  O3_23 
ROOT
HETATM    1  C6  UNL     1      -4.838   4.501  15.160  1.00  0.00     0.041 C 
HETATM    2  C7  UNL     1      -4.291   5.855  15.084  1.00  0.00     0.099 C 
HETATM    3  N1  UNL     1      -3.804   6.928  15.015  1.00  0.00    -0.191 NA
HETATM    4  C8  UNL     1      -3.895   3.545  14.992  1.00  0.00    -0.004 C 
ENDROOT
BRANCH   1   5
HETATM    5  C5  UNL     1      -6.199   4.208  15.383  1.00  0.00     0.022 C 
HETATM    6  C4  UNL     1      -6.826   3.704  16.371  1.00  0.00     0.001 C 
BRANCH   6   7
HETATM    7  C3  UNL     1      -6.342   3.249  17.637  1.00  0.00    -0.004 C 
HETATM    8  C2  UNL     1      -6.447   1.942  17.948  1.00  0.00    -0.031 C 
HETATM    9  C1  UNL     1      -7.060   1.025  16.965  1.00  0.00     0.036 C 
ENDBRANCH   6   7
ENDBRANCH   1   5
BRANCH   4  10
HETATM   10  C9  UNL     1      -4.080   2.099  15.005  1.00  0.00     0.034 C 
BRANCH  10  11
HETATM   11  C10 UNL     1      -4.515   1.588  13.640  1.00  0.00     0.001 C 
HETATM   12  C11 UNL     1      -3.995   0.208  13.352  1.00  0.00     0.087 C 
HETATM   13  C12 UNL     1      -4.366  -0.169  11.978  1.00  0.00     0.165 C 
HETATM   14  O1  UNL     1      -4.723  -1.304  11.740  1.00  0.00    -0.294 OA
HETATM   15  C13 UNL     1      -4.317   0.810  10.850  1.00  0.00     0.136 C 
HETATM   16  C14 UNL     1      -2.901   1.053  10.537  1.00  0.00     0.022 C 
HETATM   17  C22 UNL     1      -5.026   2.062  11.319  1.00  0.00     0.055 C 
HETATM   18  C15 UNL     1      -2.217   1.961  11.177  1.00  0.00    -0.076 C 
HETATM   19  C16 UNL     1      -0.795   2.175  10.833  1.00  0.00     0.037 C 
HETATM   20  C20 UNL     1      -2.809   2.791  12.239  1.00  0.00     0.021 C 
HETATM   21  C17 UNL     1      -0.699   3.616  10.312  1.00  0.00     0.036 C 
HETATM   22  C18 UNL     1      -1.222   4.526  11.380  1.00  0.00     0.119 C 
HETATM   23  C19 UNL     1      -2.667   4.241  11.747  1.00  0.00     0.041 C 
HETATM   24  C21 UNL     1      -4.243   2.556  12.531  1.00  0.00     0.002 C 
BRANCH  15  25
HETATM   25  O2  UNL     1      -5.018   0.308   9.755  1.00  0.00    -0.378 OA
ATOM     26  H2  UNL     1      -5.537   0.999   9.359  1.00  0.00     0.211 HD
ENDBRANCH  15  25
BRANCH  22  27
HETATM   27  O3  UNL     1      -0.422   4.409  12.513  1.00  0.00    -0.396 OA
ATOM     28  H3  UNL     1      -0.062   5.261  12.732  1.00  0.00     0.210 HD
ENDBRANCH  22  27
ENDBRANCH  10  11
ENDBRANCH   4  10
TORSDOF 6
ENDMDL
MODEL 2
REMARK VINA RESULT: -8.835267988      1.472      2.622
REMARK  6 active torsions:
REMARK  status: ('A' for Active; 'I' for Inactive)
REMARK    1  A    between atoms: C3_3  and  C4_4 
REMARK    2  A    between atoms: C5_5  and  C6_6 
REMARK    3  A    between atoms: C8_9  and  C9_10 
REMARK    4  A    between atoms: C9_10  and  C10_11 
REMARK    5  A    between atoms: C13_15  and  O2_16 
REMARK    6  A    between atoms: C18_22  and  O3_23 
ROOT
HETATM    1  C6  UNL     1      -5.835   3.055  16.149  1.00  0.00     0.041 C 
HETATM    2  C7  UNL     1      -6.501   2.581  17.362  1.00  0.00     0.099 C 
HETATM    3  N1  UNL     1      -6.999   2.167  18.349  1.00  0.00    -0.191 NA
HETATM    4  C8  UNL     1      -4.668   2.414  15.908  1.00  0.00    -0.004 C 
ENDROOT
BRANCH   1   5
HETATM    5  C5  UNL     1      -6.343   4.068  15.311  1.00  0.00     0.022 C 
HETATM    6  C4  UNL     1      -5.994   5.277  15.104  1.00  0.00     0.001 C 
BRANCH   6   7
HETATM    7  C3  UNL     1      -4.930   6.041  15.674  1.00  0.00    -0.004 C 
HETATM    8  C2  UNL     1      -3.965   6.525  14.867  1.00  0.00    -0.031 C 
HETATM    9  C1  UNL     1      -4.045   6.247  13.418  1.00  0.00     0.036 C 
ENDBRANCH   6   7
ENDBRANCH   1   5
BRANCH   4  10
HETATM   10  C9  UNL     1      -3.747   2.627  14.798  1.00  0.00     0.034 C 
BRANCH  10  11
HETATM   11  C10 UNL     1      -4.275   1.999  13.518  1.00  0.00     0.001 C 
HETATM   12  C11 UNL     1      -3.844   0.568  13.362  1.00  0.00     0.087 C 
HETATM   13  C12 UNL     1      -4.302   0.067  12.054  1.00  0.00     0.165 C 
HETATM   14  O1  UNL     1      -4.730  -1.063  11.958  1.00  0.00    -0.294 OA
HETATM   15  C13 UNL     1      -4.255   0.916  10.824  1.00  0.00     0.136 C 
HETATM   16  C14 UNL     1      -2.846   1.039  10.427  1.00  0.00     0.022 C 
HETATM   17  C22 UNL     1      -4.873   2.249  11.183  1.00  0.00     0.055 C 
HETATM   18  C15 UNL     1      -2.084   1.969  10.933  1.00  0.00    -0.076 C 
HETATM   19  C16 UNL     1      -0.670   2.062  10.508  1.00  0.00     0.037 C 
HETATM   20  C20 UNL     1      -2.577   2.942  11.921  1.00  0.00     0.021 C 
HETATM   21  C17 UNL     1      -0.523   3.430   9.827  1.00  0.00     0.036 C 
HETATM   22  C18 UNL     1      -0.943   4.479  10.810  1.00  0.00     0.119 C 
HETATM   23  C19 UNL     1      -2.382   4.320  11.267  1.00  0.00     0.041 C 
HETATM   24  C21 UNL     1      -4.006   2.824  12.298  1.00  0.00     0.002 C 
BRANCH  15  25
HETATM   25  O2  UNL     1      -5.034   0.341   9.822  1.00  0.00    -0.378 OA
ATOM     26  H2  UNL     1      -4.591  -0.419   9.463  1.00  0.00     0.211 HD
ENDBRANCH  15  25
BRANCH  22  27
HETATM   27  O3  UNL     1      -0.096   4.437  11.914  1.00  0.00    -0.396 OA
ATOM     28  H3  UNL     1       0.566   5.114  11.827  1.00  0.00     0.210 HD
ENDBRANCH  22  27
ENDBRANCH  10  11
ENDBRANCH   4  10
TORSDOF 6
ENDMDL
MODEL 3
REMARK VINA RESULT: -8.537428615      2.321      3.215
REMARK  6 active torsions:
REMARK  status: ('A' for Active; 'I' for Inactive)
REMARK    1  A    between atoms: C3_3  and  C4_4 
REMARK    2  A    between atoms: C5_5  and  C6_6 
REMARK    3  A    between atoms: C8_9  and  C9_10 
REMARK    4  A    between atoms: C9_10  and  C10_11 
REMARK    5  A    between atoms: C13_15  and  O2_16 
REMARK    6  A    between atoms: C18_22  and  O3_23 
ROOT
HETATM    1  C6  UNL     1      -4.249   3.070  15.217  1.00  0.00     0.041 C 
HETATM    2  C7  UNL     1      -3.887   1.760  15.758  1.00  0.00     0.099 C 
HETATM    3  N1  UNL     1      -3.546   0.712  16.181  1.00  0.00    -0.191 NA
HETATM    4  C8  UNL     1      -3.193   3.724  14.680  1.00  0.00    -0.004 C 
ENDROOT
BRANCH   1   5
HETATM    5  C5  UNL     1      -5.552   3.606  15.246  1.00  0.00     0.022 C 
HETATM    6  C4  UNL     1      -6.433   3.693  16.163  1.00  0.00     0.001 C 
BRANCH   6   7
HETATM    7  C3  UNL     1      -6.395   3.259  17.524  1.00  0.00    -0.004 C 
HETATM    8  C2  UNL     1      -6.867   2.036  17.837  1.00  0.00    -0.031 C 
HETATM    9  C1  UNL     1      -7.406   1.186  16.756  1.00  0.00     0.036 C 
ENDBRANCH   6   7
ENDBRANCH   1   5
BRANCH   4  10
HETATM   10  C9  UNL     1      -3.185   5.042  14.056  1.00  0.00     0.034 C 
BRANCH  10  11
HETATM   11  C10 UNL     1      -3.546   4.954  12.582  1.00  0.00     0.001 C 
HETATM   12  C11 UNL     1      -3.636   3.534  12.097  1.00  0.00     0.087 C 
HETATM   13  C12 UNL     1      -3.880   3.536  10.645  1.00  0.00     0.165 C 
HETATM   14  O1  UNL     1      -4.647   2.729  10.162  1.00  0.00    -0.294 OA
HETATM   15  C13 UNL     1      -3.206   4.509   9.732  1.00  0.00     0.136 C 
HETATM   16  C14 UNL     1      -1.797   4.110   9.624  1.00  0.00     0.022 C 
HETATM   17  C22 UNL     1      -3.372   5.881  10.349  1.00  0.00     0.055 C 
HETATM   18  C15 UNL     1      -0.913   4.519  10.491  1.00  0.00    -0.076 C 
HETATM   19  C16 UNL     1       0.497   4.096  10.349  1.00  0.00     0.037 C 
HETATM   20  C20 UNL     1      -1.264   5.396  11.621  1.00  0.00     0.021 C 
HETATM   21  C17 UNL     1       1.303   5.382  10.120  1.00  0.00     0.036 C 
HETATM   22  C18 UNL     1       1.046   6.296  11.278  1.00  0.00     0.119 C 
HETATM   23  C19 UNL     1      -0.419   6.665  11.428  1.00  0.00     0.041 C 
HETATM   24  C21 UNL     1      -2.684   5.812  11.708  1.00  0.00     0.002 C 
BRANCH  15  25
HETATM   25  O2  UNL     1      -3.846   4.519   8.494  1.00  0.00    -0.378 OA
ATOM     26  H2  UNL     1      -4.781   4.398   8.612  1.00  0.00     0.211 HD
ENDBRANCH  15  25
BRANCH  22  27
HETATM   27  O3  UNL     1       1.496   5.691  12.447  1.00  0.00    -0.396 OA
ATOM     28  H3  UNL     1       2.291   5.204  12.262  1.00  0.00     0.210 HD
ENDBRANCH  22  27
ENDBRANCH  10  11
ENDBRANCH   4  10
TORSDOF 6
ENDMDL
MODEL 4
REMARK VINA RESULT: -8.511607265      2.558      4.611
REMARK  6 active torsions:
REMARK  status: ('A' for Active; 'I' for Inactive)
REMARK    1  A    between atoms: C3_3  and  C4_4 
REMARK    2  A    between atoms: C5_5  and  C6_6 
REMARK    3  A    between atoms: C8_9  and  C9_10 
REMARK    4  A    between atoms: C9_10  and  C10_11 
REMARK    5  A    between atoms: C13_15  and  O2_16 
REMARK    6  A    between atoms: C18_22  and  O3_23 
ROOT
HETATM    1  C6  UNL     1      -5.033   1.422  15.841  1.00  0.00     0.041 C 
HETATM    2  C7  UNL     1      -6.317   1.153  16.487  1.00  0.00     0.099 C 
HETATM    3  N1  UNL     1      -7.356   0.985  17.022  1.00  0.00    -0.191 NA
HETATM    4  C8  UNL     1      -4.638   2.709  15.977  1.00  0.00    -0.004 C 
ENDROOT
BRANCH   1   5
HETATM    5  C5  UNL     1      -4.277   0.455  15.147  1.00  0.00     0.022 C 
HETATM    6  C4  UNL     1      -4.071   0.242  13.908  1.00  0.00     0.001 C 
BRANCH   6   7
HETATM    7  C3  UNL     1      -4.557   0.939  12.758  1.00  0.00    -0.004 C 
HETATM    8  C2  UNL     1      -4.437   0.365  11.544  1.00  0.00    -0.031 C 
HETATM    9  C1  UNL     1      -3.806  -0.967  11.448  1.00  0.00     0.036 C 
ENDBRANCH   6   7
ENDBRANCH   1   5
BRANCH   4  10
HETATM   10  C9  UNL     1      -3.421   3.327  15.465  1.00  0.00     0.034 C 
BRANCH  10  11
HETATM   11  C10 UNL     1      -3.741   4.536  14.600  1.00  0.00     0.001 C 
HETATM   12  C11 UNL     1      -5.093   4.436  13.951  1.00  0.00     0.087 C 
HETATM   13  C12 UNL     1      -5.281   5.586  13.051  1.00  0.00     0.165 C 
HETATM   14  O1  UNL     1      -6.363   6.131  12.988  1.00  0.00    -0.294 OA
HETATM   15  C13 UNL     1      -4.171   6.112  12.199  1.00  0.00     0.136 C 
HETATM   16  C14 UNL     1      -3.945   5.141  11.120  1.00  0.00     0.022 C 
HETATM   17  C22 UNL     1      -2.962   6.269  13.095  1.00  0.00     0.055 C 
HETATM   18  C15 UNL     1      -3.151   4.120  11.288  1.00  0.00    -0.076 C 
HETATM   19  C16 UNL     1      -2.949   3.164  10.178  1.00  0.00     0.037 C 
HETATM   20  C20 UNL     1      -2.438   3.876  12.553  1.00  0.00     0.021 C 
HETATM   21  C17 UNL     1      -1.459   3.246   9.817  1.00  0.00     0.036 C 
HETATM   22  C18 UNL     1      -0.670   2.934  11.052  1.00  0.00     0.119 C 
HETATM   23  C19 UNL     1      -0.944   3.902  12.189  1.00  0.00     0.041 C 
HETATM   24  C21 UNL     1      -2.654   4.874  13.628  1.00  0.00     0.002 C 
BRANCH  15  25
HETATM   25  O2  UNL     1      -4.505   7.373  11.709  1.00  0.00    -0.378 OA
ATOM     26  H2  UNL     1      -4.031   7.543  10.903  1.00  0.00     0.211 HD
ENDBRANCH  15  25
BRANCH  22  27
HETATM   27  O3  UNL     1      -0.958   1.637  11.464  1.00  0.00    -0.396 OA
ATOM     28  H3  UNL     1      -1.834   1.613  11.833  1.00  0.00     0.210 HD
ENDBRANCH  22  27
ENDBRANCH  10  11
ENDBRANCH   4  10
TORSDOF 6
ENDMDL
MODEL 5
REMARK VINA RESULT: -8.430764567      3.058      6.056
REMARK  6 active torsions:
REMARK  status: ('A' for Active; 'I' for Inactive)
REMARK    1  A    between atoms: C3_3  and  C4_4 
REMARK    2  A    between atoms: C5_5  and  C6_6 
REMARK    3  A    between atoms: C8_9  and  C9_10 
REMARK    4  A    between atoms: C9_10  and  C10_11 
REMARK    5  A    between atoms: C13_15  and  O2_16 
REMARK    6  A    between atoms: C18_22  and  O3_23 
ROOT
HETATM    1  C6  UNL     1      -4.480   2.658  14.649  1.00  0.00     0.041 C 
HETATM    2  C7  UNL     1      -4.106   1.487  15.443  1.00  0.00     0.099 C 
HETATM    3  N1  UNL     1      -3.791   0.573  16.120  1.00  0.00    -0.191 NA
HETATM    4  C8  UNL     1      -4.242   3.824  15.293  1.00  0.00    -0.004 C 
ENDROOT
BRANCH   1   5
HETATM    5  C5  UNL     1      -5.030   2.594  13.353  1.00  0.00     0.022 C 
HETATM    6  C4  UNL     1      -4.546   2.258  12.222  1.00  0.00     0.001 C 
BRANCH   6   7
HETATM    7  C3  UNL     1      -3.232   1.816  11.874  1.00  0.00    -0.004 C 
HETATM    8  C2  UNL     1      -3.038   0.520  11.558  1.00  0.00    -0.031 C 
HETATM    9  C1  UNL     1      -4.196  -0.398  11.583  1.00  0.00     0.036 C 
ENDBRANCH   6   7
ENDBRANCH   1   5
BRANCH   4  10
HETATM   10  C9  UNL     1      -4.490   5.176  14.809  1.00  0.00     0.034 C 
BRANCH  10  11
HETATM   11  C10 UNL     1      -3.191   5.874  14.437  1.00  0.00     0.001 C 
HETATM   12  C11 UNL     1      -3.185   7.323  14.834  1.00  0.00     0.087 C 
HETATM   13  C12 UNL     1      -1.945   7.951  14.346  1.00  0.00     0.165 C 
HETATM   14  O1  UNL     1      -1.364   8.758  15.041  1.00  0.00    -0.294 OA
HETATM   15  C13 UNL     1      -1.370   7.625  13.005  1.00  0.00     0.136 C 
HETATM   16  C14 UNL     1      -2.235   8.245  11.992  1.00  0.00     0.022 C 
HETATM   17  C22 UNL     1      -1.340   6.116  12.892  1.00  0.00     0.055 C 
HETATM   18  C15 UNL     1      -3.290   7.628  11.539  1.00  0.00    -0.076 C 
HETATM   19  C16 UNL     1      -4.136   8.285  10.518  1.00  0.00     0.037 C 
HETATM   20  C20 UNL     1      -3.681   6.287  12.006  1.00  0.00     0.021 C 
HETATM   21  C17 UNL     1      -4.063   7.392   9.272  1.00  0.00     0.036 C 
HETATM   22  C18 UNL     1      -4.520   6.020   9.663  1.00  0.00     0.119 C 
HETATM   23  C19 UNL     1      -3.664   5.399  10.751  1.00  0.00     0.041 C 
HETATM   24  C21 UNL     1      -2.790   5.660  13.011  1.00  0.00     0.002 C 
BRANCH  15  25
HETATM   25  O2  UNL     1      -0.057   8.084  12.928  1.00  0.00    -0.378 OA
ATOM     26  H2  UNL     1       0.410   7.615  12.246  1.00  0.00     0.211 HD
ENDBRANCH  15  25
BRANCH  22  27
HETATM   27  O3  UNL     1      -5.843   6.083  10.089  1.00  0.00    -0.396 OA
ATOM     28  H3  UNL     1      -6.373   5.505   9.552  1.00  0.00     0.210 HD
ENDBRANCH  22  27
ENDBRANCH  10  11
ENDBRANCH   4  10
TORSDOF 6
ENDMDL
