MODEL 1
REMARK VINA RESULT: -7.924466149      0.000      0.000
REMARK  5 active torsions:
REMARK  status: ('A' for Active; 'I' for Inactive)
REMARK    1  A    between atoms: C8_9  and  N1_10 
REMARK       I    between atoms: N1_10  and  C9_12 
REMARK    2  A    between atoms: C9_12  and  O2_14 
REMARK    3  A    between atoms: O2_14  and  C10_15 
REMARK    4  A    between atoms: C10_15  and  C12_17 
REMARK       I    between atoms: C12_17  and  N2_19 
REMARK    5  A    between atoms: N2_19  and  C13_21 
ROOT
HETATM    1  C1  UNL     1       3.583   4.142   8.327  1.00  0.00     0.012 C 
HETATM    2  C2  UNL     1       2.759   4.024   9.208  1.00  0.00    -0.110 C 
HETATM    3  C3  UNL     1       1.783   3.880  10.289  1.00  0.00     0.088 C 
HETATM    4  C4  UNL     1       1.801   5.115  11.127  1.00  0.00     0.029 C 
HETATM    5  C5  UNL     1       1.761   6.385  10.306  1.00  0.00     0.075 C 
HETATM    6  S1  UNL     1       0.800   6.162   8.790  1.00  0.00    -0.163 SA
HETATM    7  C6  UNL     1      -0.122   4.609   8.804  1.00  0.00     0.067 C 
HETATM    8  C7  UNL     1      -0.208   4.011   7.403  1.00  0.00     0.023 C 
HETATM    9  C8  UNL     1       0.412   3.603   9.770  1.00  0.00     0.115 C 
ENDROOT
BRANCH   9  10
HETATM   10  N1  UNL     1      -0.508   3.500  10.872  1.00  0.00    -0.330 N 
HETATM   11  C9  UNL     1      -1.545   2.525  10.921  1.00  0.00     0.361 C 
HETATM   12  O1  UNL     1      -1.695   1.692   9.967  1.00  0.00    -0.238 OA
ATOM     13  H1  UNL     1      -0.413   4.152  11.650  1.00  0.00     0.165 HD
BRANCH  11  14
HETATM   14  O2  UNL     1      -2.423   2.428  11.977  1.00  0.00    -0.289 OA
BRANCH  14  15
HETATM   15  C10 UNL     1      -3.811   2.653  11.888  1.00  0.00     0.221 C 
HETATM   16  C11 UNL     1      -4.010   4.148  11.768  1.00  0.00     0.050 C 
BRANCH  15  17
HETATM   17  C12 UNL     1      -4.481   2.075  13.074  1.00  0.00     0.247 C 
HETATM   18  O3  UNL     1      -4.607   0.828  13.125  1.00  0.00    -0.271 OA
HETATM   19  N2  UNL     1      -4.988   2.841  14.151  1.00  0.00    -0.354 N 
ATOM     20  H2  UNL     1      -4.884   3.855  14.100  1.00  0.00     0.162 HD
BRANCH  19  21
HETATM   21  C13 UNL     1      -5.636   2.301  15.301  1.00  0.00     0.084 C 
HETATM   22  C14 UNL     1      -6.681   3.201  15.835  1.00  0.00     0.025 C 
HETATM   23  C15 UNL     1      -6.752   3.350  17.309  1.00  0.00     0.002 C 
HETATM   24  C16 UNL     1      -6.351   2.184  18.131  1.00  0.00     0.000 C 
HETATM   25  C17 UNL     1      -5.534   1.151  17.401  1.00  0.00     0.002 C 
HETATM   26  C18 UNL     1      -4.671   1.942  16.408  1.00  0.00     0.025 C 
ENDBRANCH  19  21
ENDBRANCH  15  17
ENDBRANCH  14  15
ENDBRANCH  11  14
ENDBRANCH   9  10
TORSDOF 5
ENDMDL
MODEL 2
REMARK VINA RESULT: -7.812004378      1.142      1.246
REMARK  5 active torsions:
REMARK  status: ('A' for Active; 'I' for Inactive)
REMARK    1  A    between atoms: C8_9  and  N1_10 
REMARK       I    between atoms: N1_10  and  C9_12 
REMARK    2  A    between atoms: C9_12  and  O2_14 
REMARK    3  A    between atoms: O2_14  and  C10_15 
REMARK    4  A    between atoms: C10_15  and  C12_17 
REMARK       I    between atoms: C12_17  and  N2_19 
REMARK    5  A    between atoms: N2_19  and  C13_21 
ROOT
HETATM    1  C1  UNL     1       2.890   4.413   9.081  1.00  0.00     0.012 C 
HETATM    2  C2  UNL     1       1.919   4.193   9.773  1.00  0.00    -0.110 C 
HETATM    3  C3  UNL     1       0.763   3.924  10.629  1.00  0.00     0.088 C 
HETATM    4  C4  UNL     1       0.570   5.075  11.559  1.00  0.00     0.029 C 
HETATM    5  C5  UNL     1       0.633   6.415  10.860  1.00  0.00     0.075 C 
HETATM    6  S1  UNL     1      -0.014   6.311   9.174  1.00  0.00    -0.163 SA
HETATM    7  C6  UNL     1      -0.854   4.742   8.875  1.00  0.00     0.067 C 
HETATM    8  C7  UNL     1      -0.648   4.276   7.437  1.00  0.00     0.023 C 
HETATM    9  C8  UNL     1      -0.471   3.663   9.834  1.00  0.00     0.115 C 
ENDROOT
BRANCH   9  10
HETATM   10  N1  UNL     1      -1.578   3.434  10.725  1.00  0.00    -0.330 N 
HETATM   11  C9  UNL     1      -1.817   2.177  11.350  1.00  0.00     0.361 C 
HETATM   12  O1  UNL     1      -1.039   1.190  11.135  1.00  0.00    -0.238 OA
ATOM     13  H1  UNL     1      -2.218   4.205  10.916  1.00  0.00     0.165 HD
BRANCH  11  14
HETATM   14  O2  UNL     1      -2.876   1.961  12.202  1.00  0.00    -0.289 OA
BRANCH  14  15
HETATM   15  C10 UNL     1      -3.589   0.750  12.304  1.00  0.00     0.221 C 
HETATM   16  C11 UNL     1      -4.425   0.622  11.049  1.00  0.00     0.050 C 
BRANCH  15  17
HETATM   17  C12 UNL     1      -4.403   0.760  13.540  1.00  0.00     0.247 C 
HETATM   18  O3  UNL     1      -4.719  -0.346  14.041  1.00  0.00    -0.271 OA
HETATM   19  N2  UNL     1      -4.848   1.937  14.188  1.00  0.00    -0.354 N 
ATOM     20  H2  UNL     1      -4.588   2.832  13.773  1.00  0.00     0.162 HD
BRANCH  19  21
HETATM   21  C13 UNL     1      -5.632   1.964  15.380  1.00  0.00     0.084 C 
HETATM   22  C14 UNL     1      -6.516   3.148  15.445  1.00  0.00     0.025 C 
HETATM   23  C15 UNL     1      -6.622   3.837  16.754  1.00  0.00     0.002 C 
HETATM   24  C16 UNL     1      -6.476   3.007  17.974  1.00  0.00     0.000 C 
HETATM   25  C17 UNL     1      -5.832   1.665  17.749  1.00  0.00     0.002 C 
HETATM   26  C18 UNL     1      -4.797   1.892  16.638  1.00  0.00     0.025 C 
ENDBRANCH  19  21
ENDBRANCH  15  17
ENDBRANCH  14  15
ENDBRANCH  11  14
ENDBRANCH   9  10
TORSDOF 5
ENDMDL
MODEL 3
REMARK VINA RESULT: -7.779775214      2.604      4.073
REMARK  5 active torsions:
REMARK  status: ('A' for Active; 'I' for Inactive)
REMARK    1  A    between atoms: C8_9  and  N1_10 
REMARK       I    between atoms: N1_10  and  C9_12 
REMARK    2  A    between atoms: C9_12  and  O2_14 
REMARK    3  A    between atoms: O2_14  and  C10_15 
REMARK    4  A    between atoms: C10_15  and  C12_17 
REMARK       I    between atoms: C12_17  and  N2_19 
REMARK    5  A    between atoms: N2_19  and  C13_21 
ROOT
HETATM    1  C1  UNL     1      -2.370   8.291  14.386  1.00  0.00     0.012 C 
HETATM    2  C2  UNL     1      -2.741   7.286  13.818  1.00  0.00    -0.110 C 
HETATM    3  C3  UNL     1      -3.211   6.074  13.147  1.00  0.00     0.088 C 
HETATM    4  C4  UNL     1      -4.314   6.436  12.208  1.00  0.00     0.029 C 
HETATM    5  C5  UNL     1      -3.985   7.637  11.347  1.00  0.00     0.075 C 
HETATM    6  S1  UNL     1      -2.218   7.712  10.968  1.00  0.00    -0.163 SA
HETATM    7  C6  UNL     1      -1.368   6.187  11.428  1.00  0.00     0.067 C 
HETATM    8  C7  UNL     1       0.048   6.476  11.915  1.00  0.00     0.023 C 
HETATM    9  C8  UNL     1      -2.109   5.367  12.433  1.00  0.00     0.115 C 
ENDROOT
BRANCH   9  10
HETATM   10  N1  UNL     1      -2.633   4.203  11.770  1.00  0.00    -0.330 N 
HETATM   11  C9  UNL     1      -1.885   3.002  11.615  1.00  0.00     0.361 C 
HETATM   12  O1  UNL     1      -0.697   2.917  12.069  1.00  0.00    -0.238 OA
ATOM     13  H1  UNL     1      -3.581   4.240  11.394  1.00  0.00     0.165 HD
BRANCH  11  14
HETATM   14  O2  UNL     1      -2.389   1.889  10.980  1.00  0.00    -0.289 OA
BRANCH  14  15
HETATM   15  C10 UNL     1      -2.922   0.763  11.638  1.00  0.00     0.221 C 
HETATM   16  C11 UNL     1      -3.265  -0.252  10.571  1.00  0.00     0.050 C 
BRANCH  15  17
HETATM   17  C12 UNL     1      -4.094   1.171  12.444  1.00  0.00     0.247 C 
HETATM   18  O3  UNL     1      -5.225   1.105  11.906  1.00  0.00    -0.271 OA
HETATM   19  N2  UNL     1      -4.017   1.631  13.780  1.00  0.00    -0.354 N 
ATOM     20  H2  UNL     1      -3.093   1.684  14.210  1.00  0.00     0.162 HD
BRANCH  19  21
HETATM   21  C13 UNL     1      -5.136   2.028  14.571  1.00  0.00     0.084 C 
HETATM   22  C14 UNL     1      -5.580   3.406  14.268  1.00  0.00     0.025 C 
HETATM   23  C15 UNL     1      -5.946   4.264  15.421  1.00  0.00     0.002 C 
HETATM   24  C16 UNL     1      -6.517   3.594  16.614  1.00  0.00     0.000 C 
HETATM   25  C17 UNL     1      -6.274   2.110  16.679  1.00  0.00     0.002 C 
HETATM   26  C18 UNL     1      -4.886   1.897  16.056  1.00  0.00     0.025 C 
ENDBRANCH  19  21
ENDBRANCH  15  17
ENDBRANCH  14  15
ENDBRANCH  11  14
ENDBRANCH   9  10
TORSDOF 5
ENDMDL
MODEL 4
REMARK VINA RESULT: -7.736347347      0.942      1.393
REMARK  5 active torsions:
REMARK  status: ('A' for Active; 'I' for Inactive)
REMARK    1  A    between atoms: C8_9  and  N1_10 
REMARK       I    between atoms: N1_10  and  C9_12 
REMARK    2  A    between atoms: C9_12  and  O2_14 
REMARK    3  A    between atoms: O2_14  and  C10_15 
REMARK    4  A    between atoms: C10_15  and  C12_17 
REMARK       I    between atoms: C12_17  and  N2_19 
REMARK    5  A    between atoms: N2_19  and  C13_21 
ROOT
HETATM    1  C1  UNL     1       3.729   3.832   8.456  1.00  0.00     0.012 C 
HETATM    2  C2  UNL     1       2.762   3.935   9.180  1.00  0.00    -0.110 C 
HETATM    3  C3  UNL     1       1.610   4.056  10.074  1.00  0.00     0.088 C 
HETATM    4  C4  UNL     1       1.694   5.358  10.799  1.00  0.00     0.029 C 
HETATM    5  C5  UNL     1       2.002   6.524   9.884  1.00  0.00     0.075 C 
HETATM    6  S1  UNL     1       1.281   6.282   8.243  1.00  0.00    -0.163 SA
HETATM    7  C6  UNL     1       0.125   4.896   8.217  1.00  0.00     0.067 C 
HETATM    8  C7  UNL     1       0.174   4.168   6.876  1.00  0.00     0.023 C 
HETATM    9  C8  UNL     1       0.318   3.932   9.341  1.00  0.00     0.115 C 
ENDROOT
BRANCH   9  10
HETATM   10  N1  UNL     1      -0.776   4.088  10.263  1.00  0.00    -0.330 N 
HETATM   11  C9  UNL     1      -1.789   3.101  10.431  1.00  0.00     0.361 C 
HETATM   12  O1  UNL     1      -1.759   2.022   9.752  1.00  0.00    -0.238 OA
ATOM     13  H1  UNL     1      -0.828   4.940  10.820  1.00  0.00     0.165 HD
BRANCH  11  14
HETATM   14  O2  UNL     1      -2.834   3.252  11.314  1.00  0.00    -0.289 OA
BRANCH  14  15
HETATM   15  C10 UNL     1      -3.564   2.189  11.883  1.00  0.00     0.221 C 
HETATM   16  C11 UNL     1      -4.852   2.069  11.100  1.00  0.00     0.050 C 
BRANCH  15  17
HETATM   17  C12 UNL     1      -3.786   2.458  13.321  1.00  0.00     0.247 C 
HETATM   18  O3  UNL     1      -2.896   3.089  13.942  1.00  0.00    -0.271 OA
HETATM   19  N2  UNL     1      -4.936   2.047  14.037  1.00  0.00    -0.354 N 
ATOM     20  H2  UNL     1      -5.653   1.532  13.524  1.00  0.00     0.162 HD
BRANCH  19  21
HETATM   21  C13 UNL     1      -5.166   2.298  15.422  1.00  0.00     0.084 C 
HETATM   22  C14 UNL     1      -4.891   1.112  16.263  1.00  0.00     0.025 C 
HETATM   23  C15 UNL     1      -5.853   0.824  17.354  1.00  0.00     0.002 C 
HETATM   24  C16 UNL     1      -6.537   1.980  17.981  1.00  0.00     0.000 C 
HETATM   25  C17 UNL     1      -6.495   3.250  17.174  1.00  0.00     0.002 C 
HETATM   26  C18 UNL     1      -6.562   2.802  15.707  1.00  0.00     0.025 C 
ENDBRANCH  19  21
ENDBRANCH  15  17
ENDBRANCH  14  15
ENDBRANCH  11  14
ENDBRANCH   9  10
TORSDOF 5
ENDMDL
MODEL 5
REMARK VINA RESULT: -7.698018559      3.155      3.999
REMARK  5 active torsions:
REMARK  status: ('A' for Active; 'I' for Inactive)
REMARK    1  A    between atoms: C8_9  and  N1_10 
REMARK       I    between atoms: N1_10  and  C9_12 
REMARK    2  A    between atoms: C9_12  and  O2_14 
REMARK    3  A    between atoms: O2_14  and  C10_15 
REMARK    4  A    between atoms: C10_15  and  C12_17 
REMARK       I    between atoms: C12_17  and  N2_19 
REMARK    5  A    between atoms: N2_19  and  C13_21 
ROOT
HETATM    1  C1  UNL     1      -2.532   8.982  11.634  1.00  0.00     0.012 C 
HETATM    2  C2  UNL     1      -2.244   7.805  11.573  1.00  0.00    -0.110 C 
HETATM    3  C3  UNL     1      -1.874   6.392  11.495  1.00  0.00     0.088 C 
HETATM    4  C4  UNL     1      -1.032   6.045  12.678  1.00  0.00     0.029 C 
HETATM    5  C5  UNL     1      -1.610   6.551  13.982  1.00  0.00     0.075 C 
HETATM    6  S1  UNL     1      -3.419   6.551  13.946  1.00  0.00    -0.163 SA
HETATM    7  C6  UNL     1      -4.060   5.656  12.515  1.00  0.00     0.067 C 
HETATM    8  C7  UNL     1      -5.343   6.298  11.998  1.00  0.00     0.023 C 
HETATM    9  C8  UNL     1      -3.069   5.505  11.408  1.00  0.00     0.115 C 
ENDROOT
BRANCH   9  10
HETATM   10  N1  UNL     1      -2.646   4.130  11.363  1.00  0.00    -0.330 N 
HETATM   11  C9  UNL     1      -3.308   3.145  10.576  1.00  0.00     0.361 C 
HETATM   12  O1  UNL     1      -4.322   3.457   9.869  1.00  0.00    -0.238 OA
ATOM     13  H1  UNL     1      -1.838   3.849  11.918  1.00  0.00     0.165 HD
BRANCH  11  14
HETATM   14  O2  UNL     1      -2.901   1.831  10.534  1.00  0.00    -0.289 OA
BRANCH  14  15
HETATM   15  C10 UNL     1      -2.674   1.026  11.668  1.00  0.00     0.221 C 
HETATM   16  C11 UNL     1      -2.433  -0.382  11.170  1.00  0.00     0.050 C 
BRANCH  15  17
HETATM   17  C12 UNL     1      -3.833   1.123  12.582  1.00  0.00     0.247 C 
HETATM   18  O3  UNL     1      -4.909   0.585  12.222  1.00  0.00    -0.271 OA
HETATM   19  N2  UNL     1      -3.805   1.786  13.832  1.00  0.00    -0.354 N 
ATOM     20  H2  UNL     1      -2.928   2.223  14.116  1.00  0.00     0.162 HD
BRANCH  19  21
HETATM   21  C13 UNL     1      -4.913   1.888  14.725  1.00  0.00     0.084 C 
HETATM   22  C14 UNL     1      -5.693   3.128  14.516  1.00  0.00     0.025 C 
HETATM   23  C15 UNL     1      -6.147   3.849  15.729  1.00  0.00     0.002 C 
HETATM   24  C16 UNL     1      -6.440   3.037  16.934  1.00  0.00     0.000 C 
HETATM   25  C17 UNL     1      -5.851   1.652  16.918  1.00  0.00     0.002 C 
HETATM   26  C18 UNL     1      -4.512   1.788  16.179  1.00  0.00     0.025 C 
ENDBRANCH  19  21
ENDBRANCH  15  17
ENDBRANCH  14  15
ENDBRANCH  11  14
ENDBRANCH   9  10
TORSDOF 5
ENDMDL
