MODEL 1
REMARK VINA RESULT: -8.080154801      0.000      0.000
REMARK  5 active torsions:
REMARK  status: ('A' for Active; 'I' for Inactive)
REMARK    1  A    between atoms: C13_16  and  N2_17 
REMARK    2  A    between atoms: N2_17  and  O1_18 
REMARK    3  A    between atoms: O1_18  and  C14_19 
REMARK    4  A    between atoms: C14_19  and  C15_20 
REMARK       I    between atoms: C15_20  and  N3_22 
REMARK    5  A    between atoms: N3_22  and  C16_24 
ROOT
HETATM    1  C1  UNL     1      -7.114   1.340  16.582  1.00  0.00     0.010 C 
HETATM    2  C2  UNL     1      -5.772   1.467  15.931  1.00  0.00    -0.014 C 
HETATM    3  C3  UNL     1      -4.744   2.079  16.896  1.00  0.00     0.005 C 
HETATM    4  C4  UNL     1      -3.666   2.628  15.951  1.00  0.00     0.006 C 
HETATM    5  C5  UNL     1      -4.324   2.716  14.634  1.00  0.00    -0.000 C 
HETATM    6  C6  UNL     1      -5.781   2.529  14.832  1.00  0.00    -0.006 C 
HETATM    7  C7  UNL     1      -6.508   3.744  15.309  1.00  0.00     0.006 C 
HETATM    8  C8  UNL     1      -5.697   4.980  15.395  1.00  0.00     0.012 C 
HETATM    9  C9  UNL     1      -4.742   5.198  14.275  1.00  0.00    -0.006 C 
HETATM   10  C10 UNL     1      -5.361   5.975  13.131  1.00  0.00     0.018 C 
HETATM   11  C11 UNL     1      -3.402   5.741  14.716  1.00  0.00     0.206 C 
HETATM   12  N1  UNL     1      -2.982   6.910  14.016  1.00  0.00    -0.063 N 
ATOM     13  H11 UNL     1      -2.883   7.721  14.626  1.00  0.00     0.278 HD
ATOM     14  H12 UNL     1      -3.707   7.287  13.404  1.00  0.00     0.278 HD
HETATM   15  C12 UNL     1      -1.782   6.594  13.318  1.00  0.00     0.303 C 
HETATM   16  C13 UNL     1      -1.832   5.106  13.016  1.00  0.00     0.127 C 
HETATM   17  C19 UNL     1      -2.679   4.569  14.093  1.00  0.00     0.091 C 
HETATM   18  C20 UNL     1      -3.986   3.962  13.808  1.00  0.00    -0.019 C 
HETATM   19  C21 UNL     1      -4.345   3.654  12.369  1.00  0.00     0.017 C 
ENDROOT
BRANCH  16  20
HETATM   20  N2  UNL     1      -1.247   4.541  12.164  1.00  0.00    -0.288 NA
BRANCH  20  21
HETATM   21  O1  UNL     1      -0.595   4.110  11.141  1.00  0.00    -0.200 OA
BRANCH  21  22
HETATM   22  C14 UNL     1      -0.256   2.646  11.162  1.00  0.00     0.320 C 
BRANCH  22  23
HETATM   23  C15 UNL     1      -1.458   1.915  10.721  1.00  0.00     0.245 C 
HETATM   24  O2  UNL     1      -1.917   2.285   9.598  1.00  0.00    -0.271 OA
HETATM   25  N3  UNL     1      -2.062   0.923  11.474  1.00  0.00    -0.355 N 
ATOM     26  H3  UNL     1      -1.618   0.639  12.348  1.00  0.00     0.162 HD
BRANCH  25  27
HETATM   27  C16 UNL     1      -3.297   0.266  11.082  1.00  0.00     0.084 A 
HETATM   28  C17 UNL     1      -3.432  -1.195  11.493  1.00  0.00     0.027 A 
HETATM   29  C18 UNL     1      -4.255  -0.114  12.133  1.00  0.00     0.027 A 
ENDBRANCH  25  27
ENDBRANCH  22  23
ENDBRANCH  21  22
ENDBRANCH  20  21
ENDBRANCH  16  20
TORSDOF 5
ENDMDL
MODEL 2
REMARK VINA RESULT: -7.930011100      2.552      5.417
REMARK  5 active torsions:
REMARK  status: ('A' for Active; 'I' for Inactive)
REMARK    1  A    between atoms: C13_16  and  N2_17 
REMARK    2  A    between atoms: N2_17  and  O1_18 
REMARK    3  A    between atoms: O1_18  and  C14_19 
REMARK    4  A    between atoms: C14_19  and  C15_20 
REMARK       I    between atoms: C15_20  and  N3_22 
REMARK    5  A    between atoms: N3_22  and  C16_24 
ROOT
HETATM    1  C1  UNL     1      -2.927  -1.941  11.338  1.00  0.00     0.010 C 
HETATM    2  C2  UNL     1      -3.836  -0.791  11.640  1.00  0.00    -0.014 C 
HETATM    3  C3  UNL     1      -4.502  -0.260  10.361  1.00  0.00     0.005 C 
HETATM    4  C4  UNL     1      -4.911   1.167  10.751  1.00  0.00     0.006 C 
HETATM    5  C5  UNL     1      -4.098   1.486  11.938  1.00  0.00    -0.000 C 
HETATM    6  C6  UNL     1      -3.049   0.446  12.073  1.00  0.00    -0.006 C 
HETATM    7  C7  UNL     1      -1.867   0.632  11.178  1.00  0.00     0.006 C 
HETATM    8  C8  UNL     1      -1.859   1.882  10.384  1.00  0.00     0.012 C 
HETATM    9  C9  UNL     1      -2.321   3.099  11.103  1.00  0.00    -0.006 C 
HETATM   10  C10 UNL     1      -1.188   3.823  11.802  1.00  0.00     0.018 C 
HETATM   11  C11 UNL     1      -3.188   4.009  10.263  1.00  0.00     0.206 C 
HETATM   12  N1  UNL     1      -2.761   5.370  10.237  1.00  0.00    -0.063 N 
ATOM     13  H11 UNL     1      -2.499   5.683   9.303  1.00  0.00     0.278 HD
ATOM     14  H12 UNL     1      -1.856   5.509  10.686  1.00  0.00     0.278 HD
HETATM   15  C12 UNL     1      -3.792   6.163  10.816  1.00  0.00     0.303 C 
HETATM   16  C13 UNL     1      -4.523   5.273  11.806  1.00  0.00     0.127 C 
HETATM   17  C19 UNL     1      -4.318   3.920  11.264  1.00  0.00     0.091 C 
HETATM   18  C20 UNL     1      -3.539   2.912  11.995  1.00  0.00    -0.019 C 
HETATM   19  C21 UNL     1      -3.168   3.188  13.437  1.00  0.00     0.017 C 
ENDROOT
BRANCH  16  20
HETATM   20  N2  UNL     1      -5.164   5.625  12.729  1.00  0.00    -0.288 NA
BRANCH  20  21
HETATM   21  O1  UNL     1      -6.003   5.866  13.675  1.00  0.00    -0.200 OA
BRANCH  21  22
HETATM   22  C14 UNL     1      -5.616   5.347  15.030  1.00  0.00     0.320 C 
BRANCH  22  23
HETATM   23  C15 UNL     1      -6.001   3.923  15.076  1.00  0.00     0.245 C 
HETATM   24  O2  UNL     1      -6.714   3.539  14.099  1.00  0.00    -0.271 OA
HETATM   25  N3  UNL     1      -5.643   3.073  16.108  1.00  0.00    -0.355 N 
ATOM     26  H3  UNL     1      -5.030   3.432  16.841  1.00  0.00     0.162 HD
BRANCH  25  27
HETATM   27  C16 UNL     1      -6.096   1.696  16.199  1.00  0.00     0.084 A 
HETATM   28  C17 UNL     1      -5.987   1.049  17.574  1.00  0.00     0.027 A 
HETATM   29  C18 UNL     1      -7.316   1.408  16.973  1.00  0.00     0.027 A 
ENDBRANCH  25  27
ENDBRANCH  22  23
ENDBRANCH  21  22
ENDBRANCH  20  21
ENDBRANCH  16  20
TORSDOF 5
ENDMDL
MODEL 3
REMARK VINA RESULT: -7.722928379      2.435      5.341
REMARK  5 active torsions:
REMARK  status: ('A' for Active; 'I' for Inactive)
REMARK    1  A    between atoms: C13_16  and  N2_17 
REMARK    2  A    between atoms: N2_17  and  O1_18 
REMARK    3  A    between atoms: O1_18  and  C14_19 
REMARK    4  A    between atoms: C14_19  and  C15_20 
REMARK       I    between atoms: C15_20  and  N3_22 
REMARK    5  A    between atoms: N3_22  and  C16_24 
ROOT
HETATM    1  C1  UNL     1      -2.501   8.667  14.088  1.00  0.00     0.010 C 
HETATM    2  C2  UNL     1      -2.730   7.201  14.284  1.00  0.00    -0.014 C 
HETATM    3  C3  UNL     1      -1.400   6.451  14.457  1.00  0.00     0.005 C 
HETATM    4  C4  UNL     1      -1.767   5.005  14.091  1.00  0.00     0.006 C 
HETATM    5  C5  UNL     1      -3.031   5.112  13.340  1.00  0.00    -0.000 C 
HETATM    6  C6  UNL     1      -3.252   6.541  13.008  1.00  0.00    -0.006 C 
HETATM    7  C7  UNL     1      -2.477   7.034  11.829  1.00  0.00     0.006 C 
HETATM    8  C8  UNL     1      -1.703   6.005  11.098  1.00  0.00     0.012 C 
HETATM    9  C9  UNL     1      -2.391   4.698  10.916  1.00  0.00    -0.006 C 
HETATM   10  C10 UNL     1      -3.204   4.646   9.638  1.00  0.00     0.018 C 
HETATM   11  C11 UNL     1      -1.484   3.503  11.100  1.00  0.00     0.206 C 
HETATM   12  N1  UNL     1      -1.516   2.568  10.024  1.00  0.00    -0.063 N 
ATOM     13  H11 UNL     1      -0.615   2.474   9.555  1.00  0.00     0.278 HD
ATOM     14  H12 UNL     1      -2.052   2.905   9.223  1.00  0.00     0.278 HD
HETATM   15  C12 UNL     1      -2.004   1.332  10.533  1.00  0.00     0.303 C 
HETATM   16  C13 UNL     1      -2.908   1.669  11.706  1.00  0.00     0.127 C 
HETATM   17  C19 UNL     1      -2.370   2.950  12.192  1.00  0.00     0.091 C 
HETATM   18  C20 UNL     1      -3.160   4.187  12.125  1.00  0.00    -0.019 C 
HETATM   19  C21 UNL     1      -4.634   4.089  11.793  1.00  0.00     0.017 C 
ENDROOT
BRANCH  16  20
HETATM   20  N2  UNL     1      -3.770   0.998  12.147  1.00  0.00    -0.288 NA
BRANCH  20  21
HETATM   21  O1  UNL     1      -4.613   0.288  12.811  1.00  0.00    -0.200 OA
BRANCH  21  22
HETATM   22  C14 UNL     1      -4.145  -0.172  14.163  1.00  0.00     0.320 C 
BRANCH  22  23
HETATM   23  C15 UNL     1      -4.258   0.980  15.077  1.00  0.00     0.245 C 
HETATM   24  O2  UNL     1      -3.630   0.849  16.171  1.00  0.00    -0.271 OA
HETATM   25  N3  UNL     1      -5.008   2.107  14.786  1.00  0.00    -0.355 N 
ATOM     26  H3  UNL     1      -5.453   2.171  13.870  1.00  0.00     0.162 HD
BRANCH  25  27
HETATM   27  C16 UNL     1      -5.193   3.203  15.722  1.00  0.00     0.084 A 
HETATM   28  C17 UNL     1      -6.095   4.336  15.249  1.00  0.00     0.027 A 
HETATM   29  C18 UNL     1      -6.521   3.388  16.333  1.00  0.00     0.027 A 
ENDBRANCH  25  27
ENDBRANCH  22  23
ENDBRANCH  21  22
ENDBRANCH  20  21
ENDBRANCH  16  20
TORSDOF 5
ENDMDL
MODEL 4
REMARK VINA RESULT: -7.715325715      2.590      5.095
REMARK  5 active torsions:
REMARK  status: ('A' for Active; 'I' for Inactive)
REMARK    1  A    between atoms: C13_16  and  N2_17 
REMARK    2  A    between atoms: N2_17  and  O1_18 
REMARK    3  A    between atoms: O1_18  and  C14_19 
REMARK    4  A    between atoms: C14_19  and  C15_20 
REMARK       I    between atoms: C15_20  and  N3_22 
REMARK    5  A    between atoms: N3_22  and  C16_24 
ROOT
HETATM    1  C1  UNL     1       0.895   4.061   9.873  1.00  0.00     0.010 C 
HETATM    2  C2  UNL     1      -0.171   3.387  10.678  1.00  0.00    -0.014 C 
HETATM    3  C3  UNL     1      -1.481   3.278   9.884  1.00  0.00     0.005 C 
HETATM    4  C4  UNL     1      -2.539   3.103  10.983  1.00  0.00     0.006 C 
HETATM    5  C5  UNL     1      -1.884   3.567  12.219  1.00  0.00    -0.000 C 
HETATM    6  C6  UNL     1      -0.630   4.263  11.844  1.00  0.00    -0.006 C 
HETATM    7  C7  UNL     1      -0.812   5.671  11.377  1.00  0.00     0.006 C 
HETATM    8  C8  UNL     1      -2.191   6.201  11.473  1.00  0.00     0.012 C 
HETATM    9  C9  UNL     1      -2.934   5.830  12.707  1.00  0.00    -0.006 C 
HETATM   10  C10 UNL     1      -2.732   6.831  13.826  1.00  0.00     0.018 C 
HETATM   11  C11 UNL     1      -4.386   5.487  12.462  1.00  0.00     0.206 C 
HETATM   12  N1  UNL     1      -5.307   6.197  13.288  1.00  0.00    -0.063 N 
ATOM     13  H11 UNL     1      -5.938   6.794  12.754  1.00  0.00     0.278 HD
ATOM     14  H12 UNL     1      -4.859   6.930  13.839  1.00  0.00     0.278 HD
HETATM   15  C12 UNL     1      -5.995   5.246  14.093  1.00  0.00     0.303 C 
HETATM   16  C13 UNL     1      -5.054   4.068  14.279  1.00  0.00     0.127 C 
HETATM   17  C19 UNL     1      -4.207   4.118  13.077  1.00  0.00     0.091 C 
HETATM   18  C20 UNL     1      -2.765   4.389  13.166  1.00  0.00    -0.019 C 
HETATM   19  C21 UNL     1      -2.105   4.358  14.529  1.00  0.00     0.017 C 
ENDROOT
BRANCH  16  20
HETATM   20  N2  UNL     1      -5.083   3.274  15.148  1.00  0.00    -0.288 NA
BRANCH  20  21
HETATM   21  O1  UNL     1      -4.909   2.443  16.115  1.00  0.00    -0.200 OA
BRANCH  21  22
HETATM   22  C14 UNL     1      -3.793   1.454  15.924  1.00  0.00     0.320 C 
BRANCH  22  23
HETATM   23  C15 UNL     1      -4.222   0.514  14.871  1.00  0.00     0.245 C 
HETATM   24  O2  UNL     1      -4.754  -0.553  15.303  1.00  0.00    -0.271 OA
HETATM   25  N3  UNL     1      -4.040   0.754  13.520  1.00  0.00    -0.355 N 
ATOM     26  H3  UNL     1      -3.647   1.651  13.236  1.00  0.00     0.162 HD
BRANCH  25  27
HETATM   27  C16 UNL     1      -4.379  -0.210  12.488  1.00  0.00     0.084 A 
HETATM   28  C17 UNL     1      -4.754   0.373  11.131  1.00  0.00     0.027 A 
HETATM   29  C18 UNL     1      -3.465  -0.367  11.344  1.00  0.00     0.027 A 
ENDBRANCH  25  27
ENDBRANCH  22  23
ENDBRANCH  21  22
ENDBRANCH  20  21
ENDBRANCH  16  20
TORSDOF 5
ENDMDL
MODEL 5
REMARK VINA RESULT: -7.442956646      1.762      3.139
REMARK  5 active torsions:
REMARK  status: ('A' for Active; 'I' for Inactive)
REMARK    1  A    between atoms: C13_16  and  N2_17 
REMARK    2  A    between atoms: N2_17  and  O1_18 
REMARK    3  A    between atoms: O1_18  and  C14_19 
REMARK    4  A    between atoms: C14_19  and  C15_20 
REMARK       I    between atoms: C15_20  and  N3_22 
REMARK    5  A    between atoms: N3_22  and  C16_24 
ROOT
HETATM    1  C1  UNL     1      -7.563   1.681  16.785  1.00  0.00     0.010 C 
HETATM    2  C2  UNL     1      -6.209   1.557  16.160  1.00  0.00    -0.014 C 
HETATM    3  C3  UNL     1      -5.113   2.073  17.106  1.00  0.00     0.005 C 
HETATM    4  C4  UNL     1      -3.950   2.384  16.152  1.00  0.00     0.006 C 
HETATM    5  C5  UNL     1      -4.568   2.478  14.817  1.00  0.00    -0.000 C 
HETATM    6  C6  UNL     1      -6.040   2.528  14.992  1.00  0.00    -0.006 C 
HETATM    7  C7  UNL     1      -6.579   3.870  15.368  1.00  0.00     0.006 C 
HETATM    8  C8  UNL     1      -5.589   4.971  15.391  1.00  0.00     0.012 C 
HETATM    9  C9  UNL     1      -4.597   4.962  14.282  1.00  0.00    -0.006 C 
HETATM   10  C10 UNL     1      -5.074   5.742  13.074  1.00  0.00     0.018 C 
HETATM   11  C11 UNL     1      -3.196   5.325  14.717  1.00  0.00     0.206 C 
HETATM   12  N1  UNL     1      -2.592   6.365  13.950  1.00  0.00    -0.063 N 
ATOM     13  H11 UNL     1      -2.378   7.193  14.506  1.00  0.00     0.278 HD
ATOM     14  H12 UNL     1      -3.243   6.804  13.297  1.00  0.00     0.278 HD
HETATM   15  C12 UNL     1      -1.446   5.823  13.304  1.00  0.00     0.303 C 
HETATM   16  C13 UNL     1      -1.718   4.342  13.102  1.00  0.00     0.127 C 
HETATM   17  C19 UNL     1      -2.652   4.017  14.192  1.00  0.00     0.091 C 
HETATM   18  C20 UNL     1      -4.033   3.597  13.917  1.00  0.00    -0.019 C 
HETATM   19  C21 UNL     1      -4.415   3.247  12.494  1.00  0.00     0.017 C 
ENDROOT
BRANCH  16  20
HETATM   20  N2  UNL     1      -1.215   3.636  12.305  1.00  0.00    -0.288 NA
BRANCH  20  21
HETATM   21  O1  UNL     1      -0.778   2.712  11.524  1.00  0.00    -0.200 OA
BRANCH  21  22
HETATM   22  C14 UNL     1      -1.435   2.643  10.174  1.00  0.00     0.320 C 
BRANCH  22  23
HETATM   23  C15 UNL     1      -0.572   3.383   9.233  1.00  0.00     0.245 C 
HETATM   24  O2  UNL     1      -1.090   3.588   8.094  1.00  0.00    -0.271 OA
HETATM   25  N3  UNL     1       0.710   3.801   9.548  1.00  0.00    -0.355 N 
ATOM     26  H3  UNL     1       1.051   3.645  10.497  1.00  0.00     0.162 HD
BRANCH  25  27
HETATM   27  C16 UNL     1       1.593   4.449   8.594  1.00  0.00     0.084 A 
HETATM   28  C17 UNL     1       2.506   5.529   9.161  1.00  0.00     0.027 A 
HETATM   29  C18 UNL     1       3.041   4.204   8.698  1.00  0.00     0.027 A 
ENDBRANCH  25  27
ENDBRANCH  22  23
ENDBRANCH  21  22
ENDBRANCH  20  21
ENDBRANCH  16  20
TORSDOF 5
ENDMDL
