MODEL 1
REMARK VINA RESULT: -7.271848510      0.000      0.000
REMARK  5 active torsions:
REMARK  status: ('A' for Active; 'I' for Inactive)
REMARK    1  A    between atoms: C4_4  and  C5_5 
REMARK    2  A    between atoms: C5_5  and  N2_13 
REMARK    3  A    between atoms: N1_6  and  C6_8 
REMARK    4  A    between atoms: N2_13  and  C11_15 
REMARK    5  A    between atoms: C11_15  and  C12_16 
ROOT
HETATM    1  C5  UNL     1      -4.463   4.047  14.617  1.00  0.00     0.077 C 
HETATM    2  N1  UNL     1      -5.392   3.615  15.365  1.00  0.00    -0.375 N 
ATOM      3  H1  UNL     1      -5.988   4.359  15.725  1.00  0.00     0.161 HD
ENDROOT
BRANCH   1   4
HETATM    4  C4  UNL     1      -4.366   5.544  14.369  1.00  0.00     0.053 C 
HETATM    5  C3  UNL     1      -2.939   5.887  14.277  1.00  0.00     0.012 C 
HETATM    6  C2  UNL     1      -2.690   6.921  13.191  1.00  0.00     0.001 C 
HETATM    7  C1  UNL     1      -3.039   6.224  11.890  1.00  0.00     0.000 C 
HETATM    8  C17 UNL     1      -4.485   5.843  11.839  1.00  0.00     0.001 C 
HETATM    9  C16 UNL     1      -5.183   5.878  13.152  1.00  0.00     0.012 C 
ENDBRANCH   1   4
BRANCH   1  10
HETATM   10  N2  UNL     1      -3.580   3.099  14.062  1.00  0.00    -0.379 N 
ATOM     11  H2  UNL     1      -2.821   2.808  14.678  1.00  0.00     0.160 HD
BRANCH  10  12
HETATM   12  C11 UNL     1      -3.579   2.490  12.790  1.00  0.00     0.127 C 
BRANCH  12  13
HETATM   13  C12 UNL     1      -4.655   1.485  12.576  1.00  0.00     0.029 C 
HETATM   14  C13 UNL     1      -5.151   1.643  11.136  1.00  0.00     0.034 C 
HETATM   15  C14 UNL     1      -4.769   0.356  10.485  1.00  0.00     0.168 C 
HETATM   16  O1  UNL     1      -4.875  -0.543  11.553  1.00  0.00    -0.391 OA
HETATM   17  C15 UNL     1      -4.075   0.064  12.489  1.00  0.00     0.173 C 
ENDBRANCH  12  13
ENDBRANCH  10  12
ENDBRANCH   1  10
BRANCH   2  18
HETATM   18  C6  UNL     1      -5.780   2.356  15.801  1.00  0.00     0.082 C 
HETATM   19  C7  UNL     1      -4.926   1.635  16.807  1.00  0.00     0.025 C 
HETATM   20  C8  UNL     1      -5.849   0.455  17.160  1.00  0.00     0.002 C 
HETATM   21  C9  UNL     1      -7.209   1.070  17.179  1.00  0.00     0.002 C 
HETATM   22  C10 UNL     1      -7.121   2.425  16.580  1.00  0.00     0.025 C 
ENDBRANCH   2  18
TORSDOF 5
ENDMDL
MODEL 2
REMARK VINA RESULT: -7.085336295      1.568      4.268
REMARK  5 active torsions:
REMARK  status: ('A' for Active; 'I' for Inactive)
REMARK    1  A    between atoms: C4_4  and  C5_5 
REMARK    2  A    between atoms: C5_5  and  N2_13 
REMARK    3  A    between atoms: N1_6  and  C6_8 
REMARK    4  A    between atoms: N2_13  and  C11_15 
REMARK    5  A    between atoms: C11_15  and  C12_16 
ROOT
HETATM    1  C5  UNL     1      -4.617   3.751  13.957  1.00  0.00     0.077 C 
HETATM    2  N1  UNL     1      -4.191   3.041  12.996  1.00  0.00    -0.375 N 
ATOM      3  H1  UNL     1      -3.271   3.332  12.667  1.00  0.00     0.161 HD
ENDROOT
BRANCH   1   4
HETATM    4  C4  UNL     1      -3.742   4.885  14.467  1.00  0.00     0.053 C 
HETATM    5  C3  UNL     1      -2.345   4.536  14.169  1.00  0.00     0.012 C 
HETATM    6  C2  UNL     1      -1.556   5.754  13.717  1.00  0.00     0.001 C 
HETATM    7  C1  UNL     1      -2.177   6.163  12.395  1.00  0.00     0.000 C 
HETATM    8  C17 UNL     1      -3.606   6.575  12.561  1.00  0.00     0.001 C 
HETATM    9  C16 UNL     1      -4.223   6.170  13.852  1.00  0.00     0.012 C 
ENDBRANCH   1   4
BRANCH   1  10
HETATM   10  N2  UNL     1      -5.882   3.433  14.490  1.00  0.00    -0.379 N 
ATOM     11  H2  UNL     1      -6.635   3.373  13.804  1.00  0.00     0.160 HD
BRANCH  10  12
HETATM   12  C11 UNL     1      -6.274   3.185  15.822  1.00  0.00     0.127 C 
BRANCH  12  13
HETATM   13  C12 UNL     1      -5.330   2.342  16.606  1.00  0.00     0.029 C 
HETATM   14  C13 UNL     1      -6.084   1.832  17.837  1.00  0.00     0.034 C 
HETATM   15  C14 UNL     1      -6.146   0.356  17.630  1.00  0.00     0.168 C 
HETATM   16  O1  UNL     1      -4.952   0.117  16.939  1.00  0.00    -0.391 OA
HETATM   17  C15 UNL     1      -5.067   1.004  15.897  1.00  0.00     0.173 C 
ENDBRANCH  12  13
ENDBRANCH  10  12
ENDBRANCH   1  10
BRANCH   2  18
HETATM   18  C6  UNL     1      -4.696   1.958  12.292  1.00  0.00     0.082 C 
HETATM   19  C7  UNL     1      -4.577   1.937  10.793  1.00  0.00     0.025 C 
HETATM   20  C8  UNL     1      -5.022   0.494  10.498  1.00  0.00     0.002 C 
HETATM   21  C9  UNL     1      -4.420  -0.292  11.614  1.00  0.00     0.002 C 
HETATM   22  C10 UNL     1      -3.928   0.656  12.645  1.00  0.00     0.025 C 
ENDBRANCH   2  18
TORSDOF 5
ENDMDL
MODEL 3
REMARK VINA RESULT: -7.023114718      1.626      4.190
REMARK  5 active torsions:
REMARK  status: ('A' for Active; 'I' for Inactive)
REMARK    1  A    between atoms: C4_4  and  C5_5 
REMARK    2  A    between atoms: C5_5  and  N2_13 
REMARK    3  A    between atoms: N1_6  and  C6_8 
REMARK    4  A    between atoms: N2_13  and  C11_15 
REMARK    5  A    between atoms: C11_15  and  C12_16 
ROOT
HETATM    1  C5  UNL     1      -4.081   3.499  13.780  1.00  0.00     0.077 C 
HETATM    2  N1  UNL     1      -3.420   2.896  12.882  1.00  0.00    -0.375 N 
ATOM      3  H1  UNL     1      -2.550   3.372  12.643  1.00  0.00     0.161 HD
ENDROOT
BRANCH   1   4
HETATM    4  C4  UNL     1      -3.518   4.789  14.355  1.00  0.00     0.053 C 
HETATM    5  C3  UNL     1      -2.069   4.792  14.103  1.00  0.00     0.012 C 
HETATM    6  C2  UNL     1      -1.579   6.178  13.716  1.00  0.00     0.001 C 
HETATM    7  C1  UNL     1      -2.238   6.476  12.382  1.00  0.00     0.000 C 
HETATM    8  C17 UNL     1      -3.728   6.531  12.504  1.00  0.00     0.001 C 
HETATM    9  C16 UNL     1      -4.271   5.945  13.758  1.00  0.00     0.012 C 
ENDBRANCH   1   4
BRANCH   1  10
HETATM   10  N2  UNL     1      -5.302   2.924  14.187  1.00  0.00    -0.379 N 
ATOM     11  H2  UNL     1      -5.713   2.272  13.519  1.00  0.00     0.160 HD
BRANCH  10  12
HETATM   12  C11 UNL     1      -6.046   3.108  15.371  1.00  0.00     0.127 C 
BRANCH  12  13
HETATM   13  C12 UNL     1      -5.463   2.467  16.582  1.00  0.00     0.029 C 
HETATM   14  C13 UNL     1      -6.627   1.944  17.428  1.00  0.00     0.034 C 
HETATM   15  C14 UNL     1      -6.447   0.463  17.403  1.00  0.00     0.168 C 
HETATM   16  O1  UNL     1      -5.054   0.349  17.324  1.00  0.00    -0.391 OA
HETATM   17  C15 UNL     1      -4.786   1.133  16.229  1.00  0.00     0.173 C 
ENDBRANCH  12  13
ENDBRANCH  10  12
ENDBRANCH   1  10
BRANCH   2  18
HETATM   18  C6  UNL     1      -3.613   1.733  12.151  1.00  0.00     0.082 C 
HETATM   19  C7  UNL     1      -4.149   0.511  12.845  1.00  0.00     0.025 C 
HETATM   20  C8  UNL     1      -4.424  -0.399  11.634  1.00  0.00     0.002 C 
HETATM   21  C9  UNL     1      -4.950   0.543  10.602  1.00  0.00     0.002 C 
HETATM   22  C10 UNL     1      -4.706   1.932  11.066  1.00  0.00     0.025 C 
ENDBRANCH   2  18
TORSDOF 5
ENDMDL
MODEL 4
REMARK VINA RESULT: -6.668669875      1.223      4.953
REMARK  5 active torsions:
REMARK  status: ('A' for Active; 'I' for Inactive)
REMARK    1  A    between atoms: C4_4  and  C5_5 
REMARK    2  A    between atoms: C5_5  and  N2_13 
REMARK    3  A    between atoms: N1_6  and  C6_8 
REMARK    4  A    between atoms: N2_13  and  C11_15 
REMARK    5  A    between atoms: C11_15  and  C12_16 
ROOT
HETATM    1  C5  UNL     1      -5.314   2.966  14.959  1.00  0.00     0.077 C 
HETATM    2  N1  UNL     1      -5.161   4.197  14.692  1.00  0.00    -0.375 N 
ATOM      3  H1  UNL     1      -5.940   4.771  15.014  1.00  0.00     0.161 HD
ENDROOT
BRANCH   1   4
HETATM    4  C4  UNL     1      -6.575   2.531  15.690  1.00  0.00     0.053 C 
HETATM    5  C3  UNL     1      -6.320   1.200  16.261  1.00  0.00     0.012 C 
HETATM    6  C2  UNL     1      -6.932   1.067  17.646  1.00  0.00     0.001 C 
HETATM    7  C1  UNL     1      -6.169   2.049  18.514  1.00  0.00     0.000 C 
HETATM    8  C17 UNL     1      -6.367   3.460  18.056  1.00  0.00     0.001 C 
HETATM    9  C16 UNL     1      -6.936   3.595  16.689  1.00  0.00     0.012 C 
ENDBRANCH   1   4
BRANCH   1  10
HETATM   10  N2  UNL     1      -4.293   2.081  14.559  1.00  0.00    -0.379 N 
ATOM     11  H2  UNL     1      -3.351   2.359  14.837  1.00  0.00     0.160 HD
BRANCH  10  12
HETATM   12  C11 UNL     1      -4.365   0.873  13.835  1.00  0.00     0.127 C 
BRANCH  12  13
HETATM   13  C12 UNL     1      -3.736   0.913  12.486  1.00  0.00     0.029 C 
HETATM   14  C13 UNL     1      -4.267  -0.286  11.697  1.00  0.00     0.034 C 
HETATM   15  C14 UNL     1      -5.051   0.336  10.590  1.00  0.00     0.168 C 
HETATM   16  O1  UNL     1      -4.340   1.522  10.372  1.00  0.00    -0.391 OA
HETATM   17  C15 UNL     1      -4.319   2.054  11.638  1.00  0.00     0.173 C 
ENDBRANCH  12  13
ENDBRANCH  10  12
ENDBRANCH   1  10
BRANCH   2  18
HETATM   18  C6  UNL     1      -4.173   4.937  14.060  1.00  0.00     0.082 C 
HETATM   19  C7  UNL     1      -4.529   5.747  12.844  1.00  0.00     0.025 C 
HETATM   20  C8  UNL     1      -3.233   6.556  12.659  1.00  0.00     0.002 C 
HETATM   21  C9  UNL     1      -2.821   6.878  14.058  1.00  0.00     0.002 C 
HETATM   22  C10 UNL     1      -3.637   6.059  14.989  1.00  0.00     0.025 C 
ENDBRANCH   2  18
TORSDOF 5
ENDMDL
MODEL 5
REMARK VINA RESULT: -6.569676020      1.198      1.447
REMARK  5 active torsions:
REMARK  status: ('A' for Active; 'I' for Inactive)
REMARK    1  A    between atoms: C4_4  and  C5_5 
REMARK    2  A    between atoms: C5_5  and  N2_13 
REMARK    3  A    between atoms: N1_6  and  C6_8 
REMARK    4  A    between atoms: N2_13  and  C11_15 
REMARK    5  A    between atoms: C11_15  and  C12_16 
ROOT
HETATM    1  C5  UNL     1      -3.015   4.236  14.102  1.00  0.00     0.077 C 
HETATM    2  N1  UNL     1      -3.840   3.997  15.036  1.00  0.00    -0.375 N 
ATOM      3  H1  UNL     1      -3.846   4.723  15.752  1.00  0.00     0.161 HD
ENDROOT
BRANCH   1   4
HETATM    4  C4  UNL     1      -2.188   5.510  14.170  1.00  0.00     0.053 C 
HETATM    5  C3  UNL     1      -1.078   5.371  13.215  1.00  0.00     0.012 C 
HETATM    6  C2  UNL     1      -0.808   6.679  12.489  1.00  0.00     0.001 C 
HETATM    7  C1  UNL     1      -2.049   6.937  11.656  1.00  0.00     0.000 C 
HETATM    8  C17 UNL     1      -3.259   7.129  12.516  1.00  0.00     0.001 C 
HETATM    9  C16 UNL     1      -3.098   6.682  13.924  1.00  0.00     0.012 C 
ENDBRANCH   1   4
BRANCH   1  10
HETATM   10  N2  UNL     1      -2.926   3.296  13.056  1.00  0.00    -0.379 N 
ATOM     11  H2  UNL     1      -2.109   2.686  13.096  1.00  0.00     0.160 HD
BRANCH  10  12
HETATM   12  C11 UNL     1      -3.786   3.064  11.963  1.00  0.00     0.127 C 
BRANCH  12  13
HETATM   13  C12 UNL     1      -4.753   1.949  12.153  1.00  0.00     0.029 C 
HETATM   14  C13 UNL     1      -5.216   1.502  10.764  1.00  0.00     0.034 C 
HETATM   15  C14 UNL     1      -4.693   0.110  10.646  1.00  0.00     0.168 C 
HETATM   16  O1  UNL     1      -4.745  -0.326  11.975  1.00  0.00    -0.391 OA
HETATM   17  C15 UNL     1      -4.037   0.667  12.606  1.00  0.00     0.173 C 
ENDBRANCH  12  13
ENDBRANCH  10  12
ENDBRANCH   1  10
BRANCH   2  18
HETATM   18  C6  UNL     1      -4.734   2.971  15.302  1.00  0.00     0.082 C 
HETATM   19  C7  UNL     1      -4.357   1.911  16.300  1.00  0.00     0.025 C 
HETATM   20  C8  UNL     1      -5.700   1.173  16.442  1.00  0.00     0.002 C 
HETATM   21  C9  UNL     1      -6.709   2.273  16.402  1.00  0.00     0.002 C 
HETATM   22  C10 UNL     1      -6.030   3.517  15.958  1.00  0.00     0.025 C 
ENDBRANCH   2  18
TORSDOF 5
ENDMDL
