MODEL 1
REMARK VINA RESULT: -6.660930615      0.000      0.000
REMARK  3 active torsions:
REMARK  status: ('A' for Active; 'I' for Inactive)
REMARK       I    between atoms: C1_2  and  N1_3 
REMARK    1  A    between atoms: C1_2  and  C8_11 
REMARK    2  A    between atoms: N1_3  and  C2_5 
REMARK    3  A    between atoms: N2_14  and  C11_15 
ROOT
HETATM    1  C8  UNL     1      -4.463   3.152  12.181  1.00  0.00     0.081 C 
HETATM    2  C9  UNL     1      -4.055   4.203  13.169  1.00  0.00     0.044 C 
HETATM    3  C10 UNL     1      -4.736   3.832  14.494  1.00  0.00     0.273 C 
HETATM    4  N2  UNL     1      -4.325   2.546  14.939  1.00  0.00     0.093 N 
HETATM    5  C16 UNL     1      -4.516   1.502  13.962  1.00  0.00     0.273 C 
HETATM    6  C17 UNL     1      -3.850   1.845  12.635  1.00  0.00     0.044 C 
ENDROOT
BRANCH   1   7
HETATM    7  C1  UNL     1      -4.087   3.488  10.791  1.00  0.00     0.222 C 
HETATM    8  O1  UNL     1      -4.198   2.569   9.935  1.00  0.00    -0.273 OA
HETATM    9  N1  UNL     1      -3.619   4.746  10.366  1.00  0.00    -0.356 N 
ATOM     10  H1  UNL     1      -3.524   5.503  11.044  1.00  0.00     0.162 HD
BRANCH   9  11
HETATM   11  C2  UNL     1      -3.275   4.978   8.994  1.00  0.00     0.084 C 
HETATM   12  C3  UNL     1      -1.788   4.869   8.754  1.00  0.00     0.025 C 
HETATM   13  C4  UNL     1      -1.029   6.121   9.048  1.00  0.00     0.002 C 
HETATM   14  C5  UNL     1      -1.653   7.359   8.456  1.00  0.00     0.000 C 
HETATM   15  C6  UNL     1      -3.112   7.493   8.815  1.00  0.00     0.002 C 
HETATM   16  C7  UNL     1      -3.844   6.256   8.429  1.00  0.00     0.025 C 
ENDBRANCH   9  11
ENDBRANCH   1   7
BRANCH   4  17
HETATM   17  C11 UNL     1      -4.947   2.172  16.157  1.00  0.00     0.223 C 
HETATM   18  C12 UNL     1      -5.214   0.698  16.328  1.00  0.00     0.036 C 
HETATM   19  C13 UNL     1      -6.228   0.631  17.477  1.00  0.00     0.002 C 
HETATM   20  C14 UNL     1      -6.705   2.068  17.687  1.00  0.00     0.002 C 
HETATM   21  C15 UNL     1      -6.334   2.740  16.358  1.00  0.00     0.036 C 
ENDBRANCH   4  17
TORSDOF 3
ENDMDL
MODEL 2
REMARK VINA RESULT: -6.626618282      3.662      4.264
REMARK  3 active torsions:
REMARK  status: ('A' for Active; 'I' for Inactive)
REMARK       I    between atoms: C1_2  and  N1_3 
REMARK    1  A    between atoms: C1_2  and  C8_11 
REMARK    2  A    between atoms: N1_3  and  C2_5 
REMARK    3  A    between atoms: N2_14  and  C11_15 
ROOT
HETATM    1  C8  UNL     1      -3.842   5.704  14.172  1.00  0.00     0.081 C 
HETATM    2  C9  UNL     1      -3.025   4.450  14.082  1.00  0.00     0.044 C 
HETATM    3  C10 UNL     1      -3.661   3.453  15.061  1.00  0.00     0.273 C 
HETATM    4  N2  UNL     1      -5.015   3.190  14.716  1.00  0.00     0.093 N 
HETATM    5  C16 UNL     1      -5.829   4.376  14.600  1.00  0.00     0.273 C 
HETATM    6  C17 UNL     1      -5.219   5.384  13.633  1.00  0.00     0.044 C 
ENDROOT
BRANCH   1   7
HETATM    7  C1  UNL     1      -3.223   6.849  13.470  1.00  0.00     0.222 C 
HETATM    8  O1  UNL     1      -3.647   7.099  12.308  1.00  0.00    -0.273 OA
HETATM    9  N1  UNL     1      -2.206   7.665  14.001  1.00  0.00    -0.356 N 
ATOM     10  H1  UNL     1      -1.851   7.479  14.940  1.00  0.00     0.162 HD
BRANCH   9  11
HETATM   11  C2  UNL     1      -1.663   8.753  13.243  1.00  0.00     0.084 C 
HETATM   12  C3  UNL     1      -0.418   8.354  12.487  1.00  0.00     0.025 C 
HETATM   13  C4  UNL     1       0.836   8.429  13.294  1.00  0.00     0.002 C 
HETATM   14  C5  UNL     1       0.980   9.712  14.072  1.00  0.00     0.000 C 
HETATM   15  C6  UNL     1      -0.240  10.016  14.905  1.00  0.00     0.002 C 
HETATM   16  C7  UNL     1      -1.455  10.014  14.045  1.00  0.00     0.025 C 
ENDBRANCH   9  11
ENDBRANCH   1   7
BRANCH   4  17
HETATM   17  C11 UNL     1      -5.633   2.280  15.610  1.00  0.00     0.223 C 
HETATM   18  C12 UNL     1      -6.584   2.888  16.608  1.00  0.00     0.036 C 
HETATM   19  C13 UNL     1      -6.764   1.797  17.669  1.00  0.00     0.002 C 
HETATM   20  C14 UNL     1      -5.681   0.759  17.378  1.00  0.00     0.002 C 
HETATM   21  C15 UNL     1      -4.678   1.553  16.531  1.00  0.00     0.036 C 
ENDBRANCH   4  17
TORSDOF 3
ENDMDL
MODEL 3
REMARK VINA RESULT: -6.594982456      3.994      4.580
REMARK  3 active torsions:
REMARK  status: ('A' for Active; 'I' for Inactive)
REMARK       I    between atoms: C1_2  and  N1_3 
REMARK    1  A    between atoms: C1_2  and  C8_11 
REMARK    2  A    between atoms: N1_3  and  C2_5 
REMARK    3  A    between atoms: N2_14  and  C11_15 
ROOT
HETATM    1  C8  UNL     1      -3.329   5.904  14.020  1.00  0.00     0.081 C 
HETATM    2  C9  UNL     1      -2.622   4.584  14.068  1.00  0.00     0.044 C 
HETATM    3  C10 UNL     1      -3.435   3.697  15.022  1.00  0.00     0.273 C 
HETATM    4  N2  UNL     1      -4.768   3.531  14.555  1.00  0.00     0.093 N 
HETATM    5  C16 UNL     1      -5.459   4.772  14.306  1.00  0.00     0.273 C 
HETATM    6  C17 UNL     1      -4.671   5.673  13.361  1.00  0.00     0.044 C 
ENDROOT
BRANCH   1   7
HETATM    7  C1  UNL     1      -2.547   6.955  13.333  1.00  0.00     0.222 C 
HETATM    8  O1  UNL     1      -2.557   6.937  12.072  1.00  0.00    -0.273 OA
HETATM    9  N1  UNL     1      -1.801   7.957  13.982  1.00  0.00    -0.356 N 
ATOM     10  H1  UNL     1      -1.782   7.989  15.002  1.00  0.00     0.162 HD
BRANCH   9  11
HETATM   11  C2  UNL     1      -1.069   8.933  13.231  1.00  0.00     0.084 C 
HETATM   12  C3  UNL     1       0.322   9.147  13.779  1.00  0.00     0.025 C 
HETATM   13  C4  UNL     1       0.390  10.120  14.909  1.00  0.00     0.002 C 
HETATM   14  C5  UNL     1      -0.368  11.398  14.653  1.00  0.00     0.000 C 
HETATM   15  C6  UNL     1      -1.790  11.143  14.219  1.00  0.00     0.002 C 
HETATM   16  C7  UNL     1      -1.805  10.236  13.040  1.00  0.00     0.025 C 
ENDBRANCH   9  11
ENDBRANCH   1   7
BRANCH   4  17
HETATM   17  C11 UNL     1      -5.547   2.724  15.423  1.00  0.00     0.223 C 
HETATM   18  C12 UNL     1      -6.510   3.465  16.314  1.00  0.00     0.036 C 
HETATM   19  C13 UNL     1      -6.887   2.441  17.392  1.00  0.00     0.002 C 
HETATM   20  C14 UNL     1      -5.895   1.290  17.230  1.00  0.00     0.002 C 
HETATM   21  C15 UNL     1      -4.750   1.945  16.446  1.00  0.00     0.036 C 
ENDBRANCH   4  17
TORSDOF 3
ENDMDL
MODEL 4
REMARK VINA RESULT: -6.576299863      2.194      3.078
REMARK  3 active torsions:
REMARK  status: ('A' for Active; 'I' for Inactive)
REMARK       I    between atoms: C1_2  and  N1_3 
REMARK    1  A    between atoms: C1_2  and  C8_11 
REMARK    2  A    between atoms: N1_3  and  C2_5 
REMARK    3  A    between atoms: N2_14  and  C11_15 
ROOT
HETATM    1  C8  UNL     1      -4.418   4.818  13.040  1.00  0.00     0.081 C 
HETATM    2  C9  UNL     1      -4.484   3.349  12.750  1.00  0.00     0.044 C 
HETATM    3  C10 UNL     1      -4.435   2.641  14.111  1.00  0.00     0.273 C 
HETATM    4  N2  UNL     1      -5.526   3.036  14.933  1.00  0.00     0.093 N 
HETATM    5  C16 UNL     1      -5.640   4.463  15.108  1.00  0.00     0.273 C 
HETATM    6  C17 UNL     1      -5.689   5.191  13.770  1.00  0.00     0.044 C 
ENDROOT
BRANCH   1   7
HETATM    7  C1  UNL     1      -4.214   5.638  11.826  1.00  0.00     0.222 C 
HETATM    8  O1  UNL     1      -3.111   5.505  11.229  1.00  0.00    -0.273 OA
HETATM    9  N1  UNL     1      -5.153   6.546  11.301  1.00  0.00    -0.356 N 
ATOM     10  H1  UNL     1      -6.052   6.667  11.769  1.00  0.00     0.162 HD
BRANCH   9  11
HETATM   11  C2  UNL     1      -4.865   7.303  10.119  1.00  0.00     0.084 C 
HETATM   12  C3  UNL     1      -4.934   8.792  10.365  1.00  0.00     0.025 C 
HETATM   13  C4  UNL     1      -6.310   9.363  10.267  1.00  0.00     0.002 C 
HETATM   14  C5  UNL     1      -7.068   8.911   9.045  1.00  0.00     0.000 C 
HETATM   15  C6  UNL     1      -7.074   7.409   8.898  1.00  0.00     0.002 C 
HETATM   16  C7  UNL     1      -5.678   6.893   8.917  1.00  0.00     0.025 C 
ENDBRANCH   9  11
ENDBRANCH   1   7
BRANCH   4  17
HETATM   17  C11 UNL     1      -5.501   2.405  16.203  1.00  0.00     0.223 C 
HETATM   18  C12 UNL     1      -5.558   0.900  16.186  1.00  0.00     0.036 C 
HETATM   19  C13 UNL     1      -5.934   0.521  17.623  1.00  0.00     0.002 C 
HETATM   20  C14 UNL     1      -6.365   1.826  18.291  1.00  0.00     0.002 C 
HETATM   21  C15 UNL     1      -6.684   2.726  17.090  1.00  0.00     0.036 C 
ENDBRANCH   4  17
TORSDOF 3
ENDMDL
MODEL 5
REMARK VINA RESULT: -6.448707672      2.613      3.428
REMARK  3 active torsions:
REMARK  status: ('A' for Active; 'I' for Inactive)
REMARK       I    between atoms: C1_2  and  N1_3 
REMARK    1  A    between atoms: C1_2  and  C8_11 
REMARK    2  A    between atoms: N1_3  and  C2_5 
REMARK    3  A    between atoms: N2_14  and  C11_15 
ROOT
HETATM    1  C8  UNL     1      -2.500   3.523  12.682  1.00  0.00     0.081 C 
HETATM    2  C9  UNL     1      -3.678   2.842  12.055  1.00  0.00     0.044 C 
HETATM    3  C10 UNL     1      -4.421   2.133  13.196  1.00  0.00     0.273 C 
HETATM    4  N2  UNL     1      -4.852   3.063  14.182  1.00  0.00     0.093 N 
HETATM    5  C16 UNL     1      -3.793   3.892  14.704  1.00  0.00     0.273 C 
HETATM    6  C17 UNL     1      -3.037   4.607  13.591  1.00  0.00     0.044 C 
ENDROOT
BRANCH   1   7
HETATM    7  C1  UNL     1      -1.542   4.056  11.689  1.00  0.00     0.222 C 
HETATM    8  O1  UNL     1      -1.893   4.006  10.479  1.00  0.00    -0.273 OA
HETATM    9  N1  UNL     1      -0.283   4.605  11.999  1.00  0.00    -0.356 N 
ATOM     10  H1  UNL     1       0.018   4.655  12.972  1.00  0.00     0.162 HD
BRANCH   9  11
HETATM   11  C2  UNL     1       0.581   5.094  10.965  1.00  0.00     0.084 C 
HETATM   12  C3  UNL     1       1.912   4.379  10.950  1.00  0.00     0.025 C 
HETATM   13  C4  UNL     1       2.914   4.936  11.907  1.00  0.00     0.002 C 
HETATM   14  C5  UNL     1       3.028   6.438  11.858  1.00  0.00     0.000 C 
HETATM   15  C6  UNL     1       1.689   7.119  11.992  1.00  0.00     0.002 C 
HETATM   16  C7  UNL     1       0.748   6.593  10.966  1.00  0.00     0.025 C 
ENDBRANCH   9  11
ENDBRANCH   1   7
BRANCH   4  17
HETATM   17  C11 UNL     1      -5.533   2.435  15.255  1.00  0.00     0.223 C 
HETATM   18  C12 UNL     1      -6.443   3.326  16.061  1.00  0.00     0.036 C 
HETATM   19  C13 UNL     1      -6.701   2.534  17.348  1.00  0.00     0.002 C 
HETATM   20  C14 UNL     1      -5.689   1.388  17.333  1.00  0.00     0.002 C 
HETATM   21  C15 UNL     1      -4.632   1.889  16.341  1.00  0.00     0.036 C 
ENDBRANCH   4  17
TORSDOF 3
ENDMDL
