MODEL 1
REMARK VINA RESULT: -6.242063568      0.000      0.000
REMARK  3 active torsions:
REMARK  status: ('A' for Active; 'I' for Inactive)
REMARK    1  A    between atoms: C2_2  and  C9_9 
REMARK    2  A    between atoms: C3_3  and  C4_4 
REMARK    3  A    between atoms: C9_9  and  N1_10 
REMARK       I    between atoms: N1_10  and  C10_12 
REMARK       I    between atoms: C10_12  and  N2_14 
ROOT
HETATM    1  N1  UNL     1      -3.369   5.373  14.396  1.00  0.00    -0.339 N 
ATOM      2  H1  UNL     1      -3.121   5.679  15.337  1.00  0.00     0.164 HD
HETATM    3  C10 UNL     1      -3.073   6.213  13.302  1.00  0.00     0.319 C 
HETATM    4  O1  UNL     1      -3.376   5.837  12.161  1.00  0.00    -0.247 OA
HETATM    5  N2  UNL     1      -2.442   7.454  13.530  1.00  0.00    -0.325 N 
HETATM    6  C11 UNL     1      -2.104   7.861  14.858  1.00  0.00     0.129 C 
HETATM    7  C12 UNL     1      -1.355   9.142  14.977  1.00  0.00     0.030 C 
HETATM    8  C13 UNL     1      -0.059   9.152  14.203  1.00  0.00     0.077 C 
HETATM    9  S1  UNL     1      -0.367   8.667  12.458  1.00  0.00    -0.149 SA
HETATM   10  C14 UNL     1      -2.152   8.291  12.392  1.00  0.00     0.201 C 
ENDROOT
BRANCH   1  11
HETATM   11  C9  UNL     1      -4.020   4.079  14.223  1.00  0.00     0.157 C 
BRANCH  11  12
HETATM   12  C2  UNL     1      -5.241   3.991  15.060  1.00  0.00    -0.070 C 
HETATM   13  C1  UNL     1      -6.241   5.085  14.977  1.00  0.00     0.044 C 
HETATM   14  C3  UNL     1      -5.456   2.973  15.866  1.00  0.00    -0.018 C 
BRANCH  14  15
HETATM   15  C4  UNL     1      -6.688   2.899  16.699  1.00  0.00     0.008 C 
HETATM   16  C5  UNL     1      -7.454   1.659  16.279  1.00  0.00     0.008 C 
HETATM   17  C6  UNL     1      -7.108   0.595  17.296  1.00  0.00     0.001 C 
HETATM   18  C7  UNL     1      -5.934   1.135  18.048  1.00  0.00     0.001 C 
HETATM   19  C8  UNL     1      -6.242   2.625  18.121  1.00  0.00     0.008 C 
ENDBRANCH  14  15
ENDBRANCH  11  12
ENDBRANCH   1  11
TORSDOF 3
ENDMDL
MODEL 2
REMARK VINA RESULT: -6.218761626      3.350      3.878
REMARK  3 active torsions:
REMARK  status: ('A' for Active; 'I' for Inactive)
REMARK    1  A    between atoms: C2_2  and  C9_9 
REMARK    2  A    between atoms: C3_3  and  C4_4 
REMARK    3  A    between atoms: C9_9  and  N1_10 
REMARK       I    between atoms: N1_10  and  C10_12 
REMARK       I    between atoms: C10_12  and  N2_14 
ROOT
HETATM    1  N1  UNL     1      -3.126   3.309  11.784  1.00  0.00    -0.339 N 
ATOM      2  H1  UNL     1      -2.273   3.544  12.292  1.00  0.00     0.164 HD
HETATM    3  C10 UNL     1      -3.301   3.801  10.473  1.00  0.00     0.319 C 
HETATM    4  O1  UNL     1      -4.338   3.512   9.861  1.00  0.00    -0.247 OA
HETATM    5  N2  UNL     1      -2.296   4.604   9.894  1.00  0.00    -0.325 N 
HETATM    6  C11 UNL     1      -1.110   4.920  10.626  1.00  0.00     0.129 C 
HETATM    7  C12 UNL     1      -0.074   5.692   9.887  1.00  0.00     0.030 C 
HETATM    8  C13 UNL     1       0.394   5.010   8.624  1.00  0.00     0.077 C 
HETATM    9  S1  UNL     1      -1.051   4.574   7.576  1.00  0.00    -0.149 SA
HETATM   10  C14 UNL     1      -2.503   5.092   8.553  1.00  0.00     0.201 C 
ENDROOT
BRANCH   1  11
HETATM   11  C9  UNL     1      -4.128   2.474  12.436  1.00  0.00     0.157 C 
BRANCH  11  12
HETATM   12  C2  UNL     1      -4.326   2.895  13.844  1.00  0.00    -0.070 C 
HETATM   13  C1  UNL     1      -3.547   4.050  14.358  1.00  0.00     0.044 C 
HETATM   14  C3  UNL     1      -5.169   2.274  14.641  1.00  0.00    -0.018 C 
BRANCH  14  15
HETATM   15  C4  UNL     1      -5.356   2.709  16.053  1.00  0.00     0.008 C 
HETATM   16  C5  UNL     1      -6.849   2.798  16.313  1.00  0.00     0.008 C 
HETATM   17  C6  UNL     1      -7.223   1.512  17.014  1.00  0.00     0.001 C 
HETATM   18  C7  UNL     1      -6.044   0.609  16.840  1.00  0.00     0.001 C 
HETATM   19  C8  UNL     1      -4.869   1.575  16.931  1.00  0.00     0.008 C 
ENDBRANCH  14  15
ENDBRANCH  11  12
ENDBRANCH   1  11
TORSDOF 3
ENDMDL
MODEL 3
REMARK VINA RESULT: -6.189484806      2.687      2.887
REMARK  3 active torsions:
REMARK  status: ('A' for Active; 'I' for Inactive)
REMARK    1  A    between atoms: C2_2  and  C9_9 
REMARK    2  A    between atoms: C3_3  and  C4_4 
REMARK    3  A    between atoms: C9_9  and  N1_10 
REMARK       I    between atoms: N1_10  and  C10_12 
REMARK       I    between atoms: C10_12  and  N2_14 
ROOT
HETATM    1  N1  UNL     1      -2.886   3.661  12.883  1.00  0.00    -0.339 N 
ATOM      2  H1  UNL     1      -2.473   4.187  13.653  1.00  0.00     0.164 HD
HETATM    3  C10 UNL     1      -2.363   3.826  11.582  1.00  0.00     0.319 C 
HETATM    4  O1  UNL     1      -2.868   3.184  10.651  1.00  0.00    -0.247 OA
HETATM    5  N2  UNL     1      -1.284   4.711  11.375  1.00  0.00    -0.325 N 
HETATM    6  C11 UNL     1      -0.723   5.437  12.471  1.00  0.00     0.129 C 
HETATM    7  C12 UNL     1       0.472   6.268  12.158  1.00  0.00     0.030 C 
HETATM    8  C13 UNL     1       1.613   5.477  11.563  1.00  0.00     0.077 C 
HETATM    9  S1  UNL     1       1.018   4.513  10.117  1.00  0.00    -0.149 SA
HETATM   10  C14 UNL     1      -0.772   4.858  10.035  1.00  0.00     0.201 C 
ENDROOT
BRANCH   1  11
HETATM   11  C9  UNL     1      -3.999   2.761  13.160  1.00  0.00     0.157 C 
BRANCH  11  12
HETATM   12  C2  UNL     1      -4.690   3.152  14.412  1.00  0.00    -0.070 C 
HETATM   13  C1  UNL     1      -4.856   4.596  14.712  1.00  0.00     0.044 C 
HETATM   14  C3  UNL     1      -5.156   2.255  15.255  1.00  0.00    -0.018 C 
BRANCH  14  15
HETATM   15  C4  UNL     1      -5.849   2.664  16.508  1.00  0.00     0.008 C 
HETATM   16  C5  UNL     1      -7.325   2.356  16.340  1.00  0.00     0.008 C 
HETATM   17  C6  UNL     1      -7.554   1.038  17.043  1.00  0.00     0.001 C 
HETATM   18  C7  UNL     1      -6.190   0.480  17.293  1.00  0.00     0.001 C 
HETATM   19  C8  UNL     1      -5.372   1.728  17.600  1.00  0.00     0.008 C 
ENDBRANCH  14  15
ENDBRANCH  11  12
ENDBRANCH   1  11
TORSDOF 3
ENDMDL
MODEL 4
REMARK VINA RESULT: -6.104480361      2.471      2.803
REMARK  3 active torsions:
REMARK  status: ('A' for Active; 'I' for Inactive)
REMARK    1  A    between atoms: C2_2  and  C9_9 
REMARK    2  A    between atoms: C3_3  and  C4_4 
REMARK    3  A    between atoms: C9_9  and  N1_10 
REMARK       I    between atoms: N1_10  and  C10_12 
REMARK       I    between atoms: C10_12  and  N2_14 
ROOT
HETATM    1  N1  UNL     1      -3.287   3.938  12.246  1.00  0.00    -0.339 N 
ATOM      2  H1  UNL     1      -3.743   4.838  12.096  1.00  0.00     0.164 HD
HETATM    3  C10 UNL     1      -1.931   3.789  11.882  1.00  0.00     0.319 C 
HETATM    4  O1  UNL     1      -1.382   2.694  12.066  1.00  0.00    -0.247 OA
HETATM    5  N2  UNL     1      -1.238   4.882  11.322  1.00  0.00    -0.325 N 
HETATM    6  C11 UNL     1      -1.900   6.133  11.122  1.00  0.00     0.129 C 
HETATM    7  C12 UNL     1      -1.051   7.246  10.615  1.00  0.00     0.030 C 
HETATM    8  C13 UNL     1       0.134   7.546  11.501  1.00  0.00     0.077 C 
HETATM    9  S1  UNL     1       1.089   6.008  11.812  1.00  0.00    -0.149 SA
HETATM   10  C14 UNL     1       0.145   4.698  10.960  1.00  0.00     0.201 C 
ENDROOT
BRANCH   1  11
HETATM   11  C9  UNL     1      -4.056   2.845  12.830  1.00  0.00     0.157 C 
BRANCH  11  12
HETATM   12  C2  UNL     1      -4.492   3.188  14.205  1.00  0.00    -0.070 C 
HETATM   13  C1  UNL     1      -4.246   4.561  14.709  1.00  0.00     0.044 C 
HETATM   14  C3  UNL     1      -5.089   2.307  14.981  1.00  0.00    -0.018 C 
BRANCH  14  15
HETATM   15  C4  UNL     1      -5.521   2.667  16.360  1.00  0.00     0.008 C 
HETATM   16  C5  UNL     1      -7.037   2.619  16.393  1.00  0.00     0.008 C 
HETATM   17  C6  UNL     1      -7.396   1.279  16.992  1.00  0.00     0.001 C 
HETATM   18  C7  UNL     1      -6.129   0.486  16.973  1.00  0.00     0.001 C 
HETATM   19  C8  UNL     1      -5.071   1.542  17.269  1.00  0.00     0.008 C 
ENDBRANCH  14  15
ENDBRANCH  11  12
ENDBRANCH   1  11
TORSDOF 3
ENDMDL
MODEL 5
REMARK VINA RESULT: -6.026853218      3.171      3.642
REMARK  3 active torsions:
REMARK  status: ('A' for Active; 'I' for Inactive)
REMARK    1  A    between atoms: C2_2  and  C9_9 
REMARK    2  A    between atoms: C3_3  and  C4_4 
REMARK    3  A    between atoms: C9_9  and  N1_10 
REMARK       I    between atoms: N1_10  and  C10_12 
REMARK       I    between atoms: C10_12  and  N2_14 
ROOT
HETATM    1  N1  UNL     1      -4.363   3.902  11.917  1.00  0.00    -0.339 N 
ATOM      2  H1  UNL     1      -4.881   4.676  12.333  1.00  0.00     0.164 HD
HETATM    3  C10 UNL     1      -3.852   4.043  10.609  1.00  0.00     0.319 C 
HETATM    4  O1  UNL     1      -3.224   3.100  10.109  1.00  0.00    -0.247 OA
HETATM    5  N2  UNL     1      -4.068   5.247   9.906  1.00  0.00    -0.325 N 
HETATM    6  C11 UNL     1      -4.797   6.317  10.510  1.00  0.00     0.129 C 
HETATM    7  C12 UNL     1      -4.884   7.576   9.720  1.00  0.00     0.030 C 
HETATM    8  C13 UNL     1      -3.534   8.150   9.360  1.00  0.00     0.077 C 
HETATM    9  S1  UNL     1      -2.503   6.867   8.545  1.00  0.00    -0.149 SA
HETATM   10  C14 UNL     1      -3.535   5.361   8.571  1.00  0.00     0.201 C 
ENDROOT
BRANCH   1  11
HETATM   11  C9  UNL     1      -4.172   2.682  12.694  1.00  0.00     0.157 C 
BRANCH  11  12
HETATM   12  C2  UNL     1      -4.337   2.953  14.142  1.00  0.00    -0.070 C 
HETATM   13  C1  UNL     1      -3.667   4.141  14.727  1.00  0.00     0.044 C 
HETATM   14  C3  UNL     1      -5.060   2.169  14.915  1.00  0.00    -0.018 C 
BRANCH  14  15
HETATM   15  C4  UNL     1      -5.217   2.454  16.368  1.00  0.00     0.008 C 
HETATM   16  C5  UNL     1      -6.669   2.823  16.611  1.00  0.00     0.008 C 
HETATM   17  C6  UNL     1      -7.333   1.569  17.129  1.00  0.00     0.001 C 
HETATM   18  C7  UNL     1      -6.361   0.466  16.859  1.00  0.00     0.001 C 
HETATM   19  C8  UNL     1      -5.016   1.142  17.098  1.00  0.00     0.008 C 
ENDBRANCH  14  15
ENDBRANCH  11  12
ENDBRANCH   1  11
TORSDOF 3
ENDMDL
