MODEL 1
REMARK VINA RESULT: -7.392133712      0.000      0.000
REMARK  3 active torsions:
REMARK  status: ('A' for Active; 'I' for Inactive)
REMARK    1  A    between atoms: C1_2  and  C2_4 
REMARK    2  A    between atoms: C2_4  and  C3_5 
REMARK    3  A    between atoms: N1_12  and  C10_13 
ROOT
HETATM    1  C3  UNL     1      -4.787   3.122  14.639  1.00  0.00    -0.027 C 
HETATM    2  C4  UNL     1      -5.727   4.268  14.779  1.00  0.00     0.014 C 
HETATM    3  C5  UNL     1      -5.159   5.597  14.316  1.00  0.00    -0.012 C 
HETATM    4  C6  UNL     1      -5.433   5.720  12.855  1.00  0.00     0.007 C 
HETATM    5  C7  UNL     1      -4.579   4.959  11.941  1.00  0.00     0.025 C 
HETATM    6  C8  UNL     1      -3.710   3.884  12.485  1.00  0.00     0.080 C 
HETATM    7  C9  UNL     1      -4.522   2.807  13.208  1.00  0.00     0.035 C 
HETATM    8  N1  UNL     1      -2.638   4.380  13.211  1.00  0.00    -0.400 N 
HETATM    9  C15 UNL     1      -2.862   4.650  14.601  1.00  0.00     0.081 C 
HETATM   10  C16 UNL     1      -3.756   5.846  14.721  1.00  0.00     0.029 C 
HETATM   11  C17 UNL     1      -3.439   3.461  15.278  1.00  0.00     0.035 C 
ENDROOT
BRANCH   8  12
HETATM   12  C10 UNL     1      -1.339   4.449  12.763  1.00  0.00     0.080 C 
HETATM   13  C11 UNL     1      -0.655   5.797  12.724  1.00  0.00     0.025 C 
HETATM   14  C12 UNL     1       0.552   5.594  11.803  1.00  0.00     0.002 C 
HETATM   15  C13 UNL     1       0.445   4.172  11.320  1.00  0.00     0.002 C 
HETATM   16  C14 UNL     1      -1.053   3.946  11.366  1.00  0.00     0.025 C 
ENDBRANCH   8  12
BRANCH   1  17
HETATM   17  C2  UNL     1      -5.298   1.936  15.388  1.00  0.00     0.122 C 
BRANCH  17  18
HETATM   18  C1  UNL     1      -4.458   0.737  15.382  1.00  0.00     0.173 C 
HETATM   19  O1  UNL     1      -3.545   0.552  16.202  1.00  0.00    -0.648 OA
HETATM   20  O2  UNL     1      -4.678  -0.239  14.425  1.00  0.00    -0.648 OA
ENDBRANCH  17  18
ENDBRANCH   1  17
TORSDOF 3
ENDMDL
MODEL 2
REMARK VINA RESULT: -7.355741695      1.804      3.112
REMARK  3 active torsions:
REMARK  status: ('A' for Active; 'I' for Inactive)
REMARK    1  A    between atoms: C1_2  and  C2_4 
REMARK    2  A    between atoms: C2_4  and  C3_5 
REMARK    3  A    between atoms: N1_12  and  C10_13 
ROOT
HETATM    1  C3  UNL     1      -4.216   3.687  14.598  1.00  0.00    -0.027 C 
HETATM    2  C4  UNL     1      -4.271   2.938  13.313  1.00  0.00     0.014 C 
HETATM    3  C5  UNL     1      -3.846   3.751  12.103  1.00  0.00    -0.012 C 
HETATM    4  C6  UNL     1      -2.367   3.617  11.966  1.00  0.00     0.007 C 
HETATM    5  C7  UNL     1      -1.531   4.406  12.875  1.00  0.00     0.025 C 
HETATM    6  C8  UNL     1      -2.152   5.041  14.065  1.00  0.00     0.080 C 
HETATM    7  C9  UNL     1      -2.814   4.009  14.982  1.00  0.00     0.035 C 
HETATM    8  N1  UNL     1      -2.959   6.119  13.735  1.00  0.00    -0.400 N 
HETATM    9  C15 UNL     1      -4.325   5.832  13.405  1.00  0.00     0.081 C 
HETATM   10  C16 UNL     1      -4.362   5.140  12.077  1.00  0.00     0.029 C 
HETATM   11  C17 UNL     1      -4.960   5.017  14.470  1.00  0.00     0.035 C 
ENDROOT
BRANCH   8  12
HETATM   12  C10 UNL     1      -2.619   7.443  13.888  1.00  0.00     0.080 C 
HETATM   13  C11 UNL     1      -1.913   8.147  12.750  1.00  0.00     0.025 C 
HETATM   14  C12 UNL     1      -1.310   9.404  13.385  1.00  0.00     0.002 C 
HETATM   15  C13 UNL     1      -1.645   9.305  14.850  1.00  0.00     0.002 C 
HETATM   16  C14 UNL     1      -1.717   7.804  15.047  1.00  0.00     0.025 C 
ENDBRANCH   8  12
BRANCH   1  17
HETATM   17  C2  UNL     1      -4.929   2.930  15.670  1.00  0.00     0.122 C 
BRANCH  17  18
HETATM   18  C1  UNL     1      -4.509   1.546  15.894  1.00  0.00     0.173 C 
HETATM   19  O1  UNL     1      -3.398   1.248  16.362  1.00  0.00    -0.648 OA
HETATM   20  O2  UNL     1      -5.375   0.515  15.575  1.00  0.00    -0.648 OA
ENDBRANCH  17  18
ENDBRANCH   1  17
TORSDOF 3
ENDMDL
MODEL 3
REMARK VINA RESULT: -6.806461609      1.685      3.464
REMARK  3 active torsions:
REMARK  status: ('A' for Active; 'I' for Inactive)
REMARK    1  A    between atoms: C1_2  and  C2_4 
REMARK    2  A    between atoms: C2_4  and  C3_5 
REMARK    3  A    between atoms: N1_12  and  C10_13 
ROOT
HETATM    1  C3  UNL     1      -4.277   3.759  14.548  1.00  0.00    -0.027 C 
HETATM    2  C4  UNL     1      -2.860   3.925  14.974  1.00  0.00     0.014 C 
HETATM    3  C5  UNL     1      -1.975   4.591  13.937  1.00  0.00    -0.012 C 
HETATM    4  C6  UNL     1      -2.071   6.065  14.139  1.00  0.00     0.007 C 
HETATM    5  C7  UNL     1      -3.274   6.737  13.644  1.00  0.00     0.025 C 
HETATM    6  C8  UNL     1      -4.454   5.923  13.257  1.00  0.00     0.080 C 
HETATM    7  C9  UNL     1      -4.966   5.073  14.423  1.00  0.00     0.035 C 
HETATM    8  N1  UNL     1      -4.256   5.221  12.078  1.00  0.00    -0.400 N 
HETATM    9  C15 UNL     1      -3.633   3.934  12.183  1.00  0.00     0.081 C 
HETATM   10  C16 UNL     1      -2.193   4.126  12.546  1.00  0.00     0.029 C 
HETATM   11  C17 UNL     1      -4.343   3.088  13.175  1.00  0.00     0.035 C 
ENDROOT
BRANCH   8  12
HETATM   12  C10 UNL     1      -4.779   5.563  10.852  1.00  0.00     0.080 C 
HETATM   13  C11 UNL     1      -3.828   5.869   9.717  1.00  0.00     0.025 C 
HETATM   14  C12 UNL     1      -4.680   6.611   8.683  1.00  0.00     0.002 C 
HETATM   15  C13 UNL     1      -6.040   6.746   9.318  1.00  0.00     0.002 C 
HETATM   16  C14 UNL     1      -5.688   6.771  10.792  1.00  0.00     0.025 C 
ENDBRANCH   8  12
BRANCH   1  17
HETATM   17  C2  UNL     1      -4.994   2.838  15.478  1.00  0.00     0.122 C 
BRANCH  17  18
HETATM   18  C1  UNL     1      -4.418   1.505  15.665  1.00  0.00     0.173 C 
HETATM   19  O1  UNL     1      -3.394   1.303  16.337  1.00  0.00    -0.648 OA
HETATM   20  O2  UNL     1      -5.029   0.414  15.071  1.00  0.00    -0.648 OA
ENDBRANCH  17  18
ENDBRANCH   1  17
TORSDOF 3
ENDMDL
MODEL 4
REMARK VINA RESULT: -6.716582149      1.676      3.843
REMARK  3 active torsions:
REMARK  status: ('A' for Active; 'I' for Inactive)
REMARK    1  A    between atoms: C1_2  and  C2_4 
REMARK    2  A    between atoms: C2_4  and  C3_5 
REMARK    3  A    between atoms: N1_12  and  C10_13 
ROOT
HETATM    1  C3  UNL     1      -4.445   3.548  14.387  1.00  0.00    -0.027 C 
HETATM    2  C4  UNL     1      -2.980   3.486  14.639  1.00  0.00     0.014 C 
HETATM    3  C5  UNL     1      -2.158   4.403  13.752  1.00  0.00    -0.012 C 
HETATM    4  C6  UNL     1      -2.084   5.733  14.422  1.00  0.00     0.007 C 
HETATM    5  C7  UNL     1      -3.264   6.597  14.339  1.00  0.00     0.025 C 
HETATM    6  C8  UNL     1      -4.555   6.022  13.884  1.00  0.00     0.080 C 
HETATM    7  C9  UNL     1      -5.011   4.868  14.781  1.00  0.00     0.035 C 
HETATM    8  N1  UNL     1      -4.564   5.733  12.528  1.00  0.00    -0.400 N 
HETATM    9  C15 UNL     1      -4.063   4.449  12.133  1.00  0.00     0.081 C 
HETATM   10  C16 UNL     1      -2.579   4.431  12.331  1.00  0.00     0.029 C 
HETATM   11  C17 UNL     1      -4.735   3.368  12.896  1.00  0.00     0.035 C 
ENDROOT
BRANCH   8  12
HETATM   12  C10 UNL     1      -5.187   6.486  11.560  1.00  0.00     0.080 C 
HETATM   13  C11 UNL     1      -4.499   7.734  11.055  1.00  0.00     0.025 C 
HETATM   14  C12 UNL     1      -5.604   8.532  10.356  1.00  0.00     0.002 C 
HETATM   15  C13 UNL     1      -6.862   7.730  10.564  1.00  0.00     0.002 C 
HETATM   16  C14 UNL     1      -6.564   7.029  11.875  1.00  0.00     0.025 C 
ENDBRANCH   8  12
BRANCH   1  17
HETATM   17  C2  UNL     1      -5.139   2.416  15.069  1.00  0.00     0.122 C 
BRANCH  17  18
HETATM   18  C1  UNL     1      -4.435   1.133  15.102  1.00  0.00     0.173 C 
HETATM   19  O1  UNL     1      -4.479   0.318  14.167  1.00  0.00    -0.648 OA
HETATM   20  O2  UNL     1      -3.686   0.799  16.218  1.00  0.00    -0.648 OA
ENDBRANCH  17  18
ENDBRANCH   1  17
TORSDOF 3
ENDMDL
MODEL 5
REMARK VINA RESULT: -6.648587997      2.953      5.415
REMARK  3 active torsions:
REMARK  status: ('A' for Active; 'I' for Inactive)
REMARK    1  A    between atoms: C1_2  and  C2_4 
REMARK    2  A    between atoms: C2_4  and  C3_5 
REMARK    3  A    between atoms: N1_12  and  C10_13 
ROOT
HETATM    1  C3  UNL     1      -4.038   5.878  12.085  1.00  0.00    -0.027 C 
HETATM    2  C4  UNL     1      -2.560   6.017  11.978  1.00  0.00     0.014 C 
HETATM    3  C5  UNL     1      -1.782   5.099  12.903  1.00  0.00    -0.012 C 
HETATM    4  C6  UNL     1      -1.580   3.805  12.190  1.00  0.00     0.007 C 
HETATM    5  C7  UNL     1      -2.719   2.886  12.123  1.00  0.00     0.025 C 
HETATM    6  C8  UNL     1      -4.074   3.382  12.473  1.00  0.00     0.080 C 
HETATM    7  C9  UNL     1      -4.499   4.554  11.584  1.00  0.00     0.035 C 
HETATM    8  N1  UNL     1      -4.226   3.609  13.833  1.00  0.00    -0.400 N 
HETATM    9  C15 UNL     1      -3.828   4.894  14.327  1.00  0.00     0.081 C 
HETATM   10  C16 UNL     1      -2.334   4.988  14.274  1.00  0.00     0.029 C 
HETATM   11  C17 UNL     1      -4.476   5.978  13.547  1.00  0.00     0.035 C 
ENDROOT
BRANCH   8  12
HETATM   12  C10 UNL     1      -4.901   2.786  14.705  1.00  0.00     0.080 C 
HETATM   13  C11 UNL     1      -6.154   3.307  15.372  1.00  0.00     0.025 C 
HETATM   14  C12 UNL     1      -6.387   2.361  16.554  1.00  0.00     0.002 C 
HETATM   15  C13 UNL     1      -5.222   1.407  16.532  1.00  0.00     0.002 C 
HETATM   16  C14 UNL     1      -4.140   2.261  15.902  1.00  0.00     0.025 C 
ENDBRANCH   8  12
BRANCH   1  17
HETATM   17  C2  UNL     1      -4.718   7.008  11.385  1.00  0.00     0.122 C 
BRANCH  17  18
HETATM   18  C1  UNL     1      -6.116   6.804  11.002  1.00  0.00     0.173 C 
HETATM   19  O1  UNL     1      -7.068   7.142  11.725  1.00  0.00    -0.648 OA
HETATM   20  O2  UNL     1      -6.405   6.209   9.786  1.00  0.00    -0.648 OA
ENDBRANCH  17  18
ENDBRANCH   1  17
TORSDOF 3
ENDMDL
