MODEL 1
REMARK VINA RESULT: -8.984035508      0.000      0.000
REMARK  1 active torsions:
REMARK  status: ('A' for Active; 'I' for Inactive)
REMARK    1  A    between atoms: C8_16  and  C9_17 
ROOT
HETATM    1  C1  UNL     1     -28.455  -6.380   1.549  1.00  0.00     0.143 A 
HETATM    2  C2  UNL     1     -27.099  -6.557   1.514  1.00  0.00     0.039 A 
HETATM    3  C3  UNL     1     -26.889  -7.813   0.997  1.00  0.00     0.001 A 
HETATM    4  C4  UNL     1     -25.784  -8.583   0.707  1.00  0.00     0.029 A 
HETATM    5  C5  UNL     1     -25.860  -9.853   0.177  1.00  0.00     0.012 A 
HETATM    6  C6  UNL     1     -24.669 -10.617  -0.107  1.00  0.00     0.147 A 
HETATM    7  N1  UNL     1     -23.388 -10.286   0.067  1.00  0.00    -0.268 N 
ATOM      8  H1  UNL     1     -23.053  -9.400   0.446  1.00  0.00     0.190 HD
HETATM    9  N2  UNL     1     -22.608 -11.308  -0.337  1.00  0.00    -0.227 N 
ATOM     10  H2  UNL     1     -21.588 -11.334  -0.319  1.00  0.00     0.210 HD
HETATM   11  N3  UNL     1     -23.406 -12.266  -0.759  1.00  0.00    -0.227 N 
ATOM     12  H3  UNL     1     -23.110 -13.170  -1.127  1.00  0.00     0.210 HD
HETATM   13  N4  UNL     1     -24.654 -11.858  -0.624  1.00  0.00    -0.268 N 
ATOM     14  H4  UNL     1     -25.481 -12.401  -0.874  1.00  0.00     0.190 HD
HETATM   15  C7  UNL     1     -27.123 -10.354  -0.068  1.00  0.00     0.026 A 
HETATM   16  C8  UNL     1     -28.274  -9.652   0.192  1.00  0.00    -0.014 A 
HETATM   17  C19 UNL     1     -28.140  -8.378   0.725  1.00  0.00     0.092 A 
HETATM   18  O1  UNL     1     -28.990  -7.454   1.086  1.00  0.00    -0.321 OA
ENDROOT
BRANCH  16  19
HETATM   19  C9  UNL     1     -29.576 -10.251  -0.095  1.00  0.00    -0.009 C 
HETATM   20  C10 UNL     1     -29.959 -11.108   1.099  1.00  0.00     0.019 C 
HETATM   21  C11 UNL     1     -31.242 -11.852   0.815  1.00  0.00    -0.013 C 
HETATM   22  C12 UNL     1     -32.324 -10.821   0.609  1.00  0.00     0.009 C 
HETATM   23  C16 UNL     1     -31.106 -12.704  -0.401  1.00  0.00     0.009 C 
HETATM   24  C13 UNL     1     -31.960  -9.991  -0.600  1.00  0.00    -0.013 C 
HETATM   25  C14 UNL     1     -31.862 -10.839  -1.851  1.00  0.00     0.009 C 
HETATM   26  C18 UNL     1     -30.658  -9.244  -0.392  1.00  0.00     0.019 C 
HETATM   27  C15 UNL     1     -30.788 -11.853  -1.605  1.00  0.00    -0.013 C 
HETATM   28  C17 UNL     1     -29.484 -11.113  -1.351  1.00  0.00     0.019 C 
ENDBRANCH  16  19
TORSDOF 1
ENDMDL
MODEL 2
REMARK VINA RESULT: -8.867111783      0.106      1.500
REMARK  1 active torsions:
REMARK  status: ('A' for Active; 'I' for Inactive)
REMARK    1  A    between atoms: C8_16  and  C9_17 
ROOT
HETATM    1  C1  UNL     1     -28.471  -6.415   1.549  1.00  0.00     0.143 A 
HETATM    2  C2  UNL     1     -27.112  -6.562   1.495  1.00  0.00     0.039 A 
HETATM    3  C3  UNL     1     -26.883  -7.822   0.993  1.00  0.00     0.001 A 
HETATM    4  C4  UNL     1     -25.765  -8.571   0.695  1.00  0.00     0.029 A 
HETATM    5  C5  UNL     1     -25.822  -9.850   0.185  1.00  0.00     0.012 A 
HETATM    6  C6  UNL     1     -24.618 -10.591  -0.108  1.00  0.00     0.147 A 
HETATM    7  N1  UNL     1     -23.343 -10.230   0.041  1.00  0.00    -0.268 N 
ATOM      8  H1  UNL     1     -23.022  -9.331   0.401  1.00  0.00     0.190 HD
HETATM    9  N2  UNL     1     -22.547 -11.240  -0.361  1.00  0.00    -0.227 N 
ATOM     10  H2  UNL     1     -21.526 -11.243  -0.360  1.00  0.00     0.210 HD
HETATM   11  N3  UNL     1     -23.330 -12.222  -0.756  1.00  0.00    -0.227 N 
ATOM     12  H3  UNL     1     -23.020 -13.124  -1.116  1.00  0.00     0.210 HD
HETATM   13  N4  UNL     1     -24.585 -11.840  -0.607  1.00  0.00    -0.268 N 
ATOM     14  H4  UNL     1     -25.403 -12.404  -0.835  1.00  0.00     0.190 HD
HETATM   15  C7  UNL     1     -27.077 -10.382  -0.032  1.00  0.00     0.026 A 
HETATM   16  C8  UNL     1     -28.239  -9.702   0.237  1.00  0.00    -0.014 A 
HETATM   17  C19 UNL     1     -28.124  -8.418   0.750  1.00  0.00     0.092 A 
HETATM   18  O1  UNL     1     -28.989  -7.508   1.111  1.00  0.00    -0.321 OA
ENDROOT
BRANCH  16  19
HETATM   19  C9  UNL     1     -29.532 -10.334  -0.020  1.00  0.00    -0.009 C 
HETATM   20  C10 UNL     1     -29.376 -11.210  -1.251  1.00  0.00     0.019 C 
HETATM   21  C11 UNL     1     -30.711 -11.800  -1.642  1.00  0.00    -0.013 C 
HETATM   22  C12 UNL     1     -31.171 -12.670  -0.499  1.00  0.00     0.009 C 
HETATM   23  C16 UNL     1     -31.710 -10.725  -1.905  1.00  0.00     0.009 C 
HETATM   24  C13 UNL     1     -31.358 -11.792   0.716  1.00  0.00    -0.013 C 
HETATM   25  C14 UNL     1     -32.405 -10.724   0.477  1.00  0.00     0.009 C 
HETATM   26  C18 UNL     1     -30.058 -11.140   1.140  1.00  0.00     0.019 C 
HETATM   27  C15 UNL     1     -31.918  -9.888  -0.668  1.00  0.00    -0.013 C 
HETATM   28  C17 UNL     1     -30.591  -9.264  -0.270  1.00  0.00     0.019 C 
ENDBRANCH  16  19
TORSDOF 1
ENDMDL
MODEL 3
REMARK VINA RESULT: -8.740598619      0.207      1.493
REMARK  1 active torsions:
REMARK  status: ('A' for Active; 'I' for Inactive)
REMARK    1  A    between atoms: C8_16  and  C9_17 
ROOT
HETATM    1  C1  UNL     1     -28.533  -6.363   1.580  1.00  0.00     0.143 A 
HETATM    2  C2  UNL     1     -27.173  -6.507   1.527  1.00  0.00     0.039 A 
HETATM    3  C3  UNL     1     -26.940  -7.767   1.030  1.00  0.00     0.001 A 
HETATM    4  C4  UNL     1     -25.820  -8.515   0.737  1.00  0.00     0.029 A 
HETATM    5  C5  UNL     1     -25.872  -9.795   0.231  1.00  0.00     0.012 A 
HETATM    6  C6  UNL     1     -24.666 -10.534  -0.058  1.00  0.00     0.147 A 
HETATM    7  N1  UNL     1     -23.392 -10.169   0.090  1.00  0.00    -0.268 N 
ATOM      8  H1  UNL     1     -23.074  -9.268   0.448  1.00  0.00     0.190 HD
HETATM    9  N2  UNL     1     -22.592 -11.178  -0.307  1.00  0.00    -0.227 N 
ATOM     10  H2  UNL     1     -21.572 -11.178  -0.304  1.00  0.00     0.210 HD
HETATM   11  N3  UNL     1     -23.372 -12.164  -0.699  1.00  0.00    -0.227 N 
ATOM     12  H3  UNL     1     -23.060 -13.066  -1.055  1.00  0.00     0.210 HD
HETATM   13  N4  UNL     1     -24.629 -11.784  -0.553  1.00  0.00    -0.268 N 
ATOM     14  H4  UNL     1     -25.445 -12.352  -0.780  1.00  0.00     0.190 HD
HETATM   15  C7  UNL     1     -27.126 -10.332   0.015  1.00  0.00     0.026 A 
HETATM   16  C8  UNL     1     -28.290  -9.655   0.280  1.00  0.00    -0.014 A 
HETATM   17  C19 UNL     1     -28.179  -8.368   0.788  1.00  0.00     0.092 A 
HETATM   18  O1  UNL     1     -29.047  -7.459   1.145  1.00  0.00    -0.321 OA
ENDROOT
BRANCH  16  19
HETATM   19  C9  UNL     1     -29.580 -10.290   0.024  1.00  0.00    -0.009 C 
HETATM   20  C10 UNL     1     -30.618  -9.188  -0.096  1.00  0.00     0.019 C 
HETATM   21  C11 UNL     1     -31.998  -9.785  -0.243  1.00  0.00    -0.013 C 
HETATM   22  C12 UNL     1     -32.009 -10.584  -1.522  1.00  0.00     0.009 C 
HETATM   23  C16 UNL     1     -32.322 -10.665   0.917  1.00  0.00     0.009 C 
HETATM   24  C13 UNL     1     -31.001 -11.701  -1.388  1.00  0.00    -0.013 C 
HETATM   25  C14 UNL     1     -31.345 -12.629  -0.242  1.00  0.00     0.009 C 
HETATM   26  C18 UNL     1     -29.596 -11.167  -1.203  1.00  0.00     0.019 C 
HETATM   27  C15 UNL     1     -31.333 -11.800   1.006  1.00  0.00    -0.013 C 
HETATM   28  C17 UNL     1     -29.938 -11.222   1.179  1.00  0.00     0.019 C 
ENDBRANCH  16  19
TORSDOF 1
ENDMDL
MODEL 4
REMARK VINA RESULT: -8.525744800      0.974      1.334
REMARK  1 active torsions:
REMARK  status: ('A' for Active; 'I' for Inactive)
REMARK    1  A    between atoms: C8_16  and  C9_17 
ROOT
HETATM    1  C1  UNL     1     -29.431  -5.601   1.349  1.00  0.00     0.143 A 
HETATM    2  C2  UNL     1     -28.066  -5.681   1.314  1.00  0.00     0.039 A 
HETATM    3  C3  UNL     1     -27.766  -6.989   1.016  1.00  0.00     0.001 A 
HETATM    4  C4  UNL     1     -26.608  -7.715   0.837  1.00  0.00     0.029 A 
HETATM    5  C5  UNL     1     -26.593  -9.059   0.534  1.00  0.00     0.012 A 
HETATM    6  C6  UNL     1     -25.350  -9.771   0.359  1.00  0.00     0.147 A 
HETATM    7  N1  UNL     1     -24.097  -9.323   0.445  1.00  0.00    -0.268 N 
ATOM      8  H1  UNL     1     -23.826  -8.363   0.659  1.00  0.00     0.190 HD
HETATM    9  N2  UNL     1     -23.245 -10.339   0.205  1.00  0.00    -0.227 N 
ATOM     10  H2  UNL     1     -22.226 -10.287   0.204  1.00  0.00     0.210 HD
HETATM   11  N3  UNL     1     -23.972 -11.412  -0.029  1.00  0.00    -0.227 N 
ATOM     12  H3  UNL     1     -23.612 -12.341  -0.243  1.00  0.00     0.210 HD
HETATM   13  N4  UNL     1     -25.247 -11.079   0.062  1.00  0.00    -0.268 N 
ATOM     14  H4  UNL     1     -26.032 -11.716  -0.073  1.00  0.00     0.190 HD
HETATM   15  C7  UNL     1     -27.817  -9.686   0.408  1.00  0.00     0.026 A 
HETATM   16  C8  UNL     1     -29.015  -9.036   0.569  1.00  0.00    -0.014 A 
HETATM   17  C19 UNL     1     -28.973  -7.683   0.873  1.00  0.00     0.092 A 
HETATM   18  O1  UNL     1     -29.887  -6.775   1.089  1.00  0.00    -0.321 OA
ENDROOT
BRANCH  16  19
HETATM   19  C9  UNL     1     -30.270  -9.768   0.418  1.00  0.00    -0.009 C 
HETATM   20  C10 UNL     1     -29.985 -11.231   0.712  1.00  0.00     0.019 C 
HETATM   21  C11 UNL     1     -31.219 -12.064   0.456  1.00  0.00    -0.013 C 
HETATM   22  C12 UNL     1     -32.287 -11.591   1.411  1.00  0.00     0.009 C 
HETATM   23  C16 UNL     1     -31.682 -11.909  -0.953  1.00  0.00     0.009 C 
HETATM   24  C13 UNL     1     -32.595 -10.147   1.095  1.00  0.00    -0.013 C 
HETATM   25  C14 UNL     1     -33.111  -9.981  -0.319  1.00  0.00     0.009 C 
HETATM   26  C18 UNL     1     -31.384  -9.260   1.299  1.00  0.00     0.019 C 
HETATM   27  C15 UNL     1     -32.029 -10.468  -1.235  1.00  0.00    -0.013 C 
HETATM   28  C17 UNL     1     -30.793  -9.613  -1.007  1.00  0.00     0.019 C 
ENDBRANCH  16  19
TORSDOF 1
ENDMDL
MODEL 5
REMARK VINA RESULT: -8.116012443      3.626      4.735
REMARK  1 active torsions:
REMARK  status: ('A' for Active; 'I' for Inactive)
REMARK    1  A    between atoms: C8_16  and  C9_17 
ROOT
HETATM    1  C1  UNL     1     -25.754 -11.001   0.606  1.00  0.00     0.143 A 
HETATM    2  C2  UNL     1     -25.549  -9.756   1.135  1.00  0.00     0.039 A 
HETATM    3  C3  UNL     1     -26.721  -9.062   0.949  1.00  0.00     0.001 A 
HETATM    4  C4  UNL     1     -27.168  -7.793   1.245  1.00  0.00     0.029 A 
HETATM    5  C5  UNL     1     -28.433  -7.341   0.937  1.00  0.00     0.012 A 
HETATM    6  C6  UNL     1     -28.849  -6.000   1.270  1.00  0.00     0.147 A 
HETATM    7  N1  UNL     1     -28.168  -5.027   1.877  1.00  0.00    -0.268 N 
ATOM      8  H1  UNL     1     -27.206  -5.098   2.210  1.00  0.00     0.190 HD
HETATM    9  N2  UNL     1     -28.952  -3.936   1.982  1.00  0.00    -0.227 N 
ATOM     10  H2  UNL     1     -28.693  -3.044   2.403  1.00  0.00     0.210 HD
HETATM   11  N3  UNL     1     -30.114  -4.236   1.440  1.00  0.00    -0.227 N 
ATOM     12  H3  UNL     1     -30.917  -3.612   1.368  1.00  0.00     0.210 HD
HETATM   13  N4  UNL     1     -30.062  -5.482   1.006  1.00  0.00    -0.268 N 
ATOM     14  H4  UNL     1     -30.825  -5.976   0.543  1.00  0.00     0.190 HD
HETATM   15  C7  UNL     1     -29.277  -8.230   0.300  1.00  0.00     0.026 A 
HETATM   16  C8  UNL     1     -28.910  -9.511  -0.030  1.00  0.00    -0.014 A 
HETATM   17  C19 UNL     1     -27.625  -9.914   0.304  1.00  0.00     0.092 A 
HETATM   18  O1  UNL     1     -26.956 -11.025   0.149  1.00  0.00    -0.321 OA
ENDROOT
BRANCH  16  19
HETATM   19  C9  UNL     1     -29.860 -10.393  -0.704  1.00  0.00    -0.009 C 
HETATM   20  C10 UNL     1     -31.015  -9.535  -1.191  1.00  0.00     0.019 C 
HETATM   21  C11 UNL     1     -32.092 -10.406  -1.793  1.00  0.00    -0.013 C 
HETATM   22  C12 UNL     1     -31.490 -11.106  -2.986  1.00  0.00     0.009 C 
HETATM   23  C16 UNL     1     -32.584 -11.406  -0.802  1.00  0.00     0.009 C 
HETATM   24  C13 UNL     1     -30.364 -11.986  -2.496  1.00  0.00    -0.013 C 
HETATM   25  C14 UNL     1     -30.858 -13.036  -1.523  1.00  0.00     0.009 C 
HETATM   26  C18 UNL     1     -29.262 -11.174  -1.847  1.00  0.00     0.019 C 
HETATM   27  C15 UNL     1     -31.455 -12.304  -0.360  1.00  0.00    -0.013 C 
HETATM   28  C17 UNL     1     -30.369 -11.450   0.272  1.00  0.00     0.019 C 
ENDBRANCH  16  19
TORSDOF 1
ENDMDL
