MODEL 1
REMARK VINA RESULT: -7.069369209      0.000      0.000
REMARK  4 active torsions:
REMARK  status: ('A' for Active; 'I' for Inactive)
REMARK    1  A    between atoms: C3_5  and  C4_6 
REMARK    2  A    between atoms: N2_10  and  N3_11 
REMARK    3  A    between atoms: C8_14  and  C9_15 
REMARK    4  A    between atoms: N4_18  and  C12_19 
ROOT
HETATM    1  C1  UNL     1     -31.295  -8.419  -2.473  1.00  0.00     0.070 C 
HETATM    2  C2  UNL     1     -30.221  -8.803  -1.505  1.00  0.00     0.032 A 
HETATM    3  N1  UNL     1     -29.306  -7.931  -0.986  1.00  0.00    -0.346 N 
ATOM      4  H1  UNL     1     -29.272  -6.933  -1.192  1.00  0.00     0.167 HD
HETATM    5  C3  UNL     1     -28.462  -8.571  -0.172  1.00  0.00     0.111 A 
HETATM    6  N2  UNL     1     -28.847  -9.846  -0.180  1.00  0.00    -0.251 N 
HETATM    7  C8  UNL     1     -29.912 -10.044  -0.973  1.00  0.00     0.062 A 
ENDROOT
BRANCH   7   8
HETATM    8  C9  UNL     1     -30.698 -11.249  -1.274  1.00  0.00     0.049 C 
HETATM    9  C10 UNL     1     -30.050 -12.261  -2.159  1.00  0.00     0.056 C 
HETATM   10  C11 UNL     1     -30.940 -13.482  -2.258  1.00  0.00     0.064 C 
HETATM   11  N4  UNL     1     -32.183 -13.398  -1.599  1.00  0.00    -0.369 N 
HETATM   12  C18 UNL     1     -32.280 -12.820  -0.323  1.00  0.00     0.064 C 
HETATM   13  C19 UNL     1     -31.039 -12.022   0.011  1.00  0.00     0.056 C 
BRANCH  11  14
HETATM   14  C12 UNL     1     -32.939 -14.592  -1.708  1.00  0.00     0.088 C 
HETATM   15  C13 UNL     1     -32.175 -15.781  -2.217  1.00  0.00     0.026 C 
HETATM   16  C14 UNL     1     -32.980 -17.034  -1.983  1.00  0.00     0.002 C 
HETATM   17  C15 UNL     1     -34.406 -16.953  -2.409  1.00  0.00     0.000 C 
HETATM   18  C16 UNL     1     -35.079 -15.669  -2.008  1.00  0.00     0.002 C 
HETATM   19  C17 UNL     1     -34.225 -14.477  -2.476  1.00  0.00     0.026 C 
ENDBRANCH  11  14
ENDBRANCH   7   8
BRANCH   6  20
HETATM   20  N3  UNL     1     -28.212 -10.833   0.549  1.00  0.00    -0.337 N 
ATOM     21  H32 UNL     1     -27.349 -10.703   1.078  1.00  0.00     0.177 HD
ATOM     22  H31 UNL     1     -28.562 -11.789   0.617  1.00  0.00     0.177 HD
ENDBRANCH   6  20
BRANCH   5  23
HETATM   23  C4  UNL     1     -27.366  -7.877   0.542  1.00  0.00     0.009 C 
HETATM   24  C5  UNL     1     -27.675  -7.534   1.954  1.00  0.00     0.023 C 
HETATM   25  C6  UNL     1     -26.065  -8.645   0.522  1.00  0.00     0.023 C 
HETATM   26  C7  UNL     1     -27.089  -6.539  -0.171  1.00  0.00     0.023 C 
ENDBRANCH   5  23
TORSDOF 4
ENDMDL
MODEL 2
REMARK VINA RESULT: -6.903218851      0.572      1.056
REMARK  4 active torsions:
REMARK  status: ('A' for Active; 'I' for Inactive)
REMARK    1  A    between atoms: C3_5  and  C4_6 
REMARK    2  A    between atoms: N2_10  and  N3_11 
REMARK    3  A    between atoms: C8_14  and  C9_15 
REMARK    4  A    between atoms: N4_18  and  C12_19 
ROOT
HETATM    1  C1  UNL     1     -31.350  -8.506  -2.465  1.00  0.00     0.070 C 
HETATM    2  C2  UNL     1     -30.266  -8.852  -1.494  1.00  0.00     0.032 A 
HETATM    3  N1  UNL     1     -29.352  -7.959  -1.011  1.00  0.00    -0.346 N 
ATOM      4  H1  UNL     1     -29.326  -6.967  -1.249  1.00  0.00     0.167 HD
HETATM    5  C3  UNL     1     -28.497  -8.567  -0.184  1.00  0.00     0.111 A 
HETATM    6  N2  UNL     1     -28.875  -9.845  -0.148  1.00  0.00    -0.251 N 
HETATM    7  C8  UNL     1     -29.945 -10.074  -0.925  1.00  0.00     0.062 A 
ENDROOT
BRANCH   7   8
HETATM    8  C9  UNL     1     -30.726 -11.293  -1.182  1.00  0.00     0.049 C 
HETATM    9  C10 UNL     1     -30.091 -12.315  -2.064  1.00  0.00     0.056 C 
HETATM   10  C11 UNL     1     -30.971 -13.547  -2.116  1.00  0.00     0.064 C 
HETATM   11  N4  UNL     1     -32.196 -13.462  -1.425  1.00  0.00    -0.369 N 
HETATM   12  C18 UNL     1     -32.264 -12.860  -0.158  1.00  0.00     0.064 C 
HETATM   13  C19 UNL     1     -31.024 -12.043   0.127  1.00  0.00     0.056 C 
BRANCH  11  14
HETATM   14  C12 UNL     1     -32.942 -14.665  -1.490  1.00  0.00     0.088 C 
HETATM   15  C13 UNL     1     -33.689 -15.016  -0.235  1.00  0.00     0.026 C 
HETATM   16  C14 UNL     1     -34.679 -16.115  -0.529  1.00  0.00     0.002 C 
HETATM   17  C15 UNL     1     -34.127 -17.269  -1.295  1.00  0.00     0.000 C 
HETATM   18  C16 UNL     1     -33.256 -16.859  -2.449  1.00  0.00     0.002 C 
HETATM   19  C17 UNL     1     -32.181 -15.875  -1.954  1.00  0.00     0.026 C 
ENDBRANCH  11  14
ENDBRANCH   7   8
BRANCH   6  20
HETATM   20  N3  UNL     1     -28.228 -10.804   0.606  1.00  0.00    -0.337 N 
ATOM     21  H32 UNL     1     -27.498 -10.611   1.293  1.00  0.00     0.177 HD
ATOM     22  H31 UNL     1     -28.432 -11.800   0.536  1.00  0.00     0.177 HD
ENDBRANCH   6  20
BRANCH   5  23
HETATM   23  C4  UNL     1     -27.400  -7.844   0.499  1.00  0.00     0.009 C 
HETATM   24  C5  UNL     1     -27.690  -7.481   1.910  1.00  0.00     0.023 C 
HETATM   25  C6  UNL     1     -26.088  -8.593   0.469  1.00  0.00     0.023 C 
HETATM   26  C7  UNL     1     -27.157  -6.515  -0.242  1.00  0.00     0.023 C 
ENDBRANCH   5  23
TORSDOF 4
ENDMDL
MODEL 3
REMARK VINA RESULT: -6.563105549      1.979      8.106
REMARK  4 active torsions:
REMARK  status: ('A' for Active; 'I' for Inactive)
REMARK    1  A    between atoms: C3_5  and  C4_6 
REMARK    2  A    between atoms: N2_10  and  N3_11 
REMARK    3  A    between atoms: C8_14  and  C9_15 
REMARK    4  A    between atoms: N4_18  and  C12_19 
ROOT
HETATM    1  C1  UNL     1     -31.210 -14.334  -2.178  1.00  0.00     0.070 C 
HETATM    2  C2  UNL     1     -32.166 -14.036  -1.068  1.00  0.00     0.032 A 
HETATM    3  N1  UNL     1     -33.208 -14.844  -0.710  1.00  0.00    -0.346 N 
ATOM      4  H1  UNL     1     -33.427 -15.737  -1.151  1.00  0.00     0.167 HD
HETATM    5  C3  UNL     1     -33.897 -14.301   0.296  1.00  0.00     0.111 A 
HETATM    6  N2  UNL     1     -33.288 -13.148   0.572  1.00  0.00    -0.251 N 
HETATM    7  C8  UNL     1     -32.230 -12.936  -0.226  1.00  0.00     0.062 A 
ENDROOT
BRANCH   7   8
HETATM    8  C9  UNL     1     -31.248 -11.843  -0.282  1.00  0.00     0.049 C 
HETATM    9  C10 UNL     1     -31.764 -10.509  -0.708  1.00  0.00     0.056 C 
HETATM   10  C11 UNL     1     -30.656  -9.483  -0.586  1.00  0.00     0.064 C 
HETATM   11  N4  UNL     1     -29.395  -9.976  -0.195  1.00  0.00    -0.369 N 
HETATM   12  C18 UNL     1     -29.287 -10.942   0.818  1.00  0.00     0.064 C 
HETATM   13  C19 UNL     1     -30.622 -11.592   1.100  1.00  0.00     0.056 C 
BRANCH  11  14
HETATM   14  C12 UNL     1     -28.426  -8.950  -0.067  1.00  0.00     0.088 C 
HETATM   15  C13 UNL     1     -27.219  -9.317   0.747  1.00  0.00     0.026 C 
HETATM   16  C14 UNL     1     -26.139  -8.284   0.542  1.00  0.00     0.002 C 
HETATM   17  C15 UNL     1     -26.593  -6.870   0.662  1.00  0.00     0.000 C 
HETATM   18  C16 UNL     1     -27.892  -6.595  -0.043  1.00  0.00     0.002 C 
HETATM   19  C17 UNL     1     -28.945  -7.623   0.408  1.00  0.00     0.026 C 
ENDBRANCH  11  14
ENDBRANCH   7   8
BRANCH   6  20
HETATM   20  N3  UNL     1     -33.712 -12.287   1.565  1.00  0.00    -0.337 N 
ATOM     21  H32 UNL     1     -34.469 -11.611   1.466  1.00  0.00     0.177 HD
ATOM     22  H31 UNL     1     -33.294 -12.260   2.495  1.00  0.00     0.177 HD
ENDBRANCH   6  20
BRANCH   5  23
HETATM   23  C4  UNL     1     -35.078 -14.960   0.899  1.00  0.00     0.009 C 
HETATM   24  C5  UNL     1     -34.944 -15.250   2.350  1.00  0.00     0.023 C 
HETATM   25  C6  UNL     1     -36.359 -14.186   0.694  1.00  0.00     0.023 C 
HETATM   26  C7  UNL     1     -35.280 -16.323   0.210  1.00  0.00     0.023 C 
ENDBRANCH   5  23
TORSDOF 4
ENDMDL
MODEL 4
REMARK VINA RESULT: -6.333693125      1.467      8.143
REMARK  4 active torsions:
REMARK  status: ('A' for Active; 'I' for Inactive)
REMARK    1  A    between atoms: C3_5  and  C4_6 
REMARK    2  A    between atoms: N2_10  and  N3_11 
REMARK    3  A    between atoms: C8_14  and  C9_15 
REMARK    4  A    between atoms: N4_18  and  C12_19 
ROOT
HETATM    1  C1  UNL     1     -33.896 -11.868   1.635  1.00  0.00     0.070 C 
HETATM    2  C2  UNL     1     -33.550 -12.904   0.613  1.00  0.00     0.032 A 
HETATM    3  N1  UNL     1     -34.290 -14.027   0.374  1.00  0.00    -0.346 N 
ATOM      4  H1  UNL     1     -35.159 -14.263   0.853  1.00  0.00     0.167 HD
HETATM    5  C3  UNL     1     -33.717 -14.771  -0.575  1.00  0.00     0.111 A 
HETATM    6  N2  UNL     1     -32.613 -14.115  -0.933  1.00  0.00    -0.251 N 
HETATM    7  C8  UNL     1     -32.462 -12.974  -0.243  1.00  0.00     0.062 A 
ENDROOT
BRANCH   7   8
HETATM    8  C9  UNL     1     -31.439 -11.920  -0.304  1.00  0.00     0.049 C 
HETATM    9  C10 UNL     1     -31.883 -10.592  -0.819  1.00  0.00     0.056 C 
HETATM   10  C11 UNL     1     -30.744  -9.601  -0.693  1.00  0.00     0.064 C 
HETATM   11  N4  UNL     1     -29.522 -10.118  -0.218  1.00  0.00    -0.369 N 
HETATM   12  C18 UNL     1     -29.497 -11.035   0.844  1.00  0.00     0.064 C 
HETATM   13  C19 UNL     1     -30.868 -11.623   1.093  1.00  0.00     0.056 C 
BRANCH  11  14
HETATM   14  C12 UNL     1     -28.522  -9.122  -0.094  1.00  0.00     0.088 C 
HETATM   15  C13 UNL     1     -27.346  -9.509   0.757  1.00  0.00     0.026 C 
HETATM   16  C14 UNL     1     -26.228  -8.518   0.551  1.00  0.00     0.002 C 
HETATM   17  C15 UNL     1     -26.635  -7.086   0.625  1.00  0.00     0.000 C 
HETATM   18  C16 UNL     1     -27.909  -6.787  -0.116  1.00  0.00     0.002 C 
HETATM   19  C17 UNL     1     -29.006  -7.766   0.336  1.00  0.00     0.026 C 
ENDBRANCH  11  14
ENDBRANCH   7   8
BRANCH   6  20
HETATM   20  N3  UNL     1     -31.741 -14.573  -1.901  1.00  0.00    -0.337 N 
ATOM     21  H32 UNL     1     -30.900 -14.083  -2.207  1.00  0.00     0.177 HD
ATOM     22  H31 UNL     1     -31.871 -15.456  -2.395  1.00  0.00     0.177 HD
ENDBRANCH   6  20
BRANCH   5  23
HETATM   23  C4  UNL     1     -34.302 -16.046  -1.050  1.00  0.00     0.009 C 
HETATM   24  C5  UNL     1     -34.781 -16.015  -2.456  1.00  0.00     0.023 C 
HETATM   25  C6  UNL     1     -33.364 -17.221  -0.901  1.00  0.00     0.023 C 
HETATM   26  C7  UNL     1     -35.537 -16.366  -0.186  1.00  0.00     0.023 C 
ENDBRANCH   5  23
TORSDOF 4
ENDMDL
MODEL 5
REMARK VINA RESULT: -6.324301647      1.462      8.020
REMARK  4 active torsions:
REMARK  status: ('A' for Active; 'I' for Inactive)
REMARK    1  A    between atoms: C3_5  and  C4_6 
REMARK    2  A    between atoms: N2_10  and  N3_11 
REMARK    3  A    between atoms: C8_14  and  C9_15 
REMARK    4  A    between atoms: N4_18  and  C12_19 
ROOT
HETATM    1  C1  UNL     1     -33.275 -11.014  -4.031  1.00  0.00     0.070 C 
HETATM    2  C2  UNL     1     -33.301 -12.154  -3.063  1.00  0.00     0.032 A 
HETATM    3  N1  UNL     1     -34.110 -13.248  -3.184  1.00  0.00    -0.346 N 
ATOM      4  H1  UNL     1     -34.763 -13.406  -3.951  1.00  0.00     0.167 HD
HETATM    5  C3  UNL     1     -33.926 -14.081  -2.156  1.00  0.00     0.111 A 
HETATM    6  N2  UNL     1     -32.999 -13.509  -1.388  1.00  0.00    -0.251 N 
HETATM    7  C8  UNL     1     -32.584 -12.337  -1.892  1.00  0.00     0.062 A 
ENDROOT
BRANCH   7   8
HETATM    8  C9  UNL     1     -31.574 -11.373  -1.427  1.00  0.00     0.049 C 
HETATM    9  C10 UNL     1     -31.623 -11.006   0.018  1.00  0.00     0.056 C 
HETATM   10  C11 UNL     1     -30.445 -10.113   0.347  1.00  0.00     0.064 C 
HETATM   11  N4  UNL     1     -29.620  -9.751  -0.737  1.00  0.00    -0.369 N 
HETATM   12  C18 UNL     1     -29.266 -10.695  -1.714  1.00  0.00     0.064 C 
HETATM   13  C19 UNL     1     -30.152 -11.918  -1.640  1.00  0.00     0.056 C 
BRANCH  11  14
HETATM   14  C12 UNL     1     -28.522  -8.948  -0.341  1.00  0.00     0.088 C 
HETATM   15  C13 UNL     1     -27.579  -9.599   0.630  1.00  0.00     0.026 C 
HETATM   16  C14 UNL     1     -26.310  -8.789   0.720  1.00  0.00     0.002 C 
HETATM   17  C15 UNL     1     -26.512  -7.323   0.900  1.00  0.00     0.000 C 
HETATM   18  C16 UNL     1     -27.581  -6.752   0.011  1.00  0.00     0.002 C 
HETATM   19  C17 UNL     1     -28.871  -7.578   0.168  1.00  0.00     0.026 C 
ENDBRANCH  11  14
ENDBRANCH   7   8
BRANCH   6  20
HETATM   20  N3  UNL     1     -32.535 -14.073  -0.216  1.00  0.00    -0.337 N 
ATOM     21  H32 UNL     1     -31.856 -13.641   0.411  1.00  0.00     0.177 HD
ATOM     22  H31 UNL     1     -32.841 -14.986   0.123  1.00  0.00     0.177 HD
ENDBRANCH   6  20
BRANCH   5  23
HETATM   23  C4  UNL     1     -34.662 -15.359  -2.025  1.00  0.00     0.009 C 
HETATM   24  C5  UNL     1     -33.807 -16.571  -2.100  1.00  0.00     0.023 C 
HETATM   25  C6  UNL     1     -35.483 -15.443  -0.759  1.00  0.00     0.023 C 
HETATM   26  C7  UNL     1     -35.660 -15.469  -3.195  1.00  0.00     0.023 C 
ENDBRANCH   5  23
TORSDOF 4
ENDMDL
