MODEL 1
REMARK VINA RESULT: -6.301039958      0.000      0.000
REMARK  3 active torsions:
REMARK  status: ('A' for Active; 'I' for Inactive)
REMARK    1  A    between atoms: O1_2  and  C2_3 
REMARK    2  A    between atoms: C2_3  and  N1_5 
REMARK    3  A    between atoms: N1_5  and  C3_7 
ROOT
HETATM    1  C3  UNL     1     -29.256 -10.327  -0.110  1.00  0.00     0.137 C 
HETATM    2  C4  UNL     1     -27.857  -9.893   0.202  1.00  0.00    -0.052 C 
HETATM    3  C5  UNL     1     -27.728  -8.592   0.170  1.00  0.00    -0.064 C 
HETATM    4  C6  UNL     1     -26.453  -7.858   0.437  1.00  0.00     0.035 C 
HETATM    5  C7  UNL     1     -25.271  -8.796   0.526  1.00  0.00     0.005 C 
HETATM    6  C8  UNL     1     -25.718  -9.975   1.366  1.00  0.00     0.005 C 
HETATM    7  C9  UNL     1     -26.695 -10.759   0.520  1.00  0.00     0.036 C 
HETATM    8  C10 UNL     1     -29.042  -7.973  -0.169  1.00  0.00     0.081 A 
HETATM    9  C11 UNL     1     -29.350  -6.908   0.856  1.00  0.00     0.004 A 
HETATM   10  S2  UNL     1     -28.516  -5.448   1.275  1.00  0.00    -0.105 SA
HETATM   11  C12 UNL     1     -29.539  -4.909   2.513  1.00  0.00     0.051 A 
HETATM   12  C13 UNL     1     -30.498  -5.865   2.576  1.00  0.00     0.021 A 
HETATM   13  C14 UNL     1     -30.404  -6.916   1.708  1.00  0.00    -0.007 A 
HETATM   14  C15 UNL     1     -31.344  -8.076   1.569  1.00  0.00     0.096 A 
HETATM   15  N2  UNL     1     -31.111  -8.945   0.700  1.00  0.00    -0.390 N 
ATOM     16  H2  UNL     1     -31.789  -9.705   0.663  1.00  0.00     0.159 HD
HETATM   17  C16 UNL     1     -30.051  -9.042  -0.246  1.00  0.00     0.121 A 
ENDROOT
BRANCH   1  18
HETATM   18  N1  UNL     1     -29.267 -10.993  -1.384  1.00  0.00    -0.351 N 
ATOM     19  H1  UNL     1     -28.437 -10.948  -1.974  1.00  0.00     0.163 HD
BRANCH  18  20
HETATM   20  C2  UNL     1     -30.397 -11.710  -1.840  1.00  0.00     0.210 C 
HETATM   21  S1  UNL     1     -31.359 -11.204  -3.054  1.00  0.00    -0.033 SA
BRANCH  20  22
HETATM   22  O1  UNL     1     -30.768 -12.938  -1.255  1.00  0.00    -0.332 OA
HETATM   23  C1  UNL     1     -30.767 -14.074  -2.099  1.00  0.00     0.212 C 
ENDBRANCH  20  22
ENDBRANCH  18  20
ENDBRANCH   1  18
TORSDOF 3
ENDMDL
MODEL 2
REMARK VINA RESULT: -6.250595710      1.288      1.436
REMARK  3 active torsions:
REMARK  status: ('A' for Active; 'I' for Inactive)
REMARK    1  A    between atoms: O1_2  and  C2_3 
REMARK    2  A    between atoms: C2_3  and  N1_5 
REMARK    3  A    between atoms: N1_5  and  C3_7 
ROOT
HETATM    1  C3  UNL     1     -29.596  -9.831  -0.281  1.00  0.00     0.137 C 
HETATM    2  C4  UNL     1     -28.174  -9.534   0.086  1.00  0.00    -0.052 C 
HETATM    3  C5  UNL     1     -27.958  -8.249   0.208  1.00  0.00    -0.064 C 
HETATM    4  C6  UNL     1     -26.639  -7.641   0.565  1.00  0.00     0.035 C 
HETATM    5  C7  UNL     1     -25.524  -8.661   0.545  1.00  0.00     0.005 C 
HETATM    6  C8  UNL     1     -26.059  -9.898   1.239  1.00  0.00     0.005 C 
HETATM    7  C9  UNL     1     -27.077 -10.508   0.302  1.00  0.00     0.036 C 
HETATM    8  C10 UNL     1     -29.224  -7.506  -0.060  1.00  0.00     0.081 A 
HETATM    9  C11 UNL     1     -29.471  -6.551   1.084  1.00  0.00     0.004 A 
HETATM   10  S2  UNL     1     -28.546  -5.212   1.676  1.00  0.00    -0.105 SA
HETATM   11  C12 UNL     1     -29.543  -4.754   2.965  1.00  0.00     0.051 A 
HETATM   12  C13 UNL     1     -30.566  -5.643   2.911  1.00  0.00     0.021 A 
HETATM   13  C14 UNL     1     -30.533  -6.588   1.926  1.00  0.00    -0.007 A 
HETATM   14  C15 UNL     1     -31.547  -7.657   1.647  1.00  0.00     0.096 A 
HETATM   15  N2  UNL     1     -31.363  -8.431   0.682  1.00  0.00    -0.390 N 
ATOM     16  H2  UNL     1     -32.090  -9.134   0.552  1.00  0.00     0.159 HD
HETATM   17  C16 UNL     1     -30.301  -8.488  -0.265  1.00  0.00     0.121 A 
ENDROOT
BRANCH   1  18
HETATM   18  N1  UNL     1     -29.637 -10.340  -1.625  1.00  0.00    -0.351 N 
ATOM     19  H1  UNL     1     -28.761 -10.542  -2.105  1.00  0.00     0.163 HD
BRANCH  18  20
HETATM   20  C2  UNL     1     -30.859 -10.567  -2.298  1.00  0.00     0.210 C 
HETATM   21  S1  UNL     1     -32.034 -11.545  -1.732  1.00  0.00    -0.033 SA
BRANCH  20  22
HETATM   22  O1  UNL     1     -31.140  -9.945  -3.531  1.00  0.00    -0.332 OA
HETATM   23  C1  UNL     1     -32.335 -10.332  -4.184  1.00  0.00     0.212 C 
ENDBRANCH  20  22
ENDBRANCH  18  20
ENDBRANCH   1  18
TORSDOF 3
ENDMDL
MODEL 3
REMARK VINA RESULT: -6.247881312      1.098      1.239
REMARK  3 active torsions:
REMARK  status: ('A' for Active; 'I' for Inactive)
REMARK    1  A    between atoms: O1_2  and  C2_3 
REMARK    2  A    between atoms: C2_3  and  N1_5 
REMARK    3  A    between atoms: N1_5  and  C3_7 
ROOT
HETATM    1  C3  UNL     1     -29.657 -10.656   0.121  1.00  0.00     0.137 C 
HETATM    2  C4  UNL     1     -28.412  -9.836   0.281  1.00  0.00    -0.052 C 
HETATM    3  C5  UNL     1     -28.646  -8.557   0.136  1.00  0.00    -0.064 C 
HETATM    4  C6  UNL     1     -27.606  -7.488   0.237  1.00  0.00     0.035 C 
HETATM    5  C7  UNL     1     -26.210  -8.064   0.299  1.00  0.00     0.005 C 
HETATM    6  C8  UNL     1     -26.267  -9.231   1.264  1.00  0.00     0.005 C 
HETATM    7  C9  UNL     1     -27.042 -10.326   0.566  1.00  0.00     0.036 C 
HETATM    8  C10 UNL     1     -30.097  -8.347  -0.140  1.00  0.00     0.081 A 
HETATM    9  C11 UNL     1     -30.623  -7.308   0.822  1.00  0.00     0.004 A 
HETATM   10  S2  UNL     1     -30.196  -5.645   1.054  1.00  0.00    -0.105 SA
HETATM   11  C12 UNL     1     -31.250  -5.279   2.327  1.00  0.00     0.051 A 
HETATM   12  C13 UNL     1     -31.907  -6.445   2.545  1.00  0.00     0.021 A 
HETATM   13  C14 UNL     1     -31.582  -7.513   1.757  1.00  0.00    -0.007 A 
HETATM   14  C15 UNL     1     -32.176  -8.890   1.788  1.00  0.00     0.096 A 
HETATM   15  N2  UNL     1     -31.766  -9.745   0.973  1.00  0.00    -0.390 N 
ATOM     16  H2  UNL     1     -32.212 -10.659   1.053  1.00  0.00     0.159 HD
HETATM   17  C16 UNL     1     -30.778  -9.649  -0.047  1.00  0.00     0.121 A 
ENDROOT
BRANCH   1  18
HETATM   18  N1  UNL     1     -29.561 -11.422  -1.091  1.00  0.00    -0.351 N 
ATOM     19  H1  UNL     1     -28.722 -11.338  -1.666  1.00  0.00     0.163 HD
BRANCH  18  20
HETATM   20  C2  UNL     1     -30.597 -12.289  -1.508  1.00  0.00     0.210 C 
HETATM   21  S1  UNL     1     -31.198 -12.316  -3.023  1.00  0.00    -0.033 SA
BRANCH  20  22
HETATM   22  O1  UNL     1     -31.186 -13.206  -0.614  1.00  0.00    -0.332 OA
HETATM   23  C1  UNL     1     -32.576 -13.069  -0.383  1.00  0.00     0.212 C 
ENDBRANCH  20  22
ENDBRANCH  18  20
ENDBRANCH   1  18
TORSDOF 3
ENDMDL
MODEL 4
REMARK VINA RESULT: -6.210704148      2.777      4.099
REMARK  3 active torsions:
REMARK  status: ('A' for Active; 'I' for Inactive)
REMARK    1  A    between atoms: O1_2  and  C2_3 
REMARK    2  A    between atoms: C2_3  and  N1_5 
REMARK    3  A    between atoms: N1_5  and  C3_7 
ROOT
HETATM    1  C3  UNL     1     -27.696 -10.483   0.463  1.00  0.00     0.137 C 
HETATM    2  C4  UNL     1     -27.596  -8.989   0.461  1.00  0.00    -0.052 C 
HETATM    3  C5  UNL     1     -28.655  -8.427  -0.062  1.00  0.00    -0.064 C 
HETATM    4  C6  UNL     1     -28.851  -6.952  -0.205  1.00  0.00     0.035 C 
HETATM    5  C7  UNL     1     -27.589  -6.183   0.114  1.00  0.00     0.005 C 
HETATM    6  C8  UNL     1     -27.010  -6.805   1.368  1.00  0.00     0.005 C 
HETATM    7  C9  UNL     1     -26.474  -8.160   0.966  1.00  0.00     0.036 C 
HETATM    8  C10 UNL     1     -29.620  -9.485  -0.482  1.00  0.00     0.081 A 
HETATM    9  C11 UNL     1     -30.974  -9.159   0.102  1.00  0.00     0.004 A 
HETATM   10  S2  UNL     1     -32.021  -7.798  -0.128  1.00  0.00    -0.105 SA
HETATM   11  C12 UNL     1     -33.276  -8.255   0.912  1.00  0.00     0.051 A 
HETATM   12  C13 UNL     1     -32.861  -9.445   1.413  1.00  0.00     0.021 A 
HETATM   13  C14 UNL     1     -31.654  -9.924   0.990  1.00  0.00    -0.007 A 
HETATM   14  C15 UNL     1     -30.993 -11.213   1.378  1.00  0.00     0.096 A 
HETATM   15  N2  UNL     1     -29.886 -11.503   0.874  1.00  0.00    -0.390 N 
ATOM     16  H2  UNL     1     -29.495 -12.392   1.184  1.00  0.00     0.159 HD
HETATM   17  C16 UNL     1     -29.084 -10.791  -0.063  1.00  0.00     0.121 A 
ENDROOT
BRANCH   1  18
HETATM   18  N1  UNL     1     -26.739 -11.018  -0.467  1.00  0.00    -0.351 N 
ATOM     19  H1  UNL     1     -27.001 -11.114  -1.448  1.00  0.00     0.163 HD
BRANCH  18  20
HETATM   20  C2  UNL     1     -25.444 -11.414  -0.059  1.00  0.00     0.210 C 
HETATM   21  S1  UNL     1     -24.771 -10.978   1.360  1.00  0.00    -0.033 SA
BRANCH  20  22
HETATM   22  O1  UNL     1     -24.639 -12.232  -0.877  1.00  0.00    -0.332 OA
HETATM   23  C1  UNL     1     -23.245 -11.988  -0.850  1.00  0.00     0.212 C 
ENDBRANCH  20  22
ENDBRANCH  18  20
ENDBRANCH   1  18
TORSDOF 3
ENDMDL
MODEL 5
REMARK VINA RESULT: -6.180869393      1.319      1.547
REMARK  3 active torsions:
REMARK  status: ('A' for Active; 'I' for Inactive)
REMARK    1  A    between atoms: O1_2  and  C2_3 
REMARK    2  A    between atoms: C2_3  and  N1_5 
REMARK    3  A    between atoms: N1_5  and  C3_7 
ROOT
HETATM    1  C3  UNL     1     -29.477 -10.686  -0.092  1.00  0.00     0.137 C 
HETATM    2  C4  UNL     1     -28.285  -9.821   0.185  1.00  0.00    -0.052 C 
HETATM    3  C5  UNL     1     -28.567  -8.549   0.074  1.00  0.00    -0.064 C 
HETATM    4  C6  UNL     1     -27.587  -7.441   0.288  1.00  0.00     0.035 C 
HETATM    5  C7  UNL     1     -26.173  -7.958   0.425  1.00  0.00     0.005 C 
HETATM    6  C8  UNL     1     -26.242  -9.166   1.338  1.00  0.00     0.005 C 
HETATM    7  C9  UNL     1     -26.917 -10.263   0.546  1.00  0.00     0.036 C 
HETATM    8  C10 UNL     1     -30.005  -8.390  -0.294  1.00  0.00     0.081 A 
HETATM    9  C11 UNL     1     -30.641  -7.415   0.669  1.00  0.00     0.004 A 
HETATM   10  S2  UNL     1     -30.308  -5.747   0.994  1.00  0.00    -0.105 SA
HETATM   11  C12 UNL     1     -31.462  -5.480   2.203  1.00  0.00     0.051 A 
HETATM   12  C13 UNL     1     -32.078  -6.682   2.330  1.00  0.00     0.021 A 
HETATM   13  C14 UNL     1     -31.651  -7.701   1.526  1.00  0.00    -0.007 A 
HETATM   14  C15 UNL     1     -32.182  -9.102   1.463  1.00  0.00     0.096 A 
HETATM   15  N2  UNL     1     -31.679  -9.904   0.646  1.00  0.00    -0.390 N 
ATOM     16  H2  UNL     1     -32.087 -10.839   0.659  1.00  0.00     0.159 HD
HETATM   17  C16 UNL     1     -30.630  -9.723  -0.299  1.00  0.00     0.121 A 
ENDROOT
BRANCH   1  18
HETATM   18  N1  UNL     1     -29.264 -11.397  -1.323  1.00  0.00    -0.351 N 
ATOM     19  H1  UNL     1     -28.313 -11.503  -1.677  1.00  0.00     0.163 HD
BRANCH  18  20
HETATM   20  C2  UNL     1     -30.337 -11.953  -2.058  1.00  0.00     0.210 C 
HETATM   21  S1  UNL     1     -31.080 -13.346  -1.657  1.00  0.00    -0.033 SA
BRANCH  20  22
HETATM   22  O1  UNL     1     -30.840 -11.316  -3.211  1.00  0.00    -0.332 OA
HETATM   23  C1  UNL     1     -32.247 -11.231  -3.331  1.00  0.00     0.212 C 
ENDBRANCH  20  22
ENDBRANCH  18  20
ENDBRANCH   1  18
TORSDOF 3
ENDMDL
