MODEL 1
REMARK VINA RESULT: -7.189407735      0.000      0.000
REMARK  2 active torsions:
REMARK  status: ('A' for Active; 'I' for Inactive)
REMARK    1  A    between atoms: C8_8  and  C9_9 
REMARK    2  A    between atoms: N1_13  and  C13_14 
ROOT
HETATM    1  C9  UNL     1     -29.414  -8.519  -0.546  1.00  0.00    -0.008 C 
HETATM    2  C10 UNL     1     -30.735  -8.177  -1.247  1.00  0.00     0.007 C 
HETATM    3  C11 UNL     1     -30.820  -9.117  -2.446  1.00  0.00     0.020 C 
HETATM    4  C12 UNL     1     -31.846 -10.189  -2.224  1.00  0.00     0.124 C 
HETATM    5  N1  UNL     1     -31.336 -11.054  -1.179  1.00  0.00    -0.365 N 
HETATM    6  C18 UNL     1     -30.674 -10.615   0.026  1.00  0.00     0.125 C 
HETATM    7  C19 UNL     1     -29.330  -9.982  -0.260  1.00  0.00     0.025 C 
ENDROOT
BRANCH   5   8
HETATM    8  C13 UNL     1     -31.525 -12.439  -1.403  1.00  0.00     0.135 A 
HETATM    9  N2  UNL     1     -30.530 -13.219  -1.851  1.00  0.00    -0.337 N 
HETATM   10  C14 UNL     1     -30.656 -14.540  -2.080  1.00  0.00     0.183 A 
ATOM     11  H2  UNL     1     -29.623 -12.786  -2.029  1.00  0.00     0.168 HD
HETATM   12  N3  UNL     1     -31.864 -15.119  -1.843  1.00  0.00    -0.337 N 
HETATM   13  C15 UNL     1     -32.911 -14.420  -1.395  1.00  0.00     0.138 A 
ATOM     14  H3  UNL     1     -31.974 -16.119  -2.013  1.00  0.00     0.168 HD
HETATM   15  N4  UNL     1     -34.161 -14.793  -1.106  1.00  0.00    -0.337 N 
HETATM   16  C17 UNL     1     -32.740 -13.056  -1.172  1.00  0.00     0.122 A 
HETATM   17  C16 UNL     1     -34.775 -13.666  -0.698  1.00  0.00     0.182 A 
ATOM     18  H4  UNL     1     -34.563 -15.728  -1.177  1.00  0.00     0.168 HD
HETATM   19  N5  UNL     1     -33.920 -12.624  -0.739  1.00  0.00    -0.346 N 
ATOM     20  H5  UNL     1     -34.142 -11.663  -0.480  1.00  0.00     0.167 HD
ENDBRANCH   5   8
BRANCH   1  21
HETATM   21  C8  UNL     1     -29.221  -7.734   0.696  1.00  0.00     0.001 C 
HETATM   22  C2  UNL     1     -30.322  -6.725   0.947  1.00  0.00    -0.013 C 
HETATM   23  C1  UNL     1     -30.897  -6.875   2.365  1.00  0.00     0.010 C 
HETATM   24  C3  UNL     1     -29.672  -5.358   0.921  1.00  0.00     0.005 C 
HETATM   25  C4  UNL     1     -28.360  -5.660   1.591  1.00  0.00     0.009 C 
HETATM   26  C5  UNL     1     -27.965  -6.948   0.829  1.00  0.00    -0.043 C 
HETATM   27  C6  UNL     1     -27.323  -6.495  -0.436  1.00  0.00     0.015 C 
HETATM   28  C7  UNL     1     -26.912  -7.609   1.696  1.00  0.00     0.015 C 
ENDBRANCH   1  21
TORSDOF 2
ENDMDL
MODEL 2
REMARK VINA RESULT: -6.883182823      3.081      7.141
REMARK  2 active torsions:
REMARK  status: ('A' for Active; 'I' for Inactive)
REMARK    1  A    between atoms: C8_8  and  C9_9 
REMARK    2  A    between atoms: N1_13  and  C13_14 
ROOT
HETATM    1  C9  UNL     1     -31.631 -11.777  -2.241  1.00  0.00    -0.008 C 
HETATM    2  C10 UNL     1     -32.166 -11.574  -0.819  1.00  0.00     0.007 C 
HETATM    3  C11 UNL     1     -31.110 -12.173   0.107  1.00  0.00     0.020 C 
HETATM    4  C12 UNL     1     -30.347 -11.100   0.827  1.00  0.00     0.124 C 
HETATM    5  N1  UNL     1     -29.545 -10.412  -0.166  1.00  0.00    -0.365 N 
HETATM    6  C18 UNL     1     -29.987 -10.034  -1.488  1.00  0.00     0.125 C 
HETATM    7  C19 UNL     1     -30.245 -11.238  -2.367  1.00  0.00     0.025 C 
ENDROOT
BRANCH   5   8
HETATM    8  C13 UNL     1     -28.225 -10.105   0.239  1.00  0.00     0.135 A 
HETATM    9  N2  UNL     1     -27.259 -11.036   0.244  1.00  0.00    -0.337 N 
HETATM   10  C14 UNL     1     -25.987 -10.797   0.619  1.00  0.00     0.183 A 
ATOM     11  H2  UNL     1     -27.501 -11.981  -0.055  1.00  0.00     0.168 HD
HETATM   12  N3  UNL     1     -25.662  -9.538   1.018  1.00  0.00    -0.337 N 
HETATM   13  C15 UNL     1     -26.559  -8.548   1.045  1.00  0.00     0.138 A 
ATOM     14  H3  UNL     1     -24.703  -9.343   1.306  1.00  0.00     0.168 HD
HETATM   15  N4  UNL     1     -26.445  -7.265   1.398  1.00  0.00    -0.337 N 
HETATM   16  C17 UNL     1     -27.863  -8.836   0.650  1.00  0.00     0.122 A 
HETATM   17  C16 UNL     1     -27.675  -6.745   1.224  1.00  0.00     0.182 A 
ATOM     18  H4  UNL     1     -25.608  -6.783   1.728  1.00  0.00     0.168 HD
HETATM   19  N5  UNL     1     -28.525  -7.690   0.775  1.00  0.00    -0.346 N 
ATOM     20  H5  UNL     1     -29.513  -7.548   0.565  1.00  0.00     0.167 HD
ENDBRANCH   5   8
BRANCH   1  21
HETATM   21  C8  UNL     1     -32.519 -11.173  -3.263  1.00  0.00     0.001 C 
HETATM   22  C2  UNL     1     -33.529 -10.204  -2.684  1.00  0.00    -0.013 C 
HETATM   23  C1  UNL     1     -33.488  -8.856  -3.423  1.00  0.00     0.010 C 
HETATM   24  C3  UNL     1     -34.899 -10.779  -2.976  1.00  0.00     0.005 C 
HETATM   25  C4  UNL     1     -34.672 -11.357  -4.346  1.00  0.00     0.009 C 
HETATM   26  C5  UNL     1     -33.332 -12.092  -4.104  1.00  0.00    -0.043 C 
HETATM   27  C6  UNL     1     -33.688 -13.408  -3.503  1.00  0.00     0.015 C 
HETATM   28  C7  UNL     1     -32.760 -12.330  -5.487  1.00  0.00     0.015 C 
ENDBRANCH   1  21
TORSDOF 2
ENDMDL
MODEL 3
REMARK VINA RESULT: -6.735356753      0.545      1.870
REMARK  2 active torsions:
REMARK  status: ('A' for Active; 'I' for Inactive)
REMARK    1  A    between atoms: C8_8  and  C9_9 
REMARK    2  A    between atoms: N1_13  and  C13_14 
ROOT
HETATM    1  C9  UNL     1     -29.627  -8.639  -0.457  1.00  0.00    -0.008 C 
HETATM    2  C10 UNL     1     -30.728  -7.993  -1.307  1.00  0.00     0.007 C 
HETATM    3  C11 UNL     1     -31.006  -8.979  -2.439  1.00  0.00     0.020 C 
HETATM    4  C12 UNL     1     -32.321  -9.675  -2.243  1.00  0.00     0.124 C 
HETATM    5  N1  UNL     1     -32.173 -10.545  -1.094  1.00  0.00    -0.365 N 
HETATM    6  C18 UNL     1     -31.498 -10.205   0.137  1.00  0.00     0.125 C 
HETATM    7  C19 UNL     1     -30.010 -10.026  -0.061  1.00  0.00     0.025 C 
ENDROOT
BRANCH   5   8
HETATM    8  C13 UNL     1     -32.754 -11.828  -1.236  1.00  0.00     0.135 A 
HETATM    9  N2  UNL     1     -34.070 -12.024  -1.068  1.00  0.00    -0.337 N 
HETATM   10  C14 UNL     1     -34.673 -13.222  -1.192  1.00  0.00     0.183 A 
ATOM     11  H2  UNL     1     -34.649 -11.217  -0.833  1.00  0.00     0.168 HD
HETATM   12  N3  UNL     1     -33.902 -14.298  -1.506  1.00  0.00    -0.337 N 
HETATM   13  C15 UNL     1     -32.583 -14.196  -1.692  1.00  0.00     0.138 A 
ATOM     14  H3  UNL     1     -34.346 -15.212  -1.602  1.00  0.00     0.168 HD
HETATM   15  N4  UNL     1     -31.663 -15.115  -1.999  1.00  0.00    -0.337 N 
HETATM   16  C17 UNL     1     -31.998 -12.941  -1.554  1.00  0.00     0.122 A 
HETATM   17  C16 UNL     1     -30.501 -14.438  -2.057  1.00  0.00     0.182 A 
ATOM     18  H4  UNL     1     -31.810 -16.113  -2.157  1.00  0.00     0.168 HD
HETATM   19  N5  UNL     1     -30.703 -13.133  -1.789  1.00  0.00    -0.346 N 
ATOM     20  H5  UNL     1     -29.982 -12.412  -1.770  1.00  0.00     0.167 HD
ENDBRANCH   5   8
BRANCH   1  21
HETATM   21  C8  UNL     1     -29.296  -7.828   0.739  1.00  0.00     0.001 C 
HETATM   22  C2  UNL     1     -30.296  -6.723   1.011  1.00  0.00    -0.013 C 
HETATM   23  C1  UNL     1     -30.794  -6.775   2.465  1.00  0.00     0.010 C 
HETATM   24  C3  UNL     1     -29.540  -5.416   0.892  1.00  0.00     0.005 C 
HETATM   25  C4  UNL     1     -28.220  -5.802   1.498  1.00  0.00     0.009 C 
HETATM   26  C5  UNL     1     -27.976  -7.145   0.768  1.00  0.00    -0.043 C 
HETATM   27  C6  UNL     1     -27.377  -6.792  -0.549  1.00  0.00     0.015 C 
HETATM   28  C7  UNL     1     -26.929  -7.859   1.599  1.00  0.00     0.015 C 
ENDBRANCH   1  21
TORSDOF 2
ENDMDL
MODEL 4
REMARK VINA RESULT: -6.666937742      2.856      7.375
REMARK  2 active torsions:
REMARK  status: ('A' for Active; 'I' for Inactive)
REMARK    1  A    between atoms: C8_8  and  C9_9 
REMARK    2  A    between atoms: N1_13  and  C13_14 
ROOT
HETATM    1  C9  UNL     1     -31.636 -12.106  -0.734  1.00  0.00    -0.008 C 
HETATM    2  C10 UNL     1     -32.393 -10.860  -0.258  1.00  0.00     0.007 C 
HETATM    3  C11 UNL     1     -31.630 -10.359   0.966  1.00  0.00     0.020 C 
HETATM    4  C12 UNL     1     -30.866  -9.105   0.653  1.00  0.00     0.124 C 
HETATM    5  N1  UNL     1     -29.799  -9.476  -0.256  1.00  0.00    -0.365 N 
HETATM    6  C18 UNL     1     -29.923 -10.383  -1.372  1.00  0.00     0.125 C 
HETATM    7  C19 UNL     1     -30.187 -11.804  -0.924  1.00  0.00     0.025 C 
ENDROOT
BRANCH   5   8
HETATM    8  C13 UNL     1     -28.548  -8.872   0.013  1.00  0.00     0.135 A 
HETATM    9  N2  UNL     1     -28.359  -7.553  -0.136  1.00  0.00    -0.337 N 
HETATM   10  C14 UNL     1     -27.190  -6.929   0.106  1.00  0.00     0.183 A 
ATOM     11  H2  UNL     1     -29.148  -6.988  -0.452  1.00  0.00     0.168 HD
HETATM   12  N3  UNL     1     -26.138  -7.681   0.526  1.00  0.00    -0.337 N 
HETATM   13  C15 UNL     1     -26.234  -9.002   0.703  1.00  0.00     0.138 A 
ATOM     14  H3  UNL     1     -25.246  -7.221   0.713  1.00  0.00     0.168 HD
HETATM   15  N4  UNL     1     -25.334  -9.905   1.102  1.00  0.00    -0.337 N 
HETATM   16  C17 UNL     1     -27.459  -9.609   0.441  1.00  0.00     0.122 A 
HETATM   17  C16 UNL     1     -25.993 -11.080   1.093  1.00  0.00     0.182 A 
ATOM     18  H4  UNL     1     -24.360  -9.742   1.357  1.00  0.00     0.168 HD
HETATM   19  N5  UNL     1     -27.268 -10.900   0.696  1.00  0.00    -0.346 N 
ATOM     20  H5  UNL     1     -27.972 -11.633   0.606  1.00  0.00     0.167 HD
ENDBRANCH   5   8
BRANCH   1  21
HETATM   21  C8  UNL     1     -32.217 -12.672  -1.975  1.00  0.00     0.001 C 
HETATM   22  C2  UNL     1     -33.239 -11.764  -2.628  1.00  0.00    -0.013 C 
HETATM   23  C1  UNL     1     -32.914 -11.546  -4.115  1.00  0.00     0.010 C 
HETATM   24  C3  UNL     1     -34.556 -12.511  -2.612  1.00  0.00     0.005 C 
HETATM   25  C4  UNL     1     -34.084 -13.914  -2.877  1.00  0.00     0.009 C 
HETATM   26  C5  UNL     1     -32.902 -13.988  -1.880  1.00  0.00    -0.043 C 
HETATM   27  C6  UNL     1     -33.500 -14.337  -0.561  1.00  0.00     0.015 C 
HETATM   28  C7  UNL     1     -32.062 -15.157  -2.355  1.00  0.00     0.015 C 
ENDBRANCH   1  21
TORSDOF 2
ENDMDL
MODEL 5
REMARK VINA RESULT: -6.554192233      3.116      7.229
REMARK  2 active torsions:
REMARK  status: ('A' for Active; 'I' for Inactive)
REMARK    1  A    between atoms: C8_8  and  C9_9 
REMARK    2  A    between atoms: N1_13  and  C13_14 
ROOT
HETATM    1  C9  UNL     1     -31.505 -11.491  -2.177  1.00  0.00    -0.008 C 
HETATM    2  C10 UNL     1     -32.001 -11.345  -0.733  1.00  0.00     0.007 C 
HETATM    3  C11 UNL     1     -30.792 -11.646   0.149  1.00  0.00     0.020 C 
HETATM    4  C12 UNL     1     -30.257 -10.396   0.784  1.00  0.00     0.124 C 
HETATM    5  N1  UNL     1     -29.682  -9.595  -0.279  1.00  0.00    -0.365 N 
HETATM    6  C18 UNL     1     -30.262  -9.391  -1.585  1.00  0.00     0.125 C 
HETATM    7  C19 UNL     1     -30.284 -10.663  -2.403  1.00  0.00     0.025 C 
ENDROOT
BRANCH   5   8
HETATM    8  C13 UNL     1     -28.446  -8.981   0.036  1.00  0.00     0.135 A 
HETATM    9  N2  UNL     1     -28.290  -7.650  -0.021  1.00  0.00    -0.337 N 
HETATM   10  C14 UNL     1     -27.137  -7.016   0.268  1.00  0.00     0.183 A 
ATOM     11  H2  UNL     1     -29.091  -7.084  -0.301  1.00  0.00     0.168 HD
HETATM   12  N3  UNL     1     -26.068  -7.770   0.641  1.00  0.00    -0.337 N 
HETATM   13  C15 UNL     1     -26.132  -9.102   0.726  1.00  0.00     0.138 A 
ATOM     14  H3  UNL     1     -25.188  -7.303   0.863  1.00  0.00     0.168 HD
HETATM   15  N4  UNL     1     -25.212 -10.009   1.067  1.00  0.00    -0.337 N 
HETATM   16  C17 UNL     1     -27.341  -9.719   0.418  1.00  0.00     0.122 A 
HETATM   17  C16 UNL     1     -25.842 -11.195   0.974  1.00  0.00     0.182 A 
ATOM     18  H4  UNL     1     -24.243  -9.839   1.338  1.00  0.00     0.168 HD
HETATM   19  N5  UNL     1     -27.120 -11.019   0.584  1.00  0.00    -0.346 N 
ATOM     20  H5  UNL     1     -27.805 -11.762   0.441  1.00  0.00     0.167 HD
ENDBRANCH   5   8
BRANCH   1  21
HETATM   21  C8  UNL     1     -32.556 -11.152  -3.165  1.00  0.00     0.001 C 
HETATM   22  C2  UNL     1     -33.718 -10.385  -2.568  1.00  0.00    -0.013 C 
HETATM   23  C1  UNL     1     -34.008  -9.106  -3.371  1.00  0.00     0.010 C 
HETATM   24  C3  UNL     1     -34.946 -11.255  -2.742  1.00  0.00     0.005 C 
HETATM   25  C4  UNL     1     -34.674 -11.853  -4.094  1.00  0.00     0.009 C 
HETATM   26  C5  UNL     1     -33.196 -12.271  -3.906  1.00  0.00    -0.043 C 
HETATM   27  C6  UNL     1     -33.229 -13.594  -3.222  1.00  0.00     0.015 C 
HETATM   28  C7  UNL     1     -32.663 -12.467  -5.311  1.00  0.00     0.015 C 
ENDBRANCH   1  21
TORSDOF 2
ENDMDL
