MODEL 1
REMARK VINA RESULT: -8.394696180      0.000      0.000
REMARK  2 active torsions:
REMARK  status: ('A' for Active; 'I' for Inactive)
REMARK    1  A    between atoms: C5_6  and  C6_7 
REMARK    2  A    between atoms: C7_11  and  C8_12 
ROOT
HETATM    1  C6  UNL     1     -29.654 -10.542   0.242  1.00  0.00     0.039 A 
HETATM    2  N1  UNL     1     -28.374 -10.726   0.238  1.00  0.00    -0.296 N 
ATOM      3  H1  UNL     1     -28.014 -11.665   0.066  1.00  0.00     0.187 HD
HETATM    4  N2  UNL     1     -27.467  -9.692   0.460  1.00  0.00    -0.246 N 
HETATM    5  C7  UNL     1     -26.099  -9.752   0.481  1.00  0.00     0.055 A 
HETATM    6  C14 UNL     1     -25.692  -8.466   0.739  1.00  0.00     0.117 A 
HETATM    7  N3  UNL     1     -26.787  -7.701   0.859  1.00  0.00    -0.352 N 
ATOM      8  H3  UNL     1     -26.785  -6.699   1.052  1.00  0.00     0.166 HD
HETATM    9  C15 UNL     1     -27.901  -8.462   0.686  1.00  0.00     0.103 A 
HETATM   10  C16 UNL     1     -29.339  -8.098   0.721  1.00  0.00     0.084 A 
HETATM   11  C17 UNL     1     -30.264  -9.213   0.482  1.00  0.00     0.067 A 
ENDROOT
BRANCH   1  12
HETATM   12  C5  UNL     1     -30.576 -11.667   0.002  1.00  0.00     0.012 A 
HETATM   13  C4  UNL     1     -30.851 -12.313  -1.179  1.00  0.00    -0.014 A 
HETATM   14  C3  UNL     1     -30.478 -12.289  -2.622  1.00  0.00     0.049 C 
HETATM   15  C19 UNL     1     -31.774 -13.312  -0.957  1.00  0.00     0.085 A 
HETATM   16  C2  UNL     1     -31.609 -13.045  -3.285  1.00  0.00     0.090 C 
HETATM   17  C1  UNL     1     -32.053 -13.991  -2.229  1.00  0.00     0.176 C 
HETATM   18  O1  UNL     1     -32.562 -15.128  -2.333  1.00  0.00    -0.291 OA
HETATM   19  N4  UNL     1     -32.075 -13.284   0.372  1.00  0.00    -0.362 N 
HETATM   20  C18 UNL     1     -31.356 -12.301   0.939  1.00  0.00     0.102 A 
ATOM     21  H4  UNL     1     -32.731 -13.902   0.851  1.00  0.00     0.165 HD
ENDBRANCH   1  12
BRANCH   5  22
HETATM   22  C8  UNL     1     -25.239 -10.940   0.274  1.00  0.00     0.039 C 
HETATM   23  C9  UNL     1     -23.785 -10.502   0.208  1.00  0.00     0.011 C 
HETATM   24  C10 UNL     1     -22.903 -11.732   0.097  1.00  0.00     0.001 C 
HETATM   25  C11 UNL     1     -23.226 -12.378  -1.248  1.00  0.00     0.000 C 
HETATM   26  C12 UNL     1     -24.676 -12.843  -1.151  1.00  0.00     0.001 C 
HETATM   27  C13 UNL     1     -25.586 -11.659  -1.011  1.00  0.00     0.011 C 
ENDBRANCH   5  22
TORSDOF 2
ENDMDL
MODEL 2
REMARK VINA RESULT: -8.023695383      1.214      1.736
REMARK  2 active torsions:
REMARK  status: ('A' for Active; 'I' for Inactive)
REMARK    1  A    between atoms: C5_6  and  C6_7 
REMARK    2  A    between atoms: C7_11  and  C8_12 
ROOT
HETATM    1  C6  UNL     1     -30.497  -9.976   0.023  1.00  0.00     0.039 A 
HETATM    2  N1  UNL     1     -29.265  -9.756   0.348  1.00  0.00    -0.296 N 
ATOM      3  H1  UNL     1     -28.640 -10.553   0.470  1.00  0.00     0.187 HD
HETATM    4  N2  UNL     1     -28.757  -8.473   0.538  1.00  0.00    -0.246 N 
HETATM    5  C7  UNL     1     -27.483  -8.106   0.880  1.00  0.00     0.055 A 
HETATM    6  C14 UNL     1     -27.513  -6.733   0.936  1.00  0.00     0.117 A 
HETATM    7  N3  UNL     1     -28.758  -6.333   0.637  1.00  0.00    -0.352 N 
ATOM      8  H3  UNL     1     -29.070  -5.363   0.602  1.00  0.00     0.166 HD
HETATM    9  C15 UNL     1     -29.541  -7.417   0.387  1.00  0.00     0.103 A 
HETATM   10  C16 UNL     1     -30.975  -7.511   0.016  1.00  0.00     0.084 A 
HETATM   11  C17 UNL     1     -31.474  -8.880  -0.177  1.00  0.00     0.067 A 
ENDROOT
BRANCH   1  12
HETATM   12  C5  UNL     1     -30.990 -11.352  -0.169  1.00  0.00     0.012 A 
HETATM   13  C4  UNL     1     -30.967 -12.121  -1.308  1.00  0.00    -0.014 A 
HETATM   14  C3  UNL     1     -30.532 -12.061  -2.732  1.00  0.00     0.049 C 
HETATM   15  C19 UNL     1     -31.531 -13.351  -1.047  1.00  0.00     0.085 A 
HETATM   16  C2  UNL     1     -31.315 -13.182  -3.380  1.00  0.00     0.090 C 
HETATM   17  C1  UNL     1     -31.495 -14.157  -2.275  1.00  0.00     0.176 C 
HETATM   18  O1  UNL     1     -31.602 -15.402  -2.313  1.00  0.00    -0.291 OA
HETATM   19  N4  UNL     1     -31.907 -13.346   0.262  1.00  0.00    -0.362 N 
HETATM   20  C18 UNL     1     -31.580 -12.150   0.782  1.00  0.00     0.102 A 
ATOM     21  H4  UNL     1     -32.357 -14.114   0.760  1.00  0.00     0.165 HD
ENDBRANCH   1  12
BRANCH   5  22
HETATM   22  C8  UNL     1     -26.321  -8.988   1.136  1.00  0.00     0.039 C 
HETATM   23  C9  UNL     1     -25.144  -8.527   0.291  1.00  0.00     0.011 C 
HETATM   24  C10 UNL     1     -23.931  -9.371   0.633  1.00  0.00     0.001 C 
HETATM   25  C11 UNL     1     -24.254 -10.796   0.192  1.00  0.00     0.000 C 
HETATM   26  C12 UNL     1     -25.412 -11.255   1.074  1.00  0.00     0.001 C 
HETATM   27  C13 UNL     1     -26.630 -10.428   0.790  1.00  0.00     0.011 C 
ENDBRANCH   5  22
TORSDOF 2
ENDMDL
MODEL 3
REMARK VINA RESULT: -7.805217198      1.078      1.699
REMARK  2 active torsions:
REMARK  status: ('A' for Active; 'I' for Inactive)
REMARK    1  A    between atoms: C5_6  and  C6_7 
REMARK    2  A    between atoms: C7_11  and  C8_12 
ROOT
HETATM    1  C6  UNL     1     -29.835 -10.904  -0.420  1.00  0.00     0.039 A 
HETATM    2  N1  UNL     1     -28.558 -11.022  -0.255  1.00  0.00    -0.296 N 
ATOM      3  H1  UNL     1     -28.109 -11.900  -0.514  1.00  0.00     0.187 HD
HETATM    4  N2  UNL     1     -27.771  -9.996   0.263  1.00  0.00    -0.246 N 
HETATM    5  C7  UNL     1     -26.419  -9.992   0.486  1.00  0.00     0.055 A 
HETATM    6  C14 UNL     1     -26.149  -8.748   1.001  1.00  0.00     0.117 A 
HETATM    7  N3  UNL     1     -27.303  -8.067   1.069  1.00  0.00    -0.352 N 
ATOM      8  H3  UNL     1     -27.402  -7.113   1.414  1.00  0.00     0.166 HD
HETATM    9  C15 UNL     1     -28.322  -8.843   0.609  1.00  0.00     0.103 A 
HETATM   10  C16 UNL     1     -29.772  -8.560   0.478  1.00  0.00     0.084 A 
HETATM   11  C17 UNL     1     -30.569  -9.664  -0.073  1.00  0.00     0.067 A 
ENDROOT
BRANCH   1  12
HETATM   12  C5  UNL     1     -30.628 -12.017  -0.973  1.00  0.00     0.012 A 
HETATM   13  C4  UNL     1     -31.727 -12.639  -0.431  1.00  0.00    -0.014 A 
HETATM   14  C3  UNL     1     -32.601 -12.593   0.775  1.00  0.00     0.049 C 
HETATM   15  C19 UNL     1     -32.162 -13.633  -1.281  1.00  0.00     0.085 A 
HETATM   16  C2  UNL     1     -33.284 -13.943   0.759  1.00  0.00     0.090 C 
HETATM   17  C1  UNL     1     -33.336 -14.284  -0.686  1.00  0.00     0.176 C 
HETATM   18  O1  UNL     1     -34.167 -14.970  -1.318  1.00  0.00    -0.291 OA
HETATM   19  N4  UNL     1     -31.328 -13.627  -2.358  1.00  0.00    -0.362 N 
HETATM   20  C18 UNL     1     -30.414 -12.659  -2.168  1.00  0.00     0.102 A 
ATOM     21  H4  UNL     1     -31.386 -14.247  -3.165  1.00  0.00     0.165 HD
ENDBRANCH   1  12
BRANCH   5  22
HETATM   22  C8  UNL     1     -25.454 -11.085   0.231  1.00  0.00     0.039 C 
HETATM   23  C9  UNL     1     -24.040 -10.528   0.269  1.00  0.00     0.011 C 
HETATM   24  C10 UNL     1     -23.054 -11.669   0.108  1.00  0.00     0.001 C 
HETATM   25  C11 UNL     1     -23.264 -12.230  -1.295  1.00  0.00     0.000 C 
HETATM   26  C12 UNL     1     -24.672 -12.818  -1.305  1.00  0.00     0.001 C 
HETATM   27  C13 UNL     1     -25.684 -11.726  -1.120  1.00  0.00     0.011 C 
ENDBRANCH   5  22
TORSDOF 2
ENDMDL
MODEL 4
REMARK VINA RESULT: -7.644295723      2.150      2.701
REMARK  2 active torsions:
REMARK  status: ('A' for Active; 'I' for Inactive)
REMARK    1  A    between atoms: C5_6  and  C6_7 
REMARK    2  A    between atoms: C7_11  and  C8_12 
ROOT
HETATM    1  C6  UNL     1     -30.053  -9.243  -1.178  1.00  0.00     0.039 A 
HETATM    2  N1  UNL     1     -28.952  -9.255  -0.501  1.00  0.00    -0.296 N 
ATOM      3  H1  UNL     1     -28.330 -10.059  -0.592  1.00  0.00     0.187 HD
HETATM    4  N2  UNL     1     -28.580  -8.215   0.347  1.00  0.00    -0.246 N 
HETATM    5  C7  UNL     1     -27.450  -8.106   1.113  1.00  0.00     0.055 A 
HETATM    6  C14 UNL     1     -27.572  -6.897   1.754  1.00  0.00     0.117 A 
HETATM    7  N3  UNL     1     -28.729  -6.337   1.367  1.00  0.00    -0.352 N 
ATOM      8  H3  UNL     1     -29.079  -5.434   1.685  1.00  0.00     0.166 HD
HETATM    9  C15 UNL     1     -29.364  -7.158   0.487  1.00  0.00     0.103 A 
HETATM   10  C16 UNL     1     -30.658  -7.001  -0.223  1.00  0.00     0.084 A 
HETATM   11  C17 UNL     1     -31.014  -8.117  -1.109  1.00  0.00     0.067 A 
ENDROOT
BRANCH   1  12
HETATM   12  C5  UNL     1     -30.404 -10.367  -2.064  1.00  0.00     0.012 A 
HETATM   13  C4  UNL     1     -31.484 -10.491  -2.906  1.00  0.00    -0.014 A 
HETATM   14  C3  UNL     1     -32.696  -9.744  -3.346  1.00  0.00     0.049 C 
HETATM   15  C19 UNL     1     -31.428 -11.706  -3.555  1.00  0.00     0.085 A 
HETATM   16  C2  UNL     1     -33.570 -10.824  -3.946  1.00  0.00     0.090 C 
HETATM   17  C1  UNL     1     -32.588 -11.819  -4.449  1.00  0.00     0.176 C 
HETATM   18  O1  UNL     1     -32.670 -12.609  -5.413  1.00  0.00    -0.291 OA
HETATM   19  N4  UNL     1     -30.306 -12.340  -3.113  1.00  0.00    -0.362 N 
HETATM   20  C18 UNL     1     -29.698 -11.535  -2.224  1.00  0.00     0.102 A 
ATOM     21  H4  UNL     1     -29.984 -13.263  -3.405  1.00  0.00     0.165 HD
ENDBRANCH   1  12
BRANCH   5  22
HETATM   22  C8  UNL     1     -26.336  -9.073   1.231  1.00  0.00     0.039 C 
HETATM   23  C9  UNL     1     -25.216  -8.671   0.285  1.00  0.00     0.011 C 
HETATM   24  C10 UNL     1     -24.040  -9.607   0.485  1.00  0.00     0.001 C 
HETATM   25  C11 UNL     1     -24.506 -10.992   0.044  1.00  0.00     0.000 C 
HETATM   26  C12 UNL     1     -25.603 -11.395   1.026  1.00  0.00     0.001 C 
HETATM   27  C13 UNL     1     -26.780 -10.477   0.884  1.00  0.00     0.011 C 
ENDBRANCH   5  22
TORSDOF 2
ENDMDL
MODEL 5
REMARK VINA RESULT: -7.641731536      1.549      2.277
REMARK  2 active torsions:
REMARK  status: ('A' for Active; 'I' for Inactive)
REMARK    1  A    between atoms: C5_6  and  C6_7 
REMARK    2  A    between atoms: C7_11  and  C8_12 
ROOT
HETATM    1  C6  UNL     1     -30.162  -9.946  -0.841  1.00  0.00     0.039 A 
HETATM    2  N1  UNL     1     -29.021  -9.755  -0.265  1.00  0.00    -0.296 N 
ATOM      3  H1  UNL     1     -28.351 -10.524  -0.238  1.00  0.00     0.187 HD
HETATM    4  N2  UNL     1     -28.670  -8.541   0.321  1.00  0.00    -0.246 N 
HETATM    5  C7  UNL     1     -27.502  -8.212   0.957  1.00  0.00     0.055 A 
HETATM    6  C14 UNL     1     -27.668  -6.904   1.345  1.00  0.00     0.117 A 
HETATM    7  N3  UNL     1     -28.884  -6.503   0.944  1.00  0.00    -0.352 N 
ATOM      8  H3  UNL     1     -29.275  -5.574   1.096  1.00  0.00     0.166 HD
HETATM    9  C15 UNL     1     -29.515  -7.524   0.303  1.00  0.00     0.103 A 
HETATM   10  C16 UNL     1     -30.860  -7.591  -0.321  1.00  0.00     0.084 A 
HETATM   11  C17 UNL     1     -31.194  -8.886  -0.929  1.00  0.00     0.067 A 
ENDROOT
BRANCH   1  12
HETATM   12  C5  UNL     1     -30.490 -11.248  -1.448  1.00  0.00     0.012 A 
HETATM   13  C4  UNL     1     -31.531 -12.096  -1.151  1.00  0.00    -0.014 A 
HETATM   14  C3  UNL     1     -32.705 -12.206  -0.241  1.00  0.00     0.049 C 
HETATM   15  C19 UNL     1     -31.467 -13.209  -1.961  1.00  0.00     0.085 A 
HETATM   16  C2  UNL     1     -33.033 -13.683  -0.276  1.00  0.00     0.090 C 
HETATM   17  C1  UNL     1     -32.586 -14.101  -1.630  1.00  0.00     0.176 C 
HETATM   18  O1  UNL     1     -33.022 -15.004  -2.375  1.00  0.00    -0.291 OA
HETATM   19  N4  UNL     1     -30.379 -13.052  -2.766  1.00  0.00    -0.362 N 
HETATM   20  C18 UNL     1     -29.800 -11.878  -2.456  1.00  0.00     0.102 A 
ATOM     21  H4  UNL     1     -30.060 -13.709  -3.478  1.00  0.00     0.165 HD
ENDBRANCH   1  12
BRANCH   5  22
HETATM   22  C8  UNL     1     -26.317  -9.070   1.183  1.00  0.00     0.039 C 
HETATM   23  C9  UNL     1     -25.190  -8.623   0.267  1.00  0.00     0.011 C 
HETATM   24  C10 UNL     1     -23.949  -9.440   0.575  1.00  0.00     0.001 C 
HETATM   25  C11 UNL     1     -24.273 -10.882   0.196  1.00  0.00     0.000 C 
HETATM   26  C12 UNL     1     -25.380 -11.326   1.149  1.00  0.00     0.001 C 
HETATM   27  C13 UNL     1     -26.622 -10.524   0.899  1.00  0.00     0.011 C 
ENDBRANCH   5  22
TORSDOF 2
ENDMDL
