MODEL 1
REMARK VINA RESULT: -8.360128149      0.000      0.000
REMARK  3 active torsions:
REMARK  status: ('A' for Active; 'I' for Inactive)
REMARK    1  A    between atoms: C4_6  and  C5_7 
REMARK    2  A    between atoms: C6_12  and  N3_13 
REMARK    3  A    between atoms: N4_20  and  C13_21 
ROOT
HETATM    1  C5  UNL     1     -26.532  -3.246   3.538  1.00  0.00     0.151 A 
HETATM    2  N1  UNL     1     -27.551  -2.600   2.893  1.00  0.00    -0.270 N 
ATOM      3  H1  UNL     1     -27.781  -1.611   2.993  1.00  0.00     0.189 HD
HETATM    4  N2  UNL     1     -28.186  -3.453   2.128  1.00  0.00    -0.130 N 
ATOM      5  H2  UNL     1     -28.987  -3.224   1.540  1.00  0.00     0.205 HD
HETATM    6  C6  UNL     1     -27.637  -4.657   2.227  1.00  0.00     0.696 A 
HETATM    7  N5  UNL     1     -26.605  -4.507   3.113  1.00  0.00    -0.173 N 
ATOM      8  H5  UNL     1     -25.978  -5.256   3.407  1.00  0.00     0.186 HD
ENDROOT
BRANCH   6   9
HETATM    9  N3  UNL     1     -27.973  -5.874   1.582  1.00  0.00    -0.216 N 
HETATM   10  C7  UNL     1     -28.792  -5.803   0.376  1.00  0.00     0.141 C 
HETATM   11  C8  UNL     1     -28.442  -6.954  -0.525  1.00  0.00     0.021 C 
HETATM   12  C9  UNL     1     -27.002  -7.318  -0.332  1.00  0.00     0.013 C 
HETATM   13  C10 UNL     1     -26.749  -7.939   0.998  1.00  0.00    -0.020 C 
HETATM   14  C11 UNL     1     -25.300  -7.789   1.420  1.00  0.00     0.041 C 
HETATM   15  C20 UNL     1     -27.152  -9.372   1.128  1.00  0.00     0.041 C 
HETATM   16  C21 UNL     1     -27.583  -7.179   2.037  1.00  0.00     0.151 C 
HETATM   17  C12 UNL     1     -24.420  -8.787   0.690  1.00  0.00     0.273 C 
HETATM   18  N4  UNL     1     -24.898 -10.143   0.879  1.00  0.00     0.093 N 
HETATM   19  C19 UNL     1     -26.252 -10.293   0.383  1.00  0.00     0.273 C 
BRANCH  18  20
HETATM   20  C13 UNL     1     -23.985 -11.053   0.248  1.00  0.00     0.223 C 
HETATM   21  C14 UNL     1     -22.615 -10.514  -0.006  1.00  0.00     0.036 C 
HETATM   22  C15 UNL     1     -21.744 -11.660  -0.488  1.00  0.00     0.002 C 
HETATM   23  C16 UNL     1     -22.303 -12.095  -1.836  1.00  0.00     0.000 C 
HETATM   24  C17 UNL     1     -23.709 -12.624  -1.686  1.00  0.00     0.002 C 
HETATM   25  C18 UNL     1     -24.601 -11.636  -0.972  1.00  0.00     0.036 C 
ENDBRANCH  18  20
ENDBRANCH   6   9
BRANCH   1  26
HETATM   26  C4  UNL     1     -25.592  -2.615   4.458  1.00  0.00     0.070 A 
HETATM   27  C3  UNL     1     -24.770  -1.567   4.149  1.00  0.00     0.135 A 
HETATM   28  C2  UNL     1     -23.892  -1.009   5.083  1.00  0.00     0.085 A 
HETATM   29  F2  UNL     1     -24.788  -1.024   2.904  1.00  0.00    -0.205 F 
HETATM   30  C1  UNL     1     -23.811  -1.491   6.369  1.00  0.00     0.120 A 
HETATM   31  F1  UNL     1     -22.951  -0.933   7.255  1.00  0.00    -0.206 F 
HETATM   32  C23 UNL     1     -24.634  -2.543   6.684  1.00  0.00     0.067 A 
HETATM   33  C22 UNL     1     -25.501  -3.096   5.766  1.00  0.00     0.054 A 
HETATM   34 CL1  UNL     1     -26.539  -4.448   6.190  1.00  0.00    -0.083 Cl
ENDBRANCH   1  26
TORSDOF 3
ENDMDL
MODEL 2
REMARK VINA RESULT: -8.150088396      1.281      1.536
REMARK  3 active torsions:
REMARK  status: ('A' for Active; 'I' for Inactive)
REMARK    1  A    between atoms: C4_6  and  C5_7 
REMARK    2  A    between atoms: C6_12  and  N3_13 
REMARK    3  A    between atoms: N4_20  and  C13_21 
ROOT
HETATM    1  C5  UNL     1     -26.440  -3.362   3.726  1.00  0.00     0.151 A 
HETATM    2  N1  UNL     1     -27.355  -2.660   2.990  1.00  0.00    -0.270 N 
ATOM      3  H1  UNL     1     -27.531  -1.658   3.066  1.00  0.00     0.189 HD
HETATM    4  N2  UNL     1     -27.969  -3.478   2.172  1.00  0.00    -0.130 N 
ATOM      5  H2  UNL     1     -28.698  -3.205   1.513  1.00  0.00     0.205 HD
HETATM    6  C6  UNL     1     -27.507  -4.712   2.323  1.00  0.00     0.696 A 
HETATM    7  N5  UNL     1     -26.551  -4.619   3.299  1.00  0.00    -0.173 N 
ATOM      8  H5  UNL     1     -26.002  -5.403   3.650  1.00  0.00     0.186 HD
ENDROOT
BRANCH   6   9
HETATM    9  N3  UNL     1     -27.857  -5.911   1.652  1.00  0.00    -0.216 N 
HETATM   10  C7  UNL     1     -28.679  -5.806   0.451  1.00  0.00     0.141 C 
HETATM   11  C8  UNL     1     -28.344  -6.941  -0.476  1.00  0.00     0.021 C 
HETATM   12  C9  UNL     1     -26.907  -7.324  -0.295  1.00  0.00     0.013 C 
HETATM   13  C10 UNL     1     -26.656  -7.976   1.020  1.00  0.00    -0.020 C 
HETATM   14  C11 UNL     1     -25.205  -7.850   1.440  1.00  0.00     0.041 C 
HETATM   15  C20 UNL     1     -27.074  -9.407   1.120  1.00  0.00     0.041 C 
HETATM   16  C21 UNL     1     -27.479  -7.231   2.078  1.00  0.00     0.151 C 
HETATM   17  C12 UNL     1     -24.337  -8.841   0.685  1.00  0.00     0.273 C 
HETATM   18  N4  UNL     1     -24.829 -10.195   0.846  1.00  0.00     0.093 N 
HETATM   19  C19 UNL     1     -26.186 -10.321   0.352  1.00  0.00     0.273 C 
BRANCH  18  20
HETATM   20  C13 UNL     1     -23.927 -11.101   0.192  1.00  0.00     0.223 C 
HETATM   21  C14 UNL     1     -22.561 -10.561  -0.079  1.00  0.00     0.036 C 
HETATM   22  C15 UNL     1     -21.699 -11.704  -0.586  1.00  0.00     0.002 C 
HETATM   23  C16 UNL     1     -22.281 -12.127  -1.929  1.00  0.00     0.000 C 
HETATM   24  C17 UNL     1     -23.685 -12.656  -1.759  1.00  0.00     0.002 C 
HETATM   25  C18 UNL     1     -24.564 -11.673  -1.022  1.00  0.00     0.036 C 
ENDBRANCH  18  20
ENDBRANCH   6   9
BRANCH   1  26
HETATM   26  C4  UNL     1     -25.550  -2.782   4.726  1.00  0.00     0.070 A 
HETATM   27  C3  UNL     1     -25.285  -3.323   5.954  1.00  0.00     0.135 A 
HETATM   28  C2  UNL     1     -24.419  -2.711   6.865  1.00  0.00     0.085 A 
HETATM   29  F2  UNL     1     -25.862  -4.494   6.327  1.00  0.00    -0.205 F 
HETATM   30  C1  UNL     1     -23.786  -1.526   6.570  1.00  0.00     0.120 A 
HETATM   31  F1  UNL     1     -22.952  -0.954   7.471  1.00  0.00    -0.206 F 
HETATM   32  C23 UNL     1     -24.049  -0.979   5.339  1.00  0.00     0.067 A 
HETATM   33  C22 UNL     1     -24.903  -1.579   4.437  1.00  0.00     0.054 A 
HETATM   34 CL1  UNL     1     -25.230  -0.856   2.871  1.00  0.00    -0.083 Cl
ENDBRANCH   1  26
TORSDOF 3
ENDMDL
MODEL 3
REMARK VINA RESULT: -7.924595451      6.215      8.647
REMARK  3 active torsions:
REMARK  status: ('A' for Active; 'I' for Inactive)
REMARK    1  A    between atoms: C4_6  and  C5_7 
REMARK    2  A    between atoms: C6_12  and  N3_13 
REMARK    3  A    between atoms: N4_20  and  C13_21 
ROOT
HETATM    1  C5  UNL     1     -28.236  -8.209   0.489  1.00  0.00     0.151 A 
HETATM    2  N1  UNL     1     -28.741  -7.271   1.348  1.00  0.00    -0.270 N 
ATOM      3  H1  UNL     1     -28.254  -6.886   2.156  1.00  0.00     0.189 HD
HETATM    4  N2  UNL     1     -29.951  -6.946   0.965  1.00  0.00    -0.130 N 
ATOM      5  H2  UNL     1     -30.548  -6.265   1.436  1.00  0.00     0.205 HD
HETATM    6  C6  UNL     1     -30.289  -7.627  -0.122  1.00  0.00     0.696 A 
HETATM    7  N5  UNL     1     -29.204  -8.411  -0.404  1.00  0.00    -0.173 N 
ATOM      8  H5  UNL     1     -29.144  -9.060  -1.188  1.00  0.00     0.186 HD
ENDROOT
BRANCH   6   9
HETATM    9  N3  UNL     1     -31.481  -7.597  -0.889  1.00  0.00    -0.216 N 
HETATM   10  C7  UNL     1     -32.015  -6.293  -1.269  1.00  0.00     0.141 C 
HETATM   11  C8  UNL     1     -32.738  -6.419  -2.581  1.00  0.00     0.021 C 
HETATM   12  C9  UNL     1     -32.098  -7.499  -3.399  1.00  0.00     0.013 C 
HETATM   13  C10 UNL     1     -32.339  -8.856  -2.834  1.00  0.00    -0.020 C 
HETATM   14  C11 UNL     1     -31.283  -9.846  -3.285  1.00  0.00     0.041 C 
HETATM   15  C20 UNL     1     -33.694  -9.430  -3.093  1.00  0.00     0.041 C 
HETATM   16  C21 UNL     1     -32.217  -8.757  -1.309  1.00  0.00     0.151 C 
HETATM   17  C12 UNL     1     -31.543 -10.299  -4.711  1.00  0.00     0.273 C 
HETATM   18  N4  UNL     1     -32.882 -10.836  -4.854  1.00  0.00     0.093 N 
HETATM   19  C19 UNL     1     -33.883  -9.845  -4.509  1.00  0.00     0.273 C 
BRANCH  18  20
HETATM   20  C13 UNL     1     -33.047 -11.333  -6.191  1.00  0.00     0.223 C 
HETATM   21  C14 UNL     1     -31.838 -11.974  -6.790  1.00  0.00     0.036 C 
HETATM   22  C15 UNL     1     -32.249 -12.605  -8.108  1.00  0.00     0.002 C 
HETATM   23  C16 UNL     1     -32.647 -11.462  -9.034  1.00  0.00     0.000 C 
HETATM   24  C17 UNL     1     -33.846 -10.726  -8.488  1.00  0.00     0.002 C 
HETATM   25  C18 UNL     1     -33.622 -10.276  -7.063  1.00  0.00     0.036 C 
ENDBRANCH  18  20
ENDBRANCH   6   9
BRANCH   1  26
HETATM   26  C4  UNL     1     -26.903  -8.794   0.583  1.00  0.00     0.070 A 
HETATM   27  C3  UNL     1     -26.631 -10.082   0.954  1.00  0.00     0.135 A 
HETATM   28  C2  UNL     1     -25.325 -10.577   1.022  1.00  0.00     0.085 A 
HETATM   29  F2  UNL     1     -27.641 -10.933   1.268  1.00  0.00    -0.205 F 
HETATM   30  C1  UNL     1     -24.241  -9.788   0.717  1.00  0.00     0.120 A 
HETATM   31  F1  UNL     1     -22.986 -10.292   0.791  1.00  0.00    -0.206 F 
HETATM   32  C23 UNL     1     -24.508  -8.494   0.344  1.00  0.00     0.067 A 
HETATM   33  C22 UNL     1     -25.794  -8.001   0.276  1.00  0.00     0.054 A 
HETATM   34 CL1  UNL     1     -26.111  -6.340  -0.197  1.00  0.00    -0.083 Cl
ENDBRANCH   1  26
TORSDOF 3
ENDMDL
MODEL 4
REMARK VINA RESULT: -7.814292122      7.210     10.217
REMARK  3 active torsions:
REMARK  status: ('A' for Active; 'I' for Inactive)
REMARK    1  A    between atoms: C4_6  and  C5_7 
REMARK    2  A    between atoms: C6_12  and  N3_13 
REMARK    3  A    between atoms: N4_20  and  C13_21 
ROOT
HETATM    1  C5  UNL     1     -28.281 -10.500  -0.239  1.00  0.00     0.151 A 
HETATM    2  N1  UNL     1     -29.223 -10.961   0.640  1.00  0.00    -0.270 N 
ATOM      3  H1  UNL     1     -29.250 -10.757   1.639  1.00  0.00     0.189 HD
HETATM    4  N2  UNL     1     -30.085 -11.706  -0.005  1.00  0.00    -0.130 N 
ATOM      5  H2  UNL     1     -30.888 -12.170   0.420  1.00  0.00     0.205 HD
HETATM    6  C6  UNL     1     -29.766 -11.771  -1.291  1.00  0.00     0.696 A 
HETATM    7  N5  UNL     1     -28.635 -11.011  -1.417  1.00  0.00    -0.173 N 
ATOM      8  H5  UNL     1     -28.134 -10.856  -2.292  1.00  0.00     0.186 HD
ENDROOT
BRANCH   6   9
HETATM    9  N3  UNL     1     -30.409 -12.441  -2.363  1.00  0.00    -0.216 N 
HETATM   10  C7  UNL     1     -31.017 -13.739  -2.090  1.00  0.00     0.141 C 
HETATM   11  C8  UNL     1     -32.196 -13.932  -3.002  1.00  0.00     0.021 C 
HETATM   12  C9  UNL     1     -32.810 -12.601  -3.311  1.00  0.00     0.013 C 
HETATM   13  C10 UNL     1     -31.938 -11.764  -4.181  1.00  0.00    -0.020 C 
HETATM   14  C11 UNL     1     -32.254 -10.289  -4.036  1.00  0.00     0.041 C 
HETATM   15  C20 UNL     1     -31.937 -12.126  -5.631  1.00  0.00     0.041 C 
HETATM   16  C21 UNL     1     -30.491 -11.946  -3.709  1.00  0.00     0.151 C 
HETATM   17  C12 UNL     1     -33.513  -9.929  -4.804  1.00  0.00     0.273 C 
HETATM   18  N4  UNL     1     -33.409 -10.323  -6.195  1.00  0.00     0.093 N 
HETATM   19  C19 UNL     1     -33.202 -11.753  -6.319  1.00  0.00     0.273 C 
BRANCH  18  20
HETATM   20  C13 UNL     1     -34.582  -9.881  -6.896  1.00  0.00     0.223 C 
HETATM   21  C14 UNL     1     -35.356  -8.793  -6.226  1.00  0.00     0.036 C 
HETATM   22  C15 UNL     1     -36.433  -8.326  -7.190  1.00  0.00     0.002 C 
HETATM   23  C16 UNL     1     -37.389  -9.496  -7.378  1.00  0.00     0.000 C 
HETATM   24  C17 UNL     1     -36.682 -10.666  -8.019  1.00  0.00     0.002 C 
HETATM   25  C18 UNL     1     -35.432 -11.044  -7.258  1.00  0.00     0.036 C 
ENDBRANCH  18  20
ENDBRANCH   6   9
BRANCH   1  26
HETATM   26  C4  UNL     1     -27.171  -9.621   0.112  1.00  0.00     0.070 A 
HETATM   27  C3  UNL     1     -26.017 -10.015   0.731  1.00  0.00     0.135 A 
HETATM   28  C2  UNL     1     -24.992  -9.115   1.037  1.00  0.00     0.085 A 
HETATM   29  F2  UNL     1     -25.829 -11.317   1.066  1.00  0.00    -0.205 F 
HETATM   30  C1  UNL     1     -25.094  -7.779   0.730  1.00  0.00     0.120 A 
HETATM   31  F1  UNL     1     -24.086  -6.928   1.038  1.00  0.00    -0.206 F 
HETATM   32  C23 UNL     1     -26.250  -7.377   0.109  1.00  0.00     0.067 A 
HETATM   33  C22 UNL     1     -27.264  -8.261  -0.195  1.00  0.00     0.054 A 
HETATM   34 CL1  UNL     1     -28.738  -7.723  -0.983  1.00  0.00    -0.083 Cl
ENDBRANCH   1  26
TORSDOF 3
ENDMDL
MODEL 5
REMARK VINA RESULT: -7.711155064      7.316      9.462
REMARK  3 active torsions:
REMARK  status: ('A' for Active; 'I' for Inactive)
REMARK    1  A    between atoms: C4_6  and  C5_7 
REMARK    2  A    between atoms: C6_12  and  N3_13 
REMARK    3  A    between atoms: N4_20  and  C13_21 
ROOT
HETATM    1  C5  UNL     1     -27.224 -10.198   0.050  1.00  0.00     0.151 A 
HETATM    2  N1  UNL     1     -28.023 -10.706   1.038  1.00  0.00    -0.270 N 
ATOM      3  H1  UNL     1     -27.744 -10.849   2.009  1.00  0.00     0.189 HD
HETATM    4  N2  UNL     1     -29.202 -10.979   0.539  1.00  0.00    -0.130 N 
ATOM      5  H2  UNL     1     -29.983 -11.369   1.068  1.00  0.00     0.205 HD
HETATM    6  C6  UNL     1     -29.238 -10.677  -0.752  1.00  0.00     0.696 A 
HETATM    7  N5  UNL     1     -27.991 -10.190  -1.039  1.00  0.00    -0.173 N 
ATOM      8  H5  UNL     1     -27.692  -9.866  -1.958  1.00  0.00     0.186 HD
ENDROOT
BRANCH   6   9
HETATM    9  N3  UNL     1     -30.294 -10.787  -1.691  1.00  0.00    -0.216 N 
HETATM   10  C7  UNL     1     -30.108 -10.175  -3.003  1.00  0.00     0.141 C 
HETATM   11  C8  UNL     1     -30.881 -10.958  -4.026  1.00  0.00     0.021 C 
HETATM   12  C9  UNL     1     -30.944 -12.396  -3.609  1.00  0.00     0.013 C 
HETATM   13  C10 UNL     1     -31.808 -12.601  -2.414  1.00  0.00    -0.020 C 
HETATM   14  C11 UNL     1     -31.445 -13.872  -1.671  1.00  0.00     0.041 C 
HETATM   15  C20 UNL     1     -33.280 -12.587  -2.672  1.00  0.00     0.041 C 
HETATM   16  C21 UNL     1     -31.548 -11.443  -1.443  1.00  0.00     0.151 C 
HETATM   17  C12 UNL     1     -31.997 -15.091  -2.387  1.00  0.00     0.273 C 
HETATM   18  N4  UNL     1     -33.428 -14.976  -2.589  1.00  0.00     0.093 N 
HETATM   19  C19 UNL     1     -33.752 -13.806  -3.382  1.00  0.00     0.273 C 
BRANCH  18  20
HETATM   20  C13 UNL     1     -33.916 -16.188  -3.185  1.00  0.00     0.223 C 
HETATM   21  C14 UNL     1     -35.333 -16.534  -2.865  1.00  0.00     0.036 C 
HETATM   22  C15 UNL     1     -35.730 -17.720  -3.725  1.00  0.00     0.002 C 
HETATM   23  C16 UNL     1     -34.876 -18.895  -3.269  1.00  0.00     0.000 C 
HETATM   24  C17 UNL     1     -33.412 -18.621  -3.519  1.00  0.00     0.002 C 
HETATM   25  C18 UNL     1     -32.981 -17.308  -2.907  1.00  0.00     0.036 C 
ENDBRANCH  18  20
ENDBRANCH   6   9
BRANCH   1  26
HETATM   26  C4  UNL     1     -25.845  -9.757   0.235  1.00  0.00     0.070 A 
HETATM   27  C3  UNL     1     -24.757 -10.582   0.307  1.00  0.00     0.135 A 
HETATM   28  C2  UNL     1     -23.461 -10.089   0.485  1.00  0.00     0.085 A 
HETATM   29  F2  UNL     1     -24.906 -11.927   0.199  1.00  0.00    -0.205 F 
HETATM   30  C1  UNL     1     -23.214  -8.741   0.599  1.00  0.00     0.120 A 
HETATM   31  F1  UNL     1     -21.949  -8.290   0.771  1.00  0.00    -0.206 F 
HETATM   32  C23 UNL     1     -24.303  -7.909   0.528  1.00  0.00     0.067 A 
HETATM   33  C22 UNL     1     -25.584  -8.390   0.352  1.00  0.00     0.054 A 
HETATM   34 CL1  UNL     1     -26.963  -7.307   0.272  1.00  0.00    -0.083 Cl
ENDBRANCH   1  26
TORSDOF 3
ENDMDL
