MODEL 1
REMARK VINA RESULT: -7.637397197      0.000      0.000
REMARK  4 active torsions:
REMARK  status: ('A' for Active; 'I' for Inactive)
REMARK    1  A    between atoms: C2_3  and  C12_23 
REMARK    2  A    between atoms: N2_4  and  N3_6 
REMARK    3  A    between atoms: N3_6  and  C3_8 
REMARK    4  A    between atoms: C4_11  and  C5_12 
ROOT
HETATM    1  N1  UNL     1     -23.662  -8.259   0.735  1.00  0.00    -0.190 NA
HETATM    2  C1  UNL     1     -24.082  -9.320   0.541  1.00  0.00     0.115 C 
HETATM    3  C2  UNL     1     -24.613 -10.629   0.277  1.00  0.00     0.110 C 
HETATM    4  N2  UNL     1     -25.876 -10.854   0.324  1.00  0.00    -0.292 N 
ATOM      5  H2  UNL     1     -26.191 -11.804   0.127  1.00  0.00     0.187 HD
ENDROOT
BRANCH   3   6
HETATM    6  C12 UNL     1     -23.720 -11.776  -0.061  1.00  0.00     0.048 C 
HETATM    7  C13 UNL     1     -22.290 -11.273  -0.120  1.00  0.00     0.011 C 
HETATM    8  C14 UNL     1     -21.740 -11.704  -1.461  1.00  0.00     0.001 C 
HETATM    9  C15 UNL     1     -22.647 -12.819  -1.868  1.00  0.00     0.001 C 
HETATM   10  C16 UNL     1     -24.019 -12.279  -1.459  1.00  0.00     0.011 C 
ENDBRANCH   3   6
BRANCH   4  11
HETATM   11  N3  UNL     1     -26.839  -9.916   0.618  1.00  0.00    -0.279 N 
ATOM     12  H3  UNL     1     -26.659  -9.160   1.278  1.00  0.00     0.189 HD
BRANCH  11  13
HETATM   13  C3  UNL     1     -28.000 -10.034   0.013  1.00  0.00     0.163 A 
HETATM   14  N4  UNL     1     -28.884 -11.029   0.114  1.00  0.00    -0.334 N 
HETATM   15  C4  UNL     1     -29.990 -10.959  -0.573  1.00  0.00     0.054 A 
ATOM     16  H4  UNL     1     -28.698 -11.830   0.718  1.00  0.00     0.168 HD
HETATM   17  C11 UNL     1     -30.172  -9.852  -1.366  1.00  0.00     0.083 A 
HETATM   18  S1  UNL     1     -28.732  -8.964  -1.079  1.00  0.00    -0.062 SA
BRANCH  15  19
HETATM   19  C5  UNL     1     -31.101 -11.944  -0.470  1.00  0.00     0.036 A 
HETATM   20  C6  UNL     1     -32.024 -11.915   0.520  1.00  0.00     0.048 A 
HETATM   21 CL1  UNL     1     -32.105 -10.591   1.660  1.00  0.00    -0.083 Cl
HETATM   22  C7  UNL     1     -32.974 -12.926   0.620  1.00  0.00     0.026 A 
HETATM   23  C8  UNL     1     -33.003 -13.954  -0.262  1.00  0.00     0.022 A 
HETATM   24  C9  UNL     1     -32.084 -14.005  -1.268  1.00  0.00     0.033 A 
HETATM   25 BR1  UNL     1     -32.113 -15.429  -2.502  1.00  0.00    -0.049 Br
HETATM   26  C10 UNL     1     -31.122 -12.982  -1.366  1.00  0.00     0.065 A 
HETATM   27 CL2  UNL     1     -29.963 -13.209  -2.657  1.00  0.00    -0.082 Cl
ENDBRANCH  15  19
ENDBRANCH  11  13
ENDBRANCH   4  11
TORSDOF 4
ENDMDL
MODEL 2
REMARK VINA RESULT: -7.481678281      1.202      2.206
REMARK  4 active torsions:
REMARK  status: ('A' for Active; 'I' for Inactive)
REMARK    1  A    between atoms: C2_3  and  C12_23 
REMARK    2  A    between atoms: N2_4  and  N3_6 
REMARK    3  A    between atoms: N3_6  and  C3_8 
REMARK    4  A    between atoms: C4_11  and  C5_12 
ROOT
HETATM    1  N1  UNL     1     -23.569  -8.233   0.702  1.00  0.00    -0.190 NA
HETATM    2  C1  UNL     1     -23.999  -9.289   0.504  1.00  0.00     0.115 C 
HETATM    3  C2  UNL     1     -24.541 -10.593   0.235  1.00  0.00     0.110 C 
HETATM    4  N2  UNL     1     -25.807 -10.802   0.257  1.00  0.00    -0.292 N 
ATOM      5  H2  UNL     1     -26.130 -11.750   0.058  1.00  0.00     0.187 HD
ENDROOT
BRANCH   3   6
HETATM    6  C12 UNL     1     -23.655 -11.752  -0.080  1.00  0.00     0.048 C 
HETATM    7  C13 UNL     1     -22.226 -11.255  -0.177  1.00  0.00     0.011 C 
HETATM    8  C14 UNL     1     -21.697 -11.730  -1.512  1.00  0.00     0.001 C 
HETATM    9  C15 UNL     1     -22.613 -12.855  -1.870  1.00  0.00     0.001 C 
HETATM   10  C16 UNL     1     -23.977 -12.299  -1.456  1.00  0.00     0.011 C 
ENDBRANCH   3   6
BRANCH   4  11
HETATM   11  N3  UNL     1     -26.764  -9.851   0.528  1.00  0.00    -0.279 N 
ATOM     12  H3  UNL     1     -26.569  -9.064   1.147  1.00  0.00     0.189 HD
BRANCH  11  13
HETATM   13  C3  UNL     1     -27.939  -9.998  -0.044  1.00  0.00     0.163 A 
HETATM   14  N4  UNL     1     -28.791 -11.019   0.076  1.00  0.00    -0.334 N 
HETATM   15  C4  UNL     1     -29.918 -10.975  -0.579  1.00  0.00     0.054 A 
ATOM     16  H4  UNL     1     -28.564 -11.818   0.668  1.00  0.00     0.168 HD
HETATM   17  C11 UNL     1     -30.155  -9.869  -1.357  1.00  0.00     0.083 A 
HETATM   18  S1  UNL     1     -28.733  -8.942  -1.105  1.00  0.00    -0.062 SA
BRANCH  15  19
HETATM   19  C5  UNL     1     -30.997 -11.993  -0.451  1.00  0.00     0.036 A 
HETATM   20  C6  UNL     1     -31.165 -13.006  -1.333  1.00  0.00     0.048 A 
HETATM   21 CL1  UNL     1     -30.001 -13.322  -2.599  1.00  0.00    -0.083 Cl
HETATM   22  C7  UNL     1     -32.256 -13.861  -1.217  1.00  0.00     0.026 A 
HETATM   23  C8  UNL     1     -33.168 -13.706  -0.227  1.00  0.00     0.022 A 
HETATM   24  C9  UNL     1     -33.020 -12.693   0.674  1.00  0.00     0.033 A 
HETATM   25 BR1  UNL     1     -34.282 -12.467   2.056  1.00  0.00    -0.049 Br
HETATM   26  C10 UNL     1     -31.917 -11.828   0.553  1.00  0.00     0.065 A 
HETATM   27 CL2  UNL     1     -31.888 -10.533   1.729  1.00  0.00    -0.082 Cl
ENDBRANCH  15  19
ENDBRANCH  11  13
ENDBRANCH   4  11
TORSDOF 4
ENDMDL
MODEL 3
REMARK VINA RESULT: -7.327981766      3.202      4.240
REMARK  4 active torsions:
REMARK  status: ('A' for Active; 'I' for Inactive)
REMARK    1  A    between atoms: C2_3  and  C12_23 
REMARK    2  A    between atoms: N2_4  and  N3_6 
REMARK    3  A    between atoms: N3_6  and  C3_8 
REMARK    4  A    between atoms: C4_11  and  C5_12 
ROOT
HETATM    1  N1  UNL     1     -29.730  -8.736  -3.060  1.00  0.00    -0.190 NA
HETATM    2  C1  UNL     1     -29.168  -9.352  -2.257  1.00  0.00     0.115 C 
HETATM    3  C2  UNL     1     -28.450 -10.117  -1.275  1.00  0.00     0.110 C 
HETATM    4  N2  UNL     1     -28.219 -11.367  -1.448  1.00  0.00    -0.292 N 
ATOM      5  H2  UNL     1     -27.704 -11.856  -0.715  1.00  0.00     0.187 HD
ENDROOT
BRANCH   3   6
HETATM    6  C12 UNL     1     -27.947  -9.490  -0.018  1.00  0.00     0.048 C 
HETATM    7  C13 UNL     1     -27.554  -8.055  -0.317  1.00  0.00     0.011 C 
HETATM    8  C14 UNL     1     -26.134  -7.889   0.176  1.00  0.00     0.001 C 
HETATM    9  C15 UNL     1     -25.970  -9.009   1.150  1.00  0.00     0.001 C 
HETATM   10  C16 UNL     1     -26.666 -10.165   0.428  1.00  0.00     0.011 C 
ENDBRANCH   3   6
BRANCH   4  11
HETATM   11  N3  UNL     1     -28.609 -12.101  -2.544  1.00  0.00    -0.279 N 
ATOM     12  H3  UNL     1     -27.958 -12.313  -3.301  1.00  0.00     0.189 HD
BRANCH  11  13
HETATM   13  C3  UNL     1     -29.855 -12.520  -2.577  1.00  0.00     0.163 A 
HETATM   14  N4  UNL     1     -30.517 -13.209  -1.645  1.00  0.00    -0.334 N 
HETATM   15  C4  UNL     1     -31.760 -13.532  -1.868  1.00  0.00     0.054 A 
ATOM     16  H4  UNL     1     -30.059 -13.478  -0.774  1.00  0.00     0.168 HD
HETATM   17  C11 UNL     1     -32.311 -13.138  -3.063  1.00  0.00     0.083 A 
HETATM   18  S1  UNL     1     -31.002 -12.316  -3.808  1.00  0.00    -0.062 SA
BRANCH  15  19
HETATM   19  C5  UNL     1     -32.640 -14.203  -0.873  1.00  0.00     0.036 A 
HETATM   20  C6  UNL     1     -33.144 -13.570   0.213  1.00  0.00     0.048 A 
HETATM   21 CL1  UNL     1     -32.961 -11.846   0.437  1.00  0.00    -0.083 Cl
HETATM   22  C7  UNL     1     -33.872 -14.282   1.162  1.00  0.00     0.026 A 
HETATM   23  C8  UNL     1     -34.097 -15.610   1.024  1.00  0.00     0.022 A 
HETATM   24  C9  UNL     1     -33.601 -16.269  -0.061  1.00  0.00     0.033 A 
HETATM   25 BR1  UNL     1     -33.908 -18.118  -0.264  1.00  0.00    -0.049 Br
HETATM   26  C10 UNL     1     -32.862 -15.549  -1.018  1.00  0.00     0.065 A 
HETATM   27 CL2  UNL     1     -32.226 -16.530  -2.320  1.00  0.00    -0.082 Cl
ENDBRANCH  15  19
ENDBRANCH  11  13
ENDBRANCH   4  11
TORSDOF 4
ENDMDL
MODEL 4
REMARK VINA RESULT: -7.247565477      2.456      3.171
REMARK  4 active torsions:
REMARK  status: ('A' for Active; 'I' for Inactive)
REMARK    1  A    between atoms: C2_3  and  C12_23 
REMARK    2  A    between atoms: N2_4  and  N3_6 
REMARK    3  A    between atoms: N3_6  and  C3_8 
REMARK    4  A    between atoms: C4_11  and  C5_12 
ROOT
HETATM    1  N1  UNL     1     -24.461  -7.862   0.975  1.00  0.00    -0.190 NA
HETATM    2  C1  UNL     1     -24.736  -8.951   0.694  1.00  0.00     0.115 C 
HETATM    3  C2  UNL     1     -25.081 -10.295   0.322  1.00  0.00     0.110 C 
HETATM    4  N2  UNL     1     -26.294 -10.618   0.051  1.00  0.00    -0.292 N 
ATOM      5  H2  UNL     1     -26.475 -11.588  -0.207  1.00  0.00     0.187 HD
ENDROOT
BRANCH   3   6
HETATM    6  C12 UNL     1     -24.046 -11.367   0.235  1.00  0.00     0.048 C 
HETATM    7  C13 UNL     1     -22.676 -10.722   0.315  1.00  0.00     0.011 C 
HETATM    8  C14 UNL     1     -21.899 -11.219  -0.885  1.00  0.00     0.001 C 
HETATM    9  C15 UNL     1     -22.631 -12.457  -1.286  1.00  0.00     0.001 C 
HETATM   10  C16 UNL     1     -24.092 -12.031  -1.126  1.00  0.00     0.011 C 
ENDBRANCH   3   6
BRANCH   4  11
HETATM   11  N3  UNL     1     -27.368  -9.759   0.081  1.00  0.00    -0.279 N 
ATOM     12  H3  UNL     1     -27.248  -8.764   0.269  1.00  0.00     0.189 HD
BRANCH  11  13
HETATM   13  C3  UNL     1     -28.558 -10.273  -0.143  1.00  0.00     0.163 A 
HETATM   14  N4  UNL     1     -29.204 -10.378  -1.308  1.00  0.00    -0.334 N 
HETATM   15  C4  UNL     1     -30.387 -10.925  -1.322  1.00  0.00     0.054 A 
ATOM     16  H4  UNL     1     -28.779 -10.035  -2.169  1.00  0.00     0.168 HD
HETATM   17  C11 UNL     1     -30.895 -11.362  -0.123  1.00  0.00     0.083 A 
HETATM   18  S1  UNL     1     -29.635 -10.959   0.970  1.00  0.00    -0.062 SA
BRANCH  15  19
HETATM   19  C5  UNL     1     -31.165 -11.198  -2.560  1.00  0.00     0.036 A 
HETATM   20  C6  UNL     1     -31.044 -12.344  -3.272  1.00  0.00     0.048 A 
HETATM   21 CL1  UNL     1     -30.098 -13.692  -2.685  1.00  0.00    -0.083 Cl
HETATM   22  C7  UNL     1     -31.721 -12.493  -4.478  1.00  0.00     0.026 A 
HETATM   23  C8  UNL     1     -32.514 -11.508  -4.966  1.00  0.00     0.022 A 
HETATM   24  C9  UNL     1     -32.652 -10.346  -4.267  1.00  0.00     0.033 A 
HETATM   25 BR1  UNL     1     -33.753  -8.969  -4.935  1.00  0.00    -0.049 Br
HETATM   26  C10 UNL     1     -31.965 -10.196  -3.049  1.00  0.00     0.065 A 
HETATM   27 CL2  UNL     1     -32.176  -8.632  -2.293  1.00  0.00    -0.082 Cl
ENDBRANCH  15  19
ENDBRANCH  11  13
ENDBRANCH   4  11
TORSDOF 4
ENDMDL
MODEL 5
REMARK VINA RESULT: -7.205050006      3.349      4.693
REMARK  4 active torsions:
REMARK  status: ('A' for Active; 'I' for Inactive)
REMARK    1  A    between atoms: C2_3  and  C12_23 
REMARK    2  A    between atoms: N2_4  and  N3_6 
REMARK    3  A    between atoms: N3_6  and  C3_8 
REMARK    4  A    between atoms: C4_11  and  C5_12 
ROOT
HETATM    1  N1  UNL     1     -29.724  -8.674  -3.055  1.00  0.00    -0.190 NA
HETATM    2  C1  UNL     1     -29.173  -9.301  -2.253  1.00  0.00     0.115 C 
HETATM    3  C2  UNL     1     -28.468 -10.079  -1.271  1.00  0.00     0.110 C 
HETATM    4  N2  UNL     1     -28.240 -11.329  -1.456  1.00  0.00    -0.292 N 
ATOM      5  H2  UNL     1     -27.735 -11.827  -0.722  1.00  0.00     0.187 HD
ENDROOT
BRANCH   3   6
HETATM    6  C12 UNL     1     -27.975  -9.467  -0.003  1.00  0.00     0.048 C 
HETATM    7  C13 UNL     1     -27.565  -8.035  -0.285  1.00  0.00     0.011 C 
HETATM    8  C14 UNL     1     -26.149  -7.886   0.227  1.00  0.00     0.001 C 
HETATM    9  C15 UNL     1     -26.009  -9.016   1.194  1.00  0.00     0.001 C 
HETATM   10  C16 UNL     1     -26.707 -10.159   0.454  1.00  0.00     0.011 C 
ENDBRANCH   3   6
BRANCH   4  11
HETATM   11  N3  UNL     1     -28.622 -12.050  -2.563  1.00  0.00    -0.279 N 
ATOM     12  H3  UNL     1     -27.973 -12.230  -3.329  1.00  0.00     0.189 HD
BRANCH  11  13
HETATM   13  C3  UNL     1     -29.858 -12.498  -2.595  1.00  0.00     0.163 A 
HETATM   14  N4  UNL     1     -30.463 -13.306  -1.721  1.00  0.00    -0.334 N 
HETATM   15  C4  UNL     1     -31.707 -13.638  -1.930  1.00  0.00     0.054 A 
ATOM     16  H4  UNL     1     -29.962 -13.657  -0.905  1.00  0.00     0.168 HD
HETATM   17  C11 UNL     1     -32.317 -13.128  -3.050  1.00  0.00     0.083 A 
HETATM   18  S1  UNL     1     -31.060 -12.191  -3.749  1.00  0.00    -0.062 SA
BRANCH  15  19
HETATM   19  C5  UNL     1     -32.527 -14.441  -0.983  1.00  0.00     0.036 A 
HETATM   20  C6  UNL     1     -32.847 -15.739  -1.201  1.00  0.00     0.048 A 
HETATM   21 CL1  UNL     1     -32.156 -16.644  -2.528  1.00  0.00    -0.083 Cl
HETATM   22  C7  UNL     1     -33.705 -16.403  -0.330  1.00  0.00     0.026 A 
HETATM   23  C8  UNL     1     -34.234 -15.777   0.749  1.00  0.00     0.022 A 
HETATM   24  C9  UNL     1     -33.926 -14.471   0.989  1.00  0.00     0.033 A 
HETATM   25 BR1  UNL     1     -34.656 -13.590   2.487  1.00  0.00    -0.049 Br
HETATM   26  C10 UNL     1     -33.061 -13.800   0.106  1.00  0.00     0.065 A 
HETATM   27 CL2  UNL     1     -32.807 -12.113   0.493  1.00  0.00    -0.082 Cl
ENDBRANCH  15  19
ENDBRANCH  11  13
ENDBRANCH   4  11
TORSDOF 4
ENDMDL
