MODEL 1
REMARK VINA RESULT: -7.787762311      0.000      0.000
REMARK  4 active torsions:
REMARK  status: ('A' for Active; 'I' for Inactive)
REMARK    1  A    between atoms: N1_12  and  O1_14 
REMARK    2  A    between atoms: O1_14  and  C12_15 
REMARK    3  A    between atoms: C12_15  and  C13_16 
REMARK    4  A    between atoms: C21_28  and  O3_29 
ROOT
HETATM    1  C1  UNL     1     -32.362  -5.823   0.612  1.00  0.00     0.013 C 
HETATM    2  C2  UNL     1     -30.964  -6.112   0.138  1.00  0.00     0.017 C 
HETATM    3  C3  UNL     1     -29.904  -5.421   0.888  1.00  0.00     0.007 C 
HETATM    4  C4  UNL     1     -28.499  -5.817   0.573  1.00  0.00     0.001 C 
HETATM    5  C5  UNL     1     -28.356  -7.215   0.068  1.00  0.00     0.008 C 
HETATM    6  C6  UNL     1     -29.442  -7.630  -0.900  1.00  0.00     0.030 C 
HETATM    7  C7  UNL     1     -28.954  -8.738  -1.678  1.00  0.00     0.042 C 
HETATM    8  C8  UNL     1     -29.807  -9.368  -2.708  1.00  0.00     0.029 C 
HETATM    9  C9  UNL     1     -29.570 -10.660  -1.996  1.00  0.00     0.028 C 
HETATM   10  C10 UNL     1     -28.984 -11.746  -2.863  1.00  0.00     0.025 C 
HETATM   11  C11 UNL     1     -28.549 -10.001  -1.093  1.00  0.00     0.026 C 
HETATM   12  N1  UNL     1     -27.792 -10.634  -0.282  1.00  0.00    -0.273 N 
ATOM     13  H1  UNL     1     -27.947 -11.641  -0.262  1.00  0.00     0.193 HD
HETATM   14  C15 UNL     1     -30.752 -11.129  -1.208  1.00  0.00     0.066 C 
HETATM   15  C16 UNL     1     -30.395 -11.974  -0.018  1.00  0.00     0.047 C 
HETATM   16  C17 UNL     1     -31.523 -12.073  -2.152  1.00  0.00     0.047 C 
HETATM   17  O2  UNL     1     -31.575 -10.083  -0.965  1.00  0.00    -0.379 OA
HETATM   18  C18 UNL     1     -31.836  -9.755   0.322  1.00  0.00     0.176 C 
HETATM   19  C19 UNL     1     -30.962  -8.580   0.825  1.00  0.00     0.040 C 
HETATM   20  C20 UNL     1     -31.601  -8.201   2.111  1.00  0.00     0.015 C 
HETATM   21  C21 UNL     1     -30.745  -7.571  -0.218  1.00  0.00     0.071 C 
ENDROOT
BRANCH  12  22
HETATM   22  O1  UNL     1     -26.838 -10.211   0.543  1.00  0.00    -0.275 OA
BRANCH  22  23
HETATM   23  C12 UNL     1     -25.516 -10.685   0.633  1.00  0.00     0.255 C 
BRANCH  23  24
HETATM   24  C13 UNL     1     -24.572  -9.542   0.694  1.00  0.00     0.071 C 
HETATM   25 CL1  UNL     1     -25.132  -7.929   1.018  1.00  0.00    -0.084 Cl
HETATM   26  C14 UNL     1     -23.275  -9.744   0.501  1.00  0.00     0.123 C 
HETATM   27 CL2  UNL     1     -22.100  -8.447   0.559  1.00  0.00    -0.069 Cl
HETATM   28 CL3  UNL     1     -22.643 -11.367   0.167  1.00  0.00    -0.069 Cl
ENDBRANCH  23  24
ENDBRANCH  22  23
ENDBRANCH  12  22
BRANCH  21  29
HETATM   29  O3  UNL     1     -31.836  -7.737  -1.135  1.00  0.00    -0.389 OA
ATOM     30  H3  UNL     1     -31.732  -8.663  -1.316  1.00  0.00     0.210 HD
ENDBRANCH  21  29
TORSDOF 4
ENDMDL
MODEL 2
REMARK VINA RESULT: -7.574447830      1.145      1.607
REMARK  4 active torsions:
REMARK  status: ('A' for Active; 'I' for Inactive)
REMARK    1  A    between atoms: N1_12  and  O1_14 
REMARK    2  A    between atoms: O1_14  and  C12_15 
REMARK    3  A    between atoms: C12_15  and  C13_16 
REMARK    4  A    between atoms: C21_28  and  O3_29 
ROOT
HETATM    1  C1  UNL     1     -30.865  -4.909   1.175  1.00  0.00     0.013 C 
HETATM    2  C2  UNL     1     -29.579  -5.481   0.645  1.00  0.00     0.017 C 
HETATM    3  C3  UNL     1     -28.365  -4.997   1.322  1.00  0.00     0.007 C 
HETATM    4  C4  UNL     1     -27.084  -5.672   0.953  1.00  0.00     0.001 C 
HETATM    5  C5  UNL     1     -27.247  -7.082   0.488  1.00  0.00     0.008 C 
HETATM    6  C6  UNL     1     -28.443  -7.295  -0.413  1.00  0.00     0.030 C 
HETATM    7  C7  UNL     1     -28.226  -8.494  -1.177  1.00  0.00     0.042 C 
HETATM    8  C8  UNL     1     -29.240  -8.966  -2.144  1.00  0.00     0.029 C 
HETATM    9  C9  UNL     1     -29.225 -10.262  -1.402  1.00  0.00     0.028 C 
HETATM   10  C10 UNL     1     -28.911 -11.463  -2.261  1.00  0.00     0.025 C 
HETATM   11  C11 UNL     1     -28.047  -9.799  -0.571  1.00  0.00     0.026 C 
HETATM   12  N1  UNL     1     -27.388 -10.551   0.223  1.00  0.00    -0.273 N 
ATOM     13  H1  UNL     1     -27.738 -11.507   0.283  1.00  0.00     0.193 HD
HETATM   14  C15 UNL     1     -30.433 -10.469  -0.545  1.00  0.00     0.066 C 
HETATM   15  C16 UNL     1     -30.187 -11.340   0.654  1.00  0.00     0.047 C 
HETATM   16  C17 UNL     1     -31.423 -11.261  -1.420  1.00  0.00     0.047 C 
HETATM   17  O2  UNL     1     -31.019  -9.275  -0.298  1.00  0.00    -0.379 OA
HETATM   18  C18 UNL     1     -31.141  -8.872   0.989  1.00  0.00     0.176 C 
HETATM   19  C19 UNL     1     -30.027  -7.883   1.411  1.00  0.00     0.040 C 
HETATM   20  C20 UNL     1     -30.510  -7.356   2.713  1.00  0.00     0.015 C 
HETATM   21  C21 UNL     1     -29.671  -6.962   0.327  1.00  0.00     0.071 C 
ENDROOT
BRANCH  12  22
HETATM   22  O1  UNL     1     -26.327 -10.308   0.988  1.00  0.00    -0.275 OA
BRANCH  22  23
HETATM   23  C12 UNL     1     -25.164  -9.601   0.634  1.00  0.00     0.255 C 
BRANCH  23  24
HETATM   24  C13 UNL     1     -24.166 -10.528   0.048  1.00  0.00     0.071 C 
HETATM   25 CL1  UNL     1     -24.650 -12.030  -0.679  1.00  0.00    -0.084 Cl
HETATM   26  C14 UNL     1     -22.876 -10.214   0.073  1.00  0.00     0.123 C 
HETATM   27 CL2  UNL     1     -21.640 -11.256  -0.598  1.00  0.00    -0.069 Cl
HETATM   28 CL3  UNL     1     -22.320  -8.695   0.800  1.00  0.00    -0.069 Cl
ENDBRANCH  23  24
ENDBRANCH  22  23
ENDBRANCH  12  22
BRANCH  21  29
HETATM   29  O3  UNL     1     -30.821  -6.928  -0.531  1.00  0.00    -0.389 OA
ATOM     30  H3  UNL     1     -31.229  -7.740  -0.256  1.00  0.00     0.210 HD
ENDBRANCH  21  29
TORSDOF 4
ENDMDL
MODEL 3
REMARK VINA RESULT: -6.865293814      0.726      1.293
REMARK  4 active torsions:
REMARK  status: ('A' for Active; 'I' for Inactive)
REMARK    1  A    between atoms: N1_12  and  O1_14 
REMARK    2  A    between atoms: O1_14  and  C12_15 
REMARK    3  A    between atoms: C12_15  and  C13_16 
REMARK    4  A    between atoms: C21_28  and  O3_29 
ROOT
HETATM    1  C1  UNL     1     -32.461  -5.786   0.018  1.00  0.00     0.013 C 
HETATM    2  C2  UNL     1     -31.030  -6.195  -0.202  1.00  0.00     0.017 C 
HETATM    3  C3  UNL     1     -30.065  -5.588   0.728  1.00  0.00     0.007 C 
HETATM    4  C4  UNL     1     -28.665  -6.102   0.664  1.00  0.00     0.001 C 
HETATM    5  C5  UNL     1     -28.552  -7.512   0.184  1.00  0.00     0.008 C 
HETATM    6  C6  UNL     1     -29.481  -7.844  -0.963  1.00  0.00     0.030 C 
HETATM    7  C7  UNL     1     -28.958  -8.995  -1.649  1.00  0.00     0.042 C 
HETATM    8  C8  UNL     1     -29.665  -9.562  -2.817  1.00  0.00     0.029 C 
HETATM    9  C9  UNL     1     -29.666 -10.862  -2.082  1.00  0.00     0.028 C 
HETATM   10  C10 UNL     1     -29.029 -12.002  -2.838  1.00  0.00     0.025 C 
HETATM   11  C11 UNL     1     -28.769 -10.283  -1.009  1.00  0.00     0.026 C 
HETATM   12  N1  UNL     1     -28.223 -10.969  -0.080  1.00  0.00    -0.273 N 
ATOM     13  H1  UNL     1     -28.463 -11.960  -0.095  1.00  0.00     0.193 HD
HETATM   14  C15 UNL     1     -31.004 -11.224  -1.519  1.00  0.00     0.066 C 
HETATM   15  C16 UNL     1     -30.935 -12.085  -0.290  1.00  0.00     0.047 C 
HETATM   16  C17 UNL     1     -31.672 -12.109  -2.590  1.00  0.00     0.047 C 
HETATM   17  O2  UNL     1     -31.766 -10.111  -1.419  1.00  0.00    -0.379 OA
HETATM   18  C18 UNL     1     -32.222  -9.750  -0.197  1.00  0.00     0.176 C 
HETATM   19  C19 UNL     1     -31.356  -8.648   0.460  1.00  0.00     0.040 C 
HETATM   20  C20 UNL     1     -32.178  -8.205   1.614  1.00  0.00     0.015 C 
HETATM   21  C21 UNL     1     -30.874  -7.670  -0.523  1.00  0.00     0.071 C 
ENDROOT
BRANCH  12  22
HETATM   22  O1  UNL     1     -27.398 -10.620   0.903  1.00  0.00    -0.275 OA
BRANCH  22  23
HETATM   23  C12 UNL     1     -26.635  -9.442   0.999  1.00  0.00     0.255 C 
BRANCH  23  24
HETATM   24  C13 UNL     1     -25.197  -9.755   0.815  1.00  0.00     0.071 C 
HETATM   25 CL1  UNL     1     -24.632 -11.397   0.764  1.00  0.00    -0.084 Cl
HETATM   26  C14 UNL     1     -24.317  -8.770   0.685  1.00  0.00     0.123 C 
HETATM   27 CL2  UNL     1     -22.605  -9.058   0.464  1.00  0.00    -0.069 Cl
HETATM   28 CL3  UNL     1     -24.832  -7.073   0.728  1.00  0.00    -0.069 Cl
ENDBRANCH  23  24
ENDBRANCH  22  23
ENDBRANCH  12  22
BRANCH  21  29
HETATM   29  O3  UNL     1     -31.797  -7.753  -1.619  1.00  0.00    -0.389 OA
ATOM     30  H3  UNL     1     -31.210  -8.113  -2.273  1.00  0.00     0.210 HD
ENDBRANCH  21  29
TORSDOF 4
ENDMDL
MODEL 4
REMARK VINA RESULT: -6.788719923      3.560      5.451
REMARK  4 active torsions:
REMARK  status: ('A' for Active; 'I' for Inactive)
REMARK    1  A    between atoms: N1_12  and  O1_14 
REMARK    2  A    between atoms: O1_14  and  C12_15 
REMARK    3  A    between atoms: C12_15  and  C13_16 
REMARK    4  A    between atoms: C21_28  and  O3_29 
ROOT
HETATM    1  C1  UNL     1     -25.997  -6.493   0.939  1.00  0.00     0.013 C 
HETATM    2  C2  UNL     1     -26.508  -7.825   0.463  1.00  0.00     0.017 C 
HETATM    3  C3  UNL     1     -26.025  -8.982   1.233  1.00  0.00     0.007 C 
HETATM    4  C4  UNL     1     -26.646 -10.301   0.912  1.00  0.00     0.001 C 
HETATM    5  C5  UNL     1     -28.037 -10.209   0.374  1.00  0.00     0.008 C 
HETATM    6  C6  UNL     1     -28.239  -9.075  -0.606  1.00  0.00     0.030 C 
HETATM    7  C7  UNL     1     -29.395  -9.373  -1.409  1.00  0.00     0.042 C 
HETATM    8  C8  UNL     1     -29.848  -8.432  -2.456  1.00  0.00     0.029 C 
HETATM    9  C9  UNL     1     -31.176  -8.441  -1.775  1.00  0.00     0.028 C 
HETATM   10  C10 UNL     1     -32.327  -8.841  -2.666  1.00  0.00     0.025 C 
HETATM   11  C11 UNL     1     -30.722  -9.554  -0.854  1.00  0.00     0.026 C 
HETATM   12  N1  UNL     1     -31.492 -10.186  -0.056  1.00  0.00    -0.273 N 
ATOM     13  H1  UNL     1     -32.459  -9.862  -0.061  1.00  0.00     0.193 HD
HETATM   14  C15 UNL     1     -31.456  -7.192  -1.002  1.00  0.00     0.066 C 
HETATM   15  C16 UNL     1     -32.376  -7.391   0.168  1.00  0.00     0.047 C 
HETATM   16  C17 UNL     1     -32.233  -6.278  -1.971  1.00  0.00     0.047 C 
HETATM   17  O2  UNL     1     -30.291  -6.557  -0.737  1.00  0.00    -0.379 OA
HETATM   18  C18 UNL     1     -29.953  -6.346   0.557  1.00  0.00     0.176 C 
HETATM   19  C19 UNL     1     -28.956  -7.404   1.090  1.00  0.00     0.040 C 
HETATM   20  C20 UNL     1     -28.503  -6.829   2.383  1.00  0.00     0.015 C 
HETATM   21  C21 UNL     1     -27.974  -7.796   0.072  1.00  0.00     0.071 C 
ENDROOT
BRANCH  12  22
HETATM   22  O1  UNL     1     -31.257 -11.193   0.782  1.00  0.00    -0.275 OA
BRANCH  22  23
HETATM   23  C12 UNL     1     -30.969 -12.530   0.451  1.00  0.00     0.255 C 
BRANCH  23  24
HETATM   24  C13 UNL     1     -31.870 -12.987  -0.635  1.00  0.00     0.071 C 
HETATM   25 CL1  UNL     1     -33.565 -13.239  -0.353  1.00  0.00    -0.084 Cl
HETATM   26  C14 UNL     1     -31.382 -13.209  -1.850  1.00  0.00     0.123 C 
HETATM   27 CL2  UNL     1     -32.380 -13.748  -3.182  1.00  0.00    -0.069 Cl
HETATM   28 CL3  UNL     1     -29.660 -12.969  -2.200  1.00  0.00    -0.069 Cl
ENDBRANCH  23  24
ENDBRANCH  22  23
ENDBRANCH  12  22
BRANCH  21  29
HETATM   29  O3  UNL     1     -27.931  -6.698  -0.851  1.00  0.00    -0.389 OA
ATOM     30  H3  UNL     1     -27.820  -7.191  -1.655  1.00  0.00     0.210 HD
ENDBRANCH  21  29
TORSDOF 4
ENDMDL
MODEL 5
REMARK VINA RESULT: -6.639783811      2.652      3.416
REMARK  4 active torsions:
REMARK  status: ('A' for Active; 'I' for Inactive)
REMARK    1  A    between atoms: N1_12  and  O1_14 
REMARK    2  A    between atoms: O1_14  and  C12_15 
REMARK    3  A    between atoms: C12_15  and  C13_16 
REMARK    4  A    between atoms: C21_28  and  O3_29 
ROOT
HETATM    1  C1  UNL     1     -34.371  -8.327  -4.033  1.00  0.00     0.013 C 
HETATM    2  C2  UNL     1     -32.884  -8.471  -3.854  1.00  0.00     0.017 C 
HETATM    3  C3  UNL     1     -32.198  -7.256  -3.389  1.00  0.00     0.007 C 
HETATM    4  C4  UNL     1     -30.758  -7.402  -3.025  1.00  0.00     0.001 C 
HETATM    5  C5  UNL     1     -30.378  -8.772  -2.567  1.00  0.00     0.008 C 
HETATM    6  C6  UNL     1     -31.023  -9.884  -3.366  1.00  0.00     0.030 C 
HETATM    7  C7  UNL     1     -30.238 -11.077  -3.194  1.00  0.00     0.042 C 
HETATM    8  C8  UNL     1     -30.633 -12.341  -3.853  1.00  0.00     0.029 C 
HETATM    9  C9  UNL     1     -30.609 -12.961  -2.494  1.00  0.00     0.028 C 
HETATM   10  C10 UNL     1     -29.700 -14.160  -2.377  1.00  0.00     0.025 C 
HETATM   11  C11 UNL     1     -30.012 -11.701  -1.904  1.00  0.00     0.026 C 
HETATM   12  N1  UNL     1     -29.571 -11.605  -0.710  1.00  0.00    -0.273 N 
ATOM     13  H1  UNL     1     -29.676 -12.454  -0.155  1.00  0.00     0.193 HD
HETATM   14  C15 UNL     1     -31.972 -13.217  -1.935  1.00  0.00     0.066 C 
HETATM   15  C16 UNL     1     -32.030 -13.192  -0.434  1.00  0.00     0.047 C 
HETATM   16  C17 UNL     1     -32.308 -14.669  -2.325  1.00  0.00     0.047 C 
HETATM   17  O2  UNL     1     -32.874 -12.436  -2.574  1.00  0.00    -0.379 OA
HETATM   18  C18 UNL     1     -33.596 -11.555  -1.842  1.00  0.00     0.176 C 
HETATM   19  C19 UNL     1     -33.017 -10.121  -1.898  1.00  0.00     0.040 C 
HETATM   20  C20 UNL     1     -34.092  -9.291  -1.299  1.00  0.00     0.015 C 
HETATM   21  C21 UNL     1     -32.485  -9.794  -3.226  1.00  0.00     0.071 C 
ENDROOT
BRANCH  12  22
HETATM   22  O1  UNL     1     -28.998 -10.595  -0.061  1.00  0.00    -0.275 OA
BRANCH  22  23
HETATM   23  C12 UNL     1     -27.844 -10.641   0.743  1.00  0.00     0.255 C 
BRANCH  23  24
HETATM   24  C13 UNL     1     -26.971  -9.482   0.442  1.00  0.00     0.071 C 
HETATM   25 CL1  UNL     1     -27.616  -8.023  -0.248  1.00  0.00    -0.084 Cl
HETATM   26  C14 UNL     1     -25.671  -9.548   0.702  1.00  0.00     0.123 C 
HETATM   27 CL2  UNL     1     -24.576  -8.221   0.376  1.00  0.00    -0.069 Cl
HETATM   28 CL3  UNL     1     -24.953 -11.008   1.406  1.00  0.00    -0.069 Cl
ENDBRANCH  23  24
ENDBRANCH  22  23
ENDBRANCH  12  22
BRANCH  21  29
HETATM   29  O3  UNL     1     -33.164 -10.677  -4.131  1.00  0.00    -0.389 OA
ATOM     30  H3  UNL     1     -32.543 -11.395  -4.124  1.00  0.00     0.210 HD
ENDBRANCH  21  29
TORSDOF 4
ENDMDL
