MODEL 1
REMARK VINA RESULT: -8.189432364      0.000      0.000
REMARK  4 active torsions:
REMARK  status: ('A' for Active; 'I' for Inactive)
REMARK    1  A    between atoms: C2_2  and  C3_3 
REMARK    2  A    between atoms: C9_12  and  N2_13 
REMARK    3  A    between atoms: N2_13  and  C10_15 
REMARK    4  A    between atoms: C12_19  and  C13_20 
ROOT
HETATM    1  C3  UNL     1     -24.166 -10.100   0.791  1.00  0.00     0.020 C 
HETATM    2  C4  UNL     1     -23.720  -8.615   0.634  1.00  0.00     0.088 C 
HETATM    3  C5  UNL     1     -24.859  -7.812   0.487  1.00  0.00    -0.178 C 
HETATM    4  C6  UNL     1     -26.206  -7.352   0.317  1.00  0.00     0.124 C 
HETATM    5  C7  UNL     1     -27.122  -8.556   0.393  1.00  0.00     0.018 A 
HETATM    6  C8  UNL     1     -28.432  -8.231   0.612  1.00  0.00     0.128 A 
HETATM    7 CL1  UNL     1     -28.816  -6.525   0.761  1.00  0.00    -0.063 Cl
HETATM    8  N1  UNL     1     -29.348  -9.214   0.706  1.00  0.00    -0.180 N 
ATOM      9  H1  UNL     1     -30.330  -8.991   0.868  1.00  0.00     0.185 HD
HETATM   10  C9  UNL     1     -28.952 -10.490   0.585  1.00  0.00     0.685 A 
HETATM   11  N4  UNL     1     -27.674 -10.778   0.373  1.00  0.00    -0.191 N 
ATOM     12  H4  UNL     1     -27.421 -11.762   0.288  1.00  0.00     0.184 HD
HETATM   13  C19 UNL     1     -26.687  -9.870   0.264  1.00  0.00     0.056 A 
HETATM   14  C20 UNL     1     -25.367 -10.472   0.027  1.00  0.00     0.009 C 
ENDROOT
BRANCH  10  15
HETATM   15  N2  UNL     1     -29.945 -11.549   0.688  1.00  0.00    -0.170 N 
ATOM     16  H2  UNL     1     -30.266 -11.925   1.580  1.00  0.00     0.186 HD
BRANCH  15  17
HETATM   17  C10 UNL     1     -30.390 -11.978  -0.472  1.00  0.00     0.164 A 
HETATM   18  N3  UNL     1     -30.008 -13.059  -1.132  1.00  0.00    -0.345 N 
HETATM   19  C11 UNL     1     -30.567 -13.332  -2.286  1.00  0.00     0.110 A 
ATOM     20  H3  UNL     1     -29.288 -13.671  -0.749  1.00  0.00     0.167 HD
HETATM   21  C12 UNL     1     -31.518 -12.505  -2.769  1.00  0.00     0.035 A 
HETATM   22  S1  UNL     1     -31.572 -11.313  -1.487  1.00  0.00    -0.051 SA
BRANCH  21  23
HETATM   23  C13 UNL     1     -32.351 -12.469  -3.980  1.00  0.00     0.004 A 
HETATM   24  C14 UNL     1     -31.745 -11.983  -5.157  1.00  0.00     0.016 A 
HETATM   25  C15 UNL     1     -32.404 -11.895  -6.358  1.00  0.00     0.025 A 
HETATM   26  C16 UNL     1     -33.719 -12.303  -6.404  1.00  0.00     0.035 A 
HETATM   27 CL2  UNL     1     -34.570 -12.196  -7.922  1.00  0.00    -0.084 Cl
HETATM   28  C17 UNL     1     -34.315 -12.773  -5.273  1.00  0.00     0.048 A 
HETATM   29  C18 UNL     1     -33.619 -12.857  -4.046  1.00  0.00     0.047 A 
HETATM   30 CL3  UNL     1     -34.490 -13.476  -2.671  1.00  0.00    -0.083 Cl
ENDBRANCH  21  23
ENDBRANCH  15  17
ENDBRANCH  10  15
BRANCH   1  31
HETATM   31  C2  UNL     1     -23.055 -11.028   0.467  1.00  0.00     0.005 C 
HETATM   32  C1  UNL     1     -23.168 -11.701  -0.859  1.00  0.00     0.006 C 
ENDBRANCH   1  31
TORSDOF 4
ENDMDL
MODEL 2
REMARK VINA RESULT: -7.973248389      1.042      1.376
REMARK  4 active torsions:
REMARK  status: ('A' for Active; 'I' for Inactive)
REMARK    1  A    between atoms: C2_2  and  C3_3 
REMARK    2  A    between atoms: C9_12  and  N2_13 
REMARK    3  A    between atoms: N2_13  and  C10_15 
REMARK    4  A    between atoms: C12_19  and  C13_20 
ROOT
HETATM    1  C3  UNL     1     -24.232 -10.046   0.882  1.00  0.00     0.020 C 
HETATM    2  C4  UNL     1     -23.794  -8.573   0.620  1.00  0.00     0.088 C 
HETATM    3  C5  UNL     1     -24.936  -7.790   0.406  1.00  0.00    -0.178 C 
HETATM    4  C6  UNL     1     -26.284  -7.352   0.191  1.00  0.00     0.124 C 
HETATM    5  C7  UNL     1     -27.193  -8.554   0.347  1.00  0.00     0.018 A 
HETATM    6  C8  UNL     1     -28.507  -8.221   0.531  1.00  0.00     0.128 A 
HETATM    7 CL1  UNL     1     -28.901  -6.512   0.552  1.00  0.00    -0.063 Cl
HETATM    8  N1  UNL     1     -29.418  -9.200   0.689  1.00  0.00    -0.180 N 
ATOM      9  H1  UNL     1     -30.403  -8.972   0.825  1.00  0.00     0.185 HD
HETATM   10  C9  UNL     1     -29.014 -10.480   0.665  1.00  0.00     0.685 A 
HETATM   11  N4  UNL     1     -27.732 -10.774   0.486  1.00  0.00    -0.191 N 
ATOM     12  H4  UNL     1     -27.473 -11.761   0.474  1.00  0.00     0.184 HD
HETATM   13  C19 UNL     1     -26.750  -9.870   0.318  1.00  0.00     0.056 A 
HETATM   14  C20 UNL     1     -25.424 -10.480   0.137  1.00  0.00     0.009 C 
ENDROOT
BRANCH  10  15
HETATM   15  N2  UNL     1     -30.002 -11.535   0.837  1.00  0.00    -0.170 N 
ATOM     16  H2  UNL     1     -30.269 -11.902   1.750  1.00  0.00     0.186 HD
BRANCH  15  17
HETATM   17  C10 UNL     1     -30.518 -11.971  -0.291  1.00  0.00     0.164 A 
HETATM   18  N3  UNL     1     -30.123 -13.010  -1.009  1.00  0.00    -0.345 N 
HETATM   19  C11 UNL     1     -30.763 -13.299  -2.116  1.00  0.00     0.110 A 
ATOM     20  H3  UNL     1     -29.332 -13.578  -0.706  1.00  0.00     0.167 HD
HETATM   21  C12 UNL     1     -31.806 -12.531  -2.493  1.00  0.00     0.035 A 
HETATM   22  S1  UNL     1     -31.828 -11.371  -1.182  1.00  0.00    -0.051 SA
BRANCH  21  23
HETATM   23  C13 UNL     1     -32.745 -12.531  -3.625  1.00  0.00     0.004 A 
HETATM   24  C14 UNL     1     -33.785 -13.483  -3.592  1.00  0.00     0.016 A 
HETATM   25  C15 UNL     1     -34.731 -13.595  -4.580  1.00  0.00     0.025 A 
HETATM   26  C16 UNL     1     -34.651 -12.732  -5.650  1.00  0.00     0.035 A 
HETATM   27 CL2  UNL     1     -35.845 -12.861  -6.913  1.00  0.00    -0.084 Cl
HETATM   28  C17 UNL     1     -33.651 -11.808  -5.693  1.00  0.00     0.048 A 
HETATM   29  C18 UNL     1     -32.686 -11.708  -4.666  1.00  0.00     0.047 A 
HETATM   30 CL3  UNL     1     -31.457 -10.486  -4.835  1.00  0.00    -0.083 Cl
ENDBRANCH  21  23
ENDBRANCH  15  17
ENDBRANCH  10  15
BRANCH   1  31
HETATM   31  C2  UNL     1     -23.113 -10.988   0.636  1.00  0.00     0.005 C 
HETATM   32  C1  UNL     1     -23.038 -11.522  -0.754  1.00  0.00     0.006 C 
ENDBRANCH   1  31
TORSDOF 4
ENDMDL
MODEL 3
REMARK VINA RESULT: -7.862074420      2.831      3.273
REMARK  4 active torsions:
REMARK  status: ('A' for Active; 'I' for Inactive)
REMARK    1  A    between atoms: C2_2  and  C3_3 
REMARK    2  A    between atoms: C9_12  and  N2_13 
REMARK    3  A    between atoms: N2_13  and  C10_15 
REMARK    4  A    between atoms: C12_19  and  C13_20 
ROOT
HETATM    1  C3  UNL     1     -25.574  -9.652   0.990  1.00  0.00     0.020 C 
HETATM    2  C4  UNL     1     -24.743  -8.381   0.637  1.00  0.00     0.088 C 
HETATM    3  C5  UNL     1     -25.621  -7.310   0.424  1.00  0.00    -0.178 C 
HETATM    4  C6  UNL     1     -26.795  -6.509   0.236  1.00  0.00     0.124 C 
HETATM    5  C7  UNL     1     -28.003  -7.388   0.487  1.00  0.00     0.018 A 
HETATM    6  C8  UNL     1     -29.155  -6.683   0.700  1.00  0.00     0.128 A 
HETATM    7 CL1  UNL     1     -29.038  -4.932   0.647  1.00  0.00    -0.063 Cl
HETATM    8  N1  UNL     1     -30.300  -7.349   0.942  1.00  0.00    -0.180 N 
ATOM      9  H1  UNL     1     -31.169  -6.840   1.102  1.00  0.00     0.185 HD
HETATM   10  C9  UNL     1     -30.283  -8.690   0.969  1.00  0.00     0.685 A 
HETATM   11  N4  UNL     1     -29.151  -9.350   0.759  1.00  0.00    -0.191 N 
ATOM     12  H4  UNL     1     -29.187 -10.369   0.789  1.00  0.00     0.184 HD
HETATM   13  C19 UNL     1     -27.959  -8.777   0.509  1.00  0.00     0.056 A 
HETATM   14  C20 UNL     1     -26.875  -9.751   0.312  1.00  0.00     0.009 C 
ENDROOT
BRANCH  10  15
HETATM   15  N2  UNL     1     -31.522  -9.406   1.231  1.00  0.00    -0.170 N 
ATOM     16  H2  UNL     1     -32.125  -9.201   2.027  1.00  0.00     0.186 HD
BRANCH  15  17
HETATM   17  C10 UNL     1     -31.795 -10.341   0.347  1.00  0.00     0.164 A 
HETATM   18  N3  UNL     1     -32.245 -10.176  -0.887  1.00  0.00    -0.345 N 
HETATM   19  C11 UNL     1     -32.462 -11.233  -1.631  1.00  0.00     0.110 A 
ATOM     20  H3  UNL     1     -32.420  -9.241  -1.253  1.00  0.00     0.167 HD
HETATM   21  C12 UNL     1     -32.221 -12.459  -1.121  1.00  0.00     0.035 A 
HETATM   22  S1  UNL     1     -31.667 -12.024   0.482  1.00  0.00    -0.051 SA
BRANCH  21  23
HETATM   23  C13 UNL     1     -32.334 -13.837  -1.622  1.00  0.00     0.004 A 
HETATM   24  C14 UNL     1     -33.577 -14.480  -1.442  1.00  0.00     0.016 A 
HETATM   25  C15 UNL     1     -33.824 -15.764  -1.861  1.00  0.00     0.025 A 
HETATM   26  C16 UNL     1     -32.803 -16.447  -2.483  1.00  0.00     0.035 A 
HETATM   27 CL2  UNL     1     -33.100 -18.079  -3.019  1.00  0.00    -0.084 Cl
HETATM   28  C17 UNL     1     -31.598 -15.836  -2.661  1.00  0.00     0.048 A 
HETATM   29  C18 UNL     1     -31.364 -14.514  -2.224  1.00  0.00     0.047 A 
HETATM   30 CL3  UNL     1     -29.783 -13.842  -2.510  1.00  0.00    -0.083 Cl
ENDBRANCH  21  23
ENDBRANCH  15  17
ENDBRANCH  10  15
BRANCH   1  31
HETATM   31  C2  UNL     1     -24.787 -10.887   0.753  1.00  0.00     0.005 C 
HETATM   32  C1  UNL     1     -23.349 -10.661   0.430  1.00  0.00     0.006 C 
ENDBRANCH   1  31
TORSDOF 4
ENDMDL
MODEL 4
REMARK VINA RESULT: -7.781697001      2.046      2.377
REMARK  4 active torsions:
REMARK  status: ('A' for Active; 'I' for Inactive)
REMARK    1  A    between atoms: C2_2  and  C3_3 
REMARK    2  A    between atoms: C9_12  and  N2_13 
REMARK    3  A    between atoms: N2_13  and  C10_15 
REMARK    4  A    between atoms: C12_19  and  C13_20 
ROOT
HETATM    1  C3  UNL     1     -24.961  -9.592   1.061  1.00  0.00     0.020 C 
HETATM    2  C4  UNL     1     -24.688  -8.161   0.506  1.00  0.00     0.088 C 
HETATM    3  C5  UNL     1     -25.901  -7.596   0.091  1.00  0.00    -0.178 C 
HETATM    4  C6  UNL     1     -27.277  -7.392  -0.257  1.00  0.00     0.124 C 
HETATM    5  C7  UNL     1     -28.043  -8.643   0.122  1.00  0.00     0.018 A 
HETATM    6  C8  UNL     1     -29.396  -8.454   0.186  1.00  0.00     0.128 A 
HETATM    7 CL1  UNL     1     -29.994  -6.844  -0.171  1.00  0.00    -0.063 Cl
HETATM    8  N1  UNL     1     -30.190  -9.490   0.519  1.00  0.00    -0.180 N 
ATOM      9  H1  UNL     1     -31.202  -9.369   0.571  1.00  0.00     0.185 HD
HETATM   10  C9  UNL     1     -29.634 -10.682   0.782  1.00  0.00     0.685 A 
HETATM   11  N4  UNL     1     -28.318 -10.838   0.713  1.00  0.00    -0.191 N 
ATOM     12  H4  UNL     1     -27.941 -11.762   0.921  1.00  0.00     0.184 HD
HETATM   13  C19 UNL     1     -27.443  -9.868   0.389  1.00  0.00     0.056 A 
HETATM   14  C20 UNL     1     -26.045 -10.323   0.387  1.00  0.00     0.009 C 
ENDROOT
BRANCH  10  15
HETATM   15  N2  UNL     1     -30.496 -11.798   1.142  1.00  0.00    -0.170 N 
ATOM     16  H2  UNL     1     -30.709 -12.047   2.108  1.00  0.00     0.186 HD
BRANCH  15  17
HETATM   17  C10 UNL     1     -30.975 -12.457   0.110  1.00  0.00     0.164 A 
HETATM   18  N3  UNL     1     -30.344 -12.765  -1.012  1.00  0.00    -0.345 N 
HETATM   19  C11 UNL     1     -30.985 -13.432  -1.940  1.00  0.00     0.110 A 
ATOM     20  H3  UNL     1     -29.373 -12.488  -1.152  1.00  0.00     0.167 HD
HETATM   21  C12 UNL     1     -32.270 -13.787  -1.727  1.00  0.00     0.035 A 
HETATM   22  S1  UNL     1     -32.516 -13.116  -0.128  1.00  0.00    -0.051 SA
BRANCH  21  23
HETATM   23  C13 UNL     1     -33.292 -14.513  -2.496  1.00  0.00     0.004 A 
HETATM   24  C14 UNL     1     -34.139 -13.742  -3.318  1.00  0.00     0.016 A 
HETATM   25  C15 UNL     1     -35.135 -14.289  -4.090  1.00  0.00     0.025 A 
HETATM   26  C16 UNL     1     -35.306 -15.654  -4.051  1.00  0.00     0.035 A 
HETATM   27 CL2  UNL     1     -36.566 -16.363  -5.024  1.00  0.00    -0.084 Cl
HETATM   28  C17 UNL     1     -34.494 -16.409  -3.259  1.00  0.00     0.048 A 
HETATM   29  C18 UNL     1     -33.474 -15.828  -2.473  1.00  0.00     0.047 A 
HETATM   30 CL3  UNL     1     -32.500 -16.898  -1.503  1.00  0.00    -0.083 Cl
ENDBRANCH  21  23
ENDBRANCH  15  17
ENDBRANCH  10  15
BRANCH   1  31
HETATM   31  C2  UNL     1     -23.724 -10.410   1.060  1.00  0.00     0.005 C 
HETATM   32  C1  UNL     1     -23.466 -11.153  -0.208  1.00  0.00     0.006 C 
ENDBRANCH   1  31
TORSDOF 4
ENDMDL
MODEL 5
REMARK VINA RESULT: -7.696875991      1.533      1.671
REMARK  4 active torsions:
REMARK  status: ('A' for Active; 'I' for Inactive)
REMARK    1  A    between atoms: C2_2  and  C3_3 
REMARK    2  A    between atoms: C9_12  and  N2_13 
REMARK    3  A    between atoms: N2_13  and  C10_15 
REMARK    4  A    between atoms: C12_19  and  C13_20 
ROOT
HETATM    1  C3  UNL     1     -23.788 -10.380   0.699  1.00  0.00     0.020 C 
HETATM    2  C4  UNL     1     -23.228  -8.929   0.601  1.00  0.00     0.088 C 
HETATM    3  C5  UNL     1     -24.302  -8.033   0.510  1.00  0.00    -0.178 C 
HETATM    4  C6  UNL     1     -25.610  -7.461   0.384  1.00  0.00     0.124 C 
HETATM    5  C7  UNL     1     -26.617  -8.592   0.421  1.00  0.00     0.018 A 
HETATM    6  C8  UNL     1     -27.895  -8.176   0.676  1.00  0.00     0.128 A 
HETATM    7 CL1  UNL     1     -28.139  -6.454   0.909  1.00  0.00    -0.063 Cl
HETATM    8  N1  UNL     1     -28.884  -9.087   0.741  1.00  0.00    -0.180 N 
ATOM      9  H1  UNL     1     -29.843  -8.795   0.929  1.00  0.00     0.185 HD
HETATM   10  C9  UNL     1     -28.592 -10.384   0.556  1.00  0.00     0.685 A 
HETATM   11  N4  UNL     1     -27.344 -10.761   0.310  1.00  0.00    -0.191 N 
ATOM     12  H4  UNL     1     -27.170 -11.757   0.176  1.00  0.00     0.184 HD
HETATM   13  C19 UNL     1     -26.290  -9.929   0.225  1.00  0.00     0.056 A 
HETATM   14  C20 UNL     1     -25.024 -10.621  -0.061  1.00  0.00     0.009 C 
ENDROOT
BRANCH  10  15
HETATM   15  N2  UNL     1     -29.664 -11.365   0.628  1.00  0.00    -0.170 N 
ATOM     16  H2  UNL     1     -29.766 -12.021   1.402  1.00  0.00     0.186 HD
BRANCH  15  17
HETATM   17  C10 UNL     1     -30.489 -11.330  -0.395  1.00  0.00     0.164 A 
HETATM   18  N3  UNL     1     -31.798 -11.526  -0.381  1.00  0.00    -0.345 N 
HETATM   19  C11 UNL     1     -32.465 -11.451  -1.507  1.00  0.00     0.110 A 
ATOM     20  H3  UNL     1     -32.281 -11.733   0.492  1.00  0.00     0.167 HD
HETATM   21  C12 UNL     1     -31.801 -11.175  -2.649  1.00  0.00     0.035 A 
HETATM   22  S1  UNL     1     -30.169 -11.028  -2.031  1.00  0.00    -0.051 SA
BRANCH  21  23
HETATM   23  C13 UNL     1     -32.178 -11.012  -4.061  1.00  0.00     0.004 A 
HETATM   24  C14 UNL     1     -31.895 -12.090  -4.925  1.00  0.00     0.016 A 
HETATM   25  C15 UNL     1     -32.194 -12.074  -6.265  1.00  0.00     0.025 A 
HETATM   26  C16 UNL     1     -32.796 -10.948  -6.779  1.00  0.00     0.035 A 
HETATM   27 CL2  UNL     1     -33.179 -10.912  -8.479  1.00  0.00    -0.084 Cl
HETATM   28  C17 UNL     1     -33.073  -9.900  -5.954  1.00  0.00     0.048 A 
HETATM   29  C18 UNL     1     -32.759  -9.935  -4.577  1.00  0.00     0.047 A 
HETATM   30 CL3  UNL     1     -33.163  -8.534  -3.625  1.00  0.00    -0.083 Cl
ENDBRANCH  21  23
ENDBRANCH  15  17
ENDBRANCH  10  15
BRANCH   1  31
HETATM   31  C2  UNL     1     -22.758 -11.376   0.315  1.00  0.00     0.005 C 
HETATM   32  C1  UNL     1     -22.835 -11.842  -1.100  1.00  0.00     0.006 C 
ENDBRANCH   1  31
TORSDOF 4
ENDMDL
