MODEL 1
REMARK VINA RESULT: -7.174701468      0.000      0.000
REMARK  5 active torsions:
REMARK  status: ('A' for Active; 'I' for Inactive)
REMARK    1  A    between atoms: C9_11  and  C10_12 
REMARK    2  A    between atoms: C13_18  and  N3_19 
REMARK    3  A    between atoms: N3_19  and  C14_21 
REMARK    4  A    between atoms: C17_27  and  C18_28 
REMARK    5  A    between atoms: C18_28  and  C19_29 
ROOT
HETATM    1  C10 UNL     1     -29.149  -8.783   0.262  1.00  0.00     0.069 A 
HETATM    2  C11 UNL     1     -28.638  -8.881  -1.184  1.00  0.00     0.122 A 
HETATM    3 CL1  UNL     1     -29.270 -10.072  -2.290  1.00  0.00    -0.121 Cl
HETATM    4  C12 UNL     1     -27.872  -9.338   0.003  1.00  0.00     0.068 A 
HETATM    5  N2  UNL     1     -27.327 -10.616   0.117  1.00  0.00    -0.367 N 
ATOM      6  H2  UNL     1     -27.707 -11.558   0.021  1.00  0.00     0.161 HD
HETATM    7  C13 UNL     1     -26.158 -10.148   0.392  1.00  0.00     0.086 A 
HETATM    8  C17 UNL     1     -26.549  -8.732   0.327  1.00  0.00     0.087 A 
ENDROOT
BRANCH   1   9
HETATM    9  C9  UNL     1     -30.454  -9.435   0.474  1.00  0.00    -0.038 A 
HETATM   10  C2  UNL     1     -31.805  -9.187   0.144  1.00  0.00     0.041 A 
HETATM   11  C1  UNL     1     -32.317  -8.131   1.319  1.00  0.00     0.031 C 
HETATM   12  C3  UNL     1     -32.307  -8.533  -1.041  1.00  0.00    -0.007 C 
HETATM   13  C7  UNL     1     -32.586 -10.343   0.592  1.00  0.00     0.025 A 
HETATM   14  C4  UNL     1     -33.554  -8.802  -1.496  1.00  0.00    -0.002 C 
HETATM   15  C5  UNL     1     -34.419  -9.791  -0.856  1.00  0.00     0.002 C 
HETATM   16  C6  UNL     1     -34.001 -10.535   0.175  1.00  0.00     0.026 C 
HETATM   17  N1  UNL     1     -31.762 -11.147   1.161  1.00  0.00    -0.368 N 
HETATM   18  C8  UNL     1     -30.444 -10.637   1.114  1.00  0.00     0.093 A 
ATOM     19  H1  UNL     1     -32.024 -12.034   1.590  1.00  0.00     0.165 HD
ENDBRANCH   1   9
BRANCH   8  20
HETATM   20  C18 UNL     1     -26.365  -7.923   1.547  1.00  0.00     0.044 C 
BRANCH  20  21
HETATM   21  C19 UNL     1     -26.399  -6.475   1.420  1.00  0.00     0.010 C 
HETATM   22  C20 UNL     1     -27.388  -5.760   1.910  1.00  0.00     0.099 C 
HETATM   23 CL2  UNL     1     -28.765  -6.428   2.759  1.00  0.00    -0.071 Cl
HETATM   24 CL3  UNL     1     -27.386  -3.994   1.724  1.00  0.00    -0.071 Cl
ENDBRANCH  20  21
ENDBRANCH   8  20
BRANCH   7  25
HETATM   25  N3  UNL     1     -24.976 -10.846   0.658  1.00  0.00    -0.326 N 
ATOM     26  H3  UNL     1     -24.742 -10.928   1.647  1.00  0.00     0.169 HD
BRANCH  25  27
HETATM   27  C14 UNL     1     -24.145 -11.397  -0.135  1.00  0.00     0.149 A 
HETATM   28  N4  UNL     1     -24.293 -12.232  -1.155  1.00  0.00    -0.346 N 
HETATM   29  C15 UNL     1     -23.236 -12.639  -1.800  1.00  0.00     0.097 A 
ATOM     30  H4  UNL     1     -25.222 -12.550  -1.430  1.00  0.00     0.167 HD
HETATM   31  C16 UNL     1     -22.014 -12.184  -1.391  1.00  0.00     0.070 A 
HETATM   32  S1  UNL     1     -22.445 -11.175  -0.080  1.00  0.00    -0.064 SA
ENDBRANCH  25  27
ENDBRANCH   7  25
TORSDOF 5
ENDMDL
MODEL 2
REMARK VINA RESULT: -7.062906330      2.251      2.533
REMARK  5 active torsions:
REMARK  status: ('A' for Active; 'I' for Inactive)
REMARK    1  A    between atoms: C9_11  and  C10_12 
REMARK    2  A    between atoms: C13_18  and  N3_19 
REMARK    3  A    between atoms: N3_19  and  C14_21 
REMARK    4  A    between atoms: C17_27  and  C18_28 
REMARK    5  A    between atoms: C18_28  and  C19_29 
ROOT
HETATM    1  C10 UNL     1     -30.380 -10.211  -0.863  1.00  0.00     0.069 A 
HETATM    2  C11 UNL     1     -29.524 -10.008  -2.122  1.00  0.00     0.122 A 
HETATM    3 CL1  UNL     1     -29.211 -11.320  -3.227  1.00  0.00    -0.121 Cl
HETATM    4  C12 UNL     1     -28.975 -10.083  -0.744  1.00  0.00     0.068 A 
HETATM    5  N2  UNL     1     -27.949 -10.951  -0.375  1.00  0.00    -0.367 N 
ATOM      6  H2  UNL     1     -27.805 -11.957  -0.468  1.00  0.00     0.161 HD
HETATM    7  C13 UNL     1     -27.251  -9.992   0.132  1.00  0.00     0.086 A 
HETATM    8  C17 UNL     1     -28.225  -8.931  -0.166  1.00  0.00     0.087 A 
ENDROOT
BRANCH   1   9
HETATM    9  C9  UNL     1     -31.235 -11.410  -0.914  1.00  0.00    -0.038 A 
HETATM   10  C2  UNL     1     -32.337 -11.869  -1.670  1.00  0.00     0.041 A 
HETATM   11  C1  UNL     1     -33.647 -11.160  -0.937  1.00  0.00     0.031 C 
HETATM   12  C3  UNL     1     -32.622 -11.588  -3.056  1.00  0.00    -0.007 C 
HETATM   13  C7  UNL     1     -32.619 -13.243  -1.245  1.00  0.00     0.025 A 
HETATM   14  C4  UNL     1     -33.362 -12.450  -3.792  1.00  0.00    -0.002 C 
HETATM   15  C5  UNL     1     -33.857 -13.713  -3.247  1.00  0.00     0.002 C 
HETATM   16  C6  UNL     1     -33.547 -14.119  -2.010  1.00  0.00     0.026 C 
HETATM   17  N1  UNL     1     -31.786 -13.518  -0.308  1.00  0.00    -0.368 N 
HETATM   18  C8  UNL     1     -30.915 -12.430  -0.069  1.00  0.00     0.093 A 
ATOM     19  H1  UNL     1     -31.755 -14.404   0.196  1.00  0.00     0.165 HD
ENDBRANCH   1   9
BRANCH   8  20
HETATM   20  C18 UNL     1     -28.768  -8.171   0.976  1.00  0.00     0.044 C 
BRANCH  20  21
HETATM   21  C19 UNL     1     -28.737  -6.719   0.909  1.00  0.00     0.010 C 
HETATM   22  C20 UNL     1     -27.669  -6.033   1.254  1.00  0.00     0.099 C 
HETATM   23 CL2  UNL     1     -26.178  -6.747   1.829  1.00  0.00    -0.071 Cl
HETATM   24 CL3  UNL     1     -27.682  -4.260   1.158  1.00  0.00    -0.071 Cl
ENDBRANCH  20  21
ENDBRANCH   8  20
BRANCH   7  25
HETATM   25  N3  UNL     1     -25.998 -10.053   0.747  1.00  0.00    -0.326 N 
ATOM     26  H3  UNL     1     -25.962  -9.650   1.684  1.00  0.00     0.169 HD
BRANCH  25  27
HETATM   27  C14 UNL     1     -24.893 -10.530   0.328  1.00  0.00     0.149 A 
HETATM   28  N4  UNL     1     -24.593 -11.602  -0.391  1.00  0.00    -0.346 N 
HETATM   29  C15 UNL     1     -23.344 -11.846  -0.677  1.00  0.00     0.097 A 
ATOM     30  H4  UNL     1     -25.329 -12.228  -0.717  1.00  0.00     0.167 HD
HETATM   31  C16 UNL     1     -22.394 -10.977  -0.216  1.00  0.00     0.070 A 
HETATM   32  S1  UNL     1     -23.353  -9.832   0.617  1.00  0.00    -0.064 SA
ENDBRANCH  25  27
ENDBRANCH   7  25
TORSDOF 5
ENDMDL
MODEL 3
REMARK VINA RESULT: -6.969996725      1.202      1.845
REMARK  5 active torsions:
REMARK  status: ('A' for Active; 'I' for Inactive)
REMARK    1  A    between atoms: C9_11  and  C10_12 
REMARK    2  A    between atoms: C13_18  and  N3_19 
REMARK    3  A    between atoms: N3_19  and  C14_21 
REMARK    4  A    between atoms: C17_27  and  C18_28 
REMARK    5  A    between atoms: C18_28  and  C19_29 
ROOT
HETATM    1  C10 UNL     1     -29.382  -8.176  -0.099  1.00  0.00     0.069 A 
HETATM    2  C11 UNL     1     -28.801  -8.450  -1.494  1.00  0.00     0.122 A 
HETATM    3 CL1  UNL     1     -29.555  -9.585  -2.583  1.00  0.00    -0.121 Cl
HETATM    4  C12 UNL     1     -28.206  -8.954  -0.231  1.00  0.00     0.068 A 
HETATM    5  N2  UNL     1     -27.900 -10.296  -0.010  1.00  0.00    -0.367 N 
ATOM      6  H2  UNL     1     -28.430 -11.164  -0.087  1.00  0.00     0.161 HD
HETATM    7  C13 UNL     1     -26.688 -10.016   0.328  1.00  0.00     0.086 A 
HETATM    8  C17 UNL     1     -26.822  -8.562   0.162  1.00  0.00     0.087 A 
ENDROOT
BRANCH   1   9
HETATM    9  C9  UNL     1     -30.791  -8.582   0.047  1.00  0.00    -0.038 A 
HETATM   10  C2  UNL     1     -31.551  -9.403   0.909  1.00  0.00     0.041 A 
HETATM   11  C1  UNL     1     -31.337 -10.932   0.298  1.00  0.00     0.031 C 
HETATM   12  C3  UNL     1     -31.321  -9.642   2.314  1.00  0.00    -0.007 C 
HETATM   13  C7  UNL     1     -32.959  -9.256   0.528  1.00  0.00     0.025 A 
HETATM   14  C4  UNL     1     -32.346  -9.993   3.126  1.00  0.00    -0.002 C 
HETATM   15  C5  UNL     1     -33.722 -10.092   2.644  1.00  0.00     0.002 C 
HETATM   16  C6  UNL     1     -34.056  -9.775   1.388  1.00  0.00     0.026 C 
HETATM   17  N1  UNL     1     -32.986  -8.463  -0.481  1.00  0.00    -0.368 N 
HETATM   18  C8  UNL     1     -31.685  -8.021  -0.814  1.00  0.00     0.093 A 
ATOM     19  H1  UNL     1     -33.834  -8.187  -0.977  1.00  0.00     0.165 HD
ENDBRANCH   1   9
BRANCH   8  20
HETATM   20  C18 UNL     1     -26.582  -7.719   1.349  1.00  0.00     0.044 C 
BRANCH  20  21
HETATM   21  C19 UNL     1     -26.649  -6.275   1.189  1.00  0.00     0.010 C 
HETATM   22  C20 UNL     1     -27.557  -5.553   1.808  1.00  0.00     0.099 C 
HETATM   23 CL2  UNL     1     -28.780  -6.205   2.879  1.00  0.00    -0.071 Cl
HETATM   24 CL3  UNL     1     -27.602  -3.793   1.577  1.00  0.00    -0.071 Cl
ENDBRANCH  20  21
ENDBRANCH   8  20
BRANCH   7  25
HETATM   25  N3  UNL     1     -25.666 -10.886   0.719  1.00  0.00    -0.326 N 
ATOM     26  H3  UNL     1     -25.801 -11.321   1.632  1.00  0.00     0.169 HD
BRANCH  25  27
HETATM   27  C14 UNL     1     -24.593 -11.223   0.120  1.00  0.00     0.149 A 
HETATM   28  N4  UNL     1     -24.350 -12.040  -0.896  1.00  0.00    -0.346 N 
HETATM   29  C15 UNL     1     -23.122 -12.194  -1.307  1.00  0.00     0.097 A 
ATOM     30  H4  UNL     1     -25.113 -12.541  -1.350  1.00  0.00     0.167 HD
HETATM   31  C16 UNL     1     -22.134 -11.499  -0.665  1.00  0.00     0.070 A 
HETATM   32  S1  UNL     1     -23.027 -10.645   0.516  1.00  0.00    -0.064 SA
ENDBRANCH  25  27
ENDBRANCH   7  25
TORSDOF 5
ENDMDL
MODEL 4
REMARK VINA RESULT: -6.964295025      2.176      2.388
REMARK  5 active torsions:
REMARK  status: ('A' for Active; 'I' for Inactive)
REMARK    1  A    between atoms: C9_11  and  C10_12 
REMARK    2  A    between atoms: C13_18  and  N3_19 
REMARK    3  A    between atoms: N3_19  and  C14_21 
REMARK    4  A    between atoms: C17_27  and  C18_28 
REMARK    5  A    between atoms: C18_28  and  C19_29 
ROOT
HETATM    1  C10 UNL     1     -30.124 -10.039  -0.697  1.00  0.00     0.069 A 
HETATM    2  C11 UNL     1     -29.324  -9.952  -2.006  1.00  0.00     0.122 A 
HETATM    3 CL1  UNL     1     -29.123 -11.341  -3.040  1.00  0.00    -0.121 Cl
HETATM    4  C12 UNL     1     -28.710  -9.967  -0.654  1.00  0.00     0.068 A 
HETATM    5  N2  UNL     1     -27.704 -10.857  -0.280  1.00  0.00    -0.367 N 
ATOM      6  H2  UNL     1     -27.608 -11.872  -0.317  1.00  0.00     0.161 HD
HETATM    7  C13 UNL     1     -26.943  -9.902   0.132  1.00  0.00     0.086 A 
HETATM    8  C17 UNL     1     -27.885  -8.818  -0.185  1.00  0.00     0.087 A 
ENDROOT
BRANCH   1   9
HETATM    9  C9  UNL     1     -31.029 -11.200  -0.633  1.00  0.00    -0.038 A 
HETATM   10  C2  UNL     1     -32.193 -11.647  -1.298  1.00  0.00     0.041 A 
HETATM   11  C1  UNL     1     -33.427 -10.842  -0.531  1.00  0.00     0.031 C 
HETATM   12  C3  UNL     1     -32.548 -11.428  -2.679  1.00  0.00    -0.007 C 
HETATM   13  C7  UNL     1     -32.507 -12.983  -0.782  1.00  0.00     0.025 A 
HETATM   14  C4  UNL     1     -33.367 -12.293  -3.322  1.00  0.00    -0.002 C 
HETATM   15  C5  UNL     1     -33.881 -13.501  -2.680  1.00  0.00     0.002 C 
HETATM   16  C6  UNL     1     -33.514 -13.855  -1.443  1.00  0.00     0.026 C 
HETATM   17  N1  UNL     1     -31.631 -13.246   0.119  1.00  0.00    -0.368 N 
HETATM   18  C8  UNL     1     -30.703 -12.187   0.247  1.00  0.00     0.093 A 
ATOM     19  H1  UNL     1     -31.608 -14.104   0.669  1.00  0.00     0.165 HD
ENDBRANCH   1   9
BRANCH   8  20
HETATM   20  C18 UNL     1     -28.337  -7.966   0.932  1.00  0.00     0.044 C 
BRANCH  20  21
HETATM   21  C19 UNL     1     -28.664  -6.579   0.646  1.00  0.00     0.010 C 
HETATM   22  C20 UNL     1     -29.900  -6.133   0.708  1.00  0.00     0.099 C 
HETATM   23 CL2  UNL     1     -31.287  -7.115   1.128  1.00  0.00    -0.071 Cl
HETATM   24 CL3  UNL     1     -30.250  -4.431   0.344  1.00  0.00    -0.071 Cl
ENDBRANCH  20  21
ENDBRANCH   8  20
BRANCH   7  25
HETATM   25  N3  UNL     1     -25.664  -9.981   0.690  1.00  0.00    -0.326 N 
ATOM     26  H3  UNL     1     -25.560  -9.512   1.590  1.00  0.00     0.169 HD
BRANCH  25  27
HETATM   27  C14 UNL     1     -24.607 -10.546   0.257  1.00  0.00     0.149 A 
HETATM   28  N4  UNL     1     -24.404 -11.625  -0.487  1.00  0.00    -0.346 N 
HETATM   29  C15 UNL     1     -23.182 -11.972  -0.782  1.00  0.00     0.097 A 
ATOM     30  H4  UNL     1     -25.193 -12.175  -0.824  1.00  0.00     0.167 HD
HETATM   31  C16 UNL     1     -22.158 -11.202  -0.305  1.00  0.00     0.070 A 
HETATM   32  S1  UNL     1     -23.010  -9.994   0.556  1.00  0.00    -0.064 SA
ENDBRANCH  25  27
ENDBRANCH   7  25
TORSDOF 5
ENDMDL
MODEL 5
REMARK VINA RESULT: -6.794574780      2.102      2.788
REMARK  5 active torsions:
REMARK  status: ('A' for Active; 'I' for Inactive)
REMARK    1  A    between atoms: C9_11  and  C10_12 
REMARK    2  A    between atoms: C13_18  and  N3_19 
REMARK    3  A    between atoms: N3_19  and  C14_21 
REMARK    4  A    between atoms: C17_27  and  C18_28 
REMARK    5  A    between atoms: C18_28  and  C19_29 
ROOT
HETATM    1  C10 UNL     1     -30.506  -9.658  -1.087  1.00  0.00     0.069 A 
HETATM    2  C11 UNL     1     -29.513  -9.490  -2.248  1.00  0.00     0.122 A 
HETATM    3 CL1  UNL     1     -29.366 -10.697  -3.498  1.00  0.00    -0.121 Cl
HETATM    4  C12 UNL     1     -29.120  -9.841  -0.860  1.00  0.00     0.068 A 
HETATM    5  N2  UNL     1     -28.325 -10.942  -0.545  1.00  0.00    -0.367 N 
ATOM      6  H2  UNL     1     -28.375 -11.936  -0.764  1.00  0.00     0.161 HD
HETATM    7  C13 UNL     1     -27.501 -10.217   0.132  1.00  0.00     0.086 A 
HETATM    8  C17 UNL     1     -28.214  -8.948  -0.082  1.00  0.00     0.087 A 
ENDROOT
BRANCH   1   9
HETATM    9  C9  UNL     1     -31.572 -10.638  -1.358  1.00  0.00    -0.038 A 
HETATM   10  C2  UNL     1     -31.921 -11.938  -0.929  1.00  0.00     0.041 A 
HETATM   11  C1  UNL     1     -30.982 -12.935  -1.869  1.00  0.00     0.031 C 
HETATM   12  C3  UNL     1     -31.700 -12.515   0.375  1.00  0.00    -0.007 C 
HETATM   13  C7  UNL     1     -33.208 -12.274  -1.545  1.00  0.00     0.025 A 
HETATM   14  C4  UNL     1     -32.497 -13.512   0.828  1.00  0.00    -0.002 C 
HETATM   15  C5  UNL     1     -33.635 -14.009   0.057  1.00  0.00     0.002 C 
HETATM   16  C6  UNL     1     -33.994 -13.459  -1.108  1.00  0.00     0.026 C 
HETATM   17  N1  UNL     1     -33.532 -11.278  -2.286  1.00  0.00    -0.368 N 
HETATM   18  C8  UNL     1     -32.565 -10.249  -2.206  1.00  0.00     0.093 A 
ATOM     19  H1  UNL     1     -34.376 -11.233  -2.858  1.00  0.00     0.165 HD
ENDBRANCH   1   9
BRANCH   8  20
HETATM   20  C18 UNL     1     -28.698  -8.233   1.114  1.00  0.00     0.044 C 
BRANCH  20  21
HETATM   21  C19 UNL     1     -28.626  -6.781   1.120  1.00  0.00     0.010 C 
HETATM   22  C20 UNL     1     -27.495  -6.145   1.337  1.00  0.00     0.099 C 
HETATM   23 CL2  UNL     1     -25.961  -6.932   1.643  1.00  0.00    -0.071 Cl
HETATM   24 CL3  UNL     1     -27.459  -4.370   1.339  1.00  0.00    -0.071 Cl
ENDBRANCH  20  21
ENDBRANCH   8  20
BRANCH   7  25
HETATM   25  N3  UNL     1     -26.347 -10.610   0.816  1.00  0.00    -0.326 N 
ATOM     26  H3  UNL     1     -26.456 -10.693   1.826  1.00  0.00     0.169 HD
BRANCH  25  27
HETATM   27  C14 UNL     1     -25.181 -10.882   0.380  1.00  0.00     0.149 A 
HETATM   28  N4  UNL     1     -24.744 -11.686  -0.580  1.00  0.00    -0.346 N 
HETATM   29  C15 UNL     1     -23.463 -11.764  -0.809  1.00  0.00     0.097 A 
ATOM     30  H4  UNL     1     -25.402 -12.236  -1.131  1.00  0.00     0.167 HD
HETATM   31  C16 UNL     1     -22.622 -11.006  -0.042  1.00  0.00     0.070 A 
HETATM   32  S1  UNL     1     -23.726 -10.204   0.988  1.00  0.00    -0.064 SA
ENDBRANCH  25  27
ENDBRANCH   7  25
TORSDOF 5
ENDMDL
