MODEL 1
REMARK VINA RESULT: -5.220033202      0.000      0.000
REMARK  8 active torsions:
REMARK  status: ('A' for Active; 'I' for Inactive)
REMARK    1  A    between atoms: C2_2  and  N1_3 
REMARK    2  A    between atoms: N1_3  and  C3_6 
REMARK    3  A    between atoms: C5_8  and  C6_9 
REMARK    4  A    between atoms: C7_10  and  C8_11 
REMARK    5  A    between atoms: C9_12  and  C11_14 
REMARK    6  A    between atoms: C11_14  and  O1_15 
REMARK    7  A    between atoms: C21_26  and  O2_27 
REMARK    8  A    between atoms: C24_31  and  N2_32 
ROOT
HETATM    1  C3  UNL     1      -9.057 -13.956  26.053  1.00  0.00     0.191 C 
HETATM    2  C4  UNL     1      -9.261 -12.474  25.823  1.00  0.00     0.047 C 
HETATM    3  C5  UNL     1      -7.903 -11.949  25.703  1.00  0.00    -0.009 C 
HETATM    4  C18 UNL     1      -7.305 -13.077  24.868  1.00  0.00     0.040 C 
HETATM    5  C19 UNL     1      -7.666 -14.306  25.527  1.00  0.00     0.020 C 
HETATM    6  C20 UNL     1      -6.768 -14.965  26.488  1.00  0.00     0.012 C 
HETATM    7  C21 UNL     1      -6.002 -12.604  24.516  1.00  0.00     0.087 C 
HETATM    8  C22 UNL     1      -5.590 -13.188  23.182  1.00  0.00     0.042 C 
HETATM    9  C23 UNL     1      -6.009 -12.195  22.127  1.00  0.00     0.041 C 
HETATM   10  C24 UNL     1      -5.798 -10.902  22.909  1.00  0.00     0.248 C 
HETATM   11  C27 UNL     1      -6.295 -11.109  24.259  1.00  0.00     0.103 C 
HETATM   12 CL1  UNL     1      -5.176 -10.227  25.379  1.00  0.00    -0.113 Cl
HETATM   13  C28 UNL     1      -7.682 -10.861  24.655  1.00  0.00     0.023 C 
HETATM   14  C29 UNL     1      -8.768 -10.733  23.680  1.00  0.00     0.013 C 
ENDROOT
BRANCH   3  15
HETATM   15  C6  UNL     1      -7.259 -11.650  26.948  1.00  0.00    -0.020 C 
HETATM   16  C7  UNL     1      -7.956 -11.201  27.986  1.00  0.00    -0.024 C 
BRANCH  16  17
HETATM   17  C8  UNL     1      -7.334 -10.876  29.273  1.00  0.00     0.026 C 
HETATM   18  C9  UNL     1      -6.862 -11.918  30.170  1.00  0.00    -0.015 C 
HETATM   19  C10 UNL     1      -5.448 -12.386  29.781  1.00  0.00     0.018 C 
HETATM   20  C12 UNL     1      -6.690 -11.134  31.490  1.00  0.00     0.017 C 
HETATM   21  C13 UNL     1      -7.940 -10.272  31.533  1.00  0.00    -0.005 C 
HETATM   22  C14 UNL     1      -7.681  -8.831  31.838  1.00  0.00     0.006 C 
HETATM   23  C16 UNL     1      -8.163  -9.906  30.090  1.00  0.00    -0.033 C 
HETATM   24  C15 UNL     1      -7.509  -8.570  30.349  1.00  0.00     0.010 C 
HETATM   25  C17 UNL     1      -9.580  -9.740  29.649  1.00  0.00     0.016 C 
BRANCH  18  26
HETATM   26  C11 UNL     1      -7.663 -13.146  30.381  1.00  0.00     0.173 C 
BRANCH  26  27
HETATM   27  O1  UNL     1      -7.252 -14.271  29.711  1.00  0.00    -0.400 OA
ATOM     28  H1  UNL     1      -7.903 -14.951  29.579  1.00  0.00     0.209 HD
ENDBRANCH  26  27
ENDBRANCH  18  26
ENDBRANCH  16  17
ENDBRANCH   3  15
BRANCH   1  29
HETATM   29  N1  UNL     1      -9.285 -14.404  27.374  1.00  0.00    -0.071 N 
ATOM     30  H12 UNL     1      -8.684 -13.905  28.029  1.00  0.00     0.277 HD
ATOM     31  H11 UNL     1      -8.927 -15.351  27.497  1.00  0.00     0.277 HD
BRANCH  29  32
HETATM   32  C2  UNL     1     -10.658 -14.326  27.790  1.00  0.00     0.228 C 
HETATM   33  C1  UNL     1     -10.918 -13.351  28.898  1.00  0.00     0.034 C 
ENDBRANCH  29  32
ENDBRANCH   1  29
BRANCH   7  34
HETATM   34  O2  UNL     1      -4.948 -12.788  25.377  1.00  0.00    -0.387 OA
ATOM     35  H2  UNL     1      -4.067 -12.553  25.108  1.00  0.00     0.210 HD
ENDBRANCH   7  34
BRANCH  10  36
HETATM   36  N2  UNL     1      -6.055  -9.716  22.188  1.00  0.00     0.086 N 
HETATM   37  C25 UNL     1      -4.859  -8.834  22.148  1.00  0.00     0.310 C 
HETATM   38  C26 UNL     1      -6.221 -10.071  20.756  1.00  0.00     0.310 C 
ENDBRANCH  10  36
TORSDOF 8
ENDMDL
MODEL 2
REMARK VINA RESULT: -5.038916369      0.890      1.052
REMARK  8 active torsions:
REMARK  status: ('A' for Active; 'I' for Inactive)
REMARK    1  A    between atoms: C2_2  and  N1_3 
REMARK    2  A    between atoms: N1_3  and  C3_6 
REMARK    3  A    between atoms: C5_8  and  C6_9 
REMARK    4  A    between atoms: C7_10  and  C8_11 
REMARK    5  A    between atoms: C9_12  and  C11_14 
REMARK    6  A    between atoms: C11_14  and  O1_15 
REMARK    7  A    between atoms: C21_26  and  O2_27 
REMARK    8  A    between atoms: C24_31  and  N2_32 
ROOT
HETATM    1  C3  UNL     1      -9.590 -13.800  25.439  1.00  0.00     0.191 C 
HETATM    2  C4  UNL     1      -9.572 -12.287  25.413  1.00  0.00     0.047 C 
HETATM    3  C5  UNL     1      -8.151 -11.953  25.477  1.00  0.00    -0.009 C 
HETATM    4  C18 UNL     1      -7.629 -13.034  24.535  1.00  0.00     0.040 C 
HETATM    5  C19 UNL     1      -8.212 -14.274  24.977  1.00  0.00     0.020 C 
HETATM    6  C20 UNL     1      -7.508 -15.179  25.899  1.00  0.00     0.012 C 
HETATM    7  C21 UNL     1      -6.247 -12.712  24.359  1.00  0.00     0.087 C 
HETATM    8  C22 UNL     1      -5.788 -13.166  22.990  1.00  0.00     0.042 C 
HETATM    9  C23 UNL     1      -5.966 -11.990  22.061  1.00  0.00     0.041 C 
HETATM   10  C24 UNL     1      -5.663 -10.858  23.038  1.00  0.00     0.248 C 
HETATM   11  C27 UNL     1      -6.313 -11.169  24.301  1.00  0.00     0.103 C 
HETATM   12 CL1  UNL     1      -5.201 -10.617  25.621  1.00  0.00    -0.113 Cl
HETATM   13  C28 UNL     1      -7.687 -10.778  24.619  1.00  0.00     0.023 C 
HETATM   14  C29 UNL     1      -8.646 -10.365  23.592  1.00  0.00     0.013 C 
ENDROOT
BRANCH   3  15
HETATM   15  C6  UNL     1      -7.598 -11.920  26.799  1.00  0.00    -0.020 C 
HETATM   16  C7  UNL     1      -8.295 -11.429  27.817  1.00  0.00    -0.024 C 
BRANCH  16  17
HETATM   17  C8  UNL     1      -7.761 -11.370  29.182  1.00  0.00     0.026 C 
HETATM   18  C9  UNL     1      -7.667 -12.560  30.010  1.00  0.00    -0.015 C 
HETATM   19  C10 UNL     1      -6.377 -13.346  29.707  1.00  0.00     0.018 C 
HETATM   20  C12 UNL     1      -7.457 -11.945  31.411  1.00  0.00     0.017 C 
HETATM   21  C13 UNL     1      -8.451 -10.798  31.426  1.00  0.00    -0.005 C 
HETATM   22  C14 UNL     1      -7.880  -9.498  31.896  1.00  0.00     0.006 C 
HETATM   23  C16 UNL     1      -8.412 -10.282  30.012  1.00  0.00    -0.033 C 
HETATM   24  C15 UNL     1      -7.481  -9.182  30.462  1.00  0.00     0.010 C 
HETATM   25  C17 UNL     1      -9.684  -9.726  29.463  1.00  0.00     0.016 C 
BRANCH  18  26
HETATM   26  C11 UNL     1      -8.765 -13.554  30.023  1.00  0.00     0.173 C 
BRANCH  26  27
HETATM   27  O1  UNL     1      -8.618 -14.644  29.202  1.00  0.00    -0.400 OA
ATOM     28  H1  UNL     1      -8.494 -14.468  28.277  1.00  0.00     0.209 HD
ENDBRANCH  26  27
ENDBRANCH  18  26
ENDBRANCH  16  17
ENDBRANCH   3  15
BRANCH   1  29
HETATM   29  N1  UNL     1     -10.002 -14.383  26.659  1.00  0.00    -0.071 N 
ATOM     30  H12 UNL     1      -9.966 -13.697  27.413  1.00  0.00     0.277 HD
ATOM     31  H11 UNL     1      -9.303 -15.046  26.993  1.00  0.00     0.277 HD
BRANCH  29  32
HETATM   32  C2  UNL     1     -11.298 -15.001  26.603  1.00  0.00     0.228 C 
HETATM   33  C1  UNL     1     -11.523 -15.868  25.401  1.00  0.00     0.034 C 
ENDBRANCH  29  32
ENDBRANCH   1  29
BRANCH   7  34
HETATM   34  O2  UNL     1      -5.315 -13.161  25.263  1.00  0.00    -0.387 OA
ATOM     35  H2  UNL     1      -4.774 -12.539  25.736  1.00  0.00     0.210 HD
ENDBRANCH   7  34
BRANCH  10  36
HETATM   36  N2  UNL     1      -5.689  -9.561  22.481  1.00  0.00     0.086 N 
HETATM   37  C25 UNL     1      -4.401  -8.851  22.696  1.00  0.00     0.310 C 
HETATM   38  C26 UNL     1      -5.722  -9.694  21.002  1.00  0.00     0.310 C 
ENDBRANCH  10  36
TORSDOF 8
ENDMDL
MODEL 3
REMARK VINA RESULT: -4.648243050      1.124      1.239
REMARK  8 active torsions:
REMARK  status: ('A' for Active; 'I' for Inactive)
REMARK    1  A    between atoms: C2_2  and  N1_3 
REMARK    2  A    between atoms: N1_3  and  C3_6 
REMARK    3  A    between atoms: C5_8  and  C6_9 
REMARK    4  A    between atoms: C7_10  and  C8_11 
REMARK    5  A    between atoms: C9_12  and  C11_14 
REMARK    6  A    between atoms: C11_14  and  O1_15 
REMARK    7  A    between atoms: C21_26  and  O2_27 
REMARK    8  A    between atoms: C24_31  and  N2_32 
ROOT
HETATM    1  C3  UNL     1      -9.584 -13.988  24.902  1.00  0.00     0.191 C 
HETATM    2  C4  UNL     1      -9.694 -12.482  24.797  1.00  0.00     0.047 C 
HETATM    3  C5  UNL     1      -8.338 -12.012  25.073  1.00  0.00    -0.009 C 
HETATM    4  C18 UNL     1      -7.574 -13.075  24.288  1.00  0.00     0.040 C 
HETATM    5  C19 UNL     1      -8.113 -14.347  24.696  1.00  0.00     0.020 C 
HETATM    6  C20 UNL     1      -7.496 -15.144  25.767  1.00  0.00     0.012 C 
HETATM    7  C21 UNL     1      -6.215 -12.631  24.322  1.00  0.00     0.087 C 
HETATM    8  C22 UNL     1      -5.496 -13.091  23.073  1.00  0.00     0.042 C 
HETATM    9  C23 UNL     1      -5.619 -11.975  22.066  1.00  0.00     0.041 C 
HETATM   10  C24 UNL     1      -5.583 -10.782  23.016  1.00  0.00     0.248 C 
HETATM   11  C27 UNL     1      -6.405 -11.104  24.171  1.00  0.00     0.103 C 
HETATM   12 CL1  UNL     1      -5.581 -10.398  25.623  1.00  0.00    -0.113 Cl
HETATM   13  C28 UNL     1      -7.841 -10.834  24.240  1.00  0.00     0.023 C 
HETATM   14  C29 UNL     1      -8.648 -10.553  23.050  1.00  0.00     0.013 C 
ENDROOT
BRANCH   3  15
HETATM   15  C6  UNL     1      -8.018 -11.876  26.463  1.00  0.00    -0.020 C 
HETATM   16  C7  UNL     1      -8.889 -11.344  27.315  1.00  0.00    -0.024 C 
BRANCH  16  17
HETATM   17  C8  UNL     1      -8.596 -11.180  28.742  1.00  0.00     0.026 C 
HETATM   18  C9  UNL     1      -7.991 -12.249  29.519  1.00  0.00    -0.015 C 
HETATM   19  C10 UNL     1      -6.459 -12.247  29.365  1.00  0.00     0.018 C 
HETATM   20  C12 UNL     1      -8.262 -11.772  30.963  1.00  0.00     0.017 C 
HETATM   21  C13 UNL     1      -9.698 -11.283  30.890  1.00  0.00    -0.005 C 
HETATM   22  C14 UNL     1      -9.917  -9.933  31.496  1.00  0.00     0.006 C 
HETATM   23  C16 UNL     1      -9.788 -10.662  29.522  1.00  0.00    -0.033 C 
HETATM   24  C15 UNL     1      -9.596  -9.302  30.149  1.00  0.00     0.010 C 
HETATM   25  C17 UNL     1     -11.105 -10.757  28.824  1.00  0.00     0.016 C 
BRANCH  18  26
HETATM   26  C11 UNL     1      -8.426 -13.651  29.331  1.00  0.00     0.173 C 
BRANCH  26  27
HETATM   27  O1  UNL     1      -7.446 -14.612  29.382  1.00  0.00    -0.400 OA
ATOM     28  H1  UNL     1      -7.517 -15.257  30.076  1.00  0.00     0.209 HD
ENDBRANCH  26  27
ENDBRANCH  18  26
ENDBRANCH  16  17
ENDBRANCH   3  15
BRANCH   1  29
HETATM   29  N1  UNL     1     -10.142 -14.559  26.067  1.00  0.00    -0.071 N 
ATOM     30  H12 UNL     1      -9.461 -14.562  26.826  1.00  0.00     0.277 HD
ATOM     31  H11 UNL     1     -10.271 -15.564  25.946  1.00  0.00     0.277 HD
BRANCH  29  32
HETATM   32  C2  UNL     1     -11.367 -13.941  26.493  1.00  0.00     0.228 C 
HETATM   33  C1  UNL     1     -11.795 -14.300  27.884  1.00  0.00     0.034 C 
ENDBRANCH  29  32
ENDBRANCH   1  29
BRANCH   7  34
HETATM   34  O2  UNL     1      -5.412 -12.953  25.389  1.00  0.00    -0.387 OA
ATOM     35  H2  UNL     1      -4.722 -12.360  25.661  1.00  0.00     0.210 HD
ENDBRANCH   7  34
BRANCH  10  36
HETATM   36  N2  UNL     1      -5.629  -9.516  22.393  1.00  0.00     0.086 N 
HETATM   37  C25 UNL     1      -4.403  -8.725  22.680  1.00  0.00     0.310 C 
HETATM   38  C26 UNL     1      -5.526  -9.719  20.925  1.00  0.00     0.310 C 
ENDBRANCH  10  36
TORSDOF 8
ENDMDL
MODEL 4
REMARK VINA RESULT: -4.489894786      2.780      5.522
REMARK  8 active torsions:
REMARK  status: ('A' for Active; 'I' for Inactive)
REMARK    1  A    between atoms: C2_2  and  N1_3 
REMARK    2  A    between atoms: N1_3  and  C3_6 
REMARK    3  A    between atoms: C5_8  and  C6_9 
REMARK    4  A    between atoms: C7_10  and  C8_11 
REMARK    5  A    between atoms: C9_12  and  C11_14 
REMARK    6  A    between atoms: C11_14  and  O1_15 
REMARK    7  A    between atoms: C21_26  and  O2_27 
REMARK    8  A    between atoms: C24_31  and  N2_32 
ROOT
HETATM    1  C3  UNL     1      -4.688 -13.917  26.768  1.00  0.00     0.191 C 
HETATM    2  C4  UNL     1      -5.025 -14.334  25.353  1.00  0.00     0.047 C 
HETATM    3  C5  UNL     1      -6.077 -13.401  24.954  1.00  0.00    -0.009 C 
HETATM    4  C18 UNL     1      -5.492 -12.135  25.573  1.00  0.00     0.040 C 
HETATM    5  C19 UNL     1      -5.148 -12.468  26.932  1.00  0.00     0.020 C 
HETATM    6  C20 UNL     1      -6.068 -12.215  28.051  1.00  0.00     0.012 C 
HETATM    7  C21 UNL     1      -6.342 -11.086  25.102  1.00  0.00     0.087 C 
HETATM    8  C22 UNL     1      -5.552  -9.801  24.989  1.00  0.00     0.042 C 
HETATM    9  C23 UNL     1      -5.033  -9.734  23.573  1.00  0.00     0.041 C 
HETATM   10  C24 UNL     1      -6.193 -10.416  22.854  1.00  0.00     0.248 C 
HETATM   11  C27 UNL     1      -6.608 -11.557  23.654  1.00  0.00     0.103 C 
HETATM   12 CL1  UNL     1      -8.413 -11.661  23.534  1.00  0.00    -0.113 Cl
HETATM   13  C28 UNL     1      -6.028 -12.893  23.515  1.00  0.00     0.023 C 
HETATM   14  C29 UNL     1      -4.753 -13.131  22.834  1.00  0.00     0.013 C 
ENDROOT
BRANCH   3  15
HETATM   15  C6  UNL     1      -7.399 -13.773  25.361  1.00  0.00    -0.020 C 
HETATM   16  C7  UNL     1      -7.924 -14.937  24.992  1.00  0.00    -0.024 C 
BRANCH  16  17
HETATM   17  C8  UNL     1      -9.277 -15.350  25.381  1.00  0.00     0.026 C 
HETATM   18  C9  UNL     1      -9.495 -16.373  26.389  1.00  0.00    -0.015 C 
HETATM   19  C10 UNL     1      -9.439 -15.775  27.807  1.00  0.00     0.018 C 
HETATM   20  C12 UNL     1     -10.978 -16.731  26.149  1.00  0.00     0.017 C 
HETATM   21  C13 UNL     1     -11.068 -16.789  24.634  1.00  0.00    -0.005 C 
HETATM   22  C14 UNL     1     -12.221 -16.031  24.059  1.00  0.00     0.006 C 
HETATM   23  C16 UNL     1     -10.145 -15.689  24.186  1.00  0.00    -0.033 C 
HETATM   24  C15 UNL     1     -11.343 -14.790  23.995  1.00  0.00     0.010 C 
HETATM   25  C17 UNL     1      -9.416 -15.902  22.900  1.00  0.00     0.016 C 
BRANCH  18  26
HETATM   26  C11 UNL     1      -8.652 -17.590  26.418  1.00  0.00     0.173 C 
BRANCH  26  27
HETATM   27  O1  UNL     1      -9.304 -18.788  26.577  1.00  0.00    -0.400 OA
ATOM     28  H1  UNL     1      -9.964 -19.003  25.929  1.00  0.00     0.209 HD
ENDBRANCH  26  27
ENDBRANCH  18  26
ENDBRANCH  16  17
ENDBRANCH   3  15
BRANCH   1  29
HETATM   29  N1  UNL     1      -5.166 -14.774  27.785  1.00  0.00    -0.071 N 
ATOM     30  H12 UNL     1      -6.053 -14.432  28.153  1.00  0.00     0.277 HD
ATOM     31  H11 UNL     1      -4.588 -14.693  28.622  1.00  0.00     0.277 HD
BRANCH  29  32
HETATM   32  C2  UNL     1      -5.283 -16.148  27.384  1.00  0.00     0.228 C 
HETATM   33  C1  UNL     1      -5.579 -17.100  28.504  1.00  0.00     0.034 C 
ENDBRANCH  29  32
ENDBRANCH   1  29
BRANCH   7  34
HETATM   34  O2  UNL     1      -7.502 -10.786  25.773  1.00  0.00    -0.387 OA
ATOM     35  H2  UNL     1      -8.337 -11.096  25.443  1.00  0.00     0.210 HD
ENDBRANCH   7  34
BRANCH  10  36
HETATM   36  N2  UNL     1      -6.068 -10.489  21.450  1.00  0.00     0.086 N 
HETATM   37  C25 UNL     1      -7.343 -10.134  20.772  1.00  0.00     0.310 C 
HETATM   38  C26 UNL     1      -5.170  -9.393  21.007  1.00  0.00     0.310 C 
ENDBRANCH  10  36
TORSDOF 8
ENDMDL
MODEL 5
REMARK VINA RESULT: -4.438526750      2.968      6.999
REMARK  8 active torsions:
REMARK  status: ('A' for Active; 'I' for Inactive)
REMARK    1  A    between atoms: C2_2  and  N1_3 
REMARK    2  A    between atoms: N1_3  and  C3_6 
REMARK    3  A    between atoms: C5_8  and  C6_9 
REMARK    4  A    between atoms: C7_10  and  C8_11 
REMARK    5  A    between atoms: C9_12  and  C11_14 
REMARK    6  A    between atoms: C11_14  and  O1_15 
REMARK    7  A    between atoms: C21_26  and  O2_27 
REMARK    8  A    between atoms: C24_31  and  N2_32 
ROOT
HETATM    1  C3  UNL     1      -7.761 -11.662  25.111  1.00  0.00     0.191 C 
HETATM    2  C4  UNL     1      -7.656 -12.909  24.261  1.00  0.00     0.047 C 
HETATM    3  C5  UNL     1      -7.537 -13.990  25.238  1.00  0.00    -0.009 C 
HETATM    4  C18 UNL     1      -8.560 -13.482  26.251  1.00  0.00     0.040 C 
HETATM    5  C19 UNL     1      -8.237 -12.099  26.496  1.00  0.00     0.020 C 
HETATM    6  C20 UNL     1      -7.384 -11.688  27.622  1.00  0.00     0.012 C 
HETATM    7  C21 UNL     1      -8.682 -14.549  27.195  1.00  0.00     0.087 C 
HETATM    8  C22 UNL     1     -10.076 -14.552  27.783  1.00  0.00     0.042 C 
HETATM    9  C23 UNL     1     -10.903 -15.486  26.934  1.00  0.00     0.041 C 
HETATM   10  C24 UNL     1      -9.826 -16.504  26.570  1.00  0.00     0.248 C 
HETATM   11  C27 UNL     1      -8.608 -15.775  26.258  1.00  0.00     0.103 C 
HETATM   12 CL1  UNL     1      -7.224 -16.754  26.900  1.00  0.00    -0.113 Cl
HETATM   13  C28 UNL     1      -8.282 -15.283  24.919  1.00  0.00     0.023 C 
HETATM   14  C29 UNL     1      -9.287 -15.156  23.861  1.00  0.00     0.013 C 
ENDROOT
BRANCH   3  15
HETATM   15  C6  UNL     1      -6.208 -14.225  25.718  1.00  0.00    -0.020 C 
HETATM   16  C7  UNL     1      -5.156 -14.061  24.923  1.00  0.00    -0.024 C 
BRANCH  16  17
HETATM   17  C8  UNL     1      -3.781 -14.299  25.374  1.00  0.00     0.026 C 
HETATM   18  C9  UNL     1      -3.093 -13.355  26.238  1.00  0.00    -0.015 C 
HETATM   19  C10 UNL     1      -3.454 -13.592  27.716  1.00  0.00     0.018 C 
HETATM   20  C12 UNL     1      -1.626 -13.815  26.091  1.00  0.00     0.017 C 
HETATM   21  C13 UNL     1      -1.504 -14.073  24.599  1.00  0.00    -0.005 C 
HETATM   22  C14 UNL     1      -0.875 -15.385  24.254  1.00  0.00     0.006 C 
HETATM   23  C16 UNL     1      -2.848 -14.642  24.231  1.00  0.00    -0.033 C 
HETATM   24  C15 UNL     1      -2.254 -16.029  24.289  1.00  0.00     0.010 C 
HETATM   25  C17 UNL     1      -3.361 -14.329  22.864  1.00  0.00     0.016 C 
BRANCH  18  26
HETATM   26  C11 UNL     1      -3.220 -11.898  26.008  1.00  0.00     0.173 C 
BRANCH  26  27
HETATM   27  O1  UNL     1      -4.135 -11.229  26.783  1.00  0.00    -0.400 OA
ATOM     28  H1  UNL     1      -4.093 -11.383  27.720  1.00  0.00     0.209 HD
ENDBRANCH  26  27
ENDBRANCH  18  26
ENDBRANCH  16  17
ENDBRANCH   3  15
BRANCH   1  29
HETATM   29  N1  UNL     1      -6.604 -10.851  25.147  1.00  0.00    -0.071 N 
ATOM     30  H12 UNL     1      -5.794 -11.397  25.438  1.00  0.00     0.277 HD
ATOM     31  H11 UNL     1      -6.655 -10.189  25.922  1.00  0.00     0.277 HD
BRANCH  29  32
HETATM   32  C2  UNL     1      -6.333 -10.164  23.915  1.00  0.00     0.228 C 
HETATM   33  C1  UNL     1      -5.110 -10.643  23.192  1.00  0.00     0.034 C 
ENDBRANCH  29  32
ENDBRANCH   1  29
BRANCH   7  34
HETATM   34  O2  UNL     1      -7.802 -14.642  28.246  1.00  0.00    -0.387 OA
ATOM     35  H2  UNL     1      -7.745 -15.446  28.749  1.00  0.00     0.210 HD
ENDBRANCH   7  34
BRANCH  10  36
HETATM   36  N2  UNL     1     -10.270 -17.593  25.789  1.00  0.00     0.086 N 
HETATM   37  C25 UNL     1     -10.213 -18.867  26.552  1.00  0.00     0.310 C 
HETATM   38  C26 UNL     1     -11.729 -17.436  25.563  1.00  0.00     0.310 C 
ENDBRANCH  10  36
TORSDOF 8
ENDMDL
