MODEL 1
REMARK VINA RESULT: -5.523595334      0.000      0.000
REMARK  7 active torsions:
REMARK  status: ('A' for Active; 'I' for Inactive)
REMARK    1  A    between atoms: C2_2  and  C3_3 
REMARK    2  A    between atoms: C4_4  and  C5_5 
REMARK    3  A    between atoms: C15_17  and  O2_18 
REMARK    4  A    between atoms: C16_20  and  C17_21 
REMARK    5  A    between atoms: C17_21  and  C18_22 
REMARK    6  A    between atoms: C21_27  and  C22_28 
REMARK    7  A    between atoms: C22_28  and  C24_30 
ROOT
HETATM    1  C5  UNL     1      -6.066 -14.660  26.128  1.00  0.00    -0.037 C 
HETATM    2  C6  UNL     1      -7.345 -14.411  25.718  1.00  0.00     0.063 C 
HETATM    3 BR1  UNL     1      -8.530 -15.872  25.977  1.00  0.00    -0.047 Br
HETATM    4  C7  UNL     1      -7.958 -13.214  25.167  1.00  0.00     0.171 C 
HETATM    5  O1  UNL     1      -9.073 -13.338  24.598  1.00  0.00    -0.291 OA
HETATM    6  C8  UNL     1      -7.326 -11.856  25.248  1.00  0.00     0.069 C 
HETATM    7  C9  UNL     1      -8.344 -10.851  24.855  1.00  0.00     0.019 C 
HETATM    8  C10 UNL     1      -6.107 -11.837  24.356  1.00  0.00     0.006 C 
HETATM    9  C11 UNL     1      -6.568 -11.739  22.931  1.00  0.00     0.014 C 
HETATM   10  C12 UNL     1      -5.731 -10.969  21.999  1.00  0.00     0.001 C 
HETATM   11  C13 UNL     1      -5.043  -9.762  22.513  1.00  0.00     0.003 C 
HETATM   12  C14 UNL     1      -4.943  -9.616  23.988  1.00  0.00     0.039 C 
HETATM   13  C15 UNL     1      -5.109 -10.844  24.793  1.00  0.00     0.071 C 
HETATM   14  C16 UNL     1      -4.035 -11.879  24.421  1.00  0.00     0.036 C 
HETATM   15  C19 UNL     1      -5.141 -12.904  24.577  1.00  0.00     0.010 C 
HETATM   16  C20 UNL     1      -5.048 -13.605  25.895  1.00  0.00     0.046 C 
ENDROOT
BRANCH   1  17
HETATM   17  C4  UNL     1      -5.807 -15.946  26.684  1.00  0.00     0.009 C 
HETATM   18  C3  UNL     1      -4.931 -16.845  26.813  1.00  0.00     0.007 C 
BRANCH  18  19
HETATM   19  C2  UNL     1      -3.583 -17.206  26.501  1.00  0.00    -0.065 C 
HETATM   20  C1  UNL     1      -2.624 -17.961  27.287  1.00  0.00     0.048 C 
HETATM   21  C21 UNL     1      -3.113 -16.823  25.275  1.00  0.00    -0.005 C 
BRANCH  21  22
HETATM   22  C22 UNL     1      -1.814 -17.083  24.710  1.00  0.00     0.106 C 
HETATM   23  C23 UNL     1      -1.095 -15.691  24.702  1.00  0.00     0.025 C 
BRANCH  22  24
HETATM   24  C24 UNL     1      -1.864 -17.449  23.260  1.00  0.00     0.180 C 
HETATM   25  O5  UNL     1      -1.639 -18.607  22.897  1.00  0.00    -0.647 OA
HETATM   26  O6  UNL     1      -2.165 -16.472  22.344  1.00  0.00    -0.647 OA
ENDBRANCH  22  24
ENDBRANCH  21  22
ENDBRANCH  18  19
ENDBRANCH   1  17
BRANCH  14  27
HETATM   27  C17 UNL     1      -2.954 -11.826  25.427  1.00  0.00     0.121 C 
BRANCH  27  28
HETATM   28  C18 UNL     1      -1.663 -11.366  24.865  1.00  0.00     0.173 C 
HETATM   29  O3  UNL     1      -0.714 -12.169  24.696  1.00  0.00    -0.648 OA
HETATM   30  O4  UNL     1      -1.450 -10.044  24.508  1.00  0.00    -0.648 OA
ENDBRANCH  27  28
ENDBRANCH  14  27
BRANCH  13  31
HETATM   31  O2  UNL     1      -5.165 -10.546  26.147  1.00  0.00    -0.389 OA
ATOM     32  H2  UNL     1      -4.751  -9.723  26.380  1.00  0.00     0.210 HD
ENDBRANCH  13  31
TORSDOF 7
ENDMDL
MODEL 2
REMARK VINA RESULT: -5.448199414      6.679     11.447
REMARK  7 active torsions:
REMARK  status: ('A' for Active; 'I' for Inactive)
REMARK    1  A    between atoms: C2_2  and  C3_3 
REMARK    2  A    between atoms: C4_4  and  C5_5 
REMARK    3  A    between atoms: C15_17  and  O2_18 
REMARK    4  A    between atoms: C16_20  and  C17_21 
REMARK    5  A    between atoms: C17_21  and  C18_22 
REMARK    6  A    between atoms: C21_27  and  C22_28 
REMARK    7  A    between atoms: C22_28  and  C24_30 
ROOT
HETATM    1  C5  UNL     1     -12.375 -12.749  23.678  1.00  0.00    -0.037 C 
HETATM    2  C6  UNL     1     -11.279 -12.284  24.347  1.00  0.00     0.063 C 
HETATM    3 BR1  UNL     1     -10.801 -10.504  23.889  1.00  0.00    -0.047 Br
HETATM    4  C7  UNL     1     -10.453 -12.896  25.375  1.00  0.00     0.171 C 
HETATM    5  O1  UNL     1      -9.332 -12.374  25.611  1.00  0.00    -0.291 OA
HETATM    6  C8  UNL     1     -10.875 -14.106  26.155  1.00  0.00     0.069 C 
HETATM    7  C9  UNL     1      -9.937 -14.270  27.293  1.00  0.00     0.019 C 
HETATM    8  C10 UNL     1     -10.887 -15.298  25.228  1.00  0.00     0.006 C 
HETATM    9  C11 UNL     1      -9.467 -15.722  24.987  1.00  0.00     0.014 C 
HETATM   10  C12 UNL     1      -9.209 -17.159  24.820  1.00  0.00     0.001 C 
HETATM   11  C13 UNL     1     -10.014 -18.112  25.620  1.00  0.00     0.003 C 
HETATM   12  C14 UNL     1     -11.253 -17.589  26.248  1.00  0.00     0.039 C 
HETATM   13  C15 UNL     1     -11.819 -16.348  25.678  1.00  0.00     0.071 C 
HETATM   14  C16 UNL     1     -12.177 -16.552  24.197  1.00  0.00     0.036 C 
HETATM   15  C19 UNL     1     -11.657 -15.142  24.001  1.00  0.00     0.010 C 
HETATM   16  C20 UNL     1     -12.780 -14.159  23.911  1.00  0.00     0.046 C 
ENDROOT
BRANCH   1  17
HETATM   17  C4  UNL     1     -12.995 -11.856  22.758  1.00  0.00     0.009 C 
HETATM   18  C3  UNL     1     -14.033 -11.659  22.068  1.00  0.00     0.007 C 
BRANCH  18  19
HETATM   19  C2  UNL     1     -15.318 -12.185  21.728  1.00  0.00    -0.065 C 
HETATM   20  C1  UNL     1     -16.131 -13.161  22.431  1.00  0.00     0.048 C 
HETATM   21  C21 UNL     1     -15.905 -11.689  20.596  1.00  0.00    -0.005 C 
BRANCH  21  22
HETATM   22  C22 UNL     1     -17.195 -12.028  20.054  1.00  0.00     0.106 C 
HETATM   23  C23 UNL     1     -16.882 -12.820  18.739  1.00  0.00     0.025 C 
BRANCH  22  24
HETATM   24  C24 UNL     1     -17.958 -10.838  19.562  1.00  0.00     0.180 C 
HETATM   25  O5  UNL     1     -17.455  -9.712  19.592  1.00  0.00    -0.647 OA
HETATM   26  O6  UNL     1     -19.229 -11.026  19.076  1.00  0.00    -0.647 OA
ENDBRANCH  22  24
ENDBRANCH  21  22
ENDBRANCH  18  19
ENDBRANCH   1  17
BRANCH  14  27
HETATM   27  C17 UNL     1     -13.628 -16.807  24.090  1.00  0.00     0.121 C 
BRANCH  27  28
HETATM   28  C18 UNL     1     -13.943 -18.082  23.404  1.00  0.00     0.173 C 
HETATM   29  O3  UNL     1     -13.278 -19.120  23.642  1.00  0.00    -0.648 OA
HETATM   30  O4  UNL     1     -14.970 -18.182  22.480  1.00  0.00    -0.648 OA
ENDBRANCH  27  28
ENDBRANCH  14  27
BRANCH  13  31
HETATM   31  O2  UNL     1     -12.867 -15.877  26.455  1.00  0.00    -0.389 OA
ATOM     32  H2  UNL     1     -12.592 -15.439  27.252  1.00  0.00     0.210 HD
ENDBRANCH  13  31
TORSDOF 7
ENDMDL
MODEL 3
REMARK VINA RESULT: -5.383988593      3.615      7.034
REMARK  7 active torsions:
REMARK  status: ('A' for Active; 'I' for Inactive)
REMARK    1  A    between atoms: C2_2  and  C3_3 
REMARK    2  A    between atoms: C4_4  and  C5_5 
REMARK    3  A    between atoms: C15_17  and  O2_18 
REMARK    4  A    between atoms: C16_20  and  C17_21 
REMARK    5  A    between atoms: C17_21  and  C18_22 
REMARK    6  A    between atoms: C21_27  and  C22_28 
REMARK    7  A    between atoms: C22_28  and  C24_30 
ROOT
HETATM    1  C5  UNL     1      -8.275 -11.678  25.796  1.00  0.00    -0.037 C 
HETATM    2  C6  UNL     1      -8.166 -11.082  24.572  1.00  0.00     0.063 C 
HETATM    3 BR1  UNL     1      -9.824 -10.501  23.852  1.00  0.00    -0.047 Br
HETATM    4  C7  UNL     1      -7.002 -10.777  23.756  1.00  0.00     0.171 C 
HETATM    5  O1  UNL     1      -7.195 -10.497  22.545  1.00  0.00    -0.291 OA
HETATM    6  C8  UNL     1      -5.600 -10.782  24.290  1.00  0.00     0.069 C 
HETATM    7  C9  UNL     1      -4.719 -10.152  23.277  1.00  0.00     0.019 C 
HETATM    8  C10 UNL     1      -5.208 -12.208  24.603  1.00  0.00     0.006 C 
HETATM    9  C11 UNL     1      -4.914 -12.909  23.309  1.00  0.00     0.014 C 
HETATM   10  C12 UNL     1      -3.851 -13.925  23.316  1.00  0.00     0.001 C 
HETATM   11  C13 UNL     1      -2.669 -13.693  24.180  1.00  0.00     0.003 C 
HETATM   12  C14 UNL     1      -2.797 -12.661  25.239  1.00  0.00     0.039 C 
HETATM   13  C15 UNL     1      -4.169 -12.286  25.645  1.00  0.00     0.071 C 
HETATM   14  C16 UNL     1      -4.921 -13.512  26.189  1.00  0.00     0.036 C 
HETATM   15  C19 UNL     1      -6.124 -12.945  25.462  1.00  0.00     0.010 C 
HETATM   16  C20 UNL     1      -7.042 -12.236  26.406  1.00  0.00     0.046 C 
ENDROOT
BRANCH   1  17
HETATM   17  C4  UNL     1      -9.584 -11.772  26.352  1.00  0.00     0.009 C 
HETATM   18  C3  UNL     1     -10.252 -11.664  27.417  1.00  0.00     0.007 C 
BRANCH  18  19
HETATM   19  C2  UNL     1     -10.170 -11.363  28.812  1.00  0.00    -0.065 C 
HETATM   20  C1  UNL     1     -10.676 -12.111  29.949  1.00  0.00     0.048 C 
HETATM   21  C21 UNL     1      -9.492 -10.226  29.156  1.00  0.00    -0.005 C 
BRANCH  21  22
HETATM   22  C22 UNL     1      -9.243  -9.717  30.480  1.00  0.00     0.106 C 
HETATM   23  C23 UNL     1     -10.436  -8.741  30.765  1.00  0.00     0.025 C 
BRANCH  22  24
HETATM   24  C24 UNL     1      -8.046  -8.822  30.553  1.00  0.00     0.180 C 
HETATM   25  O5  UNL     1      -8.130  -7.699  31.056  1.00  0.00    -0.647 OA
HETATM   26  O6  UNL     1      -6.853  -9.277  30.048  1.00  0.00    -0.647 OA
ENDBRANCH  22  24
ENDBRANCH  21  22
ENDBRANCH  18  19
ENDBRANCH   1  17
BRANCH  14  27
HETATM   27  C17 UNL     1      -4.886 -13.474  27.666  1.00  0.00     0.121 C 
BRANCH  27  28
HETATM   28  C18 UNL     1      -4.342 -14.715  28.263  1.00  0.00     0.173 C 
HETATM   29  O3  UNL     1      -3.548 -15.443  27.620  1.00  0.00    -0.648 OA
HETATM   30  O4  UNL     1      -4.684 -15.121  29.543  1.00  0.00    -0.648 OA
ENDBRANCH  27  28
ENDBRANCH  14  27
BRANCH  13  31
HETATM   31  O2  UNL     1      -4.152 -11.201  26.510  1.00  0.00    -0.389 OA
ATOM     32  H2  UNL     1      -3.480 -11.250  27.180  1.00  0.00     0.210 HD
ENDBRANCH  13  31
TORSDOF 7
ENDMDL
MODEL 4
REMARK VINA RESULT: -5.305460715      7.011     11.389
REMARK  7 active torsions:
REMARK  status: ('A' for Active; 'I' for Inactive)
REMARK    1  A    between atoms: C2_2  and  C3_3 
REMARK    2  A    between atoms: C4_4  and  C5_5 
REMARK    3  A    between atoms: C15_17  and  O2_18 
REMARK    4  A    between atoms: C16_20  and  C17_21 
REMARK    5  A    between atoms: C17_21  and  C18_22 
REMARK    6  A    between atoms: C21_27  and  C22_28 
REMARK    7  A    between atoms: C22_28  and  C24_30 
ROOT
HETATM    1  C5  UNL     1     -14.046 -13.270  24.461  1.00  0.00    -0.037 C 
HETATM    2  C6  UNL     1     -13.018 -12.430  24.781  1.00  0.00     0.063 C 
HETATM    3 BR1  UNL     1     -13.437 -10.590  24.566  1.00  0.00    -0.047 Br
HETATM    4  C7  UNL     1     -11.686 -12.699  25.298  1.00  0.00     0.171 C 
HETATM    5  O1  UNL     1     -10.834 -11.776  25.226  1.00  0.00    -0.291 OA
HETATM    6  C8  UNL     1     -11.292 -14.013  25.906  1.00  0.00     0.069 C 
HETATM    7  C9  UNL     1      -9.981 -13.834  26.577  1.00  0.00     0.019 C 
HETATM    8  C10 UNL     1     -11.255 -15.058  24.816  1.00  0.00     0.006 C 
HETATM    9  C11 UNL     1     -10.008 -14.849  24.006  1.00  0.00     0.014 C 
HETATM   10  C12 UNL     1      -9.346 -16.044  23.462  1.00  0.00     0.001 C 
HETATM   11  C13 UNL     1      -9.357 -17.281  24.277  1.00  0.00     0.003 C 
HETATM   12  C14 UNL     1     -10.330 -17.344  25.397  1.00  0.00     0.039 C 
HETATM   13  C15 UNL     1     -11.480 -16.418  25.336  1.00  0.00     0.071 C 
HETATM   14  C16 UNL     1     -12.312 -16.678  24.070  1.00  0.00     0.036 C 
HETATM   15  C19 UNL     1     -12.458 -15.171  24.002  1.00  0.00     0.010 C 
HETATM   16  C20 UNL     1     -13.789 -14.731  24.523  1.00  0.00     0.046 C 
ENDROOT
BRANCH   1  17
HETATM   17  C4  UNL     1     -15.261 -12.665  24.028  1.00  0.00     0.009 C 
HETATM   18  C3  UNL     1     -15.931 -12.333  23.012  1.00  0.00     0.007 C 
BRANCH  18  19
HETATM   19  C2  UNL     1     -15.949 -12.336  21.582  1.00  0.00    -0.065 C 
HETATM   20  C1  UNL     1     -15.066 -11.662  20.646  1.00  0.00     0.048 C 
HETATM   21  C21 UNL     1     -16.909 -13.103  20.981  1.00  0.00    -0.005 C 
BRANCH  21  22
HETATM   22  C22 UNL     1     -17.124 -13.299  19.571  1.00  0.00     0.106 C 
HETATM   23  C23 UNL     1     -18.488 -12.589  19.270  1.00  0.00     0.025 C 
BRANCH  22  24
HETATM   24  C24 UNL     1     -17.394 -14.726  19.209  1.00  0.00     0.180 C 
HETATM   25  O5  UNL     1     -17.708 -15.032  18.056  1.00  0.00    -0.647 OA
HETATM   26  O6  UNL     1     -17.286 -15.685  20.185  1.00  0.00    -0.647 OA
ENDBRANCH  22  24
ENDBRANCH  21  22
ENDBRANCH  18  19
ENDBRANCH   1  17
BRANCH  14  27
HETATM   27  C17 UNL     1     -13.485 -17.500  24.432  1.00  0.00     0.121 C 
BRANCH  27  28
HETATM   28  C18 UNL     1     -13.959 -18.354  23.317  1.00  0.00     0.173 C 
HETATM   29  O3  UNL     1     -13.396 -19.446  23.061  1.00  0.00    -0.648 OA
HETATM   30  O4  UNL     1     -15.030 -17.986  22.519  1.00  0.00    -0.648 OA
ENDBRANCH  27  28
ENDBRANCH  14  27
BRANCH  13  31
HETATM   31  O2  UNL     1     -12.213 -16.458  26.514  1.00  0.00    -0.389 OA
ATOM     32  H2  UNL     1     -12.778 -17.217  26.593  1.00  0.00     0.210 HD
ENDBRANCH  13  31
TORSDOF 7
ENDMDL
MODEL 5
REMARK VINA RESULT: -5.276508941      2.184      3.029
REMARK  7 active torsions:
REMARK  status: ('A' for Active; 'I' for Inactive)
REMARK    1  A    between atoms: C2_2  and  C3_3 
REMARK    2  A    between atoms: C4_4  and  C5_5 
REMARK    3  A    between atoms: C15_17  and  O2_18 
REMARK    4  A    between atoms: C16_20  and  C17_21 
REMARK    5  A    between atoms: C17_21  and  C18_22 
REMARK    6  A    between atoms: C21_27  and  C22_28 
REMARK    7  A    between atoms: C22_28  and  C24_30 
ROOT
HETATM    1  C5  UNL     1      -5.584 -15.304  26.611  1.00  0.00    -0.037 C 
HETATM    2  C6  UNL     1      -6.410 -15.060  27.670  1.00  0.00     0.063 C 
HETATM    3 BR1  UNL     1      -6.477 -16.476  28.933  1.00  0.00    -0.047 Br
HETATM    4  C7  UNL     1      -7.203 -13.891  28.016  1.00  0.00     0.171 C 
HETATM    5  O1  UNL     1      -8.103 -14.032  28.884  1.00  0.00    -0.291 OA
HETATM    6  C8  UNL     1      -6.995 -12.543  27.391  1.00  0.00     0.069 C 
HETATM    7  C9  UNL     1      -7.762 -11.548  28.179  1.00  0.00     0.019 C 
HETATM    8  C10 UNL     1      -7.429 -12.609  25.946  1.00  0.00     0.006 C 
HETATM    9  C11 UNL     1      -8.930 -12.600  25.905  1.00  0.00     0.014 C 
HETATM   10  C12 UNL     1      -9.572 -11.912  24.775  1.00  0.00     0.001 C 
HETATM   11  C13 UNL     1      -8.929 -10.686  24.247  1.00  0.00     0.003 C 
HETATM   12  C14 UNL     1      -7.517 -10.442  24.635  1.00  0.00     0.039 C 
HETATM   13  C15 UNL     1      -6.743 -11.608  25.109  1.00  0.00     0.071 C 
HETATM   14  C16 UNL     1      -6.675 -12.687  24.016  1.00  0.00     0.036 C 
HETATM   15  C19 UNL     1      -6.838 -13.677  25.152  1.00  0.00     0.010 C 
HETATM   16  C20 UNL     1      -5.525 -14.288  25.530  1.00  0.00     0.046 C 
ENDROOT
BRANCH   1  17
HETATM   17  C4  UNL     1      -4.900 -16.554  26.603  1.00  0.00     0.009 C 
HETATM   18  C3  UNL     1      -3.850 -17.141  26.221  1.00  0.00     0.007 C 
BRANCH  18  19
HETATM   19  C2  UNL     1      -2.608 -16.968  25.536  1.00  0.00    -0.065 C 
HETATM   20  C1  UNL     1      -1.254 -17.205  26.005  1.00  0.00     0.048 C 
HETATM   21  C21 UNL     1      -2.677 -16.551  24.235  1.00  0.00    -0.005 C 
BRANCH  21  22
HETATM   22  C22 UNL     1      -1.585 -16.329  23.323  1.00  0.00     0.106 C 
HETATM   23  C23 UNL     1      -2.078 -15.181  22.378  1.00  0.00     0.025 C 
BRANCH  22  24
HETATM   24  C24 UNL     1      -1.360 -17.472  22.383  1.00  0.00     0.180 C 
HETATM   25  O5  UNL     1      -0.789 -17.294  21.304  1.00  0.00    -0.647 OA
HETATM   26  O6  UNL     1      -1.800 -18.720  22.748  1.00  0.00    -0.647 OA
ENDBRANCH  22  24
ENDBRANCH  21  22
ENDBRANCH  18  19
ENDBRANCH   1  17
BRANCH  14  27
HETATM   27  C17 UNL     1      -5.371 -12.586  23.328  1.00  0.00     0.121 C 
BRANCH  27  28
HETATM   28  C18 UNL     1      -5.457 -11.888  22.025  1.00  0.00     0.173 C 
HETATM   29  O3  UNL     1      -4.962 -10.745  21.875  1.00  0.00    -0.648 OA
HETATM   30  O4  UNL     1      -6.084 -12.460  20.929  1.00  0.00    -0.648 OA
ENDBRANCH  27  28
ENDBRANCH  14  27
BRANCH  13  31
HETATM   31  O2  UNL     1      -5.504 -11.217  25.598  1.00  0.00    -0.389 OA
ATOM     32  H2  UNL     1      -4.857 -11.913  25.612  1.00  0.00     0.210 HD
ENDBRANCH  13  31
TORSDOF 7
ENDMDL
