MODEL 1
REMARK VINA RESULT: -5.951736834      0.000      0.000
REMARK  13 active torsions:
REMARK  status: ('A' for Active; 'I' for Inactive)
REMARK    1  A    between atoms: C4_4  and  O1_5 
REMARK    2  A    between atoms: C6_8  and  C7_9 
REMARK    3  A    between atoms: C7_9  and  C8_10 
REMARK    4  A    between atoms: C7_9  and  N1_18 
REMARK    5  A    between atoms: C8_10  and  C9_11 
REMARK    6  A    between atoms: N1_18  and  C15_20 
REMARK    7  A    between atoms: C15_20  and  O2_21 
REMARK    8  A    between atoms: C15_20  and  C16_23 
REMARK    9  A    between atoms: C18_25  and  O3_26 
REMARK   10  A    between atoms: C21_30  and  C22_31 
REMARK   11  A    between atoms: C22_31  and  C23_32 
REMARK   12  A    between atoms: C23_32  and  C24_33 
REMARK   13  A    between atoms: C24_33  and  O4_34 
ROOT
HETATM    1  N1  UNL     1      -6.665 -12.673  26.796  1.00  0.00    -0.347 N 
ATOM      2  H1  UNL     1      -6.122 -13.432  27.208  1.00  0.00     0.167 HD
ENDROOT
BRANCH   1   3
HETATM    3  C7  UNL     1      -6.763 -12.788  25.536  1.00  0.00    -0.003 C 
BRANCH   3   4
HETATM    4  C6  UNL     1      -5.594 -12.428  24.652  1.00  0.00     0.038 C 
HETATM    5  C5  UNL     1      -6.063 -12.764  23.258  1.00  0.00     0.042 C 
HETATM    6  C4  UNL     1      -5.467 -11.931  22.174  1.00  0.00     0.122 C 
HETATM    7  C3  UNL     1      -6.062 -10.529  22.400  1.00  0.00     0.065 C 
HETATM    8  C2  UNL     1      -5.503 -10.088  23.676  1.00  0.00    -0.086 C 
HETATM    9  C1  UNL     1      -5.148  -8.798  23.804  1.00  0.00     0.014 C 
HETATM   10  C29 UNL     1      -5.314 -10.981  24.843  1.00  0.00     0.044 C 
BRANCH   6  11
HETATM   11  O1  UNL     1      -5.965 -12.383  20.965  1.00  0.00    -0.395 OA
ATOM     12  H1  UNL     1      -5.217 -12.537  20.402  1.00  0.00     0.210 HD
ENDBRANCH   6  11
ENDBRANCH   3   4
BRANCH   3  13
HETATM   13  C8  UNL     1      -8.008 -13.288  24.959  1.00  0.00     0.091 C 
BRANCH  13  14
HETATM   14  C9  UNL     1      -9.119 -12.364  24.776  1.00  0.00    -0.053 A 
HETATM   15  C10 UNL     1     -10.405 -12.852  24.962  1.00  0.00     0.010 A 
HETATM   16  C11 UNL     1     -11.518 -12.062  24.841  1.00  0.00     0.043 A 
HETATM   17  C12 UNL     1     -11.322 -10.737  24.522  1.00  0.00     0.116 A 
HETATM   18  F1  UNL     1     -12.448  -9.966  24.406  1.00  0.00    -0.206 F 
HETATM   19  C13 UNL     1     -10.068 -10.218  24.330  1.00  0.00     0.043 A 
HETATM   20  C14 UNL     1      -8.976 -11.033  24.458  1.00  0.00     0.010 A 
ENDBRANCH  13  14
ENDBRANCH   3  13
ENDBRANCH   1   3
BRANCH   1  21
HETATM   21  C15 UNL     1      -7.095 -11.807  27.720  1.00  0.00     0.120 C 
BRANCH  21  22
HETATM   22  O2  UNL     1      -5.587 -11.629  28.218  1.00  0.00    -0.349 OA
ATOM     23  H2  UNL     1      -5.849 -10.843  28.683  1.00  0.00     0.219 HD
ENDBRANCH  21  22
BRANCH  21  24
HETATM   24  C16 UNL     1      -7.546 -10.899  28.690  1.00  0.00     0.071 C 
HETATM   25  C17 UNL     1      -6.674 -10.943  29.969  1.00  0.00     0.045 C 
HETATM   26  C18 UNL     1      -7.073  -9.875  30.906  1.00  0.00     0.119 C 
HETATM   27  C19 UNL     1      -8.541  -9.885  31.263  1.00  0.00     0.037 C 
HETATM   28  C20 UNL     1      -9.318  -9.849  29.988  1.00  0.00     0.001 C 
HETATM   29  C21 UNL     1     -10.803 -10.042  30.193  1.00  0.00    -0.010 C 
HETATM   30  C27 UNL     1      -8.953 -11.087  29.196  1.00  0.00    -0.029 C 
HETATM   31  C25 UNL     1     -11.273 -10.897  29.037  1.00  0.00     0.006 C 
HETATM   32  C26 UNL     1     -10.027 -11.048  28.142  1.00  0.00     0.011 C 
HETATM   33  C28 UNL     1      -9.158 -12.348  29.988  1.00  0.00     0.016 C 
BRANCH  26  34
HETATM   34  O3  UNL     1      -6.731  -8.629  30.384  1.00  0.00    -0.396 OA
ATOM     35  H3  UNL     1      -7.361  -7.975  30.662  1.00  0.00     0.210 HD
ENDBRANCH  26  34
BRANCH  29  36
HETATM   36  C22 UNL     1     -11.462  -8.685  30.039  1.00  0.00     0.007 C 
BRANCH  36  37
HETATM   37  C23 UNL     1     -12.807  -8.798  29.357  1.00  0.00     0.026 C 
BRANCH  37  38
HETATM   38  C24 UNL     1     -13.479  -7.442  29.416  1.00  0.00     0.164 C 
BRANCH  38  39
HETATM   39  O4  UNL     1     -13.766  -7.057  28.096  1.00  0.00    -0.401 OA
ATOM     40  H4  UNL     1     -13.275  -7.631  27.519  1.00  0.00     0.209 HD
ENDBRANCH  38  39
ENDBRANCH  37  38
ENDBRANCH  36  37
ENDBRANCH  29  36
ENDBRANCH  21  24
ENDBRANCH   1  21
TORSDOF 13
ENDMDL
MODEL 2
REMARK VINA RESULT: -5.575322855      3.633      5.982
REMARK  13 active torsions:
REMARK  status: ('A' for Active; 'I' for Inactive)
REMARK    1  A    between atoms: C4_4  and  O1_5 
REMARK    2  A    between atoms: C6_8  and  C7_9 
REMARK    3  A    between atoms: C7_9  and  C8_10 
REMARK    4  A    between atoms: C7_9  and  N1_18 
REMARK    5  A    between atoms: C8_10  and  C9_11 
REMARK    6  A    between atoms: N1_18  and  C15_20 
REMARK    7  A    between atoms: C15_20  and  O2_21 
REMARK    8  A    between atoms: C15_20  and  C16_23 
REMARK    9  A    between atoms: C18_25  and  O3_26 
REMARK   10  A    between atoms: C21_30  and  C22_31 
REMARK   11  A    between atoms: C22_31  and  C23_32 
REMARK   12  A    between atoms: C23_32  and  C24_33 
REMARK   13  A    between atoms: C24_33  and  O4_34 
ROOT
HETATM    1  N1  UNL     1      -6.877 -14.044  25.417  1.00  0.00    -0.347 N 
ATOM      2  H1  UNL     1      -6.040 -14.592  25.218  1.00  0.00     0.167 HD
ENDROOT
BRANCH   1   3
HETATM    3  C7  UNL     1      -6.649 -12.797  25.381  1.00  0.00    -0.003 C 
BRANCH   3   4
HETATM    4  C6  UNL     1      -5.524 -12.259  24.529  1.00  0.00     0.038 C 
HETATM    5  C5  UNL     1      -6.024 -12.406  23.114  1.00  0.00     0.042 C 
HETATM    6  C4  UNL     1      -5.497 -11.396  22.151  1.00  0.00     0.122 C 
HETATM    7  C3  UNL     1      -6.140 -10.072  22.598  1.00  0.00     0.065 C 
HETATM    8  C2  UNL     1      -5.558  -9.799  23.910  1.00  0.00    -0.086 C 
HETATM    9  C1  UNL     1      -5.250  -8.528  24.220  1.00  0.00     0.014 C 
HETATM   10  C29 UNL     1      -5.296 -10.845  24.927  1.00  0.00     0.044 C 
BRANCH   6  11
HETATM   11  O1  UNL     1      -6.016 -11.687  20.902  1.00  0.00    -0.395 OA
ATOM     12  H1  UNL     1      -5.293 -11.999  20.371  1.00  0.00     0.210 HD
ENDBRANCH   6  11
ENDBRANCH   3   4
BRANCH   3  13
HETATM   13  C8  UNL     1      -7.495 -11.892  26.155  1.00  0.00     0.091 C 
BRANCH  13  14
HETATM   14  C9  UNL     1      -8.816 -11.555  25.643  1.00  0.00    -0.053 A 
HETATM   15  C10 UNL     1      -9.915 -11.859  26.436  1.00  0.00     0.010 A 
HETATM   16  C11 UNL     1     -11.199 -11.560  26.061  1.00  0.00     0.043 A 
HETATM   17  C12 UNL     1     -11.375 -10.934  24.847  1.00  0.00     0.116 A 
HETATM   18  F1  UNL     1     -12.666 -10.645  24.494  1.00  0.00    -0.206 F 
HETATM   19  C13 UNL     1     -10.315 -10.618  24.037  1.00  0.00     0.043 A 
HETATM   20  C14 UNL     1      -9.045 -10.929  24.439  1.00  0.00     0.010 A 
ENDBRANCH  13  14
ENDBRANCH   3  13
ENDBRANCH   1   3
BRANCH   1  21
HETATM   21  C15 UNL     1      -7.940 -14.822  25.651  1.00  0.00     0.120 C 
BRANCH  21  22
HETATM   22  O2  UNL     1      -6.967 -15.913  26.296  1.00  0.00    -0.349 OA
ATOM     23  H2  UNL     1      -7.721 -16.468  26.458  1.00  0.00     0.219 HD
ENDBRANCH  21  22
BRANCH  21  24
HETATM   24  C16 UNL     1      -9.055 -15.638  25.896  1.00  0.00     0.071 C 
HETATM   25  C17 UNL     1      -8.638 -17.054  26.367  1.00  0.00     0.045 C 
HETATM   26  C18 UNL     1      -9.825 -17.838  26.764  1.00  0.00     0.119 C 
HETATM   27  C19 UNL     1     -10.891 -17.923  25.699  1.00  0.00     0.037 C 
HETATM   28  C20 UNL     1     -11.236 -16.530  25.288  1.00  0.00     0.001 C 
HETATM   29  C21 UNL     1     -12.161 -16.475  24.094  1.00  0.00    -0.010 C 
HETATM   30  C27 UNL     1      -9.980 -15.892  24.734  1.00  0.00    -0.029 C 
HETATM   31  C25 UNL     1     -11.688 -15.307  23.257  1.00  0.00     0.006 C 
HETATM   32  C26 UNL     1     -10.570 -14.662  24.099  1.00  0.00     0.011 C 
HETATM   33  C28 UNL     1      -9.370 -16.710  23.630  1.00  0.00     0.016 C 
BRANCH  26  34
HETATM   34  O3  UNL     1     -10.375 -17.312  27.932  1.00  0.00    -0.396 OA
ATOM     35  H3  UNL     1     -11.202 -17.739  28.122  1.00  0.00     0.210 HD
ENDBRANCH  26  34
BRANCH  29  36
HETATM   36  C22 UNL     1     -13.545 -16.124  24.607  1.00  0.00     0.007 C 
BRANCH  36  37
HETATM   37  C23 UNL     1     -14.430 -17.348  24.691  1.00  0.00     0.026 C 
BRANCH  37  38
HETATM   38  C24 UNL     1     -14.096 -18.248  23.521  1.00  0.00     0.164 C 
BRANCH  38  39
HETATM   39  O4  UNL     1     -14.989 -17.938  22.482  1.00  0.00    -0.401 OA
ATOM     40  H4  UNL     1     -15.770 -18.464  22.612  1.00  0.00     0.209 HD
ENDBRANCH  38  39
ENDBRANCH  37  38
ENDBRANCH  36  37
ENDBRANCH  29  36
ENDBRANCH  21  24
ENDBRANCH   1  21
TORSDOF 13
ENDMDL
MODEL 3
REMARK VINA RESULT: -5.564514000      2.703      3.974
REMARK  13 active torsions:
REMARK  status: ('A' for Active; 'I' for Inactive)
REMARK    1  A    between atoms: C4_4  and  O1_5 
REMARK    2  A    between atoms: C6_8  and  C7_9 
REMARK    3  A    between atoms: C7_9  and  C8_10 
REMARK    4  A    between atoms: C7_9  and  N1_18 
REMARK    5  A    between atoms: C8_10  and  C9_11 
REMARK    6  A    between atoms: N1_18  and  C15_20 
REMARK    7  A    between atoms: C15_20  and  O2_21 
REMARK    8  A    between atoms: C15_20  and  C16_23 
REMARK    9  A    between atoms: C18_25  and  O3_26 
REMARK   10  A    between atoms: C21_30  and  C22_31 
REMARK   11  A    between atoms: C22_31  and  C23_32 
REMARK   12  A    between atoms: C23_32  and  C24_33 
REMARK   13  A    between atoms: C24_33  and  O4_34 
ROOT
HETATM    1  N1  UNL     1      -6.774 -12.192  26.419  1.00  0.00    -0.347 N 
ATOM      2  H1  UNL     1      -6.426 -13.107  26.705  1.00  0.00     0.167 HD
ENDROOT
BRANCH   1   3
HETATM    3  C7  UNL     1      -6.708 -12.031  25.162  1.00  0.00    -0.003 C 
BRANCH   3   4
HETATM    4  C6  UNL     1      -6.832 -10.647  24.570  1.00  0.00     0.038 C 
HETATM    5  C5  UNL     1      -5.462 -10.042  24.746  1.00  0.00     0.042 C 
HETATM    6  C4  UNL     1      -5.079  -9.036  23.714  1.00  0.00     0.122 C 
HETATM    7  C3  UNL     1      -4.921  -9.857  22.422  1.00  0.00     0.065 C 
HETATM    8  C2  UNL     1      -6.267 -10.336  22.116  1.00  0.00    -0.086 C 
HETATM    9  C1  UNL     1      -6.657 -10.368  20.831  1.00  0.00     0.014 C 
HETATM   10  C29 UNL     1      -7.227 -10.802  23.146  1.00  0.00     0.044 C 
BRANCH   6  11
HETATM   11  O1  UNL     1      -3.823  -8.553  24.033  1.00  0.00    -0.395 OA
ATOM     12  H1  UNL     1      -3.909  -8.097  24.862  1.00  0.00     0.210 HD
ENDBRANCH   6  11
ENDBRANCH   3   4
BRANCH   3  13
HETATM   13  C8  UNL     1      -6.495 -13.192  24.302  1.00  0.00     0.091 C 
BRANCH  13  14
HETATM   14  C9  UNL     1      -5.132 -13.640  24.051  1.00  0.00    -0.053 A 
HETATM   15  C10 UNL     1      -4.429 -14.204  25.106  1.00  0.00     0.010 A 
HETATM   16  C11 UNL     1      -3.152 -14.681  24.970  1.00  0.00     0.043 A 
HETATM   17  C12 UNL     1      -2.569 -14.584  23.726  1.00  0.00     0.116 A 
HETATM   18  F1  UNL     1      -1.292 -15.067  23.614  1.00  0.00    -0.206 F 
HETATM   19  C13 UNL     1      -3.230 -14.033  22.660  1.00  0.00     0.043 A 
HETATM   20  C14 UNL     1      -4.505 -13.566  22.827  1.00  0.00     0.010 A 
ENDBRANCH  13  14
ENDBRANCH   3  13
ENDBRANCH   1   3
BRANCH   1  21
HETATM   21  C15 UNL     1      -7.185 -11.464  27.463  1.00  0.00     0.120 C 
BRANCH  21  22
HETATM   22  O2  UNL     1      -5.683 -11.450  28.011  1.00  0.00    -0.349 OA
ATOM     23  H2  UNL     1      -6.019 -11.273  28.882  1.00  0.00     0.219 HD
ENDBRANCH  21  22
BRANCH  21  24
HETATM   24  C16 UNL     1      -7.615 -10.700  28.559  1.00  0.00     0.071 C 
HETATM   25  C17 UNL     1      -6.687 -10.880  29.785  1.00  0.00     0.045 C 
HETATM   26  C18 UNL     1      -7.071  -9.952  30.867  1.00  0.00     0.119 C 
HETATM   27  C19 UNL     1      -8.521 -10.053  31.278  1.00  0.00     0.037 C 
HETATM   28  C20 UNL     1      -9.354  -9.879  30.051  1.00  0.00     0.001 C 
HETATM   29  C21 UNL     1     -10.823 -10.142  30.290  1.00  0.00    -0.010 C 
HETATM   30  C27 UNL     1      -8.993 -10.994  29.093  1.00  0.00    -0.029 C 
HETATM   31  C25 UNL     1     -11.321 -10.857  29.053  1.00  0.00     0.006 C 
HETATM   32  C26 UNL     1     -10.113 -10.855  28.097  1.00  0.00     0.011 C 
HETATM   33  C28 UNL     1      -9.131 -12.351  29.725  1.00  0.00     0.016 C 
BRANCH  26  34
HETATM   34  O3  UNL     1      -6.783  -8.640  30.496  1.00  0.00    -0.396 OA
ATOM     35  H3  UNL     1      -6.382  -8.177  31.222  1.00  0.00     0.210 HD
ENDBRANCH  26  34
BRANCH  29  36
HETATM   36  C22 UNL     1     -11.522  -8.796  30.338  1.00  0.00     0.007 C 
BRANCH  36  37
HETATM   37  C23 UNL     1     -12.840  -8.832  29.596  1.00  0.00     0.026 C 
BRANCH  37  38
HETATM   38  C24 UNL     1     -13.385  -7.420  29.541  1.00  0.00     0.164 C 
BRANCH  38  39
HETATM   39  O4  UNL     1     -13.539  -7.081  28.187  1.00  0.00    -0.401 OA
ATOM     40  H4  UNL     1     -14.084  -6.304  28.148  1.00  0.00     0.209 HD
ENDBRANCH  38  39
ENDBRANCH  37  38
ENDBRANCH  36  37
ENDBRANCH  29  36
ENDBRANCH  21  24
ENDBRANCH   1  21
TORSDOF 13
ENDMDL
MODEL 4
REMARK VINA RESULT: -5.490092713      2.104      3.899
REMARK  13 active torsions:
REMARK  status: ('A' for Active; 'I' for Inactive)
REMARK    1  A    between atoms: C4_4  and  O1_5 
REMARK    2  A    between atoms: C6_8  and  C7_9 
REMARK    3  A    between atoms: C7_9  and  C8_10 
REMARK    4  A    between atoms: C7_9  and  N1_18 
REMARK    5  A    between atoms: C8_10  and  C9_11 
REMARK    6  A    between atoms: N1_18  and  C15_20 
REMARK    7  A    between atoms: C15_20  and  O2_21 
REMARK    8  A    between atoms: C15_20  and  C16_23 
REMARK    9  A    between atoms: C18_25  and  O3_26 
REMARK   10  A    between atoms: C21_30  and  C22_31 
REMARK   11  A    between atoms: C22_31  and  C23_32 
REMARK   12  A    between atoms: C23_32  and  C24_33 
REMARK   13  A    between atoms: C24_33  and  O4_34 
ROOT
HETATM    1  N1  UNL     1      -6.794 -12.695  26.740  1.00  0.00    -0.347 N 
ATOM      2  H1  UNL     1      -5.778 -12.768  26.692  1.00  0.00     0.167 HD
ENDROOT
BRANCH   1   3
HETATM    3  C7  UNL     1      -7.365 -13.449  25.895  1.00  0.00    -0.003 C 
BRANCH   3   4
HETATM    4  C6  UNL     1      -8.747 -13.988  26.175  1.00  0.00     0.038 C 
HETATM    5  C5  UNL     1      -9.644 -13.228  25.229  1.00  0.00     0.042 C 
HETATM    6  C4  UNL     1     -10.861 -13.966  24.784  1.00  0.00     0.122 C 
HETATM    7  C3  UNL     1     -10.317 -15.098  23.895  1.00  0.00     0.065 C 
HETATM    8  C2  UNL     1      -9.567 -15.961  24.806  1.00  0.00    -0.086 C 
HETATM    9  C1  UNL     1      -9.639 -17.291  24.628  1.00  0.00     0.014 C 
HETATM   10  C29 UNL     1      -8.721 -15.450  25.911  1.00  0.00     0.044 C 
BRANCH   6  11
HETATM   11  O1  UNL     1     -11.590 -13.128  23.959  1.00  0.00    -0.395 OA
ATOM     12  H1  UNL     1     -12.175 -12.633  24.520  1.00  0.00     0.210 HD
ENDBRANCH   6  11
ENDBRANCH   3   4
BRANCH   3  13
HETATM   13  C8  UNL     1      -6.679 -13.772  24.646  1.00  0.00     0.091 C 
BRANCH  13  14
HETATM   14  C9  UNL     1      -6.454 -12.712  23.673  1.00  0.00    -0.053 A 
HETATM   15  C10 UNL     1      -5.852 -13.054  22.470  1.00  0.00     0.010 A 
HETATM   16  C11 UNL     1      -5.619 -12.139  21.476  1.00  0.00     0.043 A 
HETATM   17  C12 UNL     1      -6.009 -10.839  21.709  1.00  0.00     0.116 A 
HETATM   18  F1  UNL     1      -5.767  -9.943  20.701  1.00  0.00    -0.206 F 
HETATM   19  C13 UNL     1      -6.606 -10.463  22.883  1.00  0.00     0.043 A 
HETATM   20  C14 UNL     1      -6.826 -11.399  23.856  1.00  0.00     0.010 A 
ENDBRANCH  13  14
ENDBRANCH   3  13
ENDBRANCH   1   3
BRANCH   1  21
HETATM   21  C15 UNL     1      -7.190 -11.828  27.678  1.00  0.00     0.120 C 
BRANCH  21  22
HETATM   22  O2  UNL     1      -5.979 -10.869  27.266  1.00  0.00    -0.349 OA
ATOM     23  H2  UNL     1      -6.576 -10.375  26.718  1.00  0.00     0.219 HD
ENDBRANCH  21  22
BRANCH  21  24
HETATM   24  C16 UNL     1      -7.604 -10.918  28.663  1.00  0.00     0.071 C 
HETATM   25  C17 UNL     1      -6.695 -10.973  29.916  1.00  0.00     0.045 C 
HETATM   26  C18 UNL     1      -7.057  -9.904  30.867  1.00  0.00     0.119 C 
HETATM   27  C19 UNL     1      -8.513  -9.902  31.266  1.00  0.00     0.037 C 
HETATM   28  C20 UNL     1      -9.327  -9.856  30.015  1.00  0.00     0.001 C 
HETATM   29  C21 UNL     1     -10.807 -10.036  30.264  1.00  0.00    -0.010 C 
HETATM   30  C27 UNL     1      -8.997 -11.095  29.210  1.00  0.00    -0.029 C 
HETATM   31  C25 UNL     1     -11.318 -10.884  29.120  1.00  0.00     0.006 C 
HETATM   32  C26 UNL     1     -10.101 -11.044  28.188  1.00  0.00     0.011 C 
HETATM   33  C28 UNL     1      -9.190 -12.356  30.005  1.00  0.00     0.016 C 
BRANCH  26  34
HETATM   34  O3  UNL     1      -6.718  -8.660  30.338  1.00  0.00    -0.396 OA
ATOM     35  H3  UNL     1      -6.572  -8.036  31.040  1.00  0.00     0.210 HD
ENDBRANCH  26  34
BRANCH  29  36
HETATM   36  C22 UNL     1     -11.458  -8.673  30.132  1.00  0.00     0.007 C 
BRANCH  36  37
HETATM   37  C23 UNL     1     -12.780  -8.760  29.401  1.00  0.00     0.026 C 
BRANCH  37  38
HETATM   38  C24 UNL     1     -13.432  -7.394  29.448  1.00  0.00     0.164 C 
BRANCH  38  39
HETATM   39  O4  UNL     1     -13.700  -7.010  28.123  1.00  0.00    -0.401 OA
ATOM     40  H4  UNL     1     -14.027  -6.119  28.146  1.00  0.00     0.209 HD
ENDBRANCH  38  39
ENDBRANCH  37  38
ENDBRANCH  36  37
ENDBRANCH  29  36
ENDBRANCH  21  24
ENDBRANCH   1  21
TORSDOF 13
ENDMDL
MODEL 5
REMARK VINA RESULT: -5.484322726      1.251      1.780
REMARK  13 active torsions:
REMARK  status: ('A' for Active; 'I' for Inactive)
REMARK    1  A    between atoms: C4_4  and  O1_5 
REMARK    2  A    between atoms: C6_8  and  C7_9 
REMARK    3  A    between atoms: C7_9  and  C8_10 
REMARK    4  A    between atoms: C7_9  and  N1_18 
REMARK    5  A    between atoms: C8_10  and  C9_11 
REMARK    6  A    between atoms: N1_18  and  C15_20 
REMARK    7  A    between atoms: C15_20  and  O2_21 
REMARK    8  A    between atoms: C15_20  and  C16_23 
REMARK    9  A    between atoms: C18_25  and  O3_26 
REMARK   10  A    between atoms: C21_30  and  C22_31 
REMARK   11  A    between atoms: C22_31  and  C23_32 
REMARK   12  A    between atoms: C23_32  and  C24_33 
REMARK   13  A    between atoms: C24_33  and  O4_34 
ROOT
HETATM    1  N1  UNL     1      -6.978 -12.627  26.767  1.00  0.00    -0.347 N 
ATOM      2  H1  UNL     1      -5.983 -12.844  26.820  1.00  0.00     0.167 HD
ENDROOT
BRANCH   1   3
HETATM    3  C7  UNL     1      -7.555 -13.267  25.835  1.00  0.00    -0.003 C 
BRANCH   3   4
HETATM    4  C6  UNL     1      -6.738 -13.900  24.734  1.00  0.00     0.038 C 
HETATM    5  C5  UNL     1      -6.314 -12.739  23.869  1.00  0.00     0.042 C 
HETATM    6  C4  UNL     1      -5.013 -12.920  23.163  1.00  0.00     0.122 C 
HETATM    7  C3  UNL     1      -3.963 -12.902  24.287  1.00  0.00     0.065 C 
HETATM    8  C2  UNL     1      -4.231 -14.107  25.069  1.00  0.00    -0.086 C 
HETATM    9  C1  UNL     1      -3.186 -14.802  25.549  1.00  0.00     0.014 C 
HETATM   10  C29 UNL     1      -5.594 -14.603  25.372  1.00  0.00     0.044 C 
BRANCH   6  11
HETATM   11  O1  UNL     1      -4.787 -11.796  22.390  1.00  0.00    -0.395 OA
ATOM     12  H1  UNL     1      -3.881 -11.546  22.530  1.00  0.00     0.210 HD
ENDBRANCH   6  11
ENDBRANCH   3   4
BRANCH   3  13
HETATM   13  C8  UNL     1      -9.010 -13.397  25.851  1.00  0.00     0.091 C 
BRANCH  13  14
HETATM   14  C9  UNL     1      -9.807 -12.481  25.047  1.00  0.00    -0.053 A 
HETATM   15  C10 UNL     1     -11.058 -12.911  24.625  1.00  0.00     0.010 A 
HETATM   16  C11 UNL     1     -11.899 -12.118  23.888  1.00  0.00     0.043 A 
HETATM   17  C12 UNL     1     -11.459 -10.853  23.570  1.00  0.00     0.116 A 
HETATM   18  F1  UNL     1     -12.316 -10.079  22.833  1.00  0.00    -0.206 F 
HETATM   19  C13 UNL     1     -10.231 -10.393  23.969  1.00  0.00     0.043 A 
HETATM   20  C14 UNL     1      -9.414 -11.208  24.704  1.00  0.00     0.010 A 
ENDBRANCH  13  14
ENDBRANCH   3  13
ENDBRANCH   1   3
BRANCH   1  21
HETATM   21  C15 UNL     1      -7.348 -11.740  27.697  1.00  0.00     0.120 C 
BRANCH  21  22
HETATM   22  O2  UNL     1      -6.074 -10.852  27.319  1.00  0.00    -0.349 OA
ATOM     23  H2  UNL     1      -5.827 -10.843  28.236  1.00  0.00     0.219 HD
ENDBRANCH  21  22
BRANCH  21  24
HETATM   24  C16 UNL     1      -7.735 -10.810  28.674  1.00  0.00     0.071 C 
HETATM   25  C17 UNL     1      -6.774 -10.819  29.888  1.00  0.00     0.045 C 
HETATM   26  C18 UNL     1      -7.112  -9.729  30.825  1.00  0.00     0.119 C 
HETATM   27  C19 UNL     1      -8.551  -9.737  31.285  1.00  0.00     0.037 C 
HETATM   28  C20 UNL     1      -9.416  -9.736  30.068  1.00  0.00     0.001 C 
HETATM   29  C21 UNL     1     -10.882  -9.930  30.382  1.00  0.00    -0.010 C 
HETATM   30  C27 UNL     1      -9.101 -10.991  29.283  1.00  0.00    -0.029 C 
HETATM   31  C25 UNL     1     -11.427 -10.816  29.284  1.00  0.00     0.006 C 
HETATM   32  C26 UNL     1     -10.247 -10.984  28.307  1.00  0.00     0.011 C 
HETATM   33  C28 UNL     1      -9.242 -12.233  30.119  1.00  0.00     0.016 C 
BRANCH  26  34
HETATM   34  O3  UNL     1      -6.815  -8.495  30.250  1.00  0.00    -0.396 OA
ATOM     35  H3  UNL     1      -5.922  -8.245  30.459  1.00  0.00     0.210 HD
ENDBRANCH  26  34
BRANCH  29  36
HETATM   36  C22 UNL     1     -11.558  -8.579  30.242  1.00  0.00     0.007 C 
BRANCH  36  37
HETATM   37  C23 UNL     1     -12.930  -8.711  29.616  1.00  0.00     0.026 C 
BRANCH  37  38
HETATM   38  C24 UNL     1     -13.500  -7.319  29.442  1.00  0.00     0.164 C 
BRANCH  38  39
HETATM   39  O4  UNL     1     -13.599  -7.075  28.063  1.00  0.00    -0.401 OA
ATOM     40  H4  UNL     1     -13.192  -6.233  27.893  1.00  0.00     0.209 HD
ENDBRANCH  38  39
ENDBRANCH  37  38
ENDBRANCH  36  37
ENDBRANCH  29  36
ENDBRANCH  21  24
ENDBRANCH   1  21
TORSDOF 13
ENDMDL
