MODEL 1
REMARK VINA RESULT: -6.321399930      0.000      0.000
REMARK  8 active torsions:
REMARK  status: ('A' for Active; 'I' for Inactive)
REMARK    1  A    between atoms: C2_2  and  C3_3 
REMARK    2  A    between atoms: C9_9  and  N1_10 
REMARK    3  A    between atoms: N1_10  and  C10_12 
REMARK    4  A    between atoms: C13_18  and  N3_19 
REMARK    5  A    between atoms: N3_19  and  C14_21 
REMARK    6  A    between atoms: C17_24  and  N4_25 
REMARK    7  A    between atoms: N4_25  and  C18_27 
REMARK    8  A    between atoms: C18_27  and  C19_28 
ROOT
HETATM    1  C10 UNL     1      -6.386 -13.008  24.009  1.00  0.00     0.684 A 
HETATM    2  N2  UNL     1      -6.061 -13.847  25.003  1.00  0.00    -0.200 N 
ATOM      3  H2  UNL     1      -5.096 -14.169  25.084  1.00  0.00     0.183 HD
HETATM    4  C11 UNL     1      -6.965 -14.275  25.895  1.00  0.00     0.133 A 
HETATM    5  C12 UNL     1      -8.269 -13.857  25.810  1.00  0.00     0.094 A 
HETATM    6 CL1  UNL     1      -9.497 -14.359  26.928  1.00  0.00    -0.079 Cl
HETATM    7  C13 UNL     1      -8.624 -12.976  24.777  1.00  0.00     0.140 A 
HETATM    8  N6  UNL     1      -7.660 -12.590  23.920  1.00  0.00    -0.175 N 
ATOM      9  H6  UNL     1      -7.909 -11.950  23.166  1.00  0.00     0.186 HD
ENDROOT
BRANCH   7  10
HETATM   10  N3  UNL     1      -9.837 -12.623  24.738  1.00  0.00    -0.369 N 
ATOM     11  H3  UNL     1     -10.460 -13.229  24.206  1.00  0.00     0.161 HD
BRANCH  10  12
HETATM   12  C14 UNL     1     -10.443 -11.489  25.341  1.00  0.00     0.087 C 
HETATM   13  C15 UNL     1     -10.500 -10.339  24.378  1.00  0.00     0.027 C 
HETATM   14  C16 UNL     1     -11.231 -10.757  23.143  1.00  0.00     0.027 C 
HETATM   15  C17 UNL     1     -12.665 -11.072  23.451  1.00  0.00     0.081 C 
HETATM   16  C25 UNL     1     -12.948 -11.428  24.892  1.00  0.00     0.031 C 
HETATM   17  C26 UNL     1     -11.856 -11.807  25.772  1.00  0.00     0.006 C 
HETATM   18  C27 UNL     1     -12.048 -11.034  27.095  1.00  0.00     0.012 C 
BRANCH  15  19
HETATM   19  N4  UNL     1     -13.470  -9.935  23.054  1.00  0.00    -0.394 N 
ATOM     20  H4  UNL     1     -13.030  -9.057  22.777  1.00  0.00     0.159 HD
BRANCH  19  21
HETATM   21  C18 UNL     1     -14.866 -10.067  23.059  1.00  0.00     0.091 C 
BRANCH  21  22
HETATM   22  C19 UNL     1     -15.650 -10.262  21.812  1.00  0.00    -0.033 C 
HETATM   23  C20 UNL     1     -16.802  -9.383  21.537  1.00  0.00     0.042 C 
HETATM   24  C21 UNL     1     -17.252  -9.690  20.098  1.00  0.00     0.019 C 
HETATM   25  C22 UNL     1     -17.838 -11.062  20.130  1.00  0.00     0.094 C 
HETATM   26  N5  UNL     1     -17.113 -12.040  20.854  1.00  0.00    -0.296 NA
HETATM   27  C23 UNL     1     -16.938 -13.199  19.960  1.00  0.00     0.116 C 
HETATM   28  C24 UNL     1     -15.862 -11.695  21.401  1.00  0.00     0.067 C 
ENDBRANCH  21  22
ENDBRANCH  19  21
ENDBRANCH  15  19
ENDBRANCH  10  12
ENDBRANCH   7  10
BRANCH   1  29
HETATM   29  N1  UNL     1      -5.496 -12.615  23.138  1.00  0.00    -0.191 N 
ATOM     30  H1  UNL     1      -5.028 -13.311  22.558  1.00  0.00     0.184 HD
BRANCH  29  31
HETATM   31  C9  UNL     1      -5.168 -11.257  22.980  1.00  0.00     0.061 A 
HETATM   32  C3  UNL     1      -5.585 -10.558  21.885  1.00  0.00    -0.031 A 
HETATM   33  C4  UNL     1      -5.266  -9.208  21.731  1.00  0.00     0.009 A 
HETATM   34  C5  UNL     1      -4.521  -8.590  22.710  1.00  0.00     0.001 A 
HETATM   35  C6  UNL     1      -4.076  -9.250  23.829  1.00  0.00     0.009 A 
HETATM   36  C7  UNL     1      -4.416 -10.608  23.950  1.00  0.00    -0.034 A 
HETATM   37  C8  UNL     1      -3.933 -11.299  25.156  1.00  0.00     0.050 C 
BRANCH  32  38
HETATM   38  C2  UNL     1      -6.371 -11.209  20.782  1.00  0.00     0.036 C 
HETATM   39  C1  UNL     1      -7.160 -10.126  20.031  1.00  0.00     0.010 C 
ENDBRANCH  32  38
ENDBRANCH  29  31
ENDBRANCH   1  29
TORSDOF 8
ENDMDL
MODEL 2
REMARK VINA RESULT: -6.258523835      4.216      6.322
REMARK  8 active torsions:
REMARK  status: ('A' for Active; 'I' for Inactive)
REMARK    1  A    between atoms: C2_2  and  C3_3 
REMARK    2  A    between atoms: C9_9  and  N1_10 
REMARK    3  A    between atoms: N1_10  and  C10_12 
REMARK    4  A    between atoms: C13_18  and  N3_19 
REMARK    5  A    between atoms: N3_19  and  C14_21 
REMARK    6  A    between atoms: C17_24  and  N4_25 
REMARK    7  A    between atoms: N4_25  and  C18_27 
REMARK    8  A    between atoms: C18_27  and  C19_28 
ROOT
HETATM    1  C10 UNL     1      -7.876 -11.682  23.903  1.00  0.00     0.684 A 
HETATM    2  N2  UNL     1      -8.664 -10.631  23.634  1.00  0.00    -0.200 N 
ATOM      3  H2  UNL     1      -8.303  -9.879  23.047  1.00  0.00     0.183 HD
HETATM    4  C11 UNL     1      -9.912 -10.539  24.113  1.00  0.00     0.133 A 
HETATM    5  C12 UNL     1     -10.423 -11.537  24.905  1.00  0.00     0.094 A 
HETATM    6 CL1  UNL     1     -12.030 -11.496  25.557  1.00  0.00    -0.079 Cl
HETATM    7  C13 UNL     1      -9.611 -12.644  25.192  1.00  0.00     0.140 A 
HETATM    8  N6  UNL     1      -8.368 -12.666  24.675  1.00  0.00    -0.175 N 
ATOM      9  H6  UNL     1      -7.771 -13.467  24.879  1.00  0.00     0.186 HD
ENDROOT
BRANCH   7  10
HETATM   10  N3  UNL     1     -10.124 -13.535  25.928  1.00  0.00    -0.369 N 
ATOM     11  H3  UNL     1     -10.624 -13.198  26.751  1.00  0.00     0.161 HD
BRANCH  10  12
HETATM   12  C14 UNL     1     -10.094 -14.944  25.756  1.00  0.00     0.087 C 
HETATM   13  C15 UNL     1     -11.122 -15.610  26.624  1.00  0.00     0.027 C 
HETATM   14  C16 UNL     1     -12.473 -15.052  26.316  1.00  0.00     0.027 C 
HETATM   15  C17 UNL     1     -12.883 -15.384  24.912  1.00  0.00     0.081 C 
HETATM   16  C25 UNL     1     -11.744 -15.696  23.969  1.00  0.00     0.031 C 
HETATM   17  C26 UNL     1     -10.387 -15.312  24.321  1.00  0.00     0.006 C 
HETATM   18  C27 UNL     1      -9.480 -16.527  24.030  1.00  0.00     0.012 C 
BRANCH  15  19
HETATM   19  N4  UNL     1     -13.803 -16.501  24.964  1.00  0.00    -0.394 N 
ATOM     20  H4  UNL     1     -14.802 -16.348  25.103  1.00  0.00     0.159 HD
BRANCH  19  21
HETATM   21  C18 UNL     1     -13.290 -17.799  24.820  1.00  0.00     0.091 C 
BRANCH  21  22
HETATM   22  C19 UNL     1     -12.674 -18.539  25.951  1.00  0.00    -0.033 C 
HETATM   23  C20 UNL     1     -11.378 -19.215  25.753  1.00  0.00     0.042 C 
HETATM   24  C21 UNL     1     -10.915 -19.689  27.142  1.00  0.00     0.019 C 
HETATM   25  C22 UNL     1     -11.844 -20.788  27.535  1.00  0.00     0.094 C 
HETATM   26  N5  UNL     1     -13.222 -20.562  27.304  1.00  0.00    -0.296 NA
HETATM   27  C23 UNL     1     -13.926 -20.841  28.569  1.00  0.00     0.116 C 
HETATM   28  C24 UNL     1     -13.636 -19.305  26.823  1.00  0.00     0.067 C 
ENDBRANCH  21  22
ENDBRANCH  19  21
ENDBRANCH  15  19
ENDBRANCH  10  12
ENDBRANCH   7  10
BRANCH   1  29
HETATM   29  N1  UNL     1      -6.656 -11.747  23.444  1.00  0.00    -0.191 N 
ATOM     30  H1  UNL     1      -6.239 -12.660  23.266  1.00  0.00     0.184 HD
BRANCH  29  31
HETATM   31  C9  UNL     1      -5.902 -10.587  23.187  1.00  0.00     0.061 A 
HETATM   32  C3  UNL     1      -5.720 -10.137  21.912  1.00  0.00    -0.031 A 
HETATM   33  C4  UNL     1      -4.979  -8.982  21.657  1.00  0.00     0.009 A 
HETATM   34  C5  UNL     1      -4.433  -8.300  22.721  1.00  0.00     0.001 A 
HETATM   35  C6  UNL     1      -4.585  -8.713  24.022  1.00  0.00     0.009 A 
HETATM   36  C7  UNL     1      -5.337  -9.880  24.240  1.00  0.00    -0.034 A 
HETATM   37  C8  UNL     1      -5.493 -10.306  25.640  1.00  0.00     0.050 C 
BRANCH  32  38
HETATM   38  C2  UNL     1      -6.274 -10.875  20.725  1.00  0.00     0.036 C 
HETATM   39  C1  UNL     1      -7.366 -10.014  20.073  1.00  0.00     0.010 C 
ENDBRANCH  32  38
ENDBRANCH  29  31
ENDBRANCH   1  29
TORSDOF 8
ENDMDL
MODEL 3
REMARK VINA RESULT: -6.127885207      1.771      2.882
REMARK  8 active torsions:
REMARK  status: ('A' for Active; 'I' for Inactive)
REMARK    1  A    between atoms: C2_2  and  C3_3 
REMARK    2  A    between atoms: C9_9  and  N1_10 
REMARK    3  A    between atoms: N1_10  and  C10_12 
REMARK    4  A    between atoms: C13_18  and  N3_19 
REMARK    5  A    between atoms: N3_19  and  C14_21 
REMARK    6  A    between atoms: C17_24  and  N4_25 
REMARK    7  A    between atoms: N4_25  and  C18_27 
REMARK    8  A    between atoms: C18_27  and  C19_28 
ROOT
HETATM    1  C10 UNL     1      -5.966 -11.300  25.546  1.00  0.00     0.684 A 
HETATM    2  N2  UNL     1      -5.671 -11.592  26.821  1.00  0.00    -0.200 N 
ATOM      3  H2  UNL     1      -4.693 -11.699  27.091  1.00  0.00     0.183 HD
HETATM    4  C11 UNL     1      -6.623 -11.747  27.751  1.00  0.00     0.133 A 
HETATM    5  C12 UNL     1      -7.946 -11.608  27.416  1.00  0.00     0.094 A 
HETATM    6 CL1  UNL     1      -9.235 -11.786  28.563  1.00  0.00    -0.079 Cl
HETATM    7  C13 UNL     1      -8.270 -11.299  26.086  1.00  0.00     0.140 A 
HETATM    8  N6  UNL     1      -7.259 -11.158  25.208  1.00  0.00    -0.175 N 
ATOM      9  H6  UNL     1      -7.485 -10.933  24.239  1.00  0.00     0.186 HD
ENDROOT
BRANCH   7  10
HETATM   10  N3  UNL     1      -9.502 -11.185  25.825  1.00  0.00    -0.369 N 
ATOM     11  H3  UNL     1     -10.082 -10.809  26.575  1.00  0.00     0.161 HD
BRANCH  10  12
HETATM   12  C14 UNL     1     -10.181 -11.513  24.622  1.00  0.00     0.087 C 
HETATM   13  C15 UNL     1     -11.144 -12.643  24.845  1.00  0.00     0.027 C 
HETATM   14  C16 UNL     1     -12.103 -12.276  25.930  1.00  0.00     0.027 C 
HETATM   15  C17 UNL     1     -12.960 -11.116  25.519  1.00  0.00     0.081 C 
HETATM   16  C25 UNL     1     -12.381 -10.247  24.426  1.00  0.00     0.031 C 
HETATM   17  C26 UNL     1     -10.964 -10.326  24.113  1.00  0.00     0.006 C 
HETATM   18  C27 UNL     1     -10.841 -10.401  22.576  1.00  0.00     0.012 C 
BRANCH  15  19
HETATM   19  N4  UNL     1     -14.250 -11.633  25.110  1.00  0.00    -0.394 N 
ATOM     20  H4  UNL     1     -15.008 -11.733  25.784  1.00  0.00     0.159 HD
BRANCH  19  21
HETATM   21  C18 UNL     1     -14.433 -11.993  23.766  1.00  0.00     0.091 C 
BRANCH  21  22
HETATM   22  C19 UNL     1     -15.466 -11.358  22.908  1.00  0.00    -0.033 C 
HETATM   23  C20 UNL     1     -15.273 -11.329  21.445  1.00  0.00     0.042 C 
HETATM   24  C21 UNL     1     -16.592 -10.815  20.842  1.00  0.00     0.019 C 
HETATM   25  C22 UNL     1     -16.690  -9.377  21.225  1.00  0.00     0.094 C 
HETATM   26  N5  UNL     1     -16.373  -9.060  22.569  1.00  0.00    -0.296 NA
HETATM   27  C23 UNL     1     -17.495  -8.266  23.103  1.00  0.00     0.116 C 
HETATM   28  C24 UNL     1     -16.089 -10.106  23.468  1.00  0.00     0.067 C 
ENDBRANCH  21  22
ENDBRANCH  19  21
ENDBRANCH  15  19
ENDBRANCH  10  12
ENDBRANCH   7  10
BRANCH   1  29
HETATM   29  N1  UNL     1      -5.028 -11.170  24.648  1.00  0.00    -0.191 N 
ATOM     30  H1  UNL     1      -4.063 -11.377  24.904  1.00  0.00     0.184 HD
BRANCH  29  31
HETATM   31  C9  UNL     1      -5.314 -10.752  23.336  1.00  0.00     0.061 A 
HETATM   32  C3  UNL     1      -5.248  -9.433  22.990  1.00  0.00    -0.031 A 
HETATM   33  C4  UNL     1      -5.525  -9.018  21.687  1.00  0.00     0.009 A 
HETATM   34  C5  UNL     1      -5.866  -9.968  20.750  1.00  0.00     0.001 A 
HETATM   35  C6  UNL     1      -5.949 -11.306  21.048  1.00  0.00     0.009 A 
HETATM   36  C7  UNL     1      -5.664 -11.687  22.371  1.00  0.00    -0.034 A 
HETATM   37  C8  UNL     1      -5.754 -13.124  22.672  1.00  0.00     0.050 C 
BRANCH  32  38
HETATM   38  C2  UNL     1      -4.911  -8.367  23.995  1.00  0.00     0.036 C 
HETATM   39  C1  UNL     1      -4.560  -7.074  23.244  1.00  0.00     0.010 C 
ENDBRANCH  32  38
ENDBRANCH  29  31
ENDBRANCH   1  29
TORSDOF 8
ENDMDL
MODEL 4
REMARK VINA RESULT: -6.109650070      3.670      9.923
REMARK  8 active torsions:
REMARK  status: ('A' for Active; 'I' for Inactive)
REMARK    1  A    between atoms: C2_2  and  C3_3 
REMARK    2  A    between atoms: C9_9  and  N1_10 
REMARK    3  A    between atoms: N1_10  and  C10_12 
REMARK    4  A    between atoms: C13_18  and  N3_19 
REMARK    5  A    between atoms: N3_19  and  C14_21 
REMARK    6  A    between atoms: C17_24  and  N4_25 
REMARK    7  A    between atoms: N4_25  and  C18_27 
REMARK    8  A    between atoms: C18_27  and  C19_28 
ROOT
HETATM    1  C10 UNL     1     -15.132 -12.220  21.571  1.00  0.00     0.684 A 
HETATM    2  N2  UNL     1     -16.042 -13.037  22.122  1.00  0.00    -0.200 N 
ATOM      3  H2  UNL     1     -16.941 -13.162  21.657  1.00  0.00     0.183 HD
HETATM    4  C11 UNL     1     -15.804 -13.696  23.264  1.00  0.00     0.133 A 
HETATM    5  C12 UNL     1     -14.603 -13.547  23.910  1.00  0.00     0.094 A 
HETATM    6 CL1  UNL     1     -14.216 -14.370  25.387  1.00  0.00    -0.079 Cl
HETATM    7  C13 UNL     1     -13.640 -12.698  23.344  1.00  0.00     0.140 A 
HETATM    8  N6  UNL     1     -13.951 -12.070  22.195  1.00  0.00    -0.175 N 
ATOM      9  H6  UNL     1     -13.257 -11.451  21.776  1.00  0.00     0.186 HD
ENDROOT
BRANCH   7  10
HETATM   10  N3  UNL     1     -12.551 -12.591  23.977  1.00  0.00    -0.369 N 
ATOM     11  H3  UNL     1     -12.149 -13.463  24.321  1.00  0.00     0.161 HD
BRANCH  10  12
HETATM   12  C14 UNL     1     -11.816 -11.413  24.271  1.00  0.00     0.087 C 
HETATM   13  C15 UNL     1     -12.612 -10.493  25.151  1.00  0.00     0.027 C 
HETATM   14  C16 UNL     1     -13.009 -11.213  26.398  1.00  0.00     0.027 C 
HETATM   15  C17 UNL     1     -11.803 -11.577  27.214  1.00  0.00     0.081 C 
HETATM   16  C25 UNL     1     -10.507 -11.654  26.442  1.00  0.00     0.031 C 
HETATM   17  C26 UNL     1     -10.532 -11.752  24.992  1.00  0.00     0.006 C 
HETATM   18  C27 UNL     1      -9.496 -10.744  24.449  1.00  0.00     0.012 C 
BRANCH  15  19
HETATM   19  N4  UNL     1     -11.683 -10.616  28.291  1.00  0.00    -0.394 N 
ATOM     20  H4  UNL     1     -11.951  -9.642  28.152  1.00  0.00     0.159 HD
BRANCH  19  21
HETATM   21  C18 UNL     1     -11.190 -11.055  29.529  1.00  0.00     0.091 C 
BRANCH  21  22
HETATM   22  C19 UNL     1      -9.963 -10.483  30.142  1.00  0.00    -0.033 C 
HETATM   23  C20 UNL     1      -9.824  -9.019  30.251  1.00  0.00     0.042 C 
HETATM   24  C21 UNL     1      -8.575  -8.762  31.112  1.00  0.00     0.019 C 
HETATM   25  C22 UNL     1      -7.407  -9.179  30.283  1.00  0.00     0.094 C 
HETATM   26  N5  UNL     1      -7.532 -10.408  29.592  1.00  0.00    -0.296 NA
HETATM   27  C23 UNL     1      -6.339 -11.211  29.917  1.00  0.00     0.116 C 
HETATM   28  C24 UNL     1      -8.680 -11.196  29.802  1.00  0.00     0.067 C 
ENDBRANCH  21  22
ENDBRANCH  19  21
ENDBRANCH  15  19
ENDBRANCH  10  12
ENDBRANCH   7  10
BRANCH   1  29
HETATM   29  N1  UNL     1     -15.387 -11.571  20.468  1.00  0.00    -0.191 N 
ATOM     30  H1  UNL     1     -14.659 -11.493  19.758  1.00  0.00     0.184 HD
BRANCH  29  31
HETATM   31  C9  UNL     1     -16.641 -10.978  20.233  1.00  0.00     0.061 A 
HETATM   32  C3  UNL     1     -16.987  -9.807  20.843  1.00  0.00    -0.031 A 
HETATM   33  C4  UNL     1     -18.228  -9.213  20.606  1.00  0.00     0.009 A 
HETATM   34  C5  UNL     1     -19.100  -9.833  19.739  1.00  0.00     0.001 A 
HETATM   35  C6  UNL     1     -18.800 -11.012  19.103  1.00  0.00     0.009 A 
HETATM   36  C7  UNL     1     -17.543 -11.581  19.367  1.00  0.00    -0.034 A 
HETATM   37  C8  UNL     1     -17.236 -12.843  18.675  1.00  0.00     0.050 C 
BRANCH  32  38
HETATM   38  C2  UNL     1     -16.072  -9.122  21.819  1.00  0.00     0.036 C 
HETATM   39  C1  UNL     1     -16.617  -9.332  23.239  1.00  0.00     0.010 C 
ENDBRANCH  32  38
ENDBRANCH  29  31
ENDBRANCH   1  29
TORSDOF 8
ENDMDL
MODEL 5
REMARK VINA RESULT: -6.092332199      2.908      7.992
REMARK  8 active torsions:
REMARK  status: ('A' for Active; 'I' for Inactive)
REMARK    1  A    between atoms: C2_2  and  C3_3 
REMARK    2  A    between atoms: C9_9  and  N1_10 
REMARK    3  A    between atoms: N1_10  and  C10_12 
REMARK    4  A    between atoms: C13_18  and  N3_19 
REMARK    5  A    between atoms: N3_19  and  C14_21 
REMARK    6  A    between atoms: C17_24  and  N4_25 
REMARK    7  A    between atoms: N4_25  and  C18_27 
REMARK    8  A    between atoms: C18_27  and  C19_28 
ROOT
HETATM    1  C10 UNL     1     -13.394 -13.667  25.276  1.00  0.00     0.684 A 
HETATM    2  N2  UNL     1     -14.511 -14.281  25.696  1.00  0.00    -0.200 N 
ATOM      3  H2  UNL     1     -15.226 -13.733  26.174  1.00  0.00     0.183 HD
HETATM    4  C11 UNL     1     -14.714 -15.591  25.505  1.00  0.00     0.133 A 
HETATM    5  C12 UNL     1     -13.769 -16.351  24.865  1.00  0.00     0.094 A 
HETATM    6 CL1  UNL     1     -13.961 -18.050  24.573  1.00  0.00    -0.079 Cl
HETATM    7  C13 UNL     1     -12.597 -15.723  24.417  1.00  0.00     0.140 A 
HETATM    8  N6  UNL     1     -12.463 -14.402  24.644  1.00  0.00    -0.175 N 
ATOM      9  H6  UNL     1     -11.615 -13.938  24.322  1.00  0.00     0.186 HD
ENDROOT
BRANCH   7  10
HETATM   10  N3  UNL     1     -11.754 -16.465  23.835  1.00  0.00    -0.369 N 
ATOM     11  H3  UNL     1     -11.893 -16.594  22.833  1.00  0.00     0.161 HD
BRANCH  10  12
HETATM   12  C14 UNL     1     -10.641 -17.141  24.399  1.00  0.00     0.087 C 
HETATM   13  C15 UNL     1      -9.384 -16.821  23.643  1.00  0.00     0.027 C 
HETATM   14  C16 UNL     1      -9.173 -15.341  23.628  1.00  0.00     0.027 C 
HETATM   15  C17 UNL     1      -8.932 -14.820  25.014  1.00  0.00     0.081 C 
HETATM   16  C25 UNL     1      -9.456 -15.696  26.128  1.00  0.00     0.031 C 
HETATM   17  C26 UNL     1     -10.438 -16.728  25.837  1.00  0.00     0.006 C 
HETATM   18  C27 UNL     1      -9.976 -18.013  26.557  1.00  0.00     0.012 C 
BRANCH  15  19
HETATM   19  N4  UNL     1      -7.507 -14.614  25.174  1.00  0.00    -0.394 N 
ATOM     20  H4  UNL     1      -6.839 -15.309  24.840  1.00  0.00     0.159 HD
BRANCH  19  21
HETATM   21  C18 UNL     1      -7.066 -13.438  25.799  1.00  0.00     0.091 C 
BRANCH  21  22
HETATM   22  C19 UNL     1      -6.311 -12.387  25.069  1.00  0.00    -0.033 C 
HETATM   23  C20 UNL     1      -6.236 -11.026  25.633  1.00  0.00     0.042 C 
HETATM   24  C21 UNL     1      -5.222 -10.252  24.774  1.00  0.00     0.019 C 
HETATM   25  C22 UNL     1      -5.867 -10.060  23.443  1.00  0.00     0.094 C 
HETATM   26  N5  UNL     1      -6.524 -11.188  22.892  1.00  0.00    -0.296 NA
HETATM   27  C23 UNL     1      -6.008 -11.364  21.522  1.00  0.00     0.116 C 
HETATM   28  C24 UNL     1      -6.445 -12.421  23.569  1.00  0.00     0.067 C 
ENDBRANCH  21  22
ENDBRANCH  19  21
ENDBRANCH  15  19
ENDBRANCH  10  12
ENDBRANCH   7  10
BRANCH   1  29
HETATM   29  N1  UNL     1     -13.204 -12.393  25.486  1.00  0.00    -0.191 N 
ATOM     30  H1  UNL     1     -13.900 -11.867  26.012  1.00  0.00     0.184 HD
BRANCH  29  31
HETATM   31  C9  UNL     1     -12.061 -11.729  25.004  1.00  0.00     0.061 A 
HETATM   32  C3  UNL     1     -10.912 -11.687  25.740  1.00  0.00    -0.031 A 
HETATM   33  C4  UNL     1      -9.775 -11.035  25.261  1.00  0.00     0.009 A 
HETATM   34  C5  UNL     1      -9.833 -10.433  24.023  1.00  0.00     0.001 A 
HETATM   35  C6  UNL     1     -10.965 -10.446  23.246  1.00  0.00     0.009 A 
HETATM   36  C7  UNL     1     -12.090 -11.111  23.762  1.00  0.00    -0.034 A 
HETATM   37  C8  UNL     1     -13.293 -11.117  22.914  1.00  0.00     0.050 C 
BRANCH  32  38
HETATM   38  C2  UNL     1     -10.825 -12.305  27.108  1.00  0.00     0.036 C 
HETATM   39  C1  UNL     1      -9.656 -11.662  27.868  1.00  0.00     0.010 C 
ENDBRANCH  32  38
ENDBRANCH  29  31
ENDBRANCH   1  29
TORSDOF 8
ENDMDL
