MODEL 1
REMARK VINA RESULT: -6.188090799      0.000      0.000
REMARK  7 active torsions:
REMARK  status: ('A' for Active; 'I' for Inactive)
REMARK    1  A    between atoms: C4_4  and  C5_5 
REMARK    2  A    between atoms: C5_5  and  N1_6 
REMARK    3  A    between atoms: N2_9  and  C8_10 
REMARK    4  A    between atoms: C11_13  and  C12_14 
REMARK    5  A    between atoms: C12_14  and  C13_15 
REMARK    6  A    between atoms: C13_15  and  N3_16 
REMARK    7  A    between atoms: N3_16  and  C14_18 
ROOT
HETATM    1  C8  UNL     1     -12.241 -11.695  24.066  1.00  0.00     0.223 C 
HETATM    2  C9  UNL     1     -11.637 -12.180  25.332  1.00  0.00     0.036 C 
HETATM    3  C10 UNL     1     -10.266 -11.742  25.674  1.00  0.00     0.007 C 
HETATM    4  C11 UNL     1      -9.578 -10.777  24.811  1.00  0.00    -0.013 C 
HETATM    5  C21 UNL     1     -10.253 -10.482  23.484  1.00  0.00     0.007 C 
HETATM    6  C22 UNL     1     -11.729 -10.271  23.837  1.00  0.00     0.036 C 
ENDROOT
BRANCH   1   7
HETATM    7  N2  UNL     1     -13.681 -11.729  24.059  1.00  0.00     0.096 N 
HETATM    8  C7  UNL     1     -14.127 -10.991  22.876  1.00  0.00     0.303 C 
HETATM    9  C6  UNL     1     -14.208 -11.991  21.769  1.00  0.00     0.302 C 
HETATM   10  N1  UNL     1     -15.455 -12.749  21.906  1.00  0.00     0.092 N 
HETATM   11  C24 UNL     1     -15.530 -13.145  23.293  1.00  0.00     0.302 C 
HETATM   12  C23 UNL     1     -14.204 -13.077  24.030  1.00  0.00     0.303 C 
BRANCH  10  13
HETATM   13  C5  UNL     1     -16.572 -11.993  21.463  1.00  0.00     0.279 C 
BRANCH  13  14
HETATM   14  C4  UNL     1     -16.779 -11.754  20.029  1.00  0.00     0.051 C 
HETATM   15  C3  UNL     1     -16.855 -12.879  19.068  1.00  0.00     0.041 C 
HETATM   16  C2  UNL     1     -18.364 -13.124  18.957  1.00  0.00     0.183 C 
HETATM   17  C1  UNL     1     -18.668 -13.989  17.767  1.00  0.00     0.040 C 
HETATM   18  N6  UNL     1     -18.811 -11.754  18.764  1.00  0.00    -0.063 N 
HETATM   19  C25 UNL     1     -18.093 -11.015  19.810  1.00  0.00     0.124 C 
ATOM     20  H62 UNL     1     -18.675 -11.392  17.820  1.00  0.00     0.278 HD
ATOM     21  H61 UNL     1     -19.823 -11.633  18.778  1.00  0.00     0.278 HD
HETATM   22  C26 UNL     1     -18.990 -11.044  21.021  1.00  0.00     0.046 C 
HETATM   23  C27 UNL     1     -17.838  -9.580  19.418  1.00  0.00     0.046 C 
ENDBRANCH  13  14
ENDBRANCH  10  13
ENDBRANCH   1   7
BRANCH   4  24
HETATM   24  C12 UNL     1      -8.117 -11.027  24.617  1.00  0.00     0.025 C 
BRANCH  24  25
HETATM   25  C13 UNL     1      -7.492 -12.028  25.524  1.00  0.00     0.138 C 
BRANCH  25  26
HETATM   26  N3  UNL     1      -7.132 -13.284  24.960  1.00  0.00    -0.226 N 
ATOM     27  H3  UNL     1      -6.239 -13.356  24.471  1.00  0.00     0.177 HD
BRANCH  26  28
HETATM   28  C14 UNL     1      -7.870 -14.332  25.032  1.00  0.00     0.679 A 
HETATM   29  N4  UNL     1      -8.886 -14.600  24.215  1.00  0.00    -0.190 N 
HETATM   30  C15 UNL     1      -9.478 -15.749  24.540  1.00  0.00     0.076 A 
ATOM     31  H4  UNL     1      -9.174 -14.003  23.439  1.00  0.00     0.184 HD
HETATM   32  C16 UNL     1     -10.560 -16.420  23.985  1.00  0.00     0.034 A 
HETATM   33  C20 UNL     1      -8.794 -16.247  25.636  1.00  0.00     0.078 A 
HETATM   34  C17 UNL     1     -10.957 -17.615  24.549  1.00  0.00     0.026 A 
HETATM   35  C18 UNL     1     -10.300 -18.135  25.635  1.00  0.00     0.036 A 
HETATM   36 CL1  UNL     1     -10.863 -19.660  26.310  1.00  0.00    -0.084 Cl
HETATM   37  C19 UNL     1      -9.221 -17.450  26.176  1.00  0.00     0.056 A 
HETATM   38  N5  UNL     1      -7.817 -15.362  25.915  1.00  0.00    -0.190 N 
ATOM     39  H5  UNL     1      -7.142 -15.452  26.674  1.00  0.00     0.184 HD
ENDBRANCH  26  28
ENDBRANCH  25  26
ENDBRANCH  24  25
ENDBRANCH   4  24
TORSDOF 7
ENDMDL
MODEL 2
REMARK VINA RESULT: -6.135469409      0.483      1.084
REMARK  7 active torsions:
REMARK  status: ('A' for Active; 'I' for Inactive)
REMARK    1  A    between atoms: C4_4  and  C5_5 
REMARK    2  A    between atoms: C5_5  and  N1_6 
REMARK    3  A    between atoms: N2_9  and  C8_10 
REMARK    4  A    between atoms: C11_13  and  C12_14 
REMARK    5  A    between atoms: C12_14  and  C13_15 
REMARK    6  A    between atoms: C13_15  and  N3_16 
REMARK    7  A    between atoms: N3_16  and  C14_18 
ROOT
HETATM    1  C8  UNL     1     -12.229 -11.661  24.060  1.00  0.00     0.223 C 
HETATM    2  C9  UNL     1     -11.626 -12.102  25.342  1.00  0.00     0.036 C 
HETATM    3  C10 UNL     1     -10.254 -11.654  25.668  1.00  0.00     0.007 C 
HETATM    4  C11 UNL     1      -9.564 -10.721  24.770  1.00  0.00    -0.013 C 
HETATM    5  C21 UNL     1     -10.240 -10.472  23.434  1.00  0.00     0.007 C 
HETATM    6  C22 UNL     1     -11.716 -10.246  23.780  1.00  0.00     0.036 C 
ENDROOT
BRANCH   1   7
HETATM    7  N2  UNL     1     -13.669 -11.692  24.054  1.00  0.00     0.096 N 
HETATM    8  C7  UNL     1     -14.116 -10.959  22.869  1.00  0.00     0.303 C 
HETATM    9  C6  UNL     1     -14.200 -11.964  21.767  1.00  0.00     0.302 C 
HETATM   10  N1  UNL     1     -15.448 -12.720  21.909  1.00  0.00     0.092 N 
HETATM   11  C24 UNL     1     -15.522 -13.109  23.297  1.00  0.00     0.302 C 
HETATM   12  C23 UNL     1     -14.195 -13.040  24.033  1.00  0.00     0.303 C 
BRANCH  10  13
HETATM   13  C5  UNL     1     -16.565 -11.964  21.464  1.00  0.00     0.279 C 
BRANCH  13  14
HETATM   14  C4  UNL     1     -16.770 -11.728  20.029  1.00  0.00     0.051 C 
HETATM   15  C3  UNL     1     -16.843 -12.855  19.070  1.00  0.00     0.041 C 
HETATM   16  C2  UNL     1     -18.352 -13.103  18.958  1.00  0.00     0.183 C 
HETATM   17  C1  UNL     1     -18.653 -13.970  17.769  1.00  0.00     0.040 C 
HETATM   18  N6  UNL     1     -18.801 -11.734  18.762  1.00  0.00    -0.063 N 
HETATM   19  C25 UNL     1     -18.085 -10.991  19.807  1.00  0.00     0.124 C 
ATOM     20  H62 UNL     1     -18.665 -11.373  17.818  1.00  0.00     0.278 HD
ATOM     21  H61 UNL     1     -19.814 -11.614  18.775  1.00  0.00     0.278 HD
HETATM   22  C26 UNL     1     -18.984 -11.020  21.018  1.00  0.00     0.046 C 
HETATM   23  C27 UNL     1     -17.833  -9.557  19.414  1.00  0.00     0.046 C 
ENDBRANCH  13  14
ENDBRANCH  10  13
ENDBRANCH   1   7
BRANCH   4  24
HETATM   24  C12 UNL     1      -8.104 -10.980  24.585  1.00  0.00     0.025 C 
BRANCH  24  25
HETATM   25  C13 UNL     1      -7.492 -11.991  25.490  1.00  0.00     0.138 C 
BRANCH  25  26
HETATM   26  N3  UNL     1      -7.163 -13.256  24.927  1.00  0.00    -0.226 N 
ATOM     27  H3  UNL     1      -6.249 -13.365  24.486  1.00  0.00     0.177 HD
BRANCH  26  28
HETATM   28  C14 UNL     1      -7.954 -14.268  24.942  1.00  0.00     0.679 A 
HETATM   29  N4  UNL     1      -7.856 -15.291  25.787  1.00  0.00    -0.190 N 
HETATM   30  C15 UNL     1      -8.804 -16.199  25.556  1.00  0.00     0.076 A 
ATOM     31  H4  UNL     1      -7.148 -15.370  26.516  1.00  0.00     0.184 HD
HETATM   32  C16 UNL     1      -9.091 -17.411  26.171  1.00  0.00     0.034 A 
HETATM   33  C20 UNL     1      -9.556 -15.723  24.496  1.00  0.00     0.078 A 
HETATM   34  C17 UNL     1     -10.156 -18.154  25.704  1.00  0.00     0.026 A 
HETATM   35  C18 UNL     1     -10.920 -17.709  24.655  1.00  0.00     0.036 A 
HETATM   36 CL1  UNL     1     -12.259 -18.709  24.105  1.00  0.00    -0.084 Cl
HETATM   37  C19 UNL     1     -10.619 -16.495  24.053  1.00  0.00     0.056 A 
HETATM   38  N5  UNL     1      -9.014 -14.541  24.140  1.00  0.00    -0.190 N 
ATOM     39  H5  UNL     1      -9.350 -13.944  23.385  1.00  0.00     0.184 HD
ENDBRANCH  26  28
ENDBRANCH  25  26
ENDBRANCH  24  25
ENDBRANCH   4  24
TORSDOF 7
ENDMDL
MODEL 3
REMARK VINA RESULT: -6.109385961      3.412      5.113
REMARK  7 active torsions:
REMARK  status: ('A' for Active; 'I' for Inactive)
REMARK    1  A    between atoms: C4_4  and  C5_5 
REMARK    2  A    between atoms: C5_5  and  N1_6 
REMARK    3  A    between atoms: N2_9  and  C8_10 
REMARK    4  A    between atoms: C11_13  and  C12_14 
REMARK    5  A    between atoms: C12_14  and  C13_15 
REMARK    6  A    between atoms: C13_15  and  N3_16 
REMARK    7  A    between atoms: N3_16  and  C14_18 
ROOT
HETATM    1  C8  UNL     1     -12.333 -11.226  23.869  1.00  0.00     0.223 C 
HETATM    2  C9  UNL     1     -11.147 -10.338  23.783  1.00  0.00     0.036 C 
HETATM    3  C10 UNL     1      -9.906 -10.747  24.477  1.00  0.00     0.007 C 
HETATM    4  C11 UNL     1      -9.849 -12.050  25.149  1.00  0.00    -0.013 C 
HETATM    5  C21 UNL     1     -11.171 -12.782  25.280  1.00  0.00     0.007 C 
HETATM    6  C22 UNL     1     -11.818 -12.667  23.895  1.00  0.00     0.036 C 
ENDROOT
BRANCH   1   7
HETATM    7  N2  UNL     1     -13.277 -11.040  22.797  1.00  0.00     0.096 N 
HETATM    8  C7  UNL     1     -14.220 -12.159  22.848  1.00  0.00     0.303 C 
HETATM    9  C6  UNL     1     -15.328 -11.725  23.752  1.00  0.00     0.302 C 
HETATM   10  N1  UNL     1     -16.233 -10.848  23.003  1.00  0.00     0.092 N 
HETATM   11  C24 UNL     1     -15.391  -9.892  22.324  1.00  0.00     0.302 C 
HETATM   12  C23 UNL     1     -13.988  -9.785  22.895  1.00  0.00     0.303 C 
BRANCH  10  13
HETATM   13  C5  UNL     1     -17.075 -11.592  22.135  1.00  0.00     0.279 C 
BRANCH  13  14
HETATM   14  C4  UNL     1     -16.897 -11.501  20.679  1.00  0.00     0.051 C 
HETATM   15  C3  UNL     1     -16.608 -12.705  19.866  1.00  0.00     0.041 C 
HETATM   16  C2  UNL     1     -18.001 -13.127  19.386  1.00  0.00     0.183 C 
HETATM   17  C1  UNL     1     -17.890 -14.118  18.263  1.00  0.00     0.040 C 
HETATM   18  N6  UNL     1     -18.493 -11.837  18.928  1.00  0.00    -0.063 N 
HETATM   19  C25 UNL     1     -18.158 -10.936  20.037  1.00  0.00     0.124 C 
ATOM     20  H62 UNL     1     -18.134 -11.544  18.020  1.00  0.00     0.278 HD
ATOM     21  H61 UNL     1     -19.477 -11.831  18.659  1.00  0.00     0.278 HD
HETATM   22  C26 UNL     1     -19.348 -10.963  20.962  1.00  0.00     0.046 C 
HETATM   23  C27 UNL     1     -17.928  -9.520  19.569  1.00  0.00     0.046 C 
ENDBRANCH  13  14
ENDBRANCH  10  13
ENDBRANCH   1   7
BRANCH   4  24
HETATM   24  C12 UNL     1      -9.106 -12.062  26.446  1.00  0.00     0.025 C 
BRANCH  24  25
HETATM   25  C13 UNL     1      -7.844 -12.851  26.478  1.00  0.00     0.138 C 
BRANCH  25  26
HETATM   26  N3  UNL     1      -7.063 -12.879  25.288  1.00  0.00    -0.226 N 
ATOM     27  H3  UNL     1      -6.888 -13.782  24.847  1.00  0.00     0.177 HD
BRANCH  26  28
HETATM   28  C14 UNL     1      -6.568 -11.829  24.740  1.00  0.00     0.679 A 
HETATM   29  N4  UNL     1      -6.311 -11.704  23.440  1.00  0.00    -0.190 N 
HETATM   30  C15 UNL     1      -5.786 -10.510  23.164  1.00  0.00     0.076 A 
ATOM     31  H4  UNL     1      -6.493 -12.428  22.745  1.00  0.00     0.184 HD
HETATM   32  C16 UNL     1      -5.363  -9.941  21.970  1.00  0.00     0.034 A 
HETATM   33  C20 UNL     1      -5.702  -9.830  24.366  1.00  0.00     0.078 A 
HETATM   34  C17 UNL     1      -4.849  -8.661  21.993  1.00  0.00     0.026 A 
HETATM   35  C18 UNL     1      -4.753  -7.961  23.168  1.00  0.00     0.036 A 
HETATM   36 CL1  UNL     1      -4.080  -6.335  23.128  1.00  0.00    -0.084 Cl
HETATM   37  C19 UNL     1      -5.180  -8.545  24.352  1.00  0.00     0.056 A 
HETATM   38  N5  UNL     1      -6.187 -10.658  25.313  1.00  0.00    -0.190 N 
ATOM     39  H5  UNL     1      -6.257 -10.439  26.306  1.00  0.00     0.184 HD
ENDBRANCH  26  28
ENDBRANCH  25  26
ENDBRANCH  24  25
ENDBRANCH   4  24
TORSDOF 7
ENDMDL
MODEL 4
REMARK VINA RESULT: -5.937067531      4.278     11.459
REMARK  7 active torsions:
REMARK  status: ('A' for Active; 'I' for Inactive)
REMARK    1  A    between atoms: C4_4  and  C5_5 
REMARK    2  A    between atoms: C5_5  and  N1_6 
REMARK    3  A    between atoms: N2_9  and  C8_10 
REMARK    4  A    between atoms: C11_13  and  C12_14 
REMARK    5  A    between atoms: C12_14  and  C13_15 
REMARK    6  A    between atoms: C13_15  and  N3_16 
REMARK    7  A    between atoms: N3_16  and  C14_18 
ROOT
HETATM    1  C8  UNL     1      -8.130 -12.134  24.826  1.00  0.00     0.223 C 
HETATM    2  C9  UNL     1      -8.411 -10.803  24.233  1.00  0.00     0.036 C 
HETATM    3  C10 UNL     1      -9.821 -10.395  24.049  1.00  0.00     0.007 C 
HETATM    4  C11 UNL     1     -10.896 -11.266  24.537  1.00  0.00    -0.013 C 
HETATM    5  C21 UNL     1     -10.469 -12.651  24.988  1.00  0.00     0.007 C 
HETATM    6  C22 UNL     1      -9.228 -12.412  25.856  1.00  0.00     0.036 C 
ENDROOT
BRANCH   1   7
HETATM    7  N2  UNL     1      -6.826 -12.237  25.430  1.00  0.00     0.096 N 
HETATM    8  C7  UNL     1      -6.292 -13.557  25.089  1.00  0.00     0.303 C 
HETATM    9  C6  UNL     1      -5.559 -13.387  23.798  1.00  0.00     0.302 C 
HETATM   10  N1  UNL     1      -4.244 -12.800  24.074  1.00  0.00     0.092 N 
HETATM   11  C24 UNL     1      -4.482 -11.687  24.962  1.00  0.00     0.302 C 
HETATM   12  C23 UNL     1      -5.922 -11.203  24.977  1.00  0.00     0.303 C 
BRANCH  10  13
HETATM   13  C5  UNL     1      -3.344 -13.768  24.593  1.00  0.00     0.279 C 
BRANCH  13  14
HETATM   14  C4  UNL     1      -2.944 -14.918  23.772  1.00  0.00     0.051 C 
HETATM   15  C3  UNL     1      -2.395 -14.733  22.409  1.00  0.00     0.041 C 
HETATM   16  C2  UNL     1      -0.882 -14.739  22.653  1.00  0.00     0.183 C 
HETATM   17  C1  UNL     1      -0.143 -14.917  21.357  1.00  0.00     0.040 C 
HETATM   18  N6  UNL     1      -0.786 -15.917  23.501  1.00  0.00    -0.063 N 
HETATM   19  C25 UNL     1      -1.856 -15.711  24.485  1.00  0.00     0.124 C 
ATOM     20  H62 UNL     1      -0.834 -16.804  23.002  1.00  0.00     0.278 HD
ATOM     21  H61 UNL     1       0.138 -16.073  23.905  1.00  0.00     0.278 HD
HETATM   22  C26 UNL     1      -1.226 -14.949  25.623  1.00  0.00     0.046 C 
HETATM   23  C27 UNL     1      -2.404 -17.016  25.009  1.00  0.00     0.046 C 
ENDBRANCH  13  14
ENDBRANCH  10  13
ENDBRANCH   1   7
BRANCH   4  24
HETATM   24  C12 UNL     1     -12.100 -11.345  23.654  1.00  0.00     0.025 C 
BRANCH  24  25
HETATM   25  C13 UNL     1     -12.774 -10.056  23.339  1.00  0.00     0.138 C 
BRANCH  25  26
HETATM   26  N3  UNL     1     -14.192 -10.020  23.440  1.00  0.00    -0.226 N 
ATOM     27  H3  UNL     1     -14.606  -9.728  24.326  1.00  0.00     0.177 HD
BRANCH  26  28
HETATM   28  C14 UNL     1     -14.981 -10.336  22.477  1.00  0.00     0.679 A 
HETATM   29  N4  UNL     1     -15.882  -9.518  21.939  1.00  0.00    -0.190 N 
HETATM   30  C15 UNL     1     -16.567 -10.125  20.969  1.00  0.00     0.076 A 
ATOM     31  H4  UNL     1     -16.030  -8.552  22.231  1.00  0.00     0.184 HD
HETATM   32  C16 UNL     1     -17.589  -9.679  20.142  1.00  0.00     0.034 A 
HETATM   33  C20 UNL     1     -16.068 -11.413  20.883  1.00  0.00     0.078 A 
HETATM   34  C17 UNL     1     -18.116 -10.551  19.213  1.00  0.00     0.026 A 
HETATM   35  C18 UNL     1     -17.644 -11.834  19.103  1.00  0.00     0.036 A 
HETATM   36 CL1  UNL     1     -18.366 -12.898  17.901  1.00  0.00    -0.084 Cl
HETATM   37  C19 UNL     1     -16.622 -12.263  19.937  1.00  0.00     0.056 A 
HETATM   38  N5  UNL     1     -15.100 -11.515  21.816  1.00  0.00    -0.190 N 
ATOM     39  H5  UNL     1     -14.544 -12.350  21.996  1.00  0.00     0.184 HD
ENDBRANCH  26  28
ENDBRANCH  25  26
ENDBRANCH  24  25
ENDBRANCH   4  24
TORSDOF 7
ENDMDL
MODEL 5
REMARK VINA RESULT: -5.918480549      1.268      2.152
REMARK  7 active torsions:
REMARK  status: ('A' for Active; 'I' for Inactive)
REMARK    1  A    between atoms: C4_4  and  C5_5 
REMARK    2  A    between atoms: C5_5  and  N1_6 
REMARK    3  A    between atoms: N2_9  and  C8_10 
REMARK    4  A    between atoms: C11_13  and  C12_14 
REMARK    5  A    between atoms: C12_14  and  C13_15 
REMARK    6  A    between atoms: C13_15  and  N3_16 
REMARK    7  A    between atoms: N3_16  and  C14_18 
ROOT
HETATM    1  C8  UNL     1     -12.106 -11.574  24.423  1.00  0.00     0.223 C 
HETATM    2  C9  UNL     1     -11.986 -11.974  25.846  1.00  0.00     0.036 C 
HETATM    3  C10 UNL     1     -10.672 -11.834  26.511  1.00  0.00     0.007 C 
HETATM    4  C11 UNL     1      -9.554 -11.224  25.783  1.00  0.00    -0.013 C 
HETATM    5  C21 UNL     1      -9.779 -10.997  24.300  1.00  0.00     0.007 C 
HETATM    6  C22 UNL     1     -11.178 -10.376  24.209  1.00  0.00     0.036 C 
ENDROOT
BRANCH   1   7
HETATM    7  N2  UNL     1     -13.452 -11.255  24.020  1.00  0.00     0.096 N 
HETATM    8  C7  UNL     1     -13.395 -10.799  22.630  1.00  0.00     0.303 C 
HETATM    9  C6  UNL     1     -13.549 -12.022  21.786  1.00  0.00     0.302 C 
HETATM   10  N1  UNL     1     -14.970 -12.381  21.728  1.00  0.00     0.092 N 
HETATM   11  C24 UNL     1     -15.448 -12.335  23.090  1.00  0.00     0.302 C 
HETATM   12  C23 UNL     1     -14.348 -12.385  24.136  1.00  0.00     0.303 C 
BRANCH  10  13
HETATM   13  C5  UNL     1     -15.682 -11.534  20.839  1.00  0.00     0.279 C 
BRANCH  13  14
HETATM   14  C4  UNL     1     -17.132 -11.354  20.996  1.00  0.00     0.051 C 
HETATM   15  C3  UNL     1     -17.757 -10.019  20.856  1.00  0.00     0.041 C 
HETATM   16  C2  UNL     1     -18.199 -10.007  19.388  1.00  0.00     0.183 C 
HETATM   17  C1  UNL     1     -19.164  -8.884  19.140  1.00  0.00     0.040 C 
HETATM   18  N6  UNL     1     -18.847 -11.307  19.327  1.00  0.00    -0.063 N 
HETATM   19  C25 UNL     1     -17.873 -12.200  19.968  1.00  0.00     0.124 C 
ATOM     20  H62 UNL     1     -19.781 -11.335  19.737  1.00  0.00     0.278 HD
ATOM     21  H61 UNL     1     -19.134 -11.594  18.391  1.00  0.00     0.278 HD
HETATM   22  C26 UNL     1     -16.978 -12.693  18.860  1.00  0.00     0.046 C 
HETATM   23  C27 UNL     1     -18.536 -13.382  20.630  1.00  0.00     0.046 C 
ENDBRANCH  13  14
ENDBRANCH  10  13
ENDBRANCH   1   7
BRANCH   4  24
HETATM   24  C12 UNL     1      -8.220 -11.851  26.026  1.00  0.00     0.025 C 
BRANCH  24  25
HETATM   25  C13 UNL     1      -7.674 -12.693  24.925  1.00  0.00     0.138 C 
BRANCH  25  26
HETATM   26  N3  UNL     1      -7.612 -14.097  25.148  1.00  0.00    -0.226 N 
ATOM     27  H3  UNL     1      -6.722 -14.500  25.444  1.00  0.00     0.177 HD
BRANCH  26  28
HETATM   28  C14 UNL     1      -8.615 -14.885  24.997  1.00  0.00     0.679 A 
HETATM   29  N4  UNL     1      -8.687 -16.119  25.488  1.00  0.00    -0.190 N 
HETATM   30  C15 UNL     1      -9.839 -16.703  25.158  1.00  0.00     0.076 A 
ATOM     31  H4  UNL     1      -7.955 -16.562  26.044  1.00  0.00     0.184 HD
HETATM   32  C16 UNL     1     -10.347 -17.965  25.437  1.00  0.00     0.034 A 
HETATM   33  C20 UNL     1     -10.548 -15.780  24.408  1.00  0.00     0.078 A 
HETATM   34  C17 UNL     1     -11.595 -18.298  24.950  1.00  0.00     0.026 A 
HETATM   35  C18 UNL     1     -12.322 -17.405  24.204  1.00  0.00     0.036 A 
HETATM   36 CL1  UNL     1     -13.903 -17.896  23.607  1.00  0.00    -0.084 Cl
HETATM   37  C19 UNL     1     -11.797 -16.149  23.936  1.00  0.00     0.056 A 
HETATM   38  N5  UNL     1      -9.776 -14.678  24.326  1.00  0.00    -0.190 N 
ATOM     39  H5  UNL     1     -10.027 -13.820  23.835  1.00  0.00     0.184 HD
ENDBRANCH  26  28
ENDBRANCH  25  26
ENDBRANCH  24  25
ENDBRANCH   4  24
TORSDOF 7
ENDMDL
