MODEL 1
REMARK VINA RESULT: -5.816716538      0.000      0.000
REMARK  8 active torsions:
REMARK  status: ('A' for Active; 'I' for Inactive)
REMARK    1  A    between atoms: O1_2  and  C2_3 
REMARK    2  A    between atoms: C2_3  and  C3_5 
REMARK    3  A    between atoms: C3_5  and  N1_6 
REMARK       I    between atoms: N1_6  and  C4_8 
REMARK    4  A    between atoms: C4_8  and  C5_10 
REMARK    5  A    between atoms: C13_18  and  C15_20 
REMARK    6  A    between atoms: C15_20  and  C16_21 
REMARK    7  A    between atoms: C16_21  and  C17_22 
REMARK    8  A    between atoms: C18_25  and  O6_26 
ROOT
HETATM    1  C5  UNL     1      -5.683 -11.971  25.913  1.00  0.00     0.086 C 
HETATM    2  C6  UNL     1      -4.845 -12.970  26.645  1.00  0.00     0.015 C 
HETATM    3  C7  UNL     1      -5.431 -14.360  26.335  1.00  0.00     0.007 C 
HETATM    4  C8  UNL     1      -6.781 -13.993  25.824  1.00  0.00    -0.001 C 
HETATM    5  C9  UNL     1      -7.556 -15.051  25.129  1.00  0.00    -0.005 C 
HETATM    6  C10 UNL     1      -7.884 -16.102  26.159  1.00  0.00     0.006 C 
HETATM    7  C11 UNL     1      -9.194 -15.816  26.839  1.00  0.00     0.007 C 
HETATM    8  C12 UNL     1     -10.259 -16.049  25.749  1.00  0.00     0.005 C 
HETATM    9  C13 UNL     1     -11.606 -15.904  26.374  1.00  0.00    -0.011 C 
HETATM   10  C14 UNL     1     -11.482 -16.247  27.870  1.00  0.00     0.018 C 
HETATM   11  C18 UNL     1     -12.003 -14.450  26.382  1.00  0.00     0.160 C 
HETATM   12  C19 UNL     1     -12.038 -13.867  25.006  1.00  0.00     0.200 C 
HETATM   13  F1  UNL     1     -13.373 -13.965  24.579  1.00  0.00    -0.247 F 
HETATM   14  C20 UNL     1     -11.187 -14.516  24.001  1.00  0.00     0.049 C 
HETATM   15  C21 UNL     1      -9.998 -15.296  24.498  1.00  0.00    -0.033 C 
HETATM   16  C22 UNL     1      -9.758 -16.368  23.401  1.00  0.00     0.016 C 
HETATM   17  C23 UNL     1      -8.748 -14.449  24.471  1.00  0.00    -0.001 C 
HETATM   18  C24 UNL     1      -8.919 -13.028  24.866  1.00  0.00     0.006 C 
HETATM   19  C25 UNL     1      -7.670 -12.253  24.399  1.00  0.00     0.011 C 
HETATM   20  C26 UNL     1      -6.405 -12.841  24.885  1.00  0.00    -0.028 C 
HETATM   21  C27 UNL     1      -5.431 -13.277  23.832  1.00  0.00     0.016 C 
ENDROOT
BRANCH   1  22
HETATM   22  C4  UNL     1      -4.981 -10.860  25.300  1.00  0.00     0.223 C 
HETATM   23  N1  UNL     1      -5.667  -9.818  24.647  1.00  0.00    -0.351 N 
ATOM     24  H1  UNL     1      -6.686  -9.852  24.607  1.00  0.00     0.163 HD
HETATM   25  O3  UNL     1      -3.727 -10.820  25.352  1.00  0.00    -0.273 OA
BRANCH  23  26
HETATM   26  C3  UNL     1      -4.978  -8.693  24.024  1.00  0.00     0.233 C 
BRANCH  26  27
HETATM   27  C2  UNL     1      -4.582  -8.945  22.629  1.00  0.00     0.276 C 
HETATM   28  O2  UNL     1      -3.873  -8.134  22.001  1.00  0.00    -0.263 OA
BRANCH  27  29
HETATM   29  O1  UNL     1      -4.999 -10.098  21.988  1.00  0.00    -0.325 OA
HETATM   30  C1  UNL     1      -6.002 -10.071  20.966  1.00  0.00     0.213 C 
ENDBRANCH  27  29
ENDBRANCH  26  27
ENDBRANCH  23  26
ENDBRANCH   1  22
BRANCH   9  31
HETATM   31  C15 UNL     1     -12.687 -16.765  25.841  1.00  0.00     0.022 C 
BRANCH  31  32
HETATM   32  C16 UNL     1     -12.239 -18.100  25.323  1.00  0.00     0.114 C 
BRANCH  32  33
HETATM   33  C17 UNL     1     -12.880 -18.247  23.975  1.00  0.00     0.172 C 
HETATM   34  O4  UNL     1     -13.422 -17.243  23.437  1.00  0.00    -0.648 OA
HETATM   35  O5  UNL     1     -12.908 -19.445  23.273  1.00  0.00    -0.648 OA
ENDBRANCH  32  33
ENDBRANCH  31  32
ENDBRANCH   9  31
BRANCH  11  36
HETATM   36  O6  UNL     1     -13.259 -14.374  27.028  1.00  0.00    -0.392 OA
ATOM     37  H6  UNL     1     -13.667 -13.566  26.740  1.00  0.00     0.210 HD
ENDBRANCH  11  36
TORSDOF 8
ENDMDL
MODEL 2
REMARK VINA RESULT: -5.501678663      2.178      3.025
REMARK  8 active torsions:
REMARK  status: ('A' for Active; 'I' for Inactive)
REMARK    1  A    between atoms: O1_2  and  C2_3 
REMARK    2  A    between atoms: C2_3  and  C3_5 
REMARK    3  A    between atoms: C3_5  and  N1_6 
REMARK       I    between atoms: N1_6  and  C4_8 
REMARK    4  A    between atoms: C4_8  and  C5_10 
REMARK    5  A    between atoms: C13_18  and  C15_20 
REMARK    6  A    between atoms: C15_20  and  C16_21 
REMARK    7  A    between atoms: C16_21  and  C17_22 
REMARK    8  A    between atoms: C18_25  and  O6_26 
ROOT
HETATM    1  C5  UNL     1      -7.631 -11.849  24.594  1.00  0.00     0.086 C 
HETATM    2  C6  UNL     1      -7.666 -11.162  25.922  1.00  0.00     0.015 C 
HETATM    3  C7  UNL     1      -7.894 -12.253  26.985  1.00  0.00     0.007 C 
HETATM    4  C8  UNL     1      -8.395 -13.373  26.141  1.00  0.00    -0.001 C 
HETATM    5  C9  UNL     1      -8.446 -14.721  26.761  1.00  0.00    -0.005 C 
HETATM    6  C10 UNL     1      -9.482 -14.662  27.853  1.00  0.00     0.006 C 
HETATM    7  C11 UNL     1     -10.847 -15.026  27.338  1.00  0.00     0.007 C 
HETATM    8  C12 UNL     1     -10.757 -16.532  27.021  1.00  0.00     0.005 C 
HETATM    9  C13 UNL     1     -12.112 -17.005  26.615  1.00  0.00    -0.011 C 
HETATM   10  C14 UNL     1     -13.160 -16.090  27.274  1.00  0.00     0.018 C 
HETATM   11  C18 UNL     1     -12.311 -16.758  25.142  1.00  0.00     0.160 C 
HETATM   12  C19 UNL     1     -11.282 -17.451  24.309  1.00  0.00     0.200 C 
HETATM   13  F1  UNL     1     -11.858 -18.672  23.920  1.00  0.00    -0.247 F 
HETATM   14  C20 UNL     1      -9.999 -17.738  24.962  1.00  0.00     0.049 C 
HETATM   15  C21 UNL     1      -9.614 -16.883  26.142  1.00  0.00    -0.033 C 
HETATM   16  C22 UNL     1      -8.692 -17.796  26.992  1.00  0.00     0.016 C 
HETATM   17  C23 UNL     1      -8.720 -15.744  25.714  1.00  0.00    -0.001 C 
HETATM   18  C24 UNL     1      -9.059 -15.106  24.416  1.00  0.00     0.006 C 
HETATM   19  C25 UNL     1      -7.841 -14.273  23.965  1.00  0.00     0.011 C 
HETATM   20  C26 UNL     1      -7.390 -13.305  24.986  1.00  0.00    -0.028 C 
HETATM   21  C27 UNL     1      -5.978 -13.463  25.467  1.00  0.00     0.016 C 
ENDROOT
BRANCH   1  22
HETATM   22  C4  UNL     1      -6.652 -11.364  23.639  1.00  0.00     0.223 C 
HETATM   23  N1  UNL     1      -5.811 -10.272  23.929  1.00  0.00    -0.351 N 
ATOM     24  H1  UNL     1      -5.896  -9.816  24.838  1.00  0.00     0.163 HD
HETATM   25  O3  UNL     1      -6.548 -11.929  22.523  1.00  0.00    -0.273 OA
BRANCH  23  26
HETATM   26  C3  UNL     1      -4.822  -9.770  22.981  1.00  0.00     0.233 C 
BRANCH  26  27
HETATM   27  C2  UNL     1      -3.879  -8.806  23.572  1.00  0.00     0.276 C 
HETATM   28  O2  UNL     1      -2.658  -9.049  23.631  1.00  0.00    -0.263 OA
BRANCH  27  29
HETATM   29  O1  UNL     1      -4.343  -7.604  24.077  1.00  0.00    -0.325 OA
HETATM   30  C1  UNL     1      -4.773  -6.543  23.217  1.00  0.00     0.213 C 
ENDBRANCH  27  29
ENDBRANCH  26  27
ENDBRANCH  23  26
ENDBRANCH   1  22
BRANCH   9  31
HETATM   31  C15 UNL     1     -12.477 -18.391  26.992  1.00  0.00     0.022 C 
BRANCH  31  32
HETATM   32  C16 UNL     1     -11.740 -18.942  28.178  1.00  0.00     0.114 C 
BRANCH  32  33
HETATM   33  C17 UNL     1     -11.144 -20.238  27.717  1.00  0.00     0.172 C 
HETATM   34  O4  UNL     1     -11.366 -20.635  26.541  1.00  0.00    -0.648 OA
HETATM   35  O5  UNL     1     -10.347 -21.038  28.526  1.00  0.00    -0.648 OA
ENDBRANCH  32  33
ENDBRANCH  31  32
ENDBRANCH   9  31
BRANCH  11  36
HETATM   36  O6  UNL     1     -13.625 -17.180  24.831  1.00  0.00    -0.392 OA
ATOM     37  H6  UNL     1     -14.051 -16.452  24.395  1.00  0.00     0.210 HD
ENDBRANCH  11  36
TORSDOF 8
ENDMDL
MODEL 3
REMARK VINA RESULT: -5.491245921      2.726      8.800
REMARK  8 active torsions:
REMARK  status: ('A' for Active; 'I' for Inactive)
REMARK    1  A    between atoms: O1_2  and  C2_3 
REMARK    2  A    between atoms: C2_3  and  C3_5 
REMARK    3  A    between atoms: C3_5  and  N1_6 
REMARK       I    between atoms: N1_6  and  C4_8 
REMARK    4  A    between atoms: C4_8  and  C5_10 
REMARK    5  A    between atoms: C13_18  and  C15_20 
REMARK    6  A    between atoms: C15_20  and  C16_21 
REMARK    7  A    between atoms: C16_21  and  C17_22 
REMARK    8  A    between atoms: C18_25  and  O6_26 
ROOT
HETATM    1  C5  UNL     1     -10.064 -16.020  26.960  1.00  0.00     0.086 C 
HETATM    2  C6  UNL     1     -10.195 -15.397  28.313  1.00  0.00     0.015 C 
HETATM    3  C7  UNL     1      -9.862 -13.902  28.152  1.00  0.00     0.007 C 
HETATM    4  C8  UNL     1      -9.162 -13.906  26.838  1.00  0.00    -0.001 C 
HETATM    5  C9  UNL     1      -8.944 -12.593  26.179  1.00  0.00    -0.005 C 
HETATM    6  C10 UNL     1      -7.983 -11.822  27.047  1.00  0.00     0.006 C 
HETATM    7  C11 UNL     1      -6.555 -12.076  26.647  1.00  0.00     0.007 C 
HETATM    8  C12 UNL     1      -6.408 -11.397  25.271  1.00  0.00     0.005 C 
HETATM    9  C13 UNL     1      -4.980 -11.497  24.851  1.00  0.00    -0.011 C 
HETATM   10  C14 UNL     1      -4.112 -11.593  26.119  1.00  0.00     0.018 C 
HETATM   11  C18 UNL     1      -4.747 -12.820  24.168  1.00  0.00     0.160 C 
HETATM   12  C19 UNL     1      -5.622 -12.998  22.969  1.00  0.00     0.200 C 
HETATM   13  F1  UNL     1      -4.855 -12.584  21.867  1.00  0.00    -0.247 F 
HETATM   14  C20 UNL     1      -6.879 -12.240  22.961  1.00  0.00     0.049 C 
HETATM   15  C21 UNL     1      -7.442 -11.815  24.293  1.00  0.00    -0.033 C 
HETATM   16  C22 UNL     1      -8.262 -10.537  23.971  1.00  0.00     0.016 C 
HETATM   17  C23 UNL     1      -8.472 -12.805  24.783  1.00  0.00    -0.001 C 
HETATM   18  C24 UNL     1      -8.167 -14.236  24.531  1.00  0.00     0.006 C 
HETATM   19  C25 UNL     1      -9.471 -15.039  24.723  1.00  0.00     0.011 C 
HETATM   20  C26 UNL     1     -10.108 -14.805  26.035  1.00  0.00    -0.028 C 
HETATM   21  C27 UNL     1     -11.503 -14.256  26.002  1.00  0.00     0.016 C 
ENDROOT
BRANCH   1  22
HETATM   22  C4  UNL     1     -11.055 -17.020  26.608  1.00  0.00     0.223 C 
HETATM   23  N1  UNL     1     -10.974 -17.754  25.409  1.00  0.00    -0.351 N 
ATOM     24  H1  UNL     1     -10.194 -17.575  24.777  1.00  0.00     0.163 HD
HETATM   25  O3  UNL     1     -12.013 -17.239  27.390  1.00  0.00    -0.273 OA
BRANCH  23  26
HETATM   26  C3  UNL     1     -11.961 -18.762  25.037  1.00  0.00     0.233 C 
BRANCH  26  27
HETATM   27  C2  UNL     1     -12.797 -18.371  23.891  1.00  0.00     0.276 C 
HETATM   28  O2  UNL     1     -12.980 -17.172  23.603  1.00  0.00    -0.263 OA
BRANCH  27  29
HETATM   29  O1  UNL     1     -13.399 -19.341  23.109  1.00  0.00    -0.325 OA
HETATM   30  C1  UNL     1     -14.726 -19.178  22.597  1.00  0.00     0.213 C 
ENDBRANCH  27  29
ENDBRANCH  26  27
ENDBRANCH  23  26
ENDBRANCH   1  22
BRANCH   9  31
HETATM   31  C15 UNL     1      -4.435 -10.369  24.061  1.00  0.00     0.022 C 
BRANCH  31  32
HETATM   32  C16 UNL     1      -5.107  -9.047  24.293  1.00  0.00     0.114 C 
BRANCH  32  33
HETATM   33  C17 UNL     1      -4.219  -8.023  23.651  1.00  0.00     0.172 C 
HETATM   34  O4  UNL     1      -3.000  -8.291  23.470  1.00  0.00    -0.648 OA
HETATM   35  O5  UNL     1      -4.672  -6.777  23.237  1.00  0.00    -0.648 OA
ENDBRANCH  32  33
ENDBRANCH  31  32
ENDBRANCH   9  31
BRANCH  11  36
HETATM   36  O6  UNL     1      -3.372 -12.873  23.841  1.00  0.00    -0.392 OA
ATOM     37  H6  UNL     1      -3.178 -13.777  23.623  1.00  0.00     0.210 HD
ENDBRANCH  11  36
TORSDOF 8
ENDMDL
MODEL 4
REMARK VINA RESULT: -5.424315842      2.542      3.345
REMARK  8 active torsions:
REMARK  status: ('A' for Active; 'I' for Inactive)
REMARK    1  A    between atoms: O1_2  and  C2_3 
REMARK    2  A    between atoms: C2_3  and  C3_5 
REMARK    3  A    between atoms: C3_5  and  N1_6 
REMARK       I    between atoms: N1_6  and  C4_8 
REMARK    4  A    between atoms: C4_8  and  C5_10 
REMARK    5  A    between atoms: C13_18  and  C15_20 
REMARK    6  A    between atoms: C15_20  and  C16_21 
REMARK    7  A    between atoms: C16_21  and  C17_22 
REMARK    8  A    between atoms: C18_25  and  O6_26 
ROOT
HETATM    1  C5  UNL     1      -6.128 -10.605  25.458  1.00  0.00     0.086 C 
HETATM    2  C6  UNL     1      -5.713 -11.506  26.577  1.00  0.00     0.015 C 
HETATM    3  C7  UNL     1      -6.765 -12.627  26.663  1.00  0.00     0.007 C 
HETATM    4  C8  UNL     1      -7.887 -12.026  25.891  1.00  0.00    -0.001 C 
HETATM    5  C9  UNL     1      -8.993 -12.928  25.484  1.00  0.00    -0.005 C 
HETATM    6  C10 UNL     1      -9.684 -13.372  26.748  1.00  0.00     0.006 C 
HETATM    7  C11 UNL     1     -10.801 -12.438  27.122  1.00  0.00     0.007 C 
HETATM    8  C12 UNL     1     -11.876 -12.660  26.039  1.00  0.00     0.005 C 
HETATM    9  C13 UNL     1     -13.078 -11.855  26.403  1.00  0.00    -0.011 C 
HETATM   10  C14 UNL     1     -13.091 -11.672  27.932  1.00  0.00     0.018 C 
HETATM   11  C18 UNL     1     -12.918 -10.449  25.885  1.00  0.00     0.160 C 
HETATM   12  C19 UNL     1     -12.734 -10.411  24.403  1.00  0.00     0.200 C 
HETATM   13  F1  UNL     1     -14.012 -10.191  23.861  1.00  0.00    -0.247 F 
HETATM   14  C20 UNL     1     -12.177 -11.619  23.782  1.00  0.00     0.049 C 
HETATM   15  C21 UNL     1     -11.355 -12.531  24.656  1.00  0.00    -0.033 C 
HETATM   16  C22 UNL     1     -11.521 -13.932  24.009  1.00  0.00     0.016 C 
HETATM   17  C23 UNL     1      -9.882 -12.228  24.517  1.00  0.00    -0.001 C 
HETATM   18  C24 UNL     1      -9.524 -10.791  24.402  1.00  0.00     0.006 C 
HETATM   19  C25 UNL     1      -8.077 -10.704  23.873  1.00  0.00     0.011 C 
HETATM   20  C26 UNL     1      -7.115 -11.478  24.685  1.00  0.00    -0.028 C 
HETATM   21  C27 UNL     1      -6.365 -12.560  23.966  1.00  0.00     0.016 C 
ENDROOT
BRANCH   1  22
HETATM   22  C4  UNL     1      -5.067 -10.090  24.613  1.00  0.00     0.223 C 
HETATM   23  N1  UNL     1      -5.315  -9.127  23.616  1.00  0.00    -0.351 N 
ATOM     24  H1  UNL     1      -6.268  -8.786  23.490  1.00  0.00     0.163 HD
HETATM   25  O3  UNL     1      -3.895 -10.510  24.772  1.00  0.00    -0.273 OA
BRANCH  23  26
HETATM   26  C3  UNL     1      -4.261  -8.598  22.756  1.00  0.00     0.233 C 
BRANCH  26  27
HETATM   27  C2  UNL     1      -3.615  -7.391  23.294  1.00  0.00     0.276 C 
HETATM   28  O2  UNL     1      -2.473  -7.437  23.795  1.00  0.00    -0.263 OA
BRANCH  27  29
HETATM   29  O1  UNL     1      -4.273  -6.175  23.253  1.00  0.00    -0.325 OA
HETATM   30  C1  UNL     1      -3.596  -4.964  22.897  1.00  0.00     0.213 C 
ENDBRANCH  27  29
ENDBRANCH  26  27
ENDBRANCH  23  26
ENDBRANCH   1  22
BRANCH   9  31
HETATM   31  C15 UNL     1     -14.397 -12.424  26.043  1.00  0.00     0.022 C 
BRANCH  31  32
HETATM   32  C16 UNL     1     -14.430 -13.919  25.913  1.00  0.00     0.114 C 
BRANCH  32  33
HETATM   33  C17 UNL     1     -14.940 -14.194  24.530  1.00  0.00     0.172 C 
HETATM   34  O4  UNL     1     -15.427 -13.248  23.853  1.00  0.00    -0.648 OA
HETATM   35  O5  UNL     1     -14.902 -15.452  23.942  1.00  0.00    -0.648 OA
ENDBRANCH  32  33
ENDBRANCH  31  32
ENDBRANCH   9  31
BRANCH  11  36
HETATM   36  O6  UNL     1     -14.061  -9.728  26.303  1.00  0.00    -0.392 OA
ATOM     37  H6  UNL     1     -13.746  -8.956  26.759  1.00  0.00     0.210 HD
ENDBRANCH  11  36
TORSDOF 8
ENDMDL
MODEL 5
REMARK VINA RESULT: -5.415329962      2.015      3.304
REMARK  8 active torsions:
REMARK  status: ('A' for Active; 'I' for Inactive)
REMARK    1  A    between atoms: O1_2  and  C2_3 
REMARK    2  A    between atoms: C2_3  and  C3_5 
REMARK    3  A    between atoms: C3_5  and  N1_6 
REMARK       I    between atoms: N1_6  and  C4_8 
REMARK    4  A    between atoms: C4_8  and  C5_10 
REMARK    5  A    between atoms: C13_18  and  C15_20 
REMARK    6  A    between atoms: C15_20  and  C16_21 
REMARK    7  A    between atoms: C16_21  and  C17_22 
REMARK    8  A    between atoms: C18_25  and  O6_26 
ROOT
HETATM    1  C5  UNL     1      -8.252 -11.988  24.277  1.00  0.00     0.086 C 
HETATM    2  C6  UNL     1      -8.831 -11.000  25.238  1.00  0.00     0.015 C 
HETATM    3  C7  UNL     1      -9.533 -11.809  26.344  1.00  0.00     0.007 C 
HETATM    4  C8  UNL     1      -9.662 -13.139  25.686  1.00  0.00    -0.001 C 
HETATM    5  C9  UNL     1     -10.024 -14.292  26.548  1.00  0.00    -0.005 C 
HETATM    6  C10 UNL     1     -11.427 -14.047  27.041  1.00  0.00     0.006 C 
HETATM    7  C11 UNL     1     -12.449 -14.634  26.108  1.00  0.00     0.007 C 
HETATM    8  C12 UNL     1     -12.286 -16.159  26.258  1.00  0.00     0.005 C 
HETATM    9  C13 UNL     1     -13.350 -16.824  25.451  1.00  0.00    -0.011 C 
HETATM   10  C14 UNL     1     -14.545 -15.860  25.343  1.00  0.00     0.018 C 
HETATM   11  C18 UNL     1     -12.886 -16.965  24.024  1.00  0.00     0.160 C 
HETATM   12  C19 UNL     1     -11.624 -17.758  23.916  1.00  0.00     0.200 C 
HETATM   13  F1  UNL     1     -12.021 -19.079  23.648  1.00  0.00    -0.247 F 
HETATM   14  C20 UNL     1     -10.759 -17.773  25.102  1.00  0.00     0.049 C 
HETATM   15  C21 UNL     1     -10.889 -16.625  26.070  1.00  0.00    -0.033 C 
HETATM   16  C22 UNL     1     -10.456 -17.224  27.434  1.00  0.00     0.016 C 
HETATM   17  C23 UNL     1      -9.858 -15.560  25.786  1.00  0.00    -0.001 C 
HETATM   18  C24 UNL     1      -9.581 -15.292  24.352  1.00  0.00     0.006 C 
HETATM   19  C25 UNL     1      -8.258 -14.502  24.264  1.00  0.00     0.011 C 
HETATM   20  C26 UNL     1      -8.256 -13.279  25.093  1.00  0.00    -0.028 C 
HETATM   21  C27 UNL     1      -7.196 -13.201  26.151  1.00  0.00     0.016 C 
ENDROOT
BRANCH   1  22
HETATM   22  C4  UNL     1      -6.940 -11.678  23.739  1.00  0.00     0.223 C 
HETATM   23  N1  UNL     1      -6.304 -10.449  23.998  1.00  0.00    -0.351 N 
ATOM     24  H1  UNL     1      -6.784  -9.762  24.580  1.00  0.00     0.163 HD
HETATM   25  O3  UNL     1      -6.352 -12.526  23.024  1.00  0.00    -0.273 OA
BRANCH  23  26
HETATM   26  C3  UNL     1      -4.987 -10.118  23.465  1.00  0.00     0.233 C 
BRANCH  26  27
HETATM   27  C2  UNL     1      -5.036  -9.385  22.190  1.00  0.00     0.276 C 
HETATM   28  O2  UNL     1      -4.883  -8.148  22.149  1.00  0.00    -0.263 OA
BRANCH  27  29
HETATM   29  O1  UNL     1      -5.257 -10.067  21.007  1.00  0.00    -0.325 OA
HETATM   30  C1  UNL     1      -6.538 -10.067  20.366  1.00  0.00     0.213 C 
ENDBRANCH  27  29
ENDBRANCH  26  27
ENDBRANCH  23  26
ENDBRANCH   1  22
BRANCH   9  31
HETATM   31  C15 UNL     1     -13.892 -18.098  25.979  1.00  0.00     0.022 C 
BRANCH  31  32
HETATM   32  C16 UNL     1     -13.870 -18.226  27.474  1.00  0.00     0.114 C 
BRANCH  32  33
HETATM   33  C17 UNL     1     -13.304 -19.587  27.755  1.00  0.00     0.172 C 
HETATM   34  O4  UNL     1     -12.681 -20.195  26.843  1.00  0.00    -0.648 OA
HETATM   35  O5  UNL     1     -13.429 -20.223  28.983  1.00  0.00    -0.648 OA
ENDBRANCH  32  33
ENDBRANCH  31  32
ENDBRANCH   9  31
BRANCH  11  36
HETATM   36  O6  UNL     1     -13.952 -17.553  23.305  1.00  0.00    -0.392 OA
ATOM     37  H6  UNL     1     -13.841 -17.303  22.395  1.00  0.00     0.210 HD
ENDBRANCH  11  36
TORSDOF 8
ENDMDL
