MODEL 1
REMARK VINA RESULT: -7.493174934      0.000      0.000
REMARK  11 active torsions:
REMARK  status: ('A' for Active; 'I' for Inactive)
REMARK    1  A    between atoms: C2_2  and  C3_4 
REMARK    2  A    between atoms: C4_6  and  N1_7 
REMARK    3  A    between atoms: C5_12  and  C6_13 
REMARK    4  A    between atoms: C9_17  and  C10_18 
REMARK    5  A    between atoms: N3_20  and  N4_22 
REMARK       I    between atoms: N4_22  and  C12_24 
REMARK    6  A    between atoms: C12_24  and  C13_26 
REMARK    7  A    between atoms: C13_26  and  N5_27 
REMARK    8  A    between atoms: C15_30  and  C16_31 
REMARK    9  A    between atoms: C20_44  and  O7_45 
REMARK   10  A    between atoms: N9_47  and  C21_48 
REMARK   11  A    between atoms: C21_48  and  C22_49 
ROOT
HETATM    1  N5  UNL     1      15.387  -8.802  -2.385  1.00  0.00    -0.256 N 
HETATM    2  C14 UNL     1      16.690  -8.520  -2.398  1.00  0.00     0.268 A 
HETATM    3  O4  UNL     1      17.206  -8.259  -3.518  1.00  0.00    -0.267 OA
HETATM    4  C15 UNL     1      17.517  -8.493  -1.253  1.00  0.00     0.112 A 
HETATM    5  C20 UNL     1      16.880  -8.785  -0.090  1.00  0.00     0.164 A 
HETATM    6  N9  UNL     1      15.542  -9.078  -0.071  1.00  0.00    -0.274 N 
HETATM    7  C23 UNL     1      14.833  -9.081  -1.197  1.00  0.00     0.334 A 
HETATM    8  O8  UNL     1      13.594  -9.350  -1.184  1.00  0.00    -0.246 OA
ENDROOT
BRANCH   1   9
HETATM    9  C13 UNL     1      14.594  -8.818  -3.564  1.00  0.00     0.241 C 
BRANCH   9  10
HETATM   10  C12 UNL     1      14.002  -7.498  -3.890  1.00  0.00     0.254 C 
HETATM   11  N4  UNL     1      12.976  -6.902  -3.088  1.00  0.00    -0.269 N 
ATOM     12  H4  UNL     1      12.666  -7.427  -2.271  1.00  0.00     0.190 HD
HETATM   13  O3  UNL     1      14.381  -6.855  -4.889  1.00  0.00    -0.270 OA
BRANCH  11  14
HETATM   14  N3  UNL     1      12.386  -5.721  -3.309  1.00  0.00    -0.304 N 
HETATM   15  C10 UNL     1      11.232  -5.317  -3.658  1.00  0.00     0.029 C 
HETATM   16  C11 UNL     1      11.158  -3.813  -3.786  1.00  0.00     0.068 C 
ATOM     17  H3  UNL     1      13.030  -4.943  -3.159  1.00  0.00     0.186 HD
BRANCH  15  18
HETATM   18  C9  UNL     1      10.076  -6.131  -3.955  1.00  0.00     0.177 C 
HETATM   19  C6  UNL     1       9.038  -6.398  -2.957  1.00  0.00     0.074 C 
HETATM   20  C7  UNL     1       9.905  -7.273  -1.999  1.00  0.00     0.040 C 
HETATM   21  C8  UNL     1      10.414  -8.213  -3.112  1.00  0.00     0.169 C 
HETATM   22  O2  UNL     1      10.591  -7.427  -4.235  1.00  0.00    -0.379 OA
BRANCH  19  23
HETATM   23  C5  UNL     1       8.415  -5.270  -2.212  1.00  0.00     0.039 A 
HETATM   24  C3  UNL     1       7.300  -4.654  -2.697  1.00  0.00     0.076 A 
HETATM   25  S1  UNL     1       7.009  -3.428  -1.503  1.00  0.00    -0.049 SA
HETATM   26  C4  UNL     1       8.314  -3.782  -0.476  1.00  0.00     0.143 A 
HETATM   27  N2  UNL     1       8.916  -4.804  -1.068  1.00  0.00    -0.339 N 
ATOM     28  H2  UNL     1       9.748  -5.227  -0.655  1.00  0.00     0.168 HD
BRANCH  24  29
HETATM   29  C2  UNL     1       6.477  -4.901  -3.896  1.00  0.00     0.164 C 
HETATM   30  C1  UNL     1       5.235  -5.708  -3.754  1.00  0.00     0.097 C 
HETATM   31  O1  UNL     1       6.780  -4.465  -5.007  1.00  0.00    -0.292 OA
ENDBRANCH  24  29
BRANCH  26  32
HETATM   32  N1  UNL     1       8.651  -3.182   0.649  1.00  0.00    -0.380 N 
ATOM     33  H12 UNL     1       8.988  -2.228   0.774  1.00  0.00     0.158 HD
ATOM     34  H11 UNL     1       8.636  -3.563   1.594  1.00  0.00     0.158 HD
ENDBRANCH  26  32
ENDBRANCH  19  23
ENDBRANCH  15  18
ENDBRANCH  11  14
ENDBRANCH   9  10
ENDBRANCH   1   9
BRANCH   4  35
HETATM   35  C16 UNL     1      18.950  -8.166  -1.422  1.00  0.00     0.077 A 
HETATM   36  N6  UNL     1      19.633  -9.064  -2.112  1.00  0.00    -0.277 N 
HETATM   37  S2  UNL     1      21.244  -8.569  -2.229  1.00  0.00     0.281 S 
ATOM     38  H6  UNL     1      19.248  -9.920  -2.512  1.00  0.00     0.179 HD
HETATM   39  O5  UNL     1      22.200  -9.490  -1.517  1.00  0.00    -0.199 OA
HETATM   40  O6  UNL     1      21.686  -8.317  -3.645  1.00  0.00    -0.199 OA
HETATM   41  C17 UNL     1      21.066  -7.093  -1.331  1.00  0.00     0.178 A 
HETATM   42  N7  UNL     1      21.722  -6.038  -0.886  1.00  0.00    -0.288 N 
HETATM   43  C19 UNL     1      19.726  -7.060  -0.977  1.00  0.00     0.051 A 
HETATM   44  N8  UNL     1      20.883  -5.299  -0.250  1.00  0.00    -0.310 N 
ATOM     45  H7  UNL     1      22.715  -5.844  -1.022  1.00  0.00     0.188 HD
HETATM   46  C18 UNL     1      19.663  -5.853  -0.263  1.00  0.00     0.124 A 
ATOM     47  H8  UNL     1      21.115  -4.415   0.203  1.00  0.00     0.186 HD
ENDBRANCH   4  35
BRANCH   6  48
HETATM   48  C21 UNL     1      14.951  -9.390   1.213  1.00  0.00     0.207 C 
BRANCH  48  49
HETATM   49  C22 UNL     1      13.859  -8.390   1.494  1.00  0.00     0.371 C 
HETATM   50  F1  UNL     1      14.308  -7.169   1.933  1.00  0.00    -0.213 F 
HETATM   51  F2  UNL     1      12.947  -8.858   2.440  1.00  0.00    -0.213 F 
ENDBRANCH  48  49
ENDBRANCH   6  48
BRANCH   5  52
HETATM   52  O7  UNL     1      17.498  -8.811   1.123  1.00  0.00    -0.345 OA
ATOM     53  H7  UNL     1      17.113  -9.195   1.901  1.00  0.00     0.219 HD
ENDBRANCH   5  52
TORSDOF 11
ENDMDL
MODEL 2
REMARK VINA RESULT: -7.458632743      2.230      3.123
REMARK  11 active torsions:
REMARK  status: ('A' for Active; 'I' for Inactive)
REMARK    1  A    between atoms: C2_2  and  C3_4 
REMARK    2  A    between atoms: C4_6  and  N1_7 
REMARK    3  A    between atoms: C5_12  and  C6_13 
REMARK    4  A    between atoms: C9_17  and  C10_18 
REMARK    5  A    between atoms: N3_20  and  N4_22 
REMARK       I    between atoms: N4_22  and  C12_24 
REMARK    6  A    between atoms: C12_24  and  C13_26 
REMARK    7  A    between atoms: C13_26  and  N5_27 
REMARK    8  A    between atoms: C15_30  and  C16_31 
REMARK    9  A    between atoms: C20_44  and  O7_45 
REMARK   10  A    between atoms: N9_47  and  C21_48 
REMARK   11  A    between atoms: C21_48  and  C22_49 
ROOT
HETATM    1  N5  UNL     1      15.229  -8.092  -2.483  1.00  0.00    -0.256 N 
HETATM    2  C14 UNL     1      16.561  -8.065  -2.521  1.00  0.00     0.268 A 
HETATM    3  O4  UNL     1      17.101  -8.172  -3.655  1.00  0.00    -0.267 OA
HETATM    4  C15 UNL     1      17.394  -7.927  -1.389  1.00  0.00     0.112 A 
HETATM    5  C20 UNL     1      16.729  -7.819  -0.210  1.00  0.00     0.164 A 
HETATM    6  N9  UNL     1      15.360  -7.847  -0.164  1.00  0.00    -0.274 N 
HETATM    7  C23 UNL     1      14.649  -7.979  -1.281  1.00  0.00     0.334 A 
HETATM    8  O8  UNL     1      13.382  -8.004  -1.243  1.00  0.00    -0.246 OA
ENDROOT
BRANCH   1   9
HETATM    9  C13 UNL     1      14.431  -8.234  -3.651  1.00  0.00     0.241 C 
BRANCH   9  10
HETATM   10  C12 UNL     1      14.081  -6.939  -4.283  1.00  0.00     0.254 C 
HETATM   11  N4  UNL     1      13.156  -6.023  -3.688  1.00  0.00    -0.269 N 
ATOM     12  H4  UNL     1      12.742  -6.299  -2.797  1.00  0.00     0.190 HD
HETATM   13  O3  UNL     1      14.587  -6.600  -5.372  1.00  0.00    -0.270 OA
BRANCH  11  14
HETATM   14  N3  UNL     1      12.782  -4.839  -4.188  1.00  0.00    -0.304 N 
HETATM   15  C10 UNL     1      11.770  -4.076  -4.094  1.00  0.00     0.029 C 
HETATM   16  C11 UNL     1      11.897  -2.836  -4.948  1.00  0.00     0.068 C 
ATOM     17  H3  UNL     1      13.494  -4.448  -4.806  1.00  0.00     0.186 HD
BRANCH  15  18
HETATM   18  C9  UNL     1      10.575  -4.303  -3.312  1.00  0.00     0.177 C 
HETATM   19  C6  UNL     1       9.585  -5.315  -3.685  1.00  0.00     0.074 C 
HETATM   20  C7  UNL     1       9.081  -4.627  -4.991  1.00  0.00     0.040 C 
HETATM   21  C8  UNL     1       8.833  -3.257  -4.325  1.00  0.00     0.169 C 
HETATM   22  O2  UNL     1       9.838  -3.089  -3.393  1.00  0.00    -0.379 OA
BRANCH  19  23
HETATM   23  C5  UNL     1      10.018  -6.711  -3.964  1.00  0.00     0.039 A 
HETATM   24  C3  UNL     1      10.039  -7.641  -2.967  1.00  0.00     0.076 A 
HETATM   25  S1  UNL     1      10.630  -9.050  -3.792  1.00  0.00    -0.049 SA
HETATM   26  C4  UNL     1      10.807  -8.365  -5.335  1.00  0.00     0.143 A 
HETATM   27  N2  UNL     1      10.417  -7.109  -5.173  1.00  0.00    -0.339 N 
ATOM     28  H2  UNL     1      10.421  -6.458  -5.958  1.00  0.00     0.168 HD
BRANCH  24  29
HETATM   29  C2  UNL     1       9.662  -7.571  -1.543  1.00  0.00     0.164 C 
HETATM   30  C1  UNL     1       8.473  -8.336  -1.082  1.00  0.00     0.097 C 
HETATM   31  O1  UNL     1      10.294  -6.903  -0.724  1.00  0.00    -0.292 OA
ENDBRANCH  24  29
BRANCH  26  32
HETATM   32  N1  UNL     1      11.233  -8.947  -6.440  1.00  0.00    -0.380 N 
ATOM     33  H12 UNL     1      12.039  -9.560  -6.555  1.00  0.00     0.158 HD
ATOM     34  H11 UNL     1      10.833  -8.887  -7.376  1.00  0.00     0.158 HD
ENDBRANCH  26  32
ENDBRANCH  19  23
ENDBRANCH  15  18
ENDBRANCH  11  14
ENDBRANCH   9  10
ENDBRANCH   1   9
BRANCH   4  35
HETATM   35  C16 UNL     1      18.860  -7.919  -1.585  1.00  0.00     0.077 A 
HETATM   36  N6  UNL     1      19.323  -8.960  -2.256  1.00  0.00    -0.277 N 
HETATM   37  S2  UNL     1      21.000  -8.825  -2.407  1.00  0.00     0.281 S 
ATOM     38  H6  UNL     1      18.757  -9.725  -2.624  1.00  0.00     0.179 HD
HETATM   39  O5  UNL     1      21.751  -9.909  -1.679  1.00  0.00    -0.199 OA
HETATM   40  O6  UNL     1      21.460  -8.711  -3.835  1.00  0.00    -0.199 OA
HETATM   41  C17 UNL     1      21.158  -7.321  -1.553  1.00  0.00     0.178 A 
HETATM   42  N7  UNL     1      22.032  -6.419  -1.147  1.00  0.00    -0.288 N 
HETATM   43  C19 UNL     1      19.863  -6.993  -1.184  1.00  0.00     0.051 A 
HETATM   44  N8  UNL     1      21.383  -5.501  -0.524  1.00  0.00    -0.310 N 
ATOM     45  H7  UNL     1      23.041  -6.446  -1.301  1.00  0.00     0.188 HD
HETATM   46  C18 UNL     1      20.072  -5.781  -0.506  1.00  0.00     0.124 A 
ATOM     47  H8  UNL     1      21.806  -4.675  -0.101  1.00  0.00     0.186 HD
ENDBRANCH   4  35
BRANCH   6  48
HETATM   48  C21 UNL     1      14.739  -7.737   1.138  1.00  0.00     0.207 C 
BRANCH  48  49
HETATM   49  C22 UNL     1      14.305  -9.110   1.580  1.00  0.00     0.371 C 
HETATM   50  F1  UNL     1      13.191  -9.122   2.382  1.00  0.00    -0.213 F 
HETATM   51  F2  UNL     1      15.314  -9.785   2.268  1.00  0.00    -0.213 F 
ENDBRANCH  48  49
ENDBRANCH   6  48
BRANCH   5  52
HETATM   52  O7  UNL     1      17.348  -7.675   0.994  1.00  0.00    -0.345 OA
ATOM     53  H7  UNL     1      17.582  -8.404   1.556  1.00  0.00     0.219 HD
ENDBRANCH   5  52
TORSDOF 11
ENDMDL
MODEL 3
REMARK VINA RESULT: -7.334107180      4.849      9.038
REMARK  11 active torsions:
REMARK  status: ('A' for Active; 'I' for Inactive)
REMARK    1  A    between atoms: C2_2  and  C3_4 
REMARK    2  A    between atoms: C4_6  and  N1_7 
REMARK    3  A    between atoms: C5_12  and  C6_13 
REMARK    4  A    between atoms: C9_17  and  C10_18 
REMARK    5  A    between atoms: N3_20  and  N4_22 
REMARK       I    between atoms: N4_22  and  C12_24 
REMARK    6  A    between atoms: C12_24  and  C13_26 
REMARK    7  A    between atoms: C13_26  and  N5_27 
REMARK    8  A    between atoms: C15_30  and  C16_31 
REMARK    9  A    between atoms: C20_44  and  O7_45 
REMARK   10  A    between atoms: N9_47  and  C21_48 
REMARK   11  A    between atoms: C21_48  and  C22_49 
ROOT
HETATM    1  N5  UNL     1      15.516  -8.030  -0.489  1.00  0.00    -0.256 N 
HETATM    2  C14 UNL     1      16.839  -7.916  -0.606  1.00  0.00     0.268 A 
HETATM    3  O4  UNL     1      17.480  -7.620   0.439  1.00  0.00    -0.267 OA
HETATM    4  C15 UNL     1      17.558  -8.106  -1.807  1.00  0.00     0.112 A 
HETATM    5  C20 UNL     1      16.790  -8.423  -2.880  1.00  0.00     0.164 A 
HETATM    6  N9  UNL     1      15.429  -8.539  -2.767  1.00  0.00    -0.274 N 
HETATM    7  C23 UNL     1      14.829  -8.345  -1.595  1.00  0.00     0.334 A 
HETATM    8  O8  UNL     1      13.570  -8.453  -1.486  1.00  0.00    -0.246 OA
ENDROOT
BRANCH   1   9
HETATM    9  C13 UNL     1      14.834  -7.828   0.742  1.00  0.00     0.241 C 
BRANCH   9  10
HETATM   10  C12 UNL     1      14.949  -8.979   1.670  1.00  0.00     0.254 C 
HETATM   11  N4  UNL     1      16.204  -9.599   1.968  1.00  0.00    -0.269 N 
ATOM     12  H4  UNL     1      17.030  -9.211   1.510  1.00  0.00     0.190 HD
HETATM   13  O3  UNL     1      13.940  -9.452   2.231  1.00  0.00    -0.270 OA
BRANCH  11  14
HETATM   14  N3  UNL     1      16.398 -10.638   2.789  1.00  0.00    -0.304 N 
HETATM   15  C10 UNL     1      16.770 -11.848   2.673  1.00  0.00     0.029 C 
HETATM   16  C11 UNL     1      16.766 -12.585   3.993  1.00  0.00     0.068 C 
ATOM     17  H3  UNL     1      16.195 -10.396   3.759  1.00  0.00     0.186 HD
BRANCH  15  18
HETATM   18  C9  UNL     1      17.138 -12.535   1.456  1.00  0.00     0.177 C 
HETATM   19  C6  UNL     1      18.138 -13.604   1.441  1.00  0.00     0.074 C 
HETATM   20  C7  UNL     1      19.377 -12.721   1.789  1.00  0.00     0.040 C 
HETATM   21  C8  UNL     1      19.095 -11.671   0.694  1.00  0.00     0.169 C 
HETATM   22  O2  UNL     1      17.721 -11.539   0.625  1.00  0.00    -0.379 OA
BRANCH  19  23
HETATM   23  C5  UNL     1      18.025 -14.743   2.393  1.00  0.00     0.039 A 
HETATM   24  C3  UNL     1      16.937 -15.564   2.363  1.00  0.00     0.076 A 
HETATM   25  S1  UNL     1      17.277 -16.671   3.656  1.00  0.00    -0.049 SA
HETATM   26  C4  UNL     1      18.768 -16.020   4.140  1.00  0.00     0.143 A 
HETATM   27  N2  UNL     1      18.953 -14.999   3.316  1.00  0.00    -0.339 N 
ATOM     28  H2  UNL     1      19.790 -14.420   3.385  1.00  0.00     0.168 HD
BRANCH  24  29
HETATM   29  C2  UNL     1      15.748 -15.596   1.491  1.00  0.00     0.164 C 
HETATM   30  C1  UNL     1      15.813 -16.374   0.225  1.00  0.00     0.097 C 
HETATM   31  O1  UNL     1      14.706 -15.003   1.773  1.00  0.00    -0.292 OA
ENDBRANCH  24  29
BRANCH  26  32
HETATM   32  N1  UNL     1      19.560 -16.433   5.111  1.00  0.00    -0.380 N 
ATOM     33  H12 UNL     1      19.864 -17.385   5.311  1.00  0.00     0.158 HD
ATOM     34  H11 UNL     1      20.010 -15.875   5.837  1.00  0.00     0.158 HD
ENDBRANCH  26  32
ENDBRANCH  19  23
ENDBRANCH  15  18
ENDBRANCH  11  14
ENDBRANCH   9  10
ENDBRANCH   1   9
BRANCH   4  35
HETATM   35  C16 UNL     1      19.028  -7.943  -1.785  1.00  0.00     0.077 A 
HETATM   36  N6  UNL     1      19.690  -8.904  -2.407  1.00  0.00    -0.277 N 
HETATM   37  S2  UNL     1      21.348  -8.594  -2.305  1.00  0.00     0.281 S 
ATOM     38  H6  UNL     1      19.266  -9.706  -2.874  1.00  0.00     0.179 HD
HETATM   39  O5  UNL     1      22.096  -9.627  -1.503  1.00  0.00    -0.199 OA
HETATM   40  O6  UNL     1      21.994  -8.377  -3.647  1.00  0.00    -0.199 OA
HETATM   41  C17 UNL     1      21.221  -7.119  -1.399  1.00  0.00     0.178 A 
HETATM   42  N7  UNL     1      21.929  -6.151  -0.846  1.00  0.00    -0.288 N 
HETATM   43  C19 UNL     1      19.860  -6.938  -1.216  1.00  0.00     0.051 A 
HETATM   44  N8  UNL     1      21.103  -5.329  -0.301  1.00  0.00    -0.310 N 
ATOM     45  H7  UNL     1      22.946  -6.070  -0.850  1.00  0.00     0.188 HD
HETATM   46  C18 UNL     1      19.840  -5.740  -0.484  1.00  0.00     0.124 A 
ATOM     47  H8  UNL     1      21.372  -4.482   0.200  1.00  0.00     0.186 HD
ENDBRANCH   4  35
BRANCH   6  48
HETATM   48  C21 UNL     1      14.691  -8.868  -3.967  1.00  0.00     0.207 C 
BRANCH  48  49
HETATM   49  C22 UNL     1      14.197  -7.589  -4.592  1.00  0.00     0.371 C 
HETATM   50  F1  UNL     1      14.917  -6.473  -4.244  1.00  0.00    -0.213 F 
HETATM   51  F2  UNL     1      12.862  -7.332  -4.279  1.00  0.00    -0.213 F 
ENDBRANCH  48  49
ENDBRANCH   6  48
BRANCH   5  52
HETATM   52  O7  UNL     1      17.290  -8.648  -4.126  1.00  0.00    -0.345 OA
ATOM     53  H7  UNL     1      16.967  -9.324  -4.709  1.00  0.00     0.219 HD
ENDBRANCH   5  52
TORSDOF 11
ENDMDL
MODEL 4
REMARK VINA RESULT: -7.260982501      2.508      3.099
REMARK  11 active torsions:
REMARK  status: ('A' for Active; 'I' for Inactive)
REMARK    1  A    between atoms: C2_2  and  C3_4 
REMARK    2  A    between atoms: C4_6  and  N1_7 
REMARK    3  A    between atoms: C5_12  and  C6_13 
REMARK    4  A    between atoms: C9_17  and  C10_18 
REMARK    5  A    between atoms: N3_20  and  N4_22 
REMARK       I    between atoms: N4_22  and  C12_24 
REMARK    6  A    between atoms: C12_24  and  C13_26 
REMARK    7  A    between atoms: C13_26  and  N5_27 
REMARK    8  A    between atoms: C15_30  and  C16_31 
REMARK    9  A    between atoms: C20_44  and  O7_45 
REMARK   10  A    between atoms: N9_47  and  C21_48 
REMARK   11  A    between atoms: C21_48  and  C22_49 
ROOT
HETATM    1  N5  UNL     1      15.453  -9.707  -2.118  1.00  0.00    -0.256 N 
HETATM    2  C14 UNL     1      16.780  -9.723  -1.987  1.00  0.00     0.268 A 
HETATM    3  O4  UNL     1      17.434 -10.306  -2.893  1.00  0.00    -0.267 OA
HETATM    4  C15 UNL     1      17.488  -9.136  -0.916  1.00  0.00     0.112 A 
HETATM    5  C20 UNL     1      16.705  -8.530   0.013  1.00  0.00     0.164 A 
HETATM    6  N9  UNL     1      15.341  -8.512  -0.115  1.00  0.00    -0.274 N 
HETATM    7  C23 UNL     1      14.751  -9.089  -1.158  1.00  0.00     0.334 A 
HETATM    8  O8  UNL     1      13.489  -9.073  -1.281  1.00  0.00    -0.246 OA
ENDROOT
BRANCH   1   9
HETATM    9  C13 UNL     1      14.783 -10.313  -3.215  1.00  0.00     0.241 C 
BRANCH   9  10
HETATM   10  C12 UNL     1      14.421  -9.352  -4.284  1.00  0.00     0.254 C 
HETATM   11  N4  UNL     1      13.332  -8.432  -4.149  1.00  0.00    -0.269 N 
ATOM     12  H4  UNL     1      12.808  -8.464  -3.274  1.00  0.00     0.190 HD
HETATM   13  O3  UNL     1      15.062  -9.312  -5.354  1.00  0.00    -0.270 OA
BRANCH  11  14
HETATM   14  N3  UNL     1      12.936  -7.536  -5.061  1.00  0.00    -0.304 N 
HETATM   15  C10 UNL     1      12.299  -6.435  -5.057  1.00  0.00     0.029 C 
HETATM   16  C11 UNL     1      12.112  -5.868  -6.445  1.00  0.00     0.068 C 
ATOM     17  H3  UNL     1      13.218  -7.806  -6.004  1.00  0.00     0.186 HD
BRANCH  15  18
HETATM   18  C9  UNL     1      11.749  -5.750  -3.909  1.00  0.00     0.177 C 
HETATM   19  C6  UNL     1      11.708  -4.289  -3.825  1.00  0.00     0.074 C 
HETATM   20  C7  UNL     1      13.248  -4.052  -3.729  1.00  0.00     0.040 C 
HETATM   21  C8  UNL     1      13.459  -5.064  -2.582  1.00  0.00     0.169 C 
HETATM   22  O2  UNL     1      12.589  -6.110  -2.819  1.00  0.00    -0.379 OA
BRANCH  19  23
HETATM   23  C5  UNL     1      11.127  -3.495  -4.942  1.00  0.00     0.039 A 
HETATM   24  C3  UNL     1       9.801  -3.593  -5.243  1.00  0.00     0.076 A 
HETATM   25  S1  UNL     1       9.653  -2.520  -6.600  1.00  0.00    -0.049 SA
HETATM   26  C4  UNL     1      11.274  -2.024  -6.688  1.00  0.00     0.143 A 
HETATM   27  N2  UNL     1      11.863  -2.681  -5.699  1.00  0.00    -0.339 N 
ATOM     28  H2  UNL     1      12.860  -2.565  -5.520  1.00  0.00     0.168 HD
BRANCH  24  29
HETATM   29  C2  UNL     1       8.702  -4.362  -4.628  1.00  0.00     0.164 C 
HETATM   30  C1  UNL     1       8.279  -5.636  -5.267  1.00  0.00     0.097 C 
HETATM   31  O1  UNL     1       8.125  -3.987  -3.607  1.00  0.00    -0.292 OA
ENDBRANCH  24  29
BRANCH  26  32
HETATM   32  N1  UNL     1      11.822  -1.181  -7.542  1.00  0.00    -0.380 N 
ATOM     33  H12 UNL     1      12.081  -1.351  -8.514  1.00  0.00     0.158 HD
ATOM     34  H11 UNL     1      12.085  -0.208  -7.386  1.00  0.00     0.158 HD
ENDBRANCH  26  32
ENDBRANCH  19  23
ENDBRANCH  15  18
ENDBRANCH  11  14
ENDBRANCH   9  10
ENDBRANCH   1   9
BRANCH   4  35
HETATM   35  C16 UNL     1      18.964  -9.237  -0.903  1.00  0.00     0.077 A 
HETATM   36  N6  UNL     1      19.421 -10.466  -0.728  1.00  0.00    -0.277 N 
HETATM   37  S2  UNL     1      21.110 -10.437  -0.734  1.00  0.00     0.281 S 
ATOM     38  H6  UNL     1      18.845 -11.300  -0.609  1.00  0.00     0.179 HD
HETATM   39  O5  UNL     1      21.715 -10.829   0.589  1.00  0.00    -0.199 OA
HETATM   40  O6  UNL     1      21.713 -11.230  -1.862  1.00  0.00    -0.199 OA
HETATM   41  C17 UNL     1      21.281  -8.727  -0.979  1.00  0.00     0.178 A 
HETATM   42  N7  UNL     1      22.169  -7.760  -1.118  1.00  0.00    -0.288 N 
HETATM   43  C19 UNL     1      19.981  -8.252  -1.045  1.00  0.00     0.051 A 
HETATM   44  N8  UNL     1      21.522  -6.659  -1.275  1.00  0.00    -0.310 N 
ATOM     45  H7  UNL     1      23.184  -7.866  -1.104  1.00  0.00     0.188 HD
HETATM   46  C18 UNL     1      20.200  -6.880  -1.241  1.00  0.00     0.124 A 
ATOM     47  H8  UNL     1      21.956  -5.745  -1.407  1.00  0.00     0.186 HD
ENDBRANCH   4  35
BRANCH   6  48
HETATM   48  C21 UNL     1      14.587  -7.853   0.930  1.00  0.00     0.207 C 
BRANCH  48  49
HETATM   49  C22 UNL     1      13.954  -8.906   1.802  1.00  0.00     0.371 C 
HETATM   50  F1  UNL     1      13.009  -8.426   2.675  1.00  0.00    -0.213 F 
HETATM   51  F2  UNL     1      14.898  -9.602   2.558  1.00  0.00    -0.213 F 
ENDBRANCH  48  49
ENDBRANCH   6  48
BRANCH   5  52
HETATM   52  O7  UNL     1      17.194  -7.904   1.119  1.00  0.00    -0.345 OA
ATOM     53  H7  UNL     1      17.074  -6.979   1.296  1.00  0.00     0.219 HD
ENDBRANCH   5  52
TORSDOF 11
ENDMDL
MODEL 5
REMARK VINA RESULT: -7.251200077      3.346      8.797
REMARK  11 active torsions:
REMARK  status: ('A' for Active; 'I' for Inactive)
REMARK    1  A    between atoms: C2_2  and  C3_4 
REMARK    2  A    between atoms: C4_6  and  N1_7 
REMARK    3  A    between atoms: C5_12  and  C6_13 
REMARK    4  A    between atoms: C9_17  and  C10_18 
REMARK    5  A    between atoms: N3_20  and  N4_22 
REMARK       I    between atoms: N4_22  and  C12_24 
REMARK    6  A    between atoms: C12_24  and  C13_26 
REMARK    7  A    between atoms: C13_26  and  N5_27 
REMARK    8  A    between atoms: C15_30  and  C16_31 
REMARK    9  A    between atoms: C20_44  and  O7_45 
REMARK   10  A    between atoms: N9_47  and  C21_48 
REMARK   11  A    between atoms: C21_48  and  C22_49 
ROOT
HETATM    1  N5  UNL     1      11.135  -8.116   0.649  1.00  0.00    -0.256 N 
HETATM    2  C14 UNL     1      10.978  -7.054  -0.142  1.00  0.00     0.268 A 
HETATM    3  O4  UNL     1      11.830  -6.131  -0.033  1.00  0.00    -0.267 OA
HETATM    4  C15 UNL     1       9.935  -6.900  -1.081  1.00  0.00     0.112 A 
HETATM    5  C20 UNL     1       9.064  -7.940  -1.132  1.00  0.00     0.164 A 
HETATM    6  N9  UNL     1       9.219  -9.033  -0.321  1.00  0.00    -0.274 N 
HETATM    7  C23 UNL     1      10.233  -9.099   0.538  1.00  0.00     0.334 A 
HETATM    8  O8  UNL     1      10.380 -10.110   1.290  1.00  0.00    -0.246 OA
ENDROOT
BRANCH   1   9
HETATM    9  C13 UNL     1      12.202  -8.227   1.581  1.00  0.00     0.241 C 
BRANCH   9  10
HETATM   10  C12 UNL     1      13.445  -8.777   0.988  1.00  0.00     0.254 C 
HETATM   11  N4  UNL     1      14.692  -8.777   1.690  1.00  0.00    -0.269 N 
ATOM     12  H4  UNL     1      14.692  -8.379   2.629  1.00  0.00     0.190 HD
HETATM   13  O3  UNL     1      13.445  -9.264  -0.160  1.00  0.00    -0.270 OA
BRANCH  11  14
HETATM   14  N3  UNL     1      15.858  -9.249   1.232  1.00  0.00    -0.304 N 
HETATM   15  C10 UNL     1      16.755  -8.859   0.421  1.00  0.00     0.029 C 
HETATM   16  C11 UNL     1      17.873  -9.865   0.265  1.00  0.00     0.068 C 
ATOM     17  H3  UNL     1      16.084 -10.157   1.639  1.00  0.00     0.186 HD
BRANCH  15  18
HETATM   18  C9  UNL     1      16.772  -7.629  -0.338  1.00  0.00     0.177 C 
HETATM   19  C6  UNL     1      16.733  -7.619  -1.801  1.00  0.00     0.074 C 
HETATM   20  C7  UNL     1      18.138  -8.253  -2.042  1.00  0.00     0.040 C 
HETATM   21  C8  UNL     1      18.880  -7.275  -1.106  1.00  0.00     0.169 C 
HETATM   22  O2  UNL     1      18.028  -7.027  -0.048  1.00  0.00    -0.379 OA
BRANCH  19  23
HETATM   23  C5  UNL     1      15.683  -8.389  -2.522  1.00  0.00     0.039 A 
HETATM   24  C3  UNL     1      14.611  -7.750  -3.072  1.00  0.00     0.076 A 
HETATM   25  S1  UNL     1      13.704  -9.067  -3.745  1.00  0.00    -0.049 SA
HETATM   26  C4  UNL     1      14.742 -10.330  -3.287  1.00  0.00     0.143 A 
HETATM   27  N2  UNL     1      15.727  -9.716  -2.648  1.00  0.00    -0.339 N 
ATOM     28  H2  UNL     1      16.506 -10.248  -2.259  1.00  0.00     0.168 HD
BRANCH  24  29
HETATM   29  C2  UNL     1      14.242  -6.323  -3.144  1.00  0.00     0.164 C 
HETATM   30  C1  UNL     1      14.131  -5.683  -4.481  1.00  0.00     0.097 C 
HETATM   31  O1  UNL     1      14.024  -5.645  -2.139  1.00  0.00    -0.292 OA
ENDBRANCH  24  29
BRANCH  26  32
HETATM   32  N1  UNL     1      14.602 -11.622  -3.514  1.00  0.00    -0.380 N 
ATOM     33  H12 UNL     1      13.769 -12.195  -3.384  1.00  0.00     0.158 HD
ATOM     34  H11 UNL     1      15.301 -12.279  -3.859  1.00  0.00     0.158 HD
ENDBRANCH  26  32
ENDBRANCH  19  23
ENDBRANCH  15  18
ENDBRANCH  11  14
ENDBRANCH   9  10
ENDBRANCH   1   9
BRANCH   4  35
HETATM   35  C16 UNL     1       9.887  -5.662  -1.889  1.00  0.00     0.077 A 
HETATM   36  N6  UNL     1      10.872  -5.546  -2.764  1.00  0.00    -0.277 N 
HETATM   37  S2  UNL     1      10.696  -4.097  -3.613  1.00  0.00     0.281 S 
ATOM     38  H6  UNL     1      11.621  -6.226  -2.903  1.00  0.00     0.179 HD
HETATM   39  O5  UNL     1      11.813  -3.119  -3.356  1.00  0.00    -0.199 OA
HETATM   40  O6  UNL     1      10.479  -4.296  -5.088  1.00  0.00    -0.199 OA
HETATM   41  C17 UNL     1       9.251  -3.568  -2.809  1.00  0.00     0.178 A 
HETATM   42  N7  UNL     1       8.362  -2.592  -2.760  1.00  0.00    -0.288 N 
HETATM   43  C19 UNL     1       8.971  -4.572  -1.897  1.00  0.00     0.051 A 
HETATM   44  N8  UNL     1       7.499  -2.898  -1.856  1.00  0.00    -0.310 N 
ATOM     45  H7  UNL     1       8.360  -1.749  -3.334  1.00  0.00     0.188 HD
HETATM   46  C18 UNL     1       7.805  -4.077  -1.294  1.00  0.00     0.124 A 
ATOM     47  H8  UNL     1       6.696  -2.324  -1.602  1.00  0.00     0.186 HD
ENDBRANCH   4  35
BRANCH   6  48
HETATM   48  C21 UNL     1       8.235 -10.088  -0.436  1.00  0.00     0.207 C 
BRANCH  48  49
HETATM   49  C22 UNL     1       7.172  -9.869   0.610  1.00  0.00     0.371 C 
HETATM   50  F1  UNL     1       7.218 -10.753   1.659  1.00  0.00    -0.213 F 
HETATM   51  F2  UNL     1       5.885  -9.933   0.074  1.00  0.00    -0.213 F 
ENDBRANCH  48  49
ENDBRANCH   6  48
BRANCH   5  52
HETATM   52  O7  UNL     1       7.993  -7.987  -1.972  1.00  0.00    -0.345 OA
ATOM     53  H7  UNL     1       7.264  -7.380  -1.929  1.00  0.00     0.219 HD
ENDBRANCH   5  52
TORSDOF 11
ENDMDL
