MODEL 1
REMARK VINA RESULT: -7.818482778      0.000      0.000
REMARK  14 active torsions:
REMARK  status: ('A' for Active; 'I' for Inactive)
REMARK    1  A    between atoms: C2_2  and  O1_3 
REMARK    2  A    between atoms: O1_3  and  C3_4 
REMARK    3  A    between atoms: C4_7  and  C5_8 
REMARK    4  A    between atoms: C5_8  and  O3_10 
REMARK    5  A    between atoms: O3_10  and  C6_11 
REMARK    6  A    between atoms: C6_11  and  C7_12 
REMARK    7  A    between atoms: C7_12  and  N2_13 
REMARK    8  A    between atoms: C20_34  and  O6_35 
REMARK    9  A    between atoms: C21_39  and  N7_40 
REMARK   10  A    between atoms: N7_40  and  C22_42 
REMARK   11  A    between atoms: C22_42  and  C23_43 
REMARK   12  A    between atoms: N8_44  and  C24_46 
REMARK   13  A    between atoms: C24_46  and  O7_50 
REMARK   14  A    between atoms: O7_50  and  C25_51 
ROOT
HETATM    1  C3  UNL     1      14.755  -8.715   1.037  1.00  0.00     0.157 A 
HETATM    2  N1  UNL     1      15.382  -9.549   1.894  1.00  0.00    -0.317 N 
ATOM      3  H1  UNL     1      15.049  -9.656   2.853  1.00  0.00     0.169 HD
HETATM    4  C4  UNL     1      16.452 -10.234   1.461  1.00  0.00     0.184 A 
HETATM    5  N4  UNL     1      16.927 -10.129   0.214  1.00  0.00    -0.337 N 
ATOM      6  H4  UNL     1      17.744 -10.676  -0.060  1.00  0.00     0.167 HD
HETATM    7  C12 UNL     1      16.337  -9.304  -0.694  1.00  0.00     0.050 A 
HETATM    8  C13 UNL     1      16.823  -9.197  -1.980  1.00  0.00     0.055 A 
HETATM    9  C14 UNL     1      16.162  -8.339  -2.836  1.00  0.00     0.049 A 
HETATM   10 CL1  UNL     1      16.767  -8.182  -4.496  1.00  0.00    -0.083 Cl
HETATM   11  C15 UNL     1      15.053  -7.607  -2.441  1.00  0.00     0.026 A 
HETATM   12  C16 UNL     1      14.589  -7.733  -1.152  1.00  0.00    -0.008 A 
HETATM   13  C17 UNL     1      15.232  -8.595  -0.247  1.00  0.00     0.051 A 
HETATM   14  C18 UNL     1      13.457  -6.885  -0.973  1.00  0.00     0.188 A 
HETATM   15  N5  UNL     1      13.245  -6.252  -2.265  1.00  0.00    -0.174 N 
HETATM   16  C19 UNL     1      14.184  -6.663  -3.126  1.00  0.00     0.116 A 
HETATM   17  C20 UNL     1      13.941  -6.021  -4.336  1.00  0.00     0.184 A 
HETATM   18  N6  UNL     1      12.854  -5.252  -4.129  1.00  0.00    -0.168 N 
ATOM     19  H6  UNL     1      12.427  -4.655  -4.837  1.00  0.00     0.186 HD
HETATM   20  C21 UNL     1      12.408  -5.373  -2.870  1.00  0.00     0.683 A 
ENDROOT
BRANCH   4  21
HETATM   21  C5  UNL     1      17.105 -11.134   2.432  1.00  0.00     0.327 C 
HETATM   22  O2  UNL     1      16.796 -11.055   3.661  1.00  0.00    -0.256 OA
BRANCH  21  23
HETATM   23  O3  UNL     1      18.039 -12.051   2.036  1.00  0.00    -0.314 OA
BRANCH  23  24
HETATM   24  C6  UNL     1      17.784 -13.349   1.606  1.00  0.00     0.199 C 
BRANCH  24  25
HETATM   25  C7  UNL     1      18.522 -14.343   2.440  1.00  0.00     0.160 C 
BRANCH  25  26
HETATM   26  N2  UNL     1      18.007 -14.257   3.793  1.00  0.00    -0.308 N 
HETATM   27  C8  UNL     1      16.734 -14.522   4.113  1.00  0.00     0.101 A 
HETATM   28  C9  UNL     1      16.286 -14.427   5.422  1.00  0.00     0.092 A 
HETATM   29  C10 UNL     1      17.155 -14.054   6.425  1.00  0.00     0.250 A 
HETATM   30  O4  UNL     1      16.805 -13.951   7.625  1.00  0.00    -0.268 OA
HETATM   31  N3  UNL     1      18.439 -13.793   6.065  1.00  0.00    -0.275 N 
HETATM   32  C11 UNL     1      18.847 -13.895   4.775  1.00  0.00     0.329 A 
ATOM     33  H3  UNL     1      19.111 -13.514   6.780  1.00  0.00     0.173 HD
HETATM   34  O5  UNL     1      20.042 -13.638   4.531  1.00  0.00    -0.246 OA
ENDBRANCH  25  26
ENDBRANCH  24  25
ENDBRANCH  23  24
ENDBRANCH  21  23
ENDBRANCH   4  21
BRANCH   1  35
HETATM   35  O1  UNL     1      13.650  -7.976   1.403  1.00  0.00    -0.335 OA
BRANCH  35  36
HETATM   36  C2  UNL     1      12.615  -8.423   2.225  1.00  0.00     0.173 C 
HETATM   37  C1  UNL     1      11.376  -8.835   1.501  1.00  0.00     0.034 C 
ENDBRANCH  35  36
ENDBRANCH   1  35
BRANCH  17  38
HETATM   38  O6  UNL     1      14.666  -6.143  -5.526  1.00  0.00    -0.344 OA
ATOM     39  H6  UNL     1      14.872  -5.457  -6.151  1.00  0.00     0.219 HD
ENDBRANCH  17  38
BRANCH  20  40
HETATM   40  N7  UNL     1      11.388  -4.780  -2.331  1.00  0.00    -0.221 N 
ATOM     41  H7  UNL     1      11.522  -4.315  -1.433  1.00  0.00     0.178 HD
BRANCH  40  42
HETATM   42  C22 UNL     1      10.091  -4.740  -2.919  1.00  0.00     0.182 C 
BRANCH  42  43
HETATM   43  C23 UNL     1       9.219  -5.701  -2.200  1.00  0.00     0.084 C 
HETATM   44  N8  UNL     1       8.307  -5.367  -1.366  1.00  0.00    -0.334 N 
ATOM     45  H8  UNL     1       7.768  -6.116  -0.932  1.00  0.00     0.168 HD
BRANCH  44  46
HETATM   46  C24 UNL     1       7.993  -4.043  -1.004  1.00  0.00     0.225 C 
HETATM   47  N9  UNL     1       8.545  -3.495   0.030  1.00  0.00    -0.365 N 
ATOM     48  H92 UNL     1       9.210  -4.040   0.577  1.00  0.00     0.159 HD
ATOM     49  H91 UNL     1       8.318  -2.535   0.292  1.00  0.00     0.159 HD
BRANCH  46  50
HETATM   50  O7  UNL     1       7.088  -3.301  -1.749  1.00  0.00    -0.231 OA
BRANCH  50  51
HETATM   51  C25 UNL     1       7.431  -2.144  -2.435  1.00  0.00     0.380 C 
HETATM   52  N10 UNL     1       6.502  -1.551  -3.319  1.00  0.00    -0.032 NA
HETATM   53  O8  UNL     1       8.558  -1.635  -2.266  1.00  0.00    -0.242 OA
ENDBRANCH  50  51
ENDBRANCH  46  50
ENDBRANCH  44  46
ENDBRANCH  42  43
ENDBRANCH  40  42
ENDBRANCH  20  40
TORSDOF 14
ENDMDL
MODEL 2
REMARK VINA RESULT: -7.718387696      1.743      2.507
REMARK  14 active torsions:
REMARK  status: ('A' for Active; 'I' for Inactive)
REMARK    1  A    between atoms: C2_2  and  O1_3 
REMARK    2  A    between atoms: O1_3  and  C3_4 
REMARK    3  A    between atoms: C4_7  and  C5_8 
REMARK    4  A    between atoms: C5_8  and  O3_10 
REMARK    5  A    between atoms: O3_10  and  C6_11 
REMARK    6  A    between atoms: C6_11  and  C7_12 
REMARK    7  A    between atoms: C7_12  and  N2_13 
REMARK    8  A    between atoms: C20_34  and  O6_35 
REMARK    9  A    between atoms: C21_39  and  N7_40 
REMARK   10  A    between atoms: N7_40  and  C22_42 
REMARK   11  A    between atoms: C22_42  and  C23_43 
REMARK   12  A    between atoms: N8_44  and  C24_46 
REMARK   13  A    between atoms: C24_46  and  O7_50 
REMARK   14  A    between atoms: O7_50  and  C25_51 
ROOT
HETATM    1  C3  UNL     1      13.475  -8.226   0.757  1.00  0.00     0.157 A 
HETATM    2  N1  UNL     1      14.431  -9.009   1.300  1.00  0.00    -0.317 N 
ATOM      3  H1  UNL     1      14.294  -9.437   2.217  1.00  0.00     0.169 HD
HETATM    4  C4  UNL     1      15.565  -9.214   0.612  1.00  0.00     0.184 A 
HETATM    5  N4  UNL     1      15.793  -8.676  -0.592  1.00  0.00    -0.337 N 
ATOM      6  H4  UNL     1      16.673  -8.868  -1.069  1.00  0.00     0.167 HD
HETATM    7  C12 UNL     1      14.865  -7.878  -1.190  1.00  0.00     0.050 A 
HETATM    8  C13 UNL     1      15.097  -7.326  -2.433  1.00  0.00     0.055 A 
HETATM    9  C14 UNL     1      14.102  -6.532  -2.965  1.00  0.00     0.049 A 
HETATM   10 CL1  UNL     1      14.373  -5.809  -4.562  1.00  0.00    -0.083 Cl
HETATM   11  C15 UNL     1      12.912  -6.286  -2.298  1.00  0.00     0.026 A 
HETATM   12  C16 UNL     1      12.707  -6.850  -1.060  1.00  0.00    -0.008 A 
HETATM   13  C17 UNL     1      13.694  -7.666  -0.479  1.00  0.00     0.051 A 
HETATM   14  C18 UNL     1      11.429  -6.453  -0.566  1.00  0.00     0.188 A 
HETATM   15  N5  UNL     1      10.854  -5.626  -1.614  1.00  0.00    -0.174 N 
HETATM   16  C19 UNL     1      11.722  -5.516  -2.628  1.00  0.00     0.116 A 
HETATM   17  C20 UNL     1      11.127  -4.710  -3.592  1.00  0.00     0.184 A 
HETATM   18  N6  UNL     1       9.919  -4.379  -3.097  1.00  0.00    -0.168 N 
ATOM     19  H6  UNL     1       9.240  -3.790  -3.579  1.00  0.00     0.186 HD
HETATM   20  C21 UNL     1       9.725  -4.926  -1.887  1.00  0.00     0.683 A 
ENDROOT
BRANCH   4  21
HETATM   21  C5  UNL     1      16.583 -10.076   1.245  1.00  0.00     0.327 C 
HETATM   22  O2  UNL     1      17.814  -9.836   1.048  1.00  0.00    -0.256 OA
BRANCH  21  23
HETATM   23  O3  UNL     1      16.227 -11.131   2.039  1.00  0.00    -0.314 OA
BRANCH  23  24
HETATM   24  C6  UNL     1      16.685 -11.378   3.329  1.00  0.00     0.199 C 
BRANCH  24  25
HETATM   25  C7  UNL     1      17.562 -12.585   3.363  1.00  0.00     0.160 C 
BRANCH  25  26
HETATM   26  N2  UNL     1      17.029 -13.495   4.359  1.00  0.00    -0.308 N 
HETATM   27  C8  UNL     1      15.777 -13.970   4.324  1.00  0.00     0.101 A 
HETATM   28  C9  UNL     1      15.310 -14.838   5.299  1.00  0.00     0.092 A 
HETATM   29  C10 UNL     1      16.136 -15.230   6.330  1.00  0.00     0.250 A 
HETATM   30  O4  UNL     1      15.767 -16.012   7.239  1.00  0.00    -0.268 OA
HETATM   31  N3  UNL     1      17.399 -14.729   6.334  1.00  0.00    -0.275 N 
HETATM   32  C11 UNL     1      17.827 -13.881   5.365  1.00  0.00     0.329 A 
ATOM     33  H3  UNL     1      18.040 -14.996   7.082  1.00  0.00     0.173 HD
HETATM   34  O5  UNL     1      19.001 -13.468   5.444  1.00  0.00    -0.246 OA
ENDBRANCH  25  26
ENDBRANCH  24  25
ENDBRANCH  23  24
ENDBRANCH  21  23
ENDBRANCH   4  21
BRANCH   1  35
HETATM   35  O1  UNL     1      12.282  -7.966   1.398  1.00  0.00    -0.335 OA
BRANCH  35  36
HETATM   36  C2  UNL     1      11.714  -8.756   2.399  1.00  0.00     0.173 C 
HETATM   37  C1  UNL     1      10.302  -9.169   2.142  1.00  0.00     0.034 C 
ENDBRANCH  35  36
ENDBRANCH   1  35
BRANCH  17  38
HETATM   38  O6  UNL     1      11.662  -4.320  -4.825  1.00  0.00    -0.344 OA
ATOM     39  H6  UNL     1      12.378  -3.715  -4.979  1.00  0.00     0.219 HD
ENDBRANCH  17  38
BRANCH  20  40
HETATM   40  N7  UNL     1       8.680  -4.816  -1.127  1.00  0.00    -0.221 N 
ATOM     41  H7  UNL     1       8.229  -5.671  -0.804  1.00  0.00     0.178 HD
BRANCH  40  42
HETATM   42  C22 UNL     1       8.126  -3.569  -0.716  1.00  0.00     0.182 C 
BRANCH  42  43
HETATM   43  C23 UNL     1       6.675  -3.574  -1.027  1.00  0.00     0.084 C 
HETATM   44  N8  UNL     1       6.154  -3.014  -2.054  1.00  0.00    -0.334 N 
ATOM     45  H8  UNL     1       5.142  -3.083  -2.166  1.00  0.00     0.168 HD
BRANCH  44  46
HETATM   46  C24 UNL     1       6.873  -2.312  -3.040  1.00  0.00     0.225 C 
HETATM   47  N9  UNL     1       7.064  -1.037  -2.932  1.00  0.00    -0.365 N 
ATOM     48  H92 UNL     1       6.683  -0.551  -2.121  1.00  0.00     0.159 HD
ATOM     49  H91 UNL     1       7.585  -0.527  -3.647  1.00  0.00     0.159 HD
BRANCH  46  50
HETATM   50  O7  UNL     1       7.391  -2.973  -4.144  1.00  0.00    -0.231 OA
BRANCH  50  51
HETATM   51  C25 UNL     1       7.897  -2.317  -5.258  1.00  0.00     0.380 C 
HETATM   52  N10 UNL     1       9.280  -2.373  -5.538  1.00  0.00    -0.032 NA
HETATM   53  O8  UNL     1       7.126  -1.681  -6.006  1.00  0.00    -0.242 OA
ENDBRANCH  50  51
ENDBRANCH  46  50
ENDBRANCH  44  46
ENDBRANCH  42  43
ENDBRANCH  40  42
ENDBRANCH  20  40
TORSDOF 14
ENDMDL
MODEL 3
REMARK VINA RESULT: -7.697892080      3.365     11.005
REMARK  14 active torsions:
REMARK  status: ('A' for Active; 'I' for Inactive)
REMARK    1  A    between atoms: C2_2  and  O1_3 
REMARK    2  A    between atoms: O1_3  and  C3_4 
REMARK    3  A    between atoms: C4_7  and  C5_8 
REMARK    4  A    between atoms: C5_8  and  O3_10 
REMARK    5  A    between atoms: O3_10  and  C6_11 
REMARK    6  A    between atoms: C6_11  and  C7_12 
REMARK    7  A    between atoms: C7_12  and  N2_13 
REMARK    8  A    between atoms: C20_34  and  O6_35 
REMARK    9  A    between atoms: C21_39  and  N7_40 
REMARK   10  A    between atoms: N7_40  and  C22_42 
REMARK   11  A    between atoms: C22_42  and  C23_43 
REMARK   12  A    between atoms: N8_44  and  C24_46 
REMARK   13  A    between atoms: C24_46  and  O7_50 
REMARK   14  A    between atoms: O7_50  and  C25_51 
ROOT
HETATM    1  C3  UNL     1      14.256  -6.295  -3.231  1.00  0.00     0.157 A 
HETATM    2  N1  UNL     1      13.358  -5.465  -3.803  1.00  0.00    -0.317 N 
ATOM      3  H1  UNL     1      13.514  -5.098  -4.742  1.00  0.00     0.169 HD
HETATM    4  C4  UNL     1      12.256  -5.132  -3.112  1.00  0.00     0.184 A 
HETATM    5  N4  UNL     1      12.006  -5.587  -1.878  1.00  0.00    -0.337 N 
ATOM      6  H4  UNL     1      11.151  -5.301  -1.401  1.00  0.00     0.167 HD
HETATM    7  C12 UNL     1      12.875  -6.427  -1.251  1.00  0.00     0.050 A 
HETATM    8  C13 UNL     1      12.617  -6.899   0.019  1.00  0.00     0.055 A 
HETATM    9  C14 UNL     1      13.550  -7.748   0.578  1.00  0.00     0.049 A 
HETATM   10 CL1  UNL     1      13.244  -8.370   2.210  1.00  0.00    -0.083 Cl
HETATM   11  C15 UNL     1      14.706  -8.123  -0.090  1.00  0.00     0.026 A 
HETATM   12  C16 UNL     1      14.938  -7.637  -1.355  1.00  0.00    -0.008 A 
HETATM   13  C17 UNL     1      14.014  -6.770  -1.964  1.00  0.00     0.051 A 
HETATM   14  C18 UNL     1      16.181  -8.146  -1.836  1.00  0.00     0.188 A 
HETATM   15  N5  UNL     1      16.677  -9.008  -0.775  1.00  0.00    -0.174 N 
HETATM   16  C19 UNL     1      15.822  -8.990   0.255  1.00  0.00     0.116 A 
HETATM   17  C20 UNL     1      16.349  -9.819   1.240  1.00  0.00     0.184 A 
HETATM   18  N6  UNL     1      17.505 -10.294   0.737  1.00  0.00    -0.168 N 
ATOM     19  H6  UNL     1      18.127 -10.936   1.229  1.00  0.00     0.186 HD
HETATM   20  C21 UNL     1      17.731  -9.814  -0.495  1.00  0.00     0.683 A 
ENDROOT
BRANCH   4  21
HETATM   21  C5  UNL     1      11.302  -4.222  -3.776  1.00  0.00     0.327 C 
HETATM   22  O2  UNL     1      11.161  -3.039  -3.338  1.00  0.00    -0.256 OA
BRANCH  21  23
HETATM   23  O3  UNL     1      10.564  -4.628  -4.854  1.00  0.00    -0.314 OA
BRANCH  23  24
HETATM   24  C6  UNL     1       9.203  -4.913  -4.856  1.00  0.00     0.199 C 
BRANCH  24  25
HETATM   25  C7  UNL     1       8.843  -5.808  -3.716  1.00  0.00     0.160 C 
BRANCH  25  26
HETATM   26  N2  UNL     1       7.932  -5.083  -2.852  1.00  0.00    -0.308 N 
HETATM   27  C8  UNL     1       6.790  -4.534  -3.284  1.00  0.00     0.101 A 
HETATM   28  C9  UNL     1       5.948  -3.849  -2.420  1.00  0.00     0.092 A 
HETATM   29  C10 UNL     1       6.279  -3.721  -1.089  1.00  0.00     0.250 A 
HETATM   30  O4  UNL     1       5.558  -3.112  -0.263  1.00  0.00    -0.268 OA
HETATM   31  N3  UNL     1       7.446  -4.289  -0.685  1.00  0.00    -0.275 N 
HETATM   32  C11 UNL     1       8.248  -4.953  -1.555  1.00  0.00     0.329 A 
ATOM     33  H3  UNL     1       7.725  -4.214   0.294  1.00  0.00     0.173 HD
HETATM   34  O5  UNL     1       9.300  -5.445  -1.101  1.00  0.00    -0.246 OA
ENDBRANCH  25  26
ENDBRANCH  24  25
ENDBRANCH  23  24
ENDBRANCH  21  23
ENDBRANCH   4  21
BRANCH   1  35
HETATM   35  O1  UNL     1      15.413  -6.685  -3.873  1.00  0.00    -0.335 OA
BRANCH  35  36
HETATM   36  C2  UNL     1      15.543  -6.894  -5.247  1.00  0.00     0.173 C 
HETATM   37  C1  UNL     1      15.087  -8.234  -5.720  1.00  0.00     0.034 C 
ENDBRANCH  35  36
ENDBRANCH   1  35
BRANCH  17  38
HETATM   38  O6  UNL     1      15.800 -10.108   2.494  1.00  0.00    -0.344 OA
ATOM     39  H6  UNL     1      16.263 -10.370   3.282  1.00  0.00     0.219 HD
ENDBRANCH  17  38
BRANCH  20  40
HETATM   40  N7  UNL     1      18.743 -10.061  -1.268  1.00  0.00    -0.221 N 
ATOM     41  H7  UNL     1      18.554 -10.367  -2.222  1.00  0.00     0.178 HD
BRANCH  40  42
HETATM   42  C22 UNL     1      20.102  -9.931  -0.861  1.00  0.00     0.182 C 
BRANCH  42  43
HETATM   43  C23 UNL     1      20.946  -9.801  -2.075  1.00  0.00     0.084 C 
HETATM   44  N8  UNL     1      21.459  -8.702  -2.485  1.00  0.00    -0.334 N 
ATOM     45  H8  UNL     1      22.023  -8.733  -3.334  1.00  0.00     0.168 HD
BRANCH  44  46
HETATM   46  C24 UNL     1      21.304  -7.455  -1.850  1.00  0.00     0.225 C 
HETATM   47  N9  UNL     1      22.337  -6.746  -1.530  1.00  0.00    -0.365 N 
ATOM     48  H92 UNL     1      23.266  -7.108  -1.745  1.00  0.00     0.159 HD
ATOM     49  H91 UNL     1      22.225  -5.842  -1.070  1.00  0.00     0.159 HD
BRANCH  46  50
HETATM   50  O7  UNL     1      20.040  -6.962  -1.558  1.00  0.00    -0.231 OA
BRANCH  50  51
HETATM   51  C25 UNL     1      19.744  -6.265  -0.395  1.00  0.00     0.380 C 
HETATM   52  N10 UNL     1      20.455  -5.084  -0.084  1.00  0.00    -0.032 NA
HETATM   53  O8  UNL     1      18.850  -6.685   0.370  1.00  0.00    -0.242 OA
ENDBRANCH  50  51
ENDBRANCH  46  50
ENDBRANCH  44  46
ENDBRANCH  42  43
ENDBRANCH  40  42
ENDBRANCH  20  40
TORSDOF 14
ENDMDL
MODEL 4
REMARK VINA RESULT: -7.662073071      1.663      2.250
REMARK  14 active torsions:
REMARK  status: ('A' for Active; 'I' for Inactive)
REMARK    1  A    between atoms: C2_2  and  O1_3 
REMARK    2  A    between atoms: O1_3  and  C3_4 
REMARK    3  A    between atoms: C4_7  and  C5_8 
REMARK    4  A    between atoms: C5_8  and  O3_10 
REMARK    5  A    between atoms: O3_10  and  C6_11 
REMARK    6  A    between atoms: C6_11  and  C7_12 
REMARK    7  A    between atoms: C7_12  and  N2_13 
REMARK    8  A    between atoms: C20_34  and  O6_35 
REMARK    9  A    between atoms: C21_39  and  N7_40 
REMARK   10  A    between atoms: N7_40  and  C22_42 
REMARK   11  A    between atoms: C22_42  and  C23_43 
REMARK   12  A    between atoms: N8_44  and  C24_46 
REMARK   13  A    between atoms: C24_46  and  O7_50 
REMARK   14  A    between atoms: O7_50  and  C25_51 
ROOT
HETATM    1  C3  UNL     1      14.389  -8.299   0.690  1.00  0.00     0.157 A 
HETATM    2  N1  UNL     1      15.387  -9.032   1.227  1.00  0.00    -0.317 N 
ATOM      3  H1  UNL     1      15.330  -9.360   2.192  1.00  0.00     0.169 HD
HETATM    4  C4  UNL     1      16.455  -9.322   0.468  1.00  0.00     0.184 A 
HETATM    5  N4  UNL     1      16.576  -8.917  -0.802  1.00  0.00    -0.337 N 
ATOM      6  H4  UNL     1      17.411  -9.168  -1.332  1.00  0.00     0.167 HD
HETATM    7  C12 UNL     1      15.602  -8.175  -1.397  1.00  0.00     0.050 A 
HETATM    8  C13 UNL     1      15.724  -7.759  -2.707  1.00  0.00     0.055 A 
HETATM    9  C14 UNL     1      14.688  -7.014  -3.231  1.00  0.00     0.049 A 
HETATM   10 CL1  UNL     1      14.818  -6.466  -4.913  1.00  0.00    -0.083 Cl
HETATM   11  C15 UNL     1      13.562  -6.685  -2.492  1.00  0.00     0.026 A 
HETATM   12  C16 UNL     1      13.467  -7.113  -1.188  1.00  0.00    -0.008 A 
HETATM   13  C17 UNL     1      14.499  -7.875  -0.613  1.00  0.00     0.051 A 
HETATM   14  C18 UNL     1      12.239  -6.651  -0.628  1.00  0.00     0.188 A 
HETATM   15  N5  UNL     1      11.575  -5.932  -1.703  1.00  0.00    -0.174 N 
HETATM   16  C19 UNL     1      12.350  -5.939  -2.795  1.00  0.00     0.116 A 
HETATM   17  C20 UNL     1      11.675  -5.232  -3.783  1.00  0.00     0.184 A 
HETATM   18  N6  UNL     1      10.516  -4.836  -3.222  1.00  0.00    -0.168 N 
ATOM     19  H6  UNL     1       9.798  -4.293  -3.701  1.00  0.00     0.186 HD
HETATM   20  C21 UNL     1      10.429  -5.250  -1.949  1.00  0.00     0.683 A 
ENDROOT
BRANCH   4  21
HETATM   21  C5  UNL     1      17.522 -10.126   1.097  1.00  0.00     0.327 C 
HETATM   22  O2  UNL     1      18.566 -10.407   0.430  1.00  0.00    -0.256 OA
BRANCH  21  23
HETATM   23  O3  UNL     1      17.410 -10.576   2.383  1.00  0.00    -0.314 OA
BRANCH  23  24
HETATM   24  C6  UNL     1      16.831 -11.775   2.785  1.00  0.00     0.199 C 
BRANCH  24  25
HETATM   25  C7  UNL     1      17.864 -12.718   3.306  1.00  0.00     0.160 C 
BRANCH  25  26
HETATM   26  N2  UNL     1      17.233 -13.562   4.303  1.00  0.00    -0.308 N 
HETATM   27  C8  UNL     1      15.967 -13.988   4.209  1.00  0.00     0.101 A 
HETATM   28  C9  UNL     1      15.404 -14.794   5.187  1.00  0.00     0.092 A 
HETATM   29  C10 UNL     1      16.148 -15.174   6.283  1.00  0.00     0.250 A 
HETATM   30  O4  UNL     1      15.692 -15.901   7.198  1.00  0.00    -0.268 OA
HETATM   31  N3  UNL     1      17.429 -14.723   6.346  1.00  0.00    -0.275 N 
HETATM   32  C11 UNL     1      17.951 -13.935   5.372  1.00  0.00     0.329 A 
ATOM     33  H3  UNL     1      18.011 -14.982   7.143  1.00  0.00     0.173 HD
HETATM   34  O5  UNL     1      19.134 -13.566   5.508  1.00  0.00    -0.246 OA
ENDBRANCH  25  26
ENDBRANCH  24  25
ENDBRANCH  23  24
ENDBRANCH  21  23
ENDBRANCH   4  21
BRANCH   1  35
HETATM   35  O1  UNL     1      13.258  -7.959   1.403  1.00  0.00    -0.335 OA
BRANCH  35  36
HETATM   36  C2  UNL     1      12.656  -8.745   2.386  1.00  0.00     0.173 C 
HETATM   37  C1  UNL     1      11.164  -8.776   2.334  1.00  0.00     0.034 C 
ENDBRANCH  35  36
ENDBRANCH   1  35
BRANCH  17  38
HETATM   38  O6  UNL     1      12.099  -4.980  -5.092  1.00  0.00    -0.344 OA
ATOM     39  H6  UNL     1      11.980  -4.183  -5.596  1.00  0.00     0.219 HD
ENDBRANCH  17  38
BRANCH  20  40
HETATM   40  N7  UNL     1       9.455  -5.048  -1.115  1.00  0.00    -0.221 N 
ATOM     41  H7  UNL     1       9.668  -5.057  -0.118  1.00  0.00     0.178 HD
BRANCH  40  42
HETATM   42  C22 UNL     1       8.107  -4.816  -1.511  1.00  0.00     0.182 C 
BRANCH  42  43
HETATM   43  C23 UNL     1       7.767  -3.402  -1.217  1.00  0.00     0.084 C 
HETATM   44  N8  UNL     1       7.583  -2.501  -2.107  1.00  0.00    -0.334 N 
ATOM     45  H8  UNL     1       7.353  -1.561  -1.787  1.00  0.00     0.168 HD
BRANCH  44  46
HETATM   46  C24 UNL     1       7.675  -2.712  -3.496  1.00  0.00     0.225 C 
HETATM   47  N9  UNL     1       6.616  -2.962  -4.196  1.00  0.00    -0.365 N 
ATOM     48  H92 UNL     1       5.714  -3.003  -3.722  1.00  0.00     0.159 HD
ATOM     49  H91 UNL     1       6.682  -3.115  -5.203  1.00  0.00     0.159 HD
BRANCH  46  50
HETATM   50  O7  UNL     1       8.902  -2.656  -4.141  1.00  0.00    -0.231 OA
BRANCH  50  51
HETATM   51  C25 UNL     1       9.045  -2.753  -5.519  1.00  0.00     0.380 C 
HETATM   52  N10 UNL     1       8.846  -1.612  -6.328  1.00  0.00    -0.032 NA
HETATM   53  O8  UNL     1       9.349  -3.848  -6.035  1.00  0.00    -0.242 OA
ENDBRANCH  50  51
ENDBRANCH  46  50
ENDBRANCH  44  46
ENDBRANCH  42  43
ENDBRANCH  40  42
ENDBRANCH  20  40
TORSDOF 14
ENDMDL
MODEL 5
REMARK VINA RESULT: -7.609427095      3.878     12.025
REMARK  14 active torsions:
REMARK  status: ('A' for Active; 'I' for Inactive)
REMARK    1  A    between atoms: C2_2  and  O1_3 
REMARK    2  A    between atoms: O1_3  and  C3_4 
REMARK    3  A    between atoms: C4_7  and  C5_8 
REMARK    4  A    between atoms: C5_8  and  O3_10 
REMARK    5  A    between atoms: O3_10  and  C6_11 
REMARK    6  A    between atoms: C6_11  and  C7_12 
REMARK    7  A    between atoms: C7_12  and  N2_13 
REMARK    8  A    between atoms: C20_34  and  O6_35 
REMARK    9  A    between atoms: C21_39  and  N7_40 
REMARK   10  A    between atoms: N7_40  and  C22_42 
REMARK   11  A    between atoms: C22_42  and  C23_43 
REMARK   12  A    between atoms: N8_44  and  C24_46 
REMARK   13  A    between atoms: C24_46  and  O7_50 
REMARK   14  A    between atoms: O7_50  and  C25_51 
ROOT
HETATM    1  C3  UNL     1      14.243  -6.162  -3.213  1.00  0.00     0.157 A 
HETATM    2  N1  UNL     1      13.341  -5.311  -3.747  1.00  0.00    -0.317 N 
ATOM      3  H1  UNL     1      13.491  -4.908  -4.672  1.00  0.00     0.169 HD
HETATM    4  C4  UNL     1      12.244  -5.005  -3.036  1.00  0.00     0.184 A 
HETATM    5  N4  UNL     1      12.001  -5.507  -1.819  1.00  0.00    -0.337 N 
ATOM      6  H4  UNL     1      11.149  -5.239  -1.327  1.00  0.00     0.167 HD
HETATM    7  C12 UNL     1      12.875  -6.370  -1.230  1.00  0.00     0.050 A 
HETATM    8  C13 UNL     1      12.624  -6.890   0.022  1.00  0.00     0.055 A 
HETATM    9  C14 UNL     1      13.562  -7.759   0.543  1.00  0.00     0.049 A 
HETATM   10 CL1  UNL     1      13.266  -8.444   2.152  1.00  0.00    -0.083 Cl
HETATM   11  C15 UNL     1      14.712  -8.109  -0.146  1.00  0.00     0.026 A 
HETATM   12  C16 UNL     1      14.936  -7.575  -1.394  1.00  0.00    -0.008 A 
HETATM   13  C17 UNL     1      14.009  -6.685  -1.963  1.00  0.00     0.051 A 
HETATM   14  C18 UNL     1      16.176  -8.065  -1.902  1.00  0.00     0.188 A 
HETATM   15  N5  UNL     1      16.679  -8.966  -0.878  1.00  0.00    -0.174 N 
HETATM   16  C19 UNL     1      15.831  -8.988   0.158  1.00  0.00     0.116 A 
HETATM   17  C20 UNL     1      16.364  -9.854   1.107  1.00  0.00     0.184 A 
HETATM   18  N6  UNL     1      17.517 -10.309   0.579  1.00  0.00    -0.168 N 
ATOM     19  H6  UNL     1      18.142 -10.969   1.042  1.00  0.00     0.186 HD
HETATM   20  C21 UNL     1      17.735  -9.782  -0.635  1.00  0.00     0.683 A 
ENDROOT
BRANCH   4  21
HETATM   21  C5  UNL     1      11.285  -4.070  -3.659  1.00  0.00     0.327 C 
HETATM   22  O2  UNL     1      11.459  -2.819  -3.528  1.00  0.00    -0.256 OA
BRANCH  21  23
HETATM   23  O3  UNL     1      10.212  -4.524  -4.375  1.00  0.00    -0.314 OA
BRANCH  23  24
HETATM   24  C6  UNL     1      10.230  -4.956  -5.696  1.00  0.00     0.199 C 
BRANCH  24  25
HETATM   25  C7  UNL     1      11.300  -4.262  -6.471  1.00  0.00     0.160 C 
BRANCH  25  26
HETATM   26  N2  UNL     1      10.712  -3.092  -7.093  1.00  0.00    -0.308 N 
HETATM   27  C8  UNL     1       9.503  -3.095  -7.669  1.00  0.00     0.101 A 
HETATM   28  C9  UNL     1       8.980  -1.951  -8.252  1.00  0.00     0.092 A 
HETATM   29  C10 UNL     1       9.705  -0.779  -8.247  1.00  0.00     0.250 A 
HETATM   30  O4  UNL     1       9.283   0.285  -8.759  1.00  0.00    -0.268 OA
HETATM   31  N3  UNL     1      10.928  -0.811  -7.654  1.00  0.00    -0.275 N 
HETATM   32  C11 UNL     1      11.412  -1.947  -7.092  1.00  0.00     0.329 A 
ATOM     33  H3  UNL     1      11.494   0.037  -7.632  1.00  0.00     0.173 HD
HETATM   34  O5  UNL     1      12.542  -1.890  -6.569  1.00  0.00    -0.246 OA
ENDBRANCH  25  26
ENDBRANCH  24  25
ENDBRANCH  23  24
ENDBRANCH  21  23
ENDBRANCH   4  21
BRANCH   1  35
HETATM   35  O1  UNL     1      15.395  -6.528  -3.877  1.00  0.00    -0.335 OA
BRANCH  35  36
HETATM   36  C2  UNL     1      15.496  -6.763  -5.248  1.00  0.00     0.173 C 
HETATM   37  C1  UNL     1      16.213  -8.021  -5.614  1.00  0.00     0.034 C 
ENDBRANCH  35  36
ENDBRANCH   1  35
BRANCH  17  38
HETATM   38  O6  UNL     1      15.823 -10.191   2.353  1.00  0.00    -0.344 OA
ATOM     39  H6  UNL     1      16.220 -10.727   3.030  1.00  0.00     0.219 HD
ENDBRANCH  17  38
BRANCH  20  40
HETATM   40  N7  UNL     1      18.742 -10.000  -1.424  1.00  0.00    -0.221 N 
ATOM     41  H7  UNL     1      18.547 -10.234  -2.397  1.00  0.00     0.178 HD
BRANCH  40  42
HETATM   42  C22 UNL     1      20.103  -9.931  -1.009  1.00  0.00     0.182 C 
BRANCH  42  43
HETATM   43  C23 UNL     1      20.951  -9.727  -2.210  1.00  0.00     0.084 C 
HETATM   44  N8  UNL     1      21.473  -8.607  -2.545  1.00  0.00    -0.334 N 
ATOM     45  H8  UNL     1      22.039  -8.586  -3.393  1.00  0.00     0.168 HD
BRANCH  44  46
HETATM   46  C24 UNL     1      21.324  -7.404  -1.830  1.00  0.00     0.225 C 
HETATM   47  N9  UNL     1      22.361  -6.747  -1.422  1.00  0.00    -0.365 N 
ATOM     48  H92 UNL     1      23.288  -7.120  -1.627  1.00  0.00     0.159 HD
ATOM     49  H91 UNL     1      22.253  -5.875  -0.903  1.00  0.00     0.159 HD
BRANCH  46  50
HETATM   50  O7  UNL     1      20.062  -6.898  -1.550  1.00  0.00    -0.231 OA
BRANCH  50  51
HETATM   51  C25 UNL     1      19.757  -6.213  -0.382  1.00  0.00     0.380 C 
HETATM   52  N10 UNL     1      20.458  -5.031  -0.057  1.00  0.00    -0.032 NA
HETATM   53  O8  UNL     1      18.863  -6.647   0.375  1.00  0.00    -0.242 OA
ENDBRANCH  50  51
ENDBRANCH  46  50
ENDBRANCH  44  46
ENDBRANCH  42  43
ENDBRANCH  40  42
ENDBRANCH  20  40
TORSDOF 14
ENDMDL
