MODEL 1
REMARK VINA RESULT: -7.193666136      0.000      0.000
REMARK  12 active torsions:
REMARK  status: ('A' for Active; 'I' for Inactive)
REMARK    1  A    between atoms: O1_2  and  C2_3 
REMARK    2  A    between atoms: C2_3  and  C3_5 
REMARK    3  A    between atoms: C3_5  and  C24_46 
REMARK    4  A    between atoms: N1_6  and  O3_8 
REMARK    5  A    between atoms: O3_8  and  C4_9 
REMARK       I    between atoms: C4_9  and  N2_11 
REMARK    6  A    between atoms: N2_11  and  C5_13 
REMARK    7  A    between atoms: C13_29  and  C14_30 
REMARK    8  A    between atoms: C14_30  and  O8_31 
REMARK    9  A    between atoms: C15_33  and  C16_35 
REMARK   10  A    between atoms: C17_36  and  O9_37 
REMARK   11  A    between atoms: C21_41  and  O10_42 
REMARK   12  A    between atoms: C26_49  and  N5_50 
ROOT
HETATM    1  C5  UNL     1      18.992 -12.221   0.975  1.00  0.00     0.123 C 
HETATM    2  C6  UNL     1      19.805 -12.870   2.074  1.00  0.00     0.030 C 
HETATM    3  C7  UNL     1      20.207 -14.281   1.725  1.00  0.00     0.029 C 
HETATM    4  C8  UNL     1      19.959 -15.273   2.828  1.00  0.00     0.233 C 
HETATM    5  N3  UNL     1      18.961 -14.816   3.767  1.00  0.00    -0.067 N 
ATOM      6  H31 UNL     1      18.270 -14.222   3.307  1.00  0.00     0.277 HD
ATOM      7  H32 UNL     1      19.354 -14.136   4.418  1.00  0.00     0.277 HD
HETATM    8  C9  UNL     1      18.326 -15.898   4.469  1.00  0.00     0.334 C 
HETATM    9  C10 UNL     1      16.851 -15.845   4.483  1.00  0.00     0.243 C 
HETATM   10  O5  UNL     1      16.236 -16.928   4.757  1.00  0.00    -0.272 OA
HETATM   11  N4  UNL     1      16.058 -14.703   4.223  1.00  0.00    -0.350 N 
ATOM     12  H4  UNL     1      15.294 -14.508   4.869  1.00  0.00     0.163 HD
HETATM   13  C11 UNL     1      16.241 -13.788   3.113  1.00  0.00     0.233 C 
HETATM   14  C12 UNL     1      16.734 -12.464   3.588  1.00  0.00     0.277 C 
HETATM   15  O6  UNL     1      16.426 -12.159   4.767  1.00  0.00    -0.263 OA
HETATM   16  O7  UNL     1      17.492 -11.607   2.779  1.00  0.00    -0.306 OA
HETATM   17  C13 UNL     1      17.633 -11.787   1.380  1.00  0.00     0.214 C 
ENDROOT
BRANCH   1  18
HETATM   18  N2  UNL     1      19.772 -11.146   0.398  1.00  0.00    -0.328 N 
HETATM   19  C4  UNL     1      20.272 -11.184  -0.910  1.00  0.00     0.383 C 
HETATM   20  O4  UNL     1      20.045 -12.198  -1.647  1.00  0.00    -0.236 OA
ATOM     21  H2  UNL     1      19.966 -10.324   0.970  1.00  0.00     0.165 HD
BRANCH  19  22
HETATM   22  O3  UNL     1      21.014 -10.142  -1.436  1.00  0.00    -0.180 OA
BRANCH  22  23
HETATM   23  N1  UNL     1      20.660  -8.900  -1.283  1.00  0.00    -0.248 N 
HETATM   24  C3  UNL     1      21.083  -7.736  -1.522  1.00  0.00     0.157 C 
ATOM     25  H1  UNL     1      19.751  -8.852  -0.822  1.00  0.00     0.195 HD
BRANCH  24  26
HETATM   26  C2  UNL     1      20.194  -6.650  -1.093  1.00  0.00     0.313 C 
HETATM   27  O2  UNL     1      18.959  -6.647  -1.097  1.00  0.00    -0.257 OA
BRANCH  26  28
HETATM   28  O1  UNL     1      20.845  -5.473  -0.622  1.00  0.00    -0.321 OA
HETATM   29  C1  UNL     1      20.476  -4.994   0.686  1.00  0.00     0.213 C 
ENDBRANCH  26  28
ENDBRANCH  24  26
BRANCH  24  30
HETATM   30  C24 UNL     1      22.396  -7.459  -2.186  1.00  0.00     0.075 A 
HETATM   31  C25 UNL     1      22.668  -8.085  -3.388  1.00  0.00     0.085 A 
HETATM   32  S1  UNL     1      24.220  -7.481  -3.774  1.00  0.00    -0.064 SA
HETATM   33  C26 UNL     1      24.439  -6.485  -2.415  1.00  0.00     0.142 A 
HETATM   34  N6  UNL     1      23.311  -6.659  -1.724  1.00  0.00    -0.335 N 
ATOM     35  H6  UNL     1      23.167  -6.169  -0.841  1.00  0.00     0.168 HD
BRANCH  33  36
HETATM   36  N5  UNL     1      25.465  -5.720  -2.104  1.00  0.00    -0.380 N 
ATOM     37  H52 UNL     1      25.645  -4.763  -2.407  1.00  0.00     0.158 HD
ATOM     38  H51 UNL     1      26.267  -5.930  -1.511  1.00  0.00     0.158 HD
ENDBRANCH  33  36
ENDBRANCH  24  30
ENDBRANCH  22  23
ENDBRANCH  19  22
ENDBRANCH   1  18
BRANCH  17  39
HETATM   39  C14 UNL     1      17.162 -10.536   0.748  1.00  0.00     0.114 C 
HETATM   40  C15 UNL     1      16.565 -10.561  -0.414  1.00  0.00     0.164 C 
HETATM   41  F1  UNL     1      16.403 -11.796  -1.014  1.00  0.00    -0.202 F 
BRANCH  39  42
HETATM   42  O8  UNL     1      17.371  -9.346   1.413  1.00  0.00    -0.359 OA
ATOM     43  H8  UNL     1      18.170  -8.864   1.237  1.00  0.00     0.217 HD
ENDBRANCH  39  42
BRANCH  40  44
HETATM   44  C16 UNL     1      16.007  -9.450  -1.155  1.00  0.00     0.080 A 
HETATM   45  C17 UNL     1      14.921  -8.765  -0.695  1.00  0.00     0.084 A 
HETATM   46  C19 UNL     1      14.450  -7.678  -1.444  1.00  0.00     0.040 A 
HETATM   47  C20 UNL     1      15.065  -7.306  -2.621  1.00  0.00     0.043 A 
HETATM   48  C21 UNL     1      16.161  -7.993  -3.093  1.00  0.00     0.107 A 
HETATM   49  C23 UNL     1      16.622  -9.058  -2.359  1.00  0.00     0.165 A 
HETATM   50  F2  UNL     1      17.688  -9.739  -2.803  1.00  0.00    -0.202 F 
BRANCH  45  51
HETATM   51  O9  UNL     1      14.305  -9.141   0.478  1.00  0.00    -0.355 OA
HETATM   52  C18 UNL     1      14.021  -8.142   1.437  1.00  0.00     0.210 C 
ENDBRANCH  45  51
BRANCH  48  53
HETATM   53  O10 UNL     1      16.795  -7.621  -4.295  1.00  0.00    -0.353 OA
HETATM   54  C22 UNL     1      16.043  -7.622  -5.492  1.00  0.00     0.210 C 
ENDBRANCH  48  53
ENDBRANCH  40  44
ENDBRANCH  17  39
TORSDOF 12
ENDMDL
MODEL 2
REMARK VINA RESULT: -7.072707990      0.957      1.963
REMARK  12 active torsions:
REMARK  status: ('A' for Active; 'I' for Inactive)
REMARK    1  A    between atoms: O1_2  and  C2_3 
REMARK    2  A    between atoms: C2_3  and  C3_5 
REMARK    3  A    between atoms: C3_5  and  C24_46 
REMARK    4  A    between atoms: N1_6  and  O3_8 
REMARK    5  A    between atoms: O3_8  and  C4_9 
REMARK       I    between atoms: C4_9  and  N2_11 
REMARK    6  A    between atoms: N2_11  and  C5_13 
REMARK    7  A    between atoms: C13_29  and  C14_30 
REMARK    8  A    between atoms: C14_30  and  O8_31 
REMARK    9  A    between atoms: C15_33  and  C16_35 
REMARK   10  A    between atoms: C17_36  and  O9_37 
REMARK   11  A    between atoms: C21_41  and  O10_42 
REMARK   12  A    between atoms: C26_49  and  N5_50 
ROOT
HETATM    1  C5  UNL     1      18.951 -12.171   0.943  1.00  0.00     0.123 C 
HETATM    2  C6  UNL     1      19.741 -12.877   2.022  1.00  0.00     0.030 C 
HETATM    3  C7  UNL     1      20.094 -14.290   1.635  1.00  0.00     0.029 C 
HETATM    4  C8  UNL     1      19.813 -15.303   2.712  1.00  0.00     0.233 C 
HETATM    5  N3  UNL     1      18.831 -14.837   3.663  1.00  0.00    -0.067 N 
ATOM      6  H31 UNL     1      18.161 -14.208   3.221  1.00  0.00     0.277 HD
ATOM      7  H32 UNL     1      19.248 -14.189   4.332  1.00  0.00     0.277 HD
HETATM    8  C9  UNL     1      18.160 -15.916   4.337  1.00  0.00     0.334 C 
HETATM    9  C10 UNL     1      16.688 -15.813   4.354  1.00  0.00     0.243 C 
HETATM   10  O5  UNL     1      16.036 -16.881   4.599  1.00  0.00    -0.272 OA
HETATM   11  N4  UNL     1      15.934 -14.638   4.125  1.00  0.00    -0.350 N 
ATOM     12  H4  UNL     1      15.177 -14.434   4.778  1.00  0.00     0.163 HD
HETATM   13  C11 UNL     1      16.148 -13.700   3.040  1.00  0.00     0.233 C 
HETATM   14  C12 UNL     1      16.686 -12.407   3.551  1.00  0.00     0.277 C 
HETATM   15  O6  UNL     1      16.389 -12.123   4.737  1.00  0.00    -0.263 OA
HETATM   16  O7  UNL     1      17.473 -11.555   2.764  1.00  0.00    -0.306 OA
HETATM   17  C13 UNL     1      17.607 -11.702   1.360  1.00  0.00     0.214 C 
ENDROOT
BRANCH   1  18
HETATM   18  N2  UNL     1      19.767 -11.108   0.394  1.00  0.00    -0.328 N 
HETATM   19  C4  UNL     1      20.254 -11.122  -0.920  1.00  0.00     0.383 C 
HETATM   20  O4  UNL     1      19.982 -12.102  -1.688  1.00  0.00    -0.236 OA
ATOM     21  H2  UNL     1      19.997 -10.314   0.990  1.00  0.00     0.165 HD
BRANCH  19  22
HETATM   22  O3  UNL     1      21.031 -10.092  -1.419  1.00  0.00    -0.180 OA
BRANCH  22  23
HETATM   23  N1  UNL     1      20.700  -8.844  -1.264  1.00  0.00    -0.248 N 
HETATM   24  C3  UNL     1      21.138  -7.688  -1.513  1.00  0.00     0.157 C 
ATOM     25  H1  UNL     1      19.799  -8.779  -0.789  1.00  0.00     0.195 HD
BRANCH  24  26
HETATM   26  C2  UNL     1      20.275  -6.586  -1.075  1.00  0.00     0.313 C 
HETATM   27  O2  UNL     1      19.040  -6.540  -1.115  1.00  0.00    -0.257 OA
BRANCH  26  28
HETATM   28  O1  UNL     1      20.950  -5.448  -0.547  1.00  0.00    -0.321 OA
HETATM   29  C1  UNL     1      20.533  -4.976   0.749  1.00  0.00     0.213 C 
ENDBRANCH  26  28
ENDBRANCH  24  26
BRANCH  24  30
HETATM   30  C24 UNL     1      22.446  -7.435  -2.198  1.00  0.00     0.075 A 
HETATM   31  C25 UNL     1      22.684  -8.058  -3.408  1.00  0.00     0.085 A 
HETATM   32  S1  UNL     1      24.241  -7.485  -3.818  1.00  0.00    -0.064 SA
HETATM   33  C26 UNL     1      24.506  -6.504  -2.456  1.00  0.00     0.142 A 
HETATM   34  N6  UNL     1      23.386  -6.658  -1.747  1.00  0.00    -0.335 N 
ATOM     35  H6  UNL     1      23.267  -6.171  -0.858  1.00  0.00     0.168 HD
BRANCH  33  36
HETATM   36  N5  UNL     1      25.554  -5.763  -2.157  1.00  0.00    -0.380 N 
ATOM     37  H52 UNL     1      25.561  -4.808  -1.800  1.00  0.00     0.158 HD
ATOM     38  H51 UNL     1      26.544  -5.994  -2.224  1.00  0.00     0.158 HD
ENDBRANCH  33  36
ENDBRANCH  24  30
ENDBRANCH  22  23
ENDBRANCH  19  22
ENDBRANCH   1  18
BRANCH  17  39
HETATM   39  C14 UNL     1      17.179 -10.419   0.763  1.00  0.00     0.114 C 
HETATM   40  C15 UNL     1      16.592 -10.391  -0.404  1.00  0.00     0.164 C 
HETATM   41  F1  UNL     1      16.399 -11.603  -1.043  1.00  0.00    -0.202 F 
BRANCH  39  42
HETATM   42  O8  UNL     1      17.417  -9.256   1.465  1.00  0.00    -0.359 OA
ATOM     43  H8  UNL     1      16.849  -8.511   1.312  1.00  0.00     0.217 HD
ENDBRANCH  39  42
BRANCH  40  44
HETATM   44  C16 UNL     1      16.074  -9.243  -1.116  1.00  0.00     0.080 A 
HETATM   45  C17 UNL     1      16.705  -8.751  -2.222  1.00  0.00     0.084 A 
HETATM   46  C19 UNL     1      16.134  -7.657  -2.886  1.00  0.00     0.040 A 
HETATM   47  C20 UNL     1      14.962  -7.086  -2.437  1.00  0.00     0.043 A 
HETATM   48  C21 UNL     1      14.320  -7.574  -1.321  1.00  0.00     0.107 A 
HETATM   49  C23 UNL     1      14.880  -8.647  -0.671  1.00  0.00     0.165 A 
HETATM   50  F2  UNL     1      14.269  -9.136   0.417  1.00  0.00    -0.202 F 
BRANCH  45  51
HETATM   51  O9  UNL     1      17.877  -9.321  -2.666  1.00  0.00    -0.355 OA
HETATM   52  C18 UNL     1      18.224  -9.167  -4.028  1.00  0.00     0.210 C 
ENDBRANCH  45  51
BRANCH  48  53
HETATM   53  O10 UNL     1      13.122  -6.996  -0.855  1.00  0.00    -0.353 OA
HETATM   54  C22 UNL     1      12.502  -5.992  -1.633  1.00  0.00     0.210 C 
ENDBRANCH  48  53
ENDBRANCH  40  44
ENDBRANCH  17  39
TORSDOF 12
ENDMDL
MODEL 3
REMARK VINA RESULT: -6.695136179      6.954     10.374
REMARK  12 active torsions:
REMARK  status: ('A' for Active; 'I' for Inactive)
REMARK    1  A    between atoms: O1_2  and  C2_3 
REMARK    2  A    between atoms: C2_3  and  C3_5 
REMARK    3  A    between atoms: C3_5  and  C24_46 
REMARK    4  A    between atoms: N1_6  and  O3_8 
REMARK    5  A    between atoms: O3_8  and  C4_9 
REMARK       I    between atoms: C4_9  and  N2_11 
REMARK    6  A    between atoms: N2_11  and  C5_13 
REMARK    7  A    between atoms: C13_29  and  C14_30 
REMARK    8  A    between atoms: C14_30  and  O8_31 
REMARK    9  A    between atoms: C15_33  and  C16_35 
REMARK   10  A    between atoms: C17_36  and  O9_37 
REMARK   11  A    between atoms: C21_41  and  O10_42 
REMARK   12  A    between atoms: C26_49  and  N5_50 
ROOT
HETATM    1  C5  UNL     1      12.776  -7.584  -2.298  1.00  0.00     0.123 C 
HETATM    2  C6  UNL     1      14.093  -6.841  -2.360  1.00  0.00     0.030 C 
HETATM    3  C7  UNL     1      15.091  -7.528  -3.257  1.00  0.00     0.029 C 
HETATM    4  C8  UNL     1      16.458  -7.672  -2.646  1.00  0.00     0.233 C 
HETATM    5  N3  UNL     1      16.426  -7.601  -1.203  1.00  0.00    -0.067 N 
ATOM      6  H31 UNL     1      15.548  -7.966  -0.837  1.00  0.00     0.277 HD
ATOM      7  H32 UNL     1      16.347  -6.634  -0.886  1.00  0.00     0.277 HD
HETATM    8  C9  UNL     1      17.553  -8.255  -0.594  1.00  0.00     0.334 C 
HETATM    9  C10 UNL     1      17.208  -9.194   0.492  1.00  0.00     0.243 C 
HETATM   10  O5  UNL     1      18.092 -10.055   0.814  1.00  0.00    -0.272 OA
HETATM   11  N4  UNL     1      15.989  -9.225   1.209  1.00  0.00    -0.350 N 
ATOM     12  H4  UNL     1      16.046  -9.292   2.225  1.00  0.00     0.163 HD
HETATM   13  C11 UNL     1      14.665  -9.169   0.619  1.00  0.00     0.233 C 
HETATM   14  C12 UNL     1      13.997  -7.873   0.929  1.00  0.00     0.277 C 
HETATM   15  O6  UNL     1      14.369  -7.307   1.985  1.00  0.00    -0.263 OA
HETATM   16  O7  UNL     1      13.014  -7.316   0.100  1.00  0.00    -0.306 OA
HETATM   17  C13 UNL     1      12.380  -8.037  -0.943  1.00  0.00     0.214 C 
ENDROOT
BRANCH   1  18
HETATM   18  N2  UNL     1      11.759  -6.773  -2.935  1.00  0.00    -0.328 N 
HETATM   19  C4  UNL     1      11.221  -7.074  -4.193  1.00  0.00     0.383 C 
HETATM   20  O4  UNL     1      11.628  -8.101  -4.829  1.00  0.00    -0.236 OA
ATOM     21  H2  UNL     1      11.418  -5.947  -2.444  1.00  0.00     0.165 HD
BRANCH  19  22
HETATM   22  O3  UNL     1      10.249  -6.282  -4.777  1.00  0.00    -0.180 OA
BRANCH  22  23
HETATM   23  N1  UNL     1      10.466  -5.035  -5.075  1.00  0.00    -0.248 N 
HETATM   24  C3  UNL     1      10.116  -3.878  -4.713  1.00  0.00     0.157 C 
ATOM     25  H1  UNL     1      11.130  -4.972  -5.847  1.00  0.00     0.195 HD
BRANCH  24  26
HETATM   26  C2  UNL     1      10.730  -2.778  -5.466  1.00  0.00     0.313 C 
HETATM   27  O2  UNL     1      11.909  -2.413  -5.430  1.00  0.00    -0.257 OA
BRANCH  26  28
HETATM   28  O1  UNL     1       9.853  -2.061  -6.329  1.00  0.00    -0.321 OA
HETATM   29  C1  UNL     1      10.388  -1.619  -7.593  1.00  0.00     0.213 C 
ENDBRANCH  26  28
ENDBRANCH  24  26
BRANCH  24  30
HETATM   30  C24 UNL     1       9.142  -3.624  -3.605  1.00  0.00     0.075 A 
HETATM   31  C25 UNL     1       7.857  -3.240  -3.936  1.00  0.00     0.085 A 
HETATM   32  S1  UNL     1       7.113  -3.081  -2.405  1.00  0.00    -0.064 SA
HETATM   33  C26 UNL     1       8.448  -3.501  -1.442  1.00  0.00     0.142 A 
HETATM   34  N6  UNL     1       9.406  -3.746  -2.338  1.00  0.00    -0.335 N 
ATOM     35  H6  UNL     1      10.338  -4.026  -2.032  1.00  0.00     0.168 HD
BRANCH  33  36
HETATM   36  N5  UNL     1       8.535  -3.574  -0.129  1.00  0.00    -0.380 N 
ATOM     37  H52 UNL     1       8.499  -2.806   0.542  1.00  0.00     0.158 HD
ATOM     38  H51 UNL     1       8.654  -4.395   0.463  1.00  0.00     0.158 HD
ENDBRANCH  33  36
ENDBRANCH  24  30
ENDBRANCH  22  23
ENDBRANCH  19  22
ENDBRANCH   1  18
BRANCH  17  39
HETATM   39  C14 UNL     1      10.928  -7.985  -0.666  1.00  0.00     0.114 C 
HETATM   40  C15 UNL     1      10.206  -9.074  -0.691  1.00  0.00     0.164 C 
HETATM   41  F1  UNL     1      10.858 -10.257  -0.991  1.00  0.00    -0.202 F 
BRANCH  39  42
HETATM   42  O8  UNL     1      10.358  -6.762  -0.383  1.00  0.00    -0.359 OA
ATOM     43  H8  UNL     1       9.846  -6.675   0.413  1.00  0.00     0.217 HD
ENDBRANCH  39  42
BRANCH  40  44
HETATM   44  C16 UNL     1       8.795  -9.216  -0.407  1.00  0.00     0.080 A 
HETATM   45  C17 UNL     1       7.848  -8.748  -1.271  1.00  0.00     0.084 A 
HETATM   46  C19 UNL     1       6.497  -8.947  -0.954  1.00  0.00     0.040 A 
HETATM   47  C20 UNL     1       6.128  -9.599   0.203  1.00  0.00     0.043 A 
HETATM   48  C21 UNL     1       7.076 -10.074   1.081  1.00  0.00     0.107 A 
HETATM   49  C23 UNL     1       8.399  -9.879   0.769  1.00  0.00     0.165 A 
HETATM   50  F2  UNL     1       9.338 -10.333   1.612  1.00  0.00    -0.202 F 
BRANCH  45  51
HETATM   51  O9  UNL     1       8.219  -8.093  -2.424  1.00  0.00    -0.355 OA
HETATM   52  C18 UNL     1       7.512  -6.924  -2.789  1.00  0.00     0.210 C 
ENDBRANCH  45  51
BRANCH  48  53
HETATM   53  O10 UNL     1       6.708 -10.741   2.266  1.00  0.00    -0.353 OA
HETATM   54  C22 UNL     1       5.336 -10.970   2.520  1.00  0.00     0.210 C 
ENDBRANCH  48  53
ENDBRANCH  40  44
ENDBRANCH  17  39
TORSDOF 12
ENDMDL
MODEL 4
REMARK VINA RESULT: -6.537962769      3.371      8.799
REMARK  12 active torsions:
REMARK  status: ('A' for Active; 'I' for Inactive)
REMARK    1  A    between atoms: O1_2  and  C2_3 
REMARK    2  A    between atoms: C2_3  and  C3_5 
REMARK    3  A    between atoms: C3_5  and  C24_46 
REMARK    4  A    between atoms: N1_6  and  O3_8 
REMARK    5  A    between atoms: O3_8  and  C4_9 
REMARK       I    between atoms: C4_9  and  N2_11 
REMARK    6  A    between atoms: N2_11  and  C5_13 
REMARK    7  A    between atoms: C13_29  and  C14_30 
REMARK    8  A    between atoms: C14_30  and  O8_31 
REMARK    9  A    between atoms: C15_33  and  C16_35 
REMARK   10  A    between atoms: C17_36  and  O9_37 
REMARK   11  A    between atoms: C21_41  and  O10_42 
REMARK   12  A    between atoms: C26_49  and  N5_50 
ROOT
HETATM    1  C5  UNL     1      18.523 -10.918   0.172  1.00  0.00     0.123 C 
HETATM    2  C6  UNL     1      19.708 -11.633  -0.439  1.00  0.00     0.030 C 
HETATM    3  C7  UNL     1      20.913 -11.610   0.466  1.00  0.00     0.029 C 
HETATM    4  C8  UNL     1      22.188 -11.218  -0.231  1.00  0.00     0.233 C 
HETATM    5  N3  UNL     1      21.945 -10.474  -1.445  1.00  0.00    -0.067 N 
ATOM      6  H31 UNL     1      21.089  -9.924  -1.374  1.00  0.00     0.277 HD
ATOM      7  H32 UNL     1      21.677 -11.096  -2.209  1.00  0.00     0.277 HD
HETATM    8  C9  UNL     1      23.061  -9.647  -1.819  1.00  0.00     0.334 C 
HETATM    9  C10 UNL     1      22.714  -8.248  -2.136  1.00  0.00     0.243 C 
HETATM   10  O5  UNL     1      23.664  -7.398  -2.114  1.00  0.00    -0.272 OA
HETATM   11  N4  UNL     1      21.426  -7.765  -2.464  1.00  0.00    -0.350 N 
ATOM     12  H4  UNL     1      21.350  -7.147  -3.272  1.00  0.00     0.163 HD
HETATM   13  C11 UNL     1      20.204  -8.075  -1.746  1.00  0.00     0.233 C 
HETATM   14  C12 UNL     1      19.311  -8.945  -2.562  1.00  0.00     0.277 C 
HETATM   15  O6  UNL     1      19.443  -8.847  -3.807  1.00  0.00    -0.263 OA
HETATM   16  O7  UNL     1      18.380  -9.820  -1.986  1.00  0.00    -0.306 OA
HETATM   17  C13 UNL     1      18.014  -9.770  -0.617  1.00  0.00     0.214 C 
ENDROOT
BRANCH   1  18
HETATM   18  N2  UNL     1      17.493 -11.895   0.462  1.00  0.00    -0.328 N 
HETATM   19  C4  UNL     1      17.141 -12.267   1.766  1.00  0.00     0.383 C 
HETATM   20  O4  UNL     1      17.738 -11.738   2.760  1.00  0.00    -0.236 OA
ATOM     21  H2  UNL     1      17.003 -12.331  -0.319  1.00  0.00     0.165 HD
BRANCH  19  22
HETATM   22  O3  UNL     1      16.153 -13.203   2.013  1.00  0.00    -0.180 OA
BRANCH  22  23
HETATM   23  N1  UNL     1      16.182 -13.973   3.061  1.00  0.00    -0.248 N 
HETATM   24  C3  UNL     1      15.498 -14.872   3.621  1.00  0.00     0.157 C 
ATOM     25  H1  UNL     1      17.028 -13.792   3.602  1.00  0.00     0.195 HD
BRANCH  24  26
HETATM   26  C2  UNL     1      16.070 -15.409   4.861  1.00  0.00     0.313 C 
HETATM   27  O2  UNL     1      15.645 -16.354   5.534  1.00  0.00    -0.257 OA
BRANCH  26  28
HETATM   28  O1  UNL     1      17.247 -14.755   5.328  1.00  0.00    -0.321 OA
HETATM   29  C1  UNL     1      17.120 -13.934   6.506  1.00  0.00     0.213 C 
ENDBRANCH  26  28
ENDBRANCH  24  26
BRANCH  24  30
HETATM   30  C24 UNL     1      14.190 -15.364   3.082  1.00  0.00     0.075 A 
HETATM   31  C25 UNL     1      14.116 -15.701   1.744  1.00  0.00     0.085 A 
HETATM   32  S1  UNL     1      12.493 -16.210   1.581  1.00  0.00    -0.064 SA
HETATM   33  C26 UNL     1      12.000 -15.972   3.190  1.00  0.00     0.142 A 
HETATM   34  N6  UNL     1      13.105 -15.513   3.782  1.00  0.00    -0.335 N 
ATOM     35  H6  UNL     1      13.097 -15.281   4.776  1.00  0.00     0.168 HD
BRANCH  33  36
HETATM   36  N5  UNL     1      10.821 -16.185   3.737  1.00  0.00    -0.380 N 
ATOM     37  H52 UNL     1      10.599 -16.795   4.524  1.00  0.00     0.158 HD
ATOM     38  H51 UNL     1       9.915 -15.791   3.485  1.00  0.00     0.158 HD
ENDBRANCH  33  36
ENDBRANCH  24  30
ENDBRANCH  22  23
ENDBRANCH  19  22
ENDBRANCH   1  18
BRANCH  17  39
HETATM   39  C14 UNL     1      16.547  -9.588  -0.583  1.00  0.00     0.114 C 
HETATM   40  C15 UNL     1      16.016  -8.585   0.065  1.00  0.00     0.164 C 
HETATM   41  F1  UNL     1      16.881  -7.720   0.710  1.00  0.00    -0.202 F 
BRANCH  39  42
HETATM   42  O8  UNL     1      15.758 -10.502  -1.248  1.00  0.00    -0.359 OA
ATOM     43  H8  UNL     1      15.401 -10.260  -2.095  1.00  0.00     0.217 HD
ENDBRANCH  39  42
BRANCH  40  44
HETATM   44  C16 UNL     1      14.617  -8.231   0.171  1.00  0.00     0.080 A 
HETATM   45  C17 UNL     1      14.005  -7.469  -0.782  1.00  0.00     0.084 A 
HETATM   46  C19 UNL     1      12.639  -7.189  -0.637  1.00  0.00     0.040 A 
HETATM   47  C20 UNL     1      11.926  -7.669   0.440  1.00  0.00     0.043 A 
HETATM   48  C21 UNL     1      12.535  -8.438   1.406  1.00  0.00     0.107 A 
HETATM   49  C23 UNL     1      13.873  -8.712   1.264  1.00  0.00     0.165 A 
HETATM   50  F2  UNL     1      14.484  -9.459   2.194  1.00  0.00    -0.202 F 
BRANCH  45  51
HETATM   51  O9  UNL     1      14.721  -6.986  -1.854  1.00  0.00    -0.355 OA
HETATM   52  C18 UNL     1      14.434  -7.502  -3.139  1.00  0.00     0.210 C 
ENDBRANCH  45  51
BRANCH  48  53
HETATM   53  O10 UNL     1      11.814  -8.933   2.511  1.00  0.00    -0.353 OA
HETATM   54  C22 UNL     1      10.412  -9.085   2.396  1.00  0.00     0.210 C 
ENDBRANCH  48  53
ENDBRANCH  40  44
ENDBRANCH  17  39
TORSDOF 12
ENDMDL
MODEL 5
REMARK VINA RESULT: -6.531820292      2.831      7.820
REMARK  12 active torsions:
REMARK  status: ('A' for Active; 'I' for Inactive)
REMARK    1  A    between atoms: O1_2  and  C2_3 
REMARK    2  A    between atoms: C2_3  and  C3_5 
REMARK    3  A    between atoms: C3_5  and  C24_46 
REMARK    4  A    between atoms: N1_6  and  O3_8 
REMARK    5  A    between atoms: O3_8  and  C4_9 
REMARK       I    between atoms: C4_9  and  N2_11 
REMARK    6  A    between atoms: N2_11  and  C5_13 
REMARK    7  A    between atoms: C13_29  and  C14_30 
REMARK    8  A    between atoms: C14_30  and  O8_31 
REMARK    9  A    between atoms: C15_33  and  C16_35 
REMARK   10  A    between atoms: C17_36  and  O9_37 
REMARK   11  A    between atoms: C21_41  and  O10_42 
REMARK   12  A    between atoms: C26_49  and  N5_50 
ROOT
HETATM    1  C5  UNL     1      18.781 -10.941   0.158  1.00  0.00     0.123 C 
HETATM    2  C6  UNL     1      19.929 -11.737  -0.423  1.00  0.00     0.030 C 
HETATM    3  C7  UNL     1      21.191 -11.588   0.389  1.00  0.00     0.029 C 
HETATM    4  C8  UNL     1      22.414 -11.299  -0.439  1.00  0.00     0.233 C 
HETATM    5  N3  UNL     1      22.086 -10.734  -1.728  1.00  0.00    -0.067 N 
ATOM      6  H31 UNL     1      21.233 -10.178  -1.678  1.00  0.00     0.277 HD
ATOM      7  H32 UNL     1      21.774 -11.457  -2.376  1.00  0.00     0.277 HD
HETATM    8  C9  UNL     1      23.169  -9.969  -2.286  1.00  0.00     0.334 C 
HETATM    9  C10 UNL     1      22.790  -8.629  -2.774  1.00  0.00     0.243 C 
HETATM   10  O5  UNL     1      23.733  -7.785  -2.935  1.00  0.00    -0.272 OA
HETATM   11  N4  UNL     1      21.480  -8.195  -3.081  1.00  0.00    -0.350 N 
ATOM     12  H4  UNL     1      21.346  -7.697  -3.961  1.00  0.00     0.163 HD
HETATM   13  C11 UNL     1      20.310  -8.398  -2.247  1.00  0.00     0.233 C 
HETATM   14  C12 UNL     1      19.373  -9.374  -2.872  1.00  0.00     0.277 C 
HETATM   15  O6  UNL     1      19.422  -9.453  -4.124  1.00  0.00    -0.263 OA
HETATM   16  O7  UNL     1      18.489 -10.158  -2.118  1.00  0.00    -0.306 OA
HETATM   17  C13 UNL     1      18.213  -9.914  -0.749  1.00  0.00     0.214 C 
ENDROOT
BRANCH   1  18
HETATM   18  N2  UNL     1      17.781 -11.865   0.650  1.00  0.00    -0.328 N 
HETATM   19  C4  UNL     1      17.213 -11.766   1.927  1.00  0.00     0.383 C 
HETATM   20  O4  UNL     1      17.575 -10.830   2.712  1.00  0.00    -0.236 OA
ATOM     21  H2  UNL     1      17.476 -12.623   0.039  1.00  0.00     0.165 HD
BRANCH  19  22
HETATM   22  O3  UNL     1      16.258 -12.663   2.370  1.00  0.00    -0.180 OA
BRANCH  22  23
HETATM   23  N1  UNL     1      16.335 -13.228   3.539  1.00  0.00    -0.248 N 
HETATM   24  C3  UNL     1      17.121 -13.943   4.219  1.00  0.00     0.157 C 
ATOM     25  H1  UNL     1      15.492 -13.029   4.078  1.00  0.00     0.195 HD
BRANCH  24  26
HETATM   26  C2  UNL     1      16.642 -14.294   5.560  1.00  0.00     0.313 C 
HETATM   27  O2  UNL     1      17.058 -13.863   6.641  1.00  0.00    -0.257 OA
BRANCH  26  28
HETATM   28  O1  UNL     1      15.577 -15.240   5.604  1.00  0.00    -0.321 OA
HETATM   29  C1  UNL     1      15.925 -16.612   5.878  1.00  0.00     0.213 C 
ENDBRANCH  26  28
ENDBRANCH  24  26
BRANCH  24  30
HETATM   30  C24 UNL     1      18.448 -14.417   3.710  1.00  0.00     0.075 A 
HETATM   31  C25 UNL     1      18.526 -15.681   3.159  1.00  0.00     0.085 A 
HETATM   32  S1  UNL     1      20.172 -15.788   2.713  1.00  0.00    -0.064 SA
HETATM   33  C26 UNL     1      20.668 -14.251   3.241  1.00  0.00     0.142 A 
HETATM   34  N6  UNL     1      19.547 -13.723   3.736  1.00  0.00    -0.335 N 
ATOM     35  H6  UNL     1      19.552 -12.782   4.132  1.00  0.00     0.168 HD
BRANCH  33  36
HETATM   36  N5  UNL     1      21.863 -13.699   3.184  1.00  0.00    -0.380 N 
ATOM     37  H52 UNL     1      22.714 -14.001   3.658  1.00  0.00     0.158 HD
ATOM     38  H51 UNL     1      22.165 -12.875   2.664  1.00  0.00     0.158 HD
ENDBRANCH  33  36
ENDBRANCH  24  30
ENDBRANCH  22  23
ENDBRANCH  19  22
ENDBRANCH   1  18
BRANCH  17  39
HETATM   39  C14 UNL     1      16.750  -9.728  -0.644  1.00  0.00     0.114 C 
HETATM   40  C15 UNL     1      16.254  -8.672  -0.056  1.00  0.00     0.164 C 
HETATM   41  F1  UNL     1      17.153  -7.755   0.459  1.00  0.00    -0.202 F 
BRANCH  39  42
HETATM   42  O8  UNL     1      15.925 -10.695  -1.180  1.00  0.00    -0.359 OA
ATOM     43  H8  UNL     1      15.376 -10.462  -1.919  1.00  0.00     0.217 HD
ENDBRANCH  39  42
BRANCH  40  44
HETATM   44  C16 UNL     1      14.863  -8.307   0.101  1.00  0.00     0.080 A 
HETATM   45  C17 UNL     1      14.208  -7.580  -0.851  1.00  0.00     0.084 A 
HETATM   46  C19 UNL     1      12.852  -7.289  -0.654  1.00  0.00     0.040 A 
HETATM   47  C20 UNL     1      12.189  -7.722   0.474  1.00  0.00     0.043 A 
HETATM   48  C21 UNL     1      12.841  -8.455   1.440  1.00  0.00     0.107 A 
HETATM   49  C23 UNL     1      14.170  -8.741   1.246  1.00  0.00     0.165 A 
HETATM   50  F2  UNL     1      14.822  -9.453   2.176  1.00  0.00    -0.202 F 
BRANCH  45  51
HETATM   51  O9  UNL     1      14.875  -7.144  -1.974  1.00  0.00    -0.355 OA
HETATM   52  C18 UNL     1      14.520  -7.702  -3.224  1.00  0.00     0.210 C 
ENDBRANCH  45  51
BRANCH  48  53
HETATM   53  O10 UNL     1      12.171  -8.902   2.596  1.00  0.00    -0.353 OA
HETATM   54  C22 UNL     1      10.757  -8.868   2.621  1.00  0.00     0.210 C 
ENDBRANCH  48  53
ENDBRANCH  40  44
ENDBRANCH  17  39
TORSDOF 12
ENDMDL
