MODEL 1
REMARK VINA RESULT: -6.708506374      0.000      0.000
REMARK  13 active torsions:
REMARK  status: ('A' for Active; 'I' for Inactive)
REMARK    1  A    between atoms: C2_2  and  O2_4 
REMARK    2  A    between atoms: O2_4  and  N1_5 
REMARK    3  A    between atoms: C3_6  and  C4_7 
REMARK    4  A    between atoms: C4_7  and  C5_8 
REMARK    5  A    between atoms: C4_7  and  S2_38 
REMARK       I    between atoms: C5_8  and  N2_10 
REMARK    6  A    between atoms: N2_10  and  C6_12 
REMARK    7  A    between atoms: C6_12  and  C7_13 
REMARK       I    between atoms: C7_13  and  N3_15 
REMARK    8  A    between atoms: N3_15  and  C8_17 
REMARK    9  A    between atoms: C9_19  and  C10_20 
REMARK   10  A    between atoms: C11_26  and  N6_27 
REMARK   11  A    between atoms: S2_38  and  N8_41 
REMARK   12  A    between atoms: C18_44  and  O7_45 
REMARK   13  A    between atoms: C19_47  and  O8_48 
ROOT
HETATM    1  C6  UNL     1      18.083  -8.388  -1.182  1.00  0.00     0.114 C 
HETATM    2  C13 UNL     1      19.280  -8.487  -2.048  1.00  0.00     0.041 C 
HETATM    3  C14 UNL     1      20.216  -7.405  -1.635  1.00  0.00     0.003 C 
HETATM    4  C15 UNL     1      19.501  -6.492  -0.712  1.00  0.00     0.003 C 
HETATM    5  C16 UNL     1      18.191  -7.126  -0.341  1.00  0.00     0.041 C 
ENDROOT
BRANCH   1   6
HETATM    6  N2  UNL     1      16.846  -8.379  -1.948  1.00  0.00    -0.342 N 
HETATM    7  C5  UNL     1      15.630  -7.811  -1.526  1.00  0.00     0.237 C 
HETATM    8  O3  UNL     1      15.590  -7.228  -0.413  1.00  0.00    -0.272 OA
ATOM      9  H2  UNL     1      16.861  -8.822  -2.867  1.00  0.00     0.163 HD
BRANCH   7  10
HETATM   10  C4  UNL     1      14.367  -7.882  -2.353  1.00  0.00     0.203 C 
BRANCH  10  11
HETATM   11  C3  UNL     1      13.785  -6.617  -2.765  1.00  0.00     0.145 C 
HETATM   12  N1  UNL     1      13.146  -6.613  -4.086  1.00  0.00    -0.168 NA
HETATM   13  C20 UNL     1      12.070  -5.662  -4.067  1.00  0.00     0.061 C 
HETATM   14  C19 UNL     1      12.094  -5.038  -2.698  1.00  0.00     0.173 C 
HETATM   15  C21 UNL     1      12.236  -4.542  -5.079  1.00  0.00     0.037 C 
HETATM   16  C22 UNL     1      10.708  -6.268  -4.259  1.00  0.00     0.037 C 
HETATM   17  C18 UNL     1      12.571  -6.250  -1.869  1.00  0.00     0.170 C 
BRANCH  12  18
HETATM   18  O2  UNL     1      14.087  -6.059  -4.919  1.00  0.00    -0.223 OA
BRANCH  18  19
HETATM   19  C2  UNL     1      15.041  -6.699  -5.642  1.00  0.00     0.271 C 
HETATM   20  C1  UNL     1      14.723  -8.008  -6.259  1.00  0.00     0.127 C 
HETATM   21  O1  UNL     1      16.152  -6.150  -5.755  1.00  0.00    -0.264 OA
ENDBRANCH  18  19
ENDBRANCH  12  18
BRANCH  14  22
HETATM   22  O8  UNL     1      13.045  -4.015  -2.615  1.00  0.00    -0.391 OA
ATOM     23  H8  UNL     1      12.693  -3.226  -3.008  1.00  0.00     0.210 HD
ENDBRANCH  14  22
BRANCH  17  24
HETATM   24  O7  UNL     1      12.899  -5.797  -0.640  1.00  0.00    -0.391 OA
ATOM     25  H7  UNL     1      12.769  -4.865  -0.516  1.00  0.00     0.210 HD
ENDBRANCH  17  24
ENDBRANCH  10  11
BRANCH  10  26
HETATM   26  S2  UNL     1      13.365  -9.109  -1.597  1.00  0.00     0.058 S 
HETATM   27  C17 UNL     1      12.072  -9.688  -2.632  1.00  0.00     0.139 C 
HETATM   28  O6  UNL     1      14.298 -10.305  -1.364  1.00  0.00    -0.247 OA
BRANCH  26  29
HETATM   29  N8  UNL     1      12.864  -8.773  -0.185  1.00  0.00    -0.181 N 
HETATM   30  F1  UNL     1      13.561  -9.092   0.933  1.00  0.00    -0.093 F 
ATOM     31  H8  UNL     1      11.971  -8.290  -0.084  1.00  0.00     0.209 HD
ENDBRANCH  26  29
ENDBRANCH  10  26
ENDBRANCH   7  10
ENDBRANCH   1   6
BRANCH   1  32
HETATM   32  C7  UNL     1      18.057  -9.513  -0.236  1.00  0.00     0.251 C 
HETATM   33  O4  UNL     1      19.128 -10.053   0.110  1.00  0.00    -0.270 OA
HETATM   34  N3  UNL     1      16.833  -9.984   0.288  1.00  0.00    -0.317 N 
ATOM     35  H3  UNL     1      15.942  -9.565   0.021  1.00  0.00     0.169 HD
BRANCH  34  36
HETATM   36  C8  UNL     1      16.903 -11.087   1.222  1.00  0.00     0.117 A 
HETATM   37  S1  UNL     1      16.670 -11.094   2.911  1.00  0.00    -0.049 SA
HETATM   38  C9  UNL     1      16.901 -12.770   3.203  1.00  0.00     0.110 A 
HETATM   39  N7  UNL     1      17.144 -13.222   1.977  1.00  0.00    -0.337 N 
HETATM   40  C12 UNL     1      17.152 -12.411   0.975  1.00  0.00     0.138 A 
ATOM     41  H7  UNL     1      17.325 -14.215   1.828  1.00  0.00     0.167 HD
HETATM   42 CL1  UNL     1      17.469 -12.960  -0.691  1.00  0.00    -0.061 Cl
BRANCH  38  43
HETATM   43  C10 UNL     1      16.838 -13.528   4.462  1.00  0.00     0.135 A 
HETATM   44  N4  UNL     1      15.676 -13.993   4.944  1.00  0.00    -0.235 N 
HETATM   45  O5  UNL     1      15.901 -14.623   6.062  1.00  0.00    -0.155 OA
ATOM     46  H4  UNL     1      14.762 -13.872   4.506  1.00  0.00     0.197 HD
HETATM   47  N5  UNL     1      17.153 -14.580   6.317  1.00  0.00    -0.224 N 
HETATM   48  C11 UNL     1      17.809 -13.893   5.330  1.00  0.00     0.153 A 
ATOM     49  H5  UNL     1      17.598 -14.997   7.135  1.00  0.00     0.198 HD
BRANCH  48  50
HETATM   50  N6  UNL     1      19.056 -13.665   5.264  1.00  0.00    -0.382 N 
ATOM     51  H62 UNL     1      19.588 -13.421   4.429  1.00  0.00     0.157 HD
ATOM     52  H61 UNL     1      19.745 -13.678   6.016  1.00  0.00     0.157 HD
ENDBRANCH  48  50
ENDBRANCH  38  43
ENDBRANCH  34  36
ENDBRANCH   1  32
TORSDOF 13
ENDMDL
MODEL 2
REMARK VINA RESULT: -6.632068858      3.919      6.889
REMARK  13 active torsions:
REMARK  status: ('A' for Active; 'I' for Inactive)
REMARK    1  A    between atoms: C2_2  and  O2_4 
REMARK    2  A    between atoms: O2_4  and  N1_5 
REMARK    3  A    between atoms: C3_6  and  C4_7 
REMARK    4  A    between atoms: C4_7  and  C5_8 
REMARK    5  A    between atoms: C4_7  and  S2_38 
REMARK       I    between atoms: C5_8  and  N2_10 
REMARK    6  A    between atoms: N2_10  and  C6_12 
REMARK    7  A    between atoms: C6_12  and  C7_13 
REMARK       I    between atoms: C7_13  and  N3_15 
REMARK    8  A    between atoms: N3_15  and  C8_17 
REMARK    9  A    between atoms: C9_19  and  C10_20 
REMARK   10  A    between atoms: C11_26  and  N6_27 
REMARK   11  A    between atoms: S2_38  and  N8_41 
REMARK   12  A    between atoms: C18_44  and  O7_45 
REMARK   13  A    between atoms: C19_47  and  O8_48 
ROOT
HETATM    1  C6  UNL     1      17.337  -9.987  -0.486  1.00  0.00     0.114 C 
HETATM    2  C13 UNL     1      16.933  -9.821   0.929  1.00  0.00     0.041 C 
HETATM    3  C14 UNL     1      16.961 -11.171   1.559  1.00  0.00     0.003 C 
HETATM    4  C15 UNL     1      17.122 -12.184   0.490  1.00  0.00     0.003 C 
HETATM    5  C16 UNL     1      17.446 -11.472  -0.792  1.00  0.00     0.041 C 
ENDROOT
BRANCH   1   6
HETATM    6  N2  UNL     1      16.407  -9.349  -1.404  1.00  0.00    -0.342 N 
HETATM    7  C5  UNL     1      16.000  -8.004  -1.348  1.00  0.00     0.237 C 
HETATM    8  O3  UNL     1      16.489  -7.261  -0.460  1.00  0.00    -0.272 OA
ATOM      9  H2  UNL     1      16.017  -9.925  -2.151  1.00  0.00     0.163 HD
BRANCH   7  10
HETATM   10  C4  UNL     1      14.989  -7.418  -2.306  1.00  0.00     0.203 C 
BRANCH  10  11
HETATM   11  C3  UNL     1      13.589  -7.579  -1.957  1.00  0.00     0.145 C 
HETATM   12  N1  UNL     1      13.253  -8.812  -1.233  1.00  0.00    -0.168 NA
HETATM   13  C20 UNL     1      12.137  -8.542  -0.372  1.00  0.00     0.061 C 
HETATM   14  C19 UNL     1      11.757  -7.109  -0.623  1.00  0.00     0.173 C 
HETATM   15  C21 UNL     1      10.918  -9.395  -0.680  1.00  0.00     0.037 C 
HETATM   16  C22 UNL     1      12.442  -8.674   1.094  1.00  0.00     0.037 C 
HETATM   17  C18 UNL     1      13.154  -6.517  -0.912  1.00  0.00     0.170 C 
BRANCH  12  18
HETATM   18  O2  UNL     1      12.756  -9.651  -2.199  1.00  0.00    -0.223 OA
BRANCH  18  19
HETATM   19  C2  UNL     1      13.203 -10.886  -2.541  1.00  0.00     0.271 C 
HETATM   20  C1  UNL     1      12.334 -11.769  -3.354  1.00  0.00     0.127 C 
HETATM   21  O1  UNL     1      14.336 -11.223  -2.153  1.00  0.00    -0.264 OA
ENDBRANCH  18  19
ENDBRANCH  12  18
BRANCH  14  22
HETATM   22  O8  UNL     1      10.954  -6.980  -1.761  1.00  0.00    -0.391 OA
ATOM     23  H8  UNL     1      10.273  -6.339  -1.595  1.00  0.00     0.210 HD
ENDBRANCH  14  22
BRANCH  17  24
HETATM   24  O7  UNL     1      12.973  -5.277  -1.415  1.00  0.00    -0.391 OA
ATOM     25  H7  UNL     1      13.451  -4.594  -0.961  1.00  0.00     0.210 HD
ENDBRANCH  17  24
ENDBRANCH  10  11
BRANCH  10  26
HETATM   26  S2  UNL     1      15.551  -7.840  -3.915  1.00  0.00     0.058 S 
HETATM   27  C17 UNL     1      15.295  -6.569  -5.098  1.00  0.00     0.139 C 
HETATM   28  O6  UNL     1      17.070  -8.005  -3.782  1.00  0.00    -0.247 OA
BRANCH  26  29
HETATM   29  N8  UNL     1      15.092  -9.210  -4.435  1.00  0.00    -0.181 N 
HETATM   30  F1  UNL     1      14.145  -9.347  -5.394  1.00  0.00    -0.093 F 
ATOM     31  H8  UNL     1      15.517 -10.050  -4.043  1.00  0.00     0.209 HD
ENDBRANCH  26  29
ENDBRANCH  10  26
ENDBRANCH   7  10
ENDBRANCH   1   6
BRANCH   1  32
HETATM   32  C7  UNL     1      18.681  -9.424  -0.690  1.00  0.00     0.251 C 
HETATM   33  O4  UNL     1      19.642  -9.867  -0.028  1.00  0.00    -0.270 OA
HETATM   34  N3  UNL     1      18.891  -8.393  -1.631  1.00  0.00    -0.317 N 
ATOM     35  H3  UNL     1      18.125  -8.008  -2.182  1.00  0.00     0.169 HD
BRANCH  34  36
HETATM   36  C8  UNL     1      20.248  -7.907  -1.775  1.00  0.00     0.117 A 
HETATM   37  S1  UNL     1      21.539  -8.551  -2.685  1.00  0.00    -0.049 SA
HETATM   38  C9  UNL     1      22.731  -7.370  -2.323  1.00  0.00     0.110 A 
HETATM   39  N7  UNL     1      22.059  -6.551  -1.522  1.00  0.00    -0.337 N 
HETATM   40  C12 UNL     1      20.826  -6.792  -1.231  1.00  0.00     0.138 A 
ATOM     41  H7  UNL     1      22.520  -5.727  -1.135  1.00  0.00     0.167 HD
HETATM   42 CL1  UNL     1      19.874  -5.727  -0.165  1.00  0.00    -0.061 Cl
BRANCH  38  43
HETATM   43  C10 UNL     1      24.126  -7.265  -2.778  1.00  0.00     0.135 A 
HETATM   44  N4  UNL     1      24.431  -6.822  -4.007  1.00  0.00    -0.235 N 
HETATM   45  O5  UNL     1      25.727  -6.828  -4.151  1.00  0.00    -0.155 OA
ATOM     46  H4  UNL     1      23.758  -6.528  -4.715  1.00  0.00     0.197 HD
HETATM   47  N5  UNL     1      26.262  -7.256  -3.072  1.00  0.00    -0.224 N 
HETATM   48  C11 UNL     1      25.290  -7.554  -2.153  1.00  0.00     0.153 A 
ATOM     49  H5  UNL     1      27.264  -7.361  -2.917  1.00  0.00     0.198 HD
BRANCH  48  50
HETATM   50  N6  UNL     1      25.467  -7.997  -0.977  1.00  0.00    -0.382 N 
ATOM     51  H62 UNL     1      25.560  -8.975  -0.701  1.00  0.00     0.157 HD
ATOM     52  H61 UNL     1      25.553  -7.473  -0.106  1.00  0.00     0.157 HD
ENDBRANCH  48  50
ENDBRANCH  38  43
ENDBRANCH  34  36
ENDBRANCH   1  32
TORSDOF 13
ENDMDL
MODEL 3
REMARK VINA RESULT: -6.550130255      4.391      7.586
REMARK  13 active torsions:
REMARK  status: ('A' for Active; 'I' for Inactive)
REMARK    1  A    between atoms: C2_2  and  O2_4 
REMARK    2  A    between atoms: O2_4  and  N1_5 
REMARK    3  A    between atoms: C3_6  and  C4_7 
REMARK    4  A    between atoms: C4_7  and  C5_8 
REMARK    5  A    between atoms: C4_7  and  S2_38 
REMARK       I    between atoms: C5_8  and  N2_10 
REMARK    6  A    between atoms: N2_10  and  C6_12 
REMARK    7  A    between atoms: C6_12  and  C7_13 
REMARK       I    between atoms: C7_13  and  N3_15 
REMARK    8  A    between atoms: N3_15  and  C8_17 
REMARK    9  A    between atoms: C9_19  and  C10_20 
REMARK   10  A    between atoms: C11_26  and  N6_27 
REMARK   11  A    between atoms: S2_38  and  N8_41 
REMARK   12  A    between atoms: C18_44  and  O7_45 
REMARK   13  A    between atoms: C19_47  and  O8_48 
ROOT
HETATM    1  C6  UNL     1      11.953  -7.505  -1.969  1.00  0.00     0.114 C 
HETATM    2  C13 UNL     1      11.588  -6.105  -1.657  1.00  0.00     0.041 C 
HETATM    3  C14 UNL     1      11.105  -5.481  -2.921  1.00  0.00     0.003 C 
HETATM    4  C15 UNL     1      11.415  -6.397  -4.044  1.00  0.00     0.003 C 
HETATM    5  C16 UNL     1      11.868  -7.710  -3.473  1.00  0.00     0.041 C 
ENDROOT
BRANCH   1   6
HETATM    6  N2  UNL     1      13.282  -7.850  -1.486  1.00  0.00    -0.342 N 
HETATM    7  C5  UNL     1      14.419  -7.027  -1.574  1.00  0.00     0.237 C 
HETATM    8  O3  UNL     1      14.298  -5.880  -2.078  1.00  0.00    -0.272 OA
ATOM      9  H2  UNL     1      13.399  -8.764  -1.049  1.00  0.00     0.163 HD
BRANCH   7  10
HETATM   10  C4  UNL     1      15.784  -7.468  -1.097  1.00  0.00     0.203 C 
BRANCH  10  11
HETATM   11  C3  UNL     1      16.737  -7.861  -2.120  1.00  0.00     0.145 C 
HETATM   12  N1  UNL     1      17.992  -8.440  -1.627  1.00  0.00    -0.168 NA
HETATM   13  C20 UNL     1      18.470  -9.382  -2.600  1.00  0.00     0.061 C 
HETATM   14  C19 UNL     1      17.491  -9.330  -3.741  1.00  0.00     0.173 C 
HETATM   15  C21 UNL     1      19.837  -9.028  -3.160  1.00  0.00     0.037 C 
HETATM   16  C22 UNL     1      18.517 -10.802  -2.114  1.00  0.00     0.037 C 
HETATM   17  C18 UNL     1      16.191  -9.051  -2.955  1.00  0.00     0.170 C 
BRANCH  12  18
HETATM   18  O2  UNL     1      18.889  -7.403  -1.674  1.00  0.00    -0.223 OA
BRANCH  18  19
HETATM   19  C2  UNL     1      19.425  -6.715  -0.633  1.00  0.00     0.271 C 
HETATM   20  C1  UNL     1      20.727  -6.031  -0.812  1.00  0.00     0.127 C 
HETATM   21  O1  UNL     1      18.789  -6.690   0.437  1.00  0.00    -0.264 OA
ENDBRANCH  18  19
ENDBRANCH  12  18
BRANCH  14  22
HETATM   22  O8  UNL     1      17.754  -8.257  -4.599  1.00  0.00    -0.391 OA
ATOM     23  H8  UNL     1      18.286  -7.614  -4.145  1.00  0.00     0.210 HD
ENDBRANCH  14  22
BRANCH  17  24
HETATM   24  O7  UNL     1      15.239  -8.715  -3.851  1.00  0.00    -0.391 OA
ATOM     25  H7  UNL     1      14.592  -9.392  -4.010  1.00  0.00     0.210 HD
ENDBRANCH  17  24
ENDBRANCH  10  11
BRANCH  10  26
HETATM   26  S2  UNL     1      15.495  -8.509   0.287  1.00  0.00     0.058 S 
HETATM   27  C17 UNL     1      14.217  -7.929   1.340  1.00  0.00     0.139 C 
HETATM   28  O6  UNL     1      14.998  -9.835  -0.302  1.00  0.00    -0.247 OA
BRANCH  26  29
HETATM   29  N8  UNL     1      16.747  -8.920   1.075  1.00  0.00    -0.181 N 
HETATM   30  F1  UNL     1      17.251 -10.177   1.042  1.00  0.00    -0.093 F 
ATOM     31  H8  UNL     1      17.218  -8.218   1.646  1.00  0.00     0.209 HD
ENDBRANCH  26  29
ENDBRANCH  10  26
ENDBRANCH   7  10
ENDBRANCH   1   6
BRANCH   1  32
HETATM   32  C7  UNL     1      10.970  -8.422  -1.372  1.00  0.00     0.251 C 
HETATM   33  O4  UNL     1      11.019  -9.640  -1.643  1.00  0.00    -0.270 OA
HETATM   34  N3  UNL     1       9.977  -7.937  -0.493  1.00  0.00    -0.317 N 
ATOM     35  H3  UNL     1       9.910  -6.948  -0.257  1.00  0.00     0.169 HD
BRANCH  34  36
HETATM   36  C8  UNL     1       9.059  -8.912   0.056  1.00  0.00     0.117 A 
HETATM   37  S1  UNL     1       9.190  -9.842   1.480  1.00  0.00    -0.049 SA
HETATM   38  C9  UNL     1       7.695 -10.682   1.385  1.00  0.00     0.110 A 
HETATM   39  N7  UNL     1       7.187 -10.193   0.259  1.00  0.00    -0.337 N 
HETATM   40  C12 UNL     1       7.841  -9.314  -0.422  1.00  0.00     0.138 A 
ATOM     41  H7  UNL     1       6.275 -10.513  -0.068  1.00  0.00     0.167 HD
HETATM   42 CL1  UNL     1       7.207  -8.621  -1.937  1.00  0.00    -0.061 Cl
BRANCH  38  43
HETATM   43  C10 UNL     1       7.108 -11.673   2.300  1.00  0.00     0.135 A 
HETATM   44  N4  UNL     1       5.964 -11.429   2.957  1.00  0.00    -0.235 N 
HETATM   45  O5  UNL     1       5.669 -12.463   3.694  1.00  0.00    -0.155 OA
ATOM     46  H4  UNL     1       5.414 -10.572   2.892  1.00  0.00     0.197 HD
HETATM   47  N5  UNL     1       6.572 -13.354   3.538  1.00  0.00    -0.224 N 
HETATM   48  C11 UNL     1       7.522 -12.909   2.657  1.00  0.00     0.153 A 
ATOM     49  H5  UNL     1       6.583 -14.263   4.001  1.00  0.00     0.198 HD
BRANCH  48  50
HETATM   50  N6  UNL     1       8.554 -13.540   2.272  1.00  0.00    -0.382 N 
ATOM     51  H62 UNL     1       9.280 -13.196   1.642  1.00  0.00     0.157 HD
ATOM     52  H61 UNL     1       8.850 -14.485   2.516  1.00  0.00     0.157 HD
ENDBRANCH  48  50
ENDBRANCH  38  43
ENDBRANCH  34  36
ENDBRANCH   1  32
TORSDOF 13
ENDMDL
MODEL 4
REMARK VINA RESULT: -6.464111700      3.398      8.708
REMARK  13 active torsions:
REMARK  status: ('A' for Active; 'I' for Inactive)
REMARK    1  A    between atoms: C2_2  and  O2_4 
REMARK    2  A    between atoms: O2_4  and  N1_5 
REMARK    3  A    between atoms: C3_6  and  C4_7 
REMARK    4  A    between atoms: C4_7  and  C5_8 
REMARK    5  A    between atoms: C4_7  and  S2_38 
REMARK       I    between atoms: C5_8  and  N2_10 
REMARK    6  A    between atoms: N2_10  and  C6_12 
REMARK    7  A    between atoms: C6_12  and  C7_13 
REMARK       I    between atoms: C7_13  and  N3_15 
REMARK    8  A    between atoms: N3_15  and  C8_17 
REMARK    9  A    between atoms: C9_19  and  C10_20 
REMARK   10  A    between atoms: C11_26  and  N6_27 
REMARK   11  A    between atoms: S2_38  and  N8_41 
REMARK   12  A    between atoms: C18_44  and  O7_45 
REMARK   13  A    between atoms: C19_47  and  O8_48 
ROOT
HETATM    1  C6  UNL     1      15.298  -8.573  -3.663  1.00  0.00     0.114 C 
HETATM    2  C13 UNL     1      15.983  -7.641  -4.587  1.00  0.00     0.041 C 
HETATM    3  C14 UNL     1      16.107  -8.331  -5.901  1.00  0.00     0.003 C 
HETATM    4  C15 UNL     1      15.744  -9.756  -5.719  1.00  0.00     0.003 C 
HETATM    5  C16 UNL     1      15.151  -9.921  -4.349  1.00  0.00     0.041 C 
ENDROOT
BRANCH   1   6
HETATM    6  N2  UNL     1      16.008  -8.723  -2.402  1.00  0.00    -0.342 N 
HETATM    7  C5  UNL     1      16.064  -7.760  -1.378  1.00  0.00     0.237 C 
HETATM    8  O3  UNL     1      15.429  -6.684  -1.525  1.00  0.00    -0.272 OA
ATOM      9  H2  UNL     1      16.508  -9.599  -2.247  1.00  0.00     0.163 HD
BRANCH   7  10
HETATM   10  C4  UNL     1      16.863  -7.962  -0.112  1.00  0.00     0.203 C 
BRANCH  10  11
HETATM   11  C3  UNL     1      18.296  -8.142  -0.267  1.00  0.00     0.145 C 
HETATM   12  N1  UNL     1      18.706  -9.299  -1.072  1.00  0.00    -0.168 NA
HETATM   13  C20 UNL     1      19.947  -8.982  -1.722  1.00  0.00     0.061 C 
HETATM   14  C19 UNL     1      20.320  -7.603  -1.251  1.00  0.00     0.173 C 
HETATM   15  C21 UNL     1      21.083  -9.914  -1.338  1.00  0.00     0.037 C 
HETATM   16  C22 UNL     1      19.864  -8.937  -3.221  1.00  0.00     0.037 C 
HETATM   17  C18 UNL     1      18.910  -6.989  -1.105  1.00  0.00     0.170 C 
BRANCH  12  18
HETATM   18  O2  UNL     1      19.031 -10.260  -0.148  1.00  0.00    -0.223 OA
BRANCH  18  19
HETATM   19  C2  UNL     1      18.596 -11.545  -0.094  1.00  0.00     0.271 C 
HETATM   20  C1  UNL     1      18.159 -12.214  -1.342  1.00  0.00     0.127 C 
HETATM   21  O1  UNL     1      18.584 -12.110   1.015  1.00  0.00    -0.264 OA
ENDBRANCH  18  19
ENDBRANCH  12  18
BRANCH  14  22
HETATM   22  O8  UNL     1      20.944  -7.635   0.000  1.00  0.00    -0.391 OA
ATOM     23  H8  UNL     1      21.872  -7.800  -0.115  1.00  0.00     0.210 HD
ENDBRANCH  14  22
BRANCH  17  24
HETATM   24  O7  UNL     1      19.043  -5.822  -0.439  1.00  0.00    -0.391 OA
ATOM     25  H7  UNL     1      19.733  -5.258  -0.766  1.00  0.00     0.210 HD
ENDBRANCH  17  24
ENDBRANCH  10  11
BRANCH  10  26
HETATM   26  S2  UNL     1      15.934  -9.083   0.870  1.00  0.00     0.058 S 
HETATM   27  C17 UNL     1      14.432  -8.402   1.470  1.00  0.00     0.139 C 
HETATM   28  O6  UNL     1      15.542 -10.221  -0.079  1.00  0.00    -0.247 OA
BRANCH  26  29
HETATM   29  N8  UNL     1      16.722  -9.800   1.975  1.00  0.00    -0.181 N 
HETATM   30  F1  UNL     1      16.119 -10.505   2.962  1.00  0.00    -0.093 F 
ATOM     31  H8  UNL     1      17.741  -9.744   1.966  1.00  0.00     0.209 HD
ENDBRANCH  26  29
ENDBRANCH  10  26
ENDBRANCH   7  10
ENDBRANCH   1   6
BRANCH   1  32
HETATM   32  C7  UNL     1      13.933  -8.096  -3.395  1.00  0.00     0.251 C 
HETATM   33  O4  UNL     1      13.110  -8.857  -2.846  1.00  0.00    -0.270 OA
HETATM   34  N3  UNL     1      13.549  -6.784  -3.748  1.00  0.00    -0.317 N 
ATOM     35  H3  UNL     1      14.197  -6.141  -4.202  1.00  0.00     0.169 HD
BRANCH  34  36
HETATM   36  C8  UNL     1      12.189  -6.395  -3.437  1.00  0.00     0.117 A 
HETATM   37  S1  UNL     1      11.555  -5.730  -2.000  1.00  0.00    -0.049 SA
HETATM   38  C9  UNL     1       9.919  -5.553  -2.491  1.00  0.00     0.110 A 
HETATM   39  N7  UNL     1       9.964  -6.019  -3.735  1.00  0.00    -0.337 N 
HETATM   40  C12 UNL     1      11.075  -6.444  -4.230  1.00  0.00     0.138 A 
ATOM     41  H7  UNL     1       9.114  -6.040  -4.300  1.00  0.00     0.167 HD
HETATM   42 CL1  UNL     1      11.195  -7.077  -5.893  1.00  0.00    -0.061 Cl
BRANCH  38  43
HETATM   43  C10 UNL     1       8.763  -5.019  -1.754  1.00  0.00     0.135 A 
HETATM   44  N4  UNL     1       8.916  -4.141  -0.751  1.00  0.00    -0.235 N 
HETATM   45  O5  UNL     1       7.743  -3.833  -0.275  1.00  0.00    -0.155 OA
ATOM     46  H4  UNL     1       9.807  -3.775  -0.415  1.00  0.00     0.197 HD
HETATM   47  N5  UNL     1       6.849  -4.474  -0.926  1.00  0.00    -0.224 N 
HETATM   48  C11 UNL     1       7.438  -5.253  -1.887  1.00  0.00     0.153 A 
ATOM     49  H5  UNL     1       5.845  -4.416  -0.755  1.00  0.00     0.198 HD
BRANCH  48  50
HETATM   50  N6  UNL     1       6.848  -6.014  -2.714  1.00  0.00    -0.382 N 
ATOM     51  H62 UNL     1       7.285  -6.577  -3.444  1.00  0.00     0.157 HD
ATOM     52  H61 UNL     1       5.850  -6.206  -2.801  1.00  0.00     0.157 HD
ENDBRANCH  48  50
ENDBRANCH  38  43
ENDBRANCH  34  36
ENDBRANCH   1  32
TORSDOF 13
ENDMDL
MODEL 5
REMARK VINA RESULT: -6.414447014      2.031      3.332
REMARK  13 active torsions:
REMARK  status: ('A' for Active; 'I' for Inactive)
REMARK    1  A    between atoms: C2_2  and  O2_4 
REMARK    2  A    between atoms: O2_4  and  N1_5 
REMARK    3  A    between atoms: C3_6  and  C4_7 
REMARK    4  A    between atoms: C4_7  and  C5_8 
REMARK    5  A    between atoms: C4_7  and  S2_38 
REMARK       I    between atoms: C5_8  and  N2_10 
REMARK    6  A    between atoms: N2_10  and  C6_12 
REMARK    7  A    between atoms: C6_12  and  C7_13 
REMARK       I    between atoms: C7_13  and  N3_15 
REMARK    8  A    between atoms: N3_15  and  C8_17 
REMARK    9  A    between atoms: C9_19  and  C10_20 
REMARK   10  A    between atoms: C11_26  and  N6_27 
REMARK   11  A    between atoms: S2_38  and  N8_41 
REMARK   12  A    between atoms: C18_44  and  O7_45 
REMARK   13  A    between atoms: C19_47  and  O8_48 
ROOT
HETATM    1  C6  UNL     1      16.946  -9.016  -1.440  1.00  0.00     0.114 C 
HETATM    2  C13 UNL     1      17.729  -9.476  -2.609  1.00  0.00     0.041 C 
HETATM    3  C14 UNL     1      19.031  -8.753  -2.583  1.00  0.00     0.003 C 
HETATM    4  C15 UNL     1      18.948  -7.674  -1.570  1.00  0.00     0.003 C 
HETATM    5  C16 UNL     1      17.687  -7.866  -0.777  1.00  0.00     0.041 C 
ENDROOT
BRANCH   1   6
HETATM    6  N2  UNL     1      15.599  -8.605  -1.804  1.00  0.00    -0.342 N 
HETATM    7  C5  UNL     1      15.271  -7.735  -2.860  1.00  0.00     0.237 C 
HETATM    8  O3  UNL     1      16.196  -7.287  -3.584  1.00  0.00    -0.272 OA
ATOM      9  H2  UNL     1      14.829  -8.978  -1.249  1.00  0.00     0.163 HD
BRANCH   7  10
HETATM   10  C4  UNL     1      13.850  -7.309  -3.153  1.00  0.00     0.203 C 
BRANCH  10  11
HETATM   11  C3  UNL     1      12.913  -7.358  -2.045  1.00  0.00     0.145 C 
HETATM   12  N1  UNL     1      13.076  -8.490  -1.125  1.00  0.00    -0.168 NA
HETATM   13  C20 UNL     1      12.660  -8.074   0.185  1.00  0.00     0.061 C 
HETATM   14  C19 UNL     1      12.184  -6.654   0.036  1.00  0.00     0.173 C 
HETATM   15  C21 UNL     1      11.500  -8.885   0.735  1.00  0.00     0.037 C 
HETATM   16  C22 UNL     1      13.759  -8.073   1.210  1.00  0.00     0.037 C 
HETATM   17  C18 UNL     1      13.148  -6.172  -1.071  1.00  0.00     0.170 C 
BRANCH  12  18
HETATM   18  O2  UNL     1      12.124  -9.394  -1.524  1.00  0.00    -0.223 OA
BRANCH  18  19
HETATM   19  C2  UNL     1      12.297 -10.511  -2.276  1.00  0.00     0.271 C 
HETATM   20  C1  UNL     1      11.125 -11.116  -2.951  1.00  0.00     0.127 C 
HETATM   21  O1  UNL     1      13.446 -10.980  -2.366  1.00  0.00    -0.264 OA
ENDBRANCH  18  19
ENDBRANCH  12  18
BRANCH  14  22
HETATM   22  O8  UNL     1      10.869  -6.598  -0.437  1.00  0.00    -0.391 OA
ATOM     23  H8  UNL     1      10.562  -7.479  -0.618  1.00  0.00     0.210 HD
ENDBRANCH  14  22
BRANCH  17  24
HETATM   24  O7  UNL     1      12.692  -4.982  -1.516  1.00  0.00    -0.391 OA
ATOM     25  H7  UNL     1      12.815  -4.836  -2.446  1.00  0.00     0.210 HD
ENDBRANCH  17  24
ENDBRANCH  10  11
BRANCH  10  26
HETATM   26  S2  UNL     1      13.436  -8.046  -4.692  1.00  0.00     0.058 S 
HETATM   27  C17 UNL     1      11.706  -8.154  -4.969  1.00  0.00     0.139 C 
HETATM   28  O6  UNL     1      13.983  -7.089  -5.758  1.00  0.00    -0.247 OA
BRANCH  26  29
HETATM   29  N8  UNL     1      14.152  -9.368  -5.004  1.00  0.00    -0.181 N 
HETATM   30  F1  UNL     1      13.497 -10.462  -5.463  1.00  0.00    -0.093 F 
ATOM     31  H8  UNL     1      15.160  -9.425  -4.860  1.00  0.00     0.209 HD
ENDBRANCH  26  29
ENDBRANCH  10  26
ENDBRANCH   7  10
ENDBRANCH   1   6
BRANCH   1  32
HETATM   32  C7  UNL     1      16.869 -10.089  -0.437  1.00  0.00     0.251 C 
HETATM   33  O4  UNL     1      15.982 -10.962  -0.535  1.00  0.00    -0.270 OA
HETATM   34  N3  UNL     1      17.791 -10.142   0.631  1.00  0.00    -0.317 N 
ATOM     35  H3  UNL     1      18.523  -9.440   0.739  1.00  0.00     0.169 HD
BRANCH  34  36
HETATM   36  C8  UNL     1      17.648 -11.240   1.564  1.00  0.00     0.117 A 
HETATM   37  S1  UNL     1      16.772 -11.313   3.025  1.00  0.00    -0.049 SA
HETATM   38  C9  UNL     1      17.113 -12.940   3.456  1.00  0.00     0.110 A 
HETATM   39  N7  UNL     1      17.883 -13.326   2.444  1.00  0.00    -0.337 N 
HETATM   40  C12 UNL     1      18.166 -12.505   1.492  1.00  0.00     0.138 A 
ATOM     41  H7  UNL     1      18.250 -14.277   2.421  1.00  0.00     0.167 HD
HETATM   42 CL1  UNL     1      19.190 -12.969   0.109  1.00  0.00    -0.061 Cl
BRANCH  38  43
HETATM   43  C10 UNL     1      16.671 -13.721   4.621  1.00  0.00     0.135 A 
HETATM   44  N4  UNL     1      15.425 -14.212   4.704  1.00  0.00    -0.235 N 
HETATM   45  O5  UNL     1      15.299 -14.860   5.829  1.00  0.00    -0.155 OA
ATOM     46  H4  UNL     1      14.694 -14.097   4.001  1.00  0.00     0.197 HD
HETATM   47  N5  UNL     1      16.404 -14.803   6.467  1.00  0.00    -0.224 N 
HETATM   48  C11 UNL     1      17.324 -14.087   5.747  1.00  0.00     0.153 A 
ATOM     49  H5  UNL     1      16.577 -15.227   7.378  1.00  0.00     0.198 HD
BRANCH  48  50
HETATM   50  N6  UNL     1      18.523 -13.839   6.082  1.00  0.00    -0.382 N 
ATOM     51  H62 UNL     1      19.366 -14.083   5.560  1.00  0.00     0.157 HD
ATOM     52  H61 UNL     1      18.865 -13.357   6.913  1.00  0.00     0.157 HD
ENDBRANCH  48  50
ENDBRANCH  38  43
ENDBRANCH  34  36
ENDBRANCH   1  32
TORSDOF 13
ENDMDL
