MODEL 1
REMARK VINA RESULT: -8.518629684      0.000      0.000
REMARK  11 active torsions:
REMARK  status: ('A' for Active; 'I' for Inactive)
REMARK    1  A    between atoms: C2_3  and  C3_4 
REMARK    2  A    between atoms: N4_10  and  O2_11 
REMARK    3  A    between atoms: C5_15  and  N6_16 
REMARK    4  A    between atoms: N6_16  and  C6_19 
REMARK    5  A    between atoms: C6_19  and  O3_20 
REMARK    6  A    between atoms: C6_19  and  C7_22 
REMARK    7  A    between atoms: C7_22  and  N7_23 
REMARK    8  A    between atoms: C7_22  and  C8_27 
REMARK    9  A    between atoms: C8_27  and  C9_28 
REMARK   10  A    between atoms: C12_31  and  O4_32 
REMARK   11  A    between atoms: C18_43  and  N10_44 
ROOT
HETATM    1  C1  UNL     1      32.208  30.661  29.801  1.00  0.00     0.159 C 
HETATM    2  N1  UNL     1      30.785  30.859  29.887  1.00  0.00    -0.321 N 
HETATM    3  C2  UNL     1      29.894  29.765  29.916  1.00  0.00     0.142 A 
HETATM    4  N5  UNL     1      28.665  29.986  30.012  1.00  0.00    -0.343 N 
ATOM      5  H5  UNL     1      28.077  29.154  30.031  1.00  0.00     0.163 HD
HETATM    6  C5  UNL     1      27.956  31.236  30.101  1.00  0.00     0.330 A 
HETATM    7  C15 UNL     1      28.911  32.377  30.087  1.00  0.00     0.079 A 
HETATM    8  C16 UNL     1      30.300  32.203  29.971  1.00  0.00     0.123 A 
HETATM    9  N8  UNL     1      31.137  33.254  29.948  1.00  0.00    -0.338 N 
ATOM     10  H8  UNL     1      32.140  33.085  29.862  1.00  0.00     0.168 HD
HETATM   11  C17 UNL     1      30.697  34.518  30.034  1.00  0.00     0.183 A 
HETATM   12  N9  UNL     1      29.383  34.712  30.147  1.00  0.00    -0.338 N 
ATOM     13  H9  UNL     1      29.033  35.667  30.214  1.00  0.00     0.168 HD
HETATM   14  C18 UNL     1      28.479  33.673  30.175  1.00  0.00     0.113 A 
ENDROOT
BRANCH   6  15
HETATM   15  N6  UNL     1      26.992  31.345  29.018  1.00  0.00    -0.022 N 
ATOM     16  H62 UNL     1      26.374  32.145  29.163  1.00  0.00     0.283 HD
ATOM     17  H61 UNL     1      27.450  31.638  28.155  1.00  0.00     0.283 HD
BRANCH  15  18
HETATM   18  C6  UNL     1      26.226  30.142  28.806  1.00  0.00     0.352 C 
BRANCH  18  19
HETATM   19  O3  UNL     1      24.983  30.221  29.455  1.00  0.00    -0.368 OA
ATOM     20  H3  UNL     1      24.715  29.368  29.775  1.00  0.00     0.212 HD
ENDBRANCH  18  19
BRANCH  18  21
HETATM   21  C7  UNL     1      26.046  29.767  27.358  1.00  0.00     0.243 C 
BRANCH  21  22
HETATM   22  N7  UNL     1      27.337  29.871  26.675  1.00  0.00    -0.071 N 
ATOM     23  H73 UNL     1      27.531  30.820  26.353  1.00  0.00     0.274 HD
ATOM     24  H72 UNL     1      28.125  29.774  27.316  1.00  0.00     0.274 HD
ATOM     25  H71 UNL     1      27.366  29.190  25.916  1.00  0.00     0.274 HD
ENDBRANCH  21  22
BRANCH  21  26
HETATM   26  C8  UNL     1      25.152  30.728  26.590  1.00  0.00     0.075 C 
BRANCH  26  27
HETATM   27  C9  UNL     1      24.020  30.053  25.916  1.00  0.00    -0.056 A 
HETATM   28  C10 UNL     1      23.991  28.662  25.760  1.00  0.00     0.010 A 
HETATM   29  C11 UNL     1      22.943  28.019  25.146  1.00  0.00     0.037 A 
HETATM   30  C12 UNL     1      21.881  28.732  24.661  1.00  0.00     0.065 A 
HETATM   31  C13 UNL     1      21.877  30.086  24.797  1.00  0.00     0.037 A 
HETATM   32  C14 UNL     1      22.943  30.736  25.422  1.00  0.00     0.010 A 
BRANCH  30  33
HETATM   33  O4  UNL     1      20.807  28.078  24.032  1.00  0.00    -0.361 OA
ATOM     34  H4  UNL     1      20.312  28.510  23.347  1.00  0.00     0.217 HD
ENDBRANCH  30  33
ENDBRANCH  26  27
ENDBRANCH  21  26
ENDBRANCH  18  21
ENDBRANCH  15  18
ENDBRANCH   6  15
BRANCH   3  35
HETATM   35  C3  UNL     1      30.472  28.411  29.828  1.00  0.00     0.176 A 
HETATM   36  C4  UNL     1      30.421  27.609  28.695  1.00  0.00     0.173 A 
HETATM   37  N2  UNL     1      29.795  27.955  27.466  1.00  0.00    -0.078 NA
HETATM   38  N3  UNL     1      31.059  26.471  28.974  1.00  0.00    -0.223 N 
HETATM   39  O1  UNL     1      31.487  26.540  30.196  1.00  0.00    -0.126 OA
ATOM     40  H3  UNL     1      31.187  25.684  28.338  1.00  0.00     0.198 HD
HETATM   41  N4  UNL     1      31.147  27.693  30.728  1.00  0.00    -0.095 N 
BRANCH  41  42
HETATM   42  O2  UNL     1      31.437  28.115  31.998  1.00  0.00    -0.261 OA
ATOM     43  H2  UNL     1      32.312  28.148  32.367  1.00  0.00     0.247 HD
ENDBRANCH  41  42
ENDBRANCH   3  35
BRANCH  14  44
HETATM   44  N10 UNL     1      27.240  33.941  30.313  1.00  0.00    -0.385 N 
ATOM     45 2H10 UNL     1      26.613  33.208  30.645  1.00  0.00     0.157 HD
ATOM     46 1H10 UNL     1      26.874  34.863  30.075  1.00  0.00     0.157 HD
ENDBRANCH  14  44
TORSDOF 11
ENDMDL
MODEL 2
REMARK VINA RESULT: -8.465026579      0.854      1.390
REMARK  11 active torsions:
REMARK  status: ('A' for Active; 'I' for Inactive)
REMARK    1  A    between atoms: C2_3  and  C3_4 
REMARK    2  A    between atoms: N4_10  and  O2_11 
REMARK    3  A    between atoms: C5_15  and  N6_16 
REMARK    4  A    between atoms: N6_16  and  C6_19 
REMARK    5  A    between atoms: C6_19  and  O3_20 
REMARK    6  A    between atoms: C6_19  and  C7_22 
REMARK    7  A    between atoms: C7_22  and  N7_23 
REMARK    8  A    between atoms: C7_22  and  C8_27 
REMARK    9  A    between atoms: C8_27  and  C9_28 
REMARK   10  A    between atoms: C12_31  and  O4_32 
REMARK   11  A    between atoms: C18_43  and  N10_44 
ROOT
HETATM    1  C1  UNL     1      32.109  30.717  29.168  1.00  0.00     0.159 C 
HETATM    2  N1  UNL     1      30.707  30.910  29.425  1.00  0.00    -0.321 N 
HETATM    3  C2  UNL     1      29.842  29.813  29.632  1.00  0.00     0.142 A 
HETATM    4  N5  UNL     1      28.632  30.032  29.872  1.00  0.00    -0.343 N 
ATOM      5  H5  UNL     1      28.063  29.198  30.014  1.00  0.00     0.163 HD
HETATM    6  C5  UNL     1      27.922  31.280  29.980  1.00  0.00     0.330 A 
HETATM    7  C15 UNL     1      28.852  32.425  29.777  1.00  0.00     0.079 A 
HETATM    8  C16 UNL     1      30.217  32.253  29.494  1.00  0.00     0.123 A 
HETATM    9  N8  UNL     1      31.029  33.307  29.303  1.00  0.00    -0.338 N 
ATOM     10  H8  UNL     1      32.014  33.140  29.099  1.00  0.00     0.168 HD
HETATM   11  C17 UNL     1      30.586  34.571  29.373  1.00  0.00     0.183 A 
HETATM   12  N9  UNL     1      29.294  34.762  29.642  1.00  0.00    -0.338 N 
ATOM     13  H9  UNL     1      28.942  35.717  29.700  1.00  0.00     0.168 HD
HETATM   14  C18 UNL     1      28.416  33.720  29.846  1.00  0.00     0.113 A 
ENDROOT
BRANCH   6  15
HETATM   15  N6  UNL     1      26.826  31.319  29.025  1.00  0.00    -0.022 N 
ATOM     16  H62 UNL     1      26.114  31.988  29.320  1.00  0.00     0.283 HD
ATOM     17  H61 UNL     1      27.122  31.758  28.153  1.00  0.00     0.283 HD
BRANCH  15  18
HETATM   18  C6  UNL     1      26.238  30.028  28.772  1.00  0.00     0.352 C 
BRANCH  18  19
HETATM   19  O3  UNL     1      25.014  29.895  29.449  1.00  0.00    -0.368 OA
ATOM     20  H3  UNL     1      24.319  30.343  28.981  1.00  0.00     0.212 HD
ENDBRANCH  18  19
BRANCH  18  21
HETATM   21  C7  UNL     1      26.075  29.694  27.313  1.00  0.00     0.243 C 
BRANCH  21  22
HETATM   22  N7  UNL     1      27.374  29.821  26.648  1.00  0.00    -0.071 N 
ATOM     23  H73 UNL     1      27.291  30.190  25.700  1.00  0.00     0.274 HD
ATOM     24  H72 UNL     1      27.941  30.571  27.044  1.00  0.00     0.274 HD
ATOM     25  H71 UNL     1      27.849  28.919  26.673  1.00  0.00     0.274 HD
ENDBRANCH  21  22
BRANCH  21  26
HETATM   26  C8  UNL     1      25.187  30.673  26.562  1.00  0.00     0.075 C 
BRANCH  26  27
HETATM   27  C9  UNL     1      24.039  30.021  25.895  1.00  0.00    -0.056 A 
HETATM   28  C10 UNL     1      23.978  28.630  25.748  1.00  0.00     0.010 A 
HETATM   29  C11 UNL     1      22.913  28.007  25.140  1.00  0.00     0.037 A 
HETATM   30  C12 UNL     1      21.866  28.741  24.653  1.00  0.00     0.065 A 
HETATM   31  C13 UNL     1      21.894  30.095  24.780  1.00  0.00     0.037 A 
HETATM   32  C14 UNL     1      22.977  30.725  25.398  1.00  0.00     0.010 A 
BRANCH  30  33
HETATM   33  O4  UNL     1      20.777  28.108  24.031  1.00  0.00    -0.361 OA
ATOM     34  H4  UNL     1      19.928  28.532  23.993  1.00  0.00     0.217 HD
ENDBRANCH  30  33
ENDBRANCH  26  27
ENDBRANCH  21  26
ENDBRANCH  18  21
ENDBRANCH  15  18
ENDBRANCH   6  15
BRANCH   3  35
HETATM   35  C3  UNL     1      30.423  28.461  29.548  1.00  0.00     0.176 A 
HETATM   36  C4  UNL     1      31.086  27.827  30.591  1.00  0.00     0.173 A 
HETATM   37  N2  UNL     1      31.320  28.382  31.879  1.00  0.00    -0.078 NA
HETATM   38  N3  UNL     1      31.455  26.619  30.163  1.00  0.00    -0.223 N 
HETATM   39  O1  UNL     1      31.058  26.489  28.936  1.00  0.00    -0.126 OA
ATOM     40  H3  UNL     1      31.962  25.920  30.706  1.00  0.00     0.198 HD
HETATM   41  N4  UNL     1      30.437  27.580  28.546  1.00  0.00    -0.095 N 
BRANCH  41  42
HETATM   42  O2  UNL     1      29.878  27.797  27.315  1.00  0.00    -0.261 OA
ATOM     43  H2  UNL     1      29.831  28.645  26.888  1.00  0.00     0.247 HD
ENDBRANCH  41  42
ENDBRANCH   3  35
BRANCH  14  44
HETATM   44  N10 UNL     1      27.201  33.988  30.127  1.00  0.00    -0.385 N 
ATOM     45 2H10 UNL     1      26.676  33.333  30.707  1.00  0.00     0.157 HD
ATOM     46 1H10 UNL     1      26.753  34.827  29.761  1.00  0.00     0.157 HD
ENDBRANCH  14  44
TORSDOF 11
ENDMDL
MODEL 3
REMARK VINA RESULT: -8.347166173      2.271      2.967
REMARK  11 active torsions:
REMARK  status: ('A' for Active; 'I' for Inactive)
REMARK    1  A    between atoms: C2_3  and  C3_4 
REMARK    2  A    between atoms: N4_10  and  O2_11 
REMARK    3  A    between atoms: C5_15  and  N6_16 
REMARK    4  A    between atoms: N6_16  and  C6_19 
REMARK    5  A    between atoms: C6_19  and  O3_20 
REMARK    6  A    between atoms: C6_19  and  C7_22 
REMARK    7  A    between atoms: C7_22  and  N7_23 
REMARK    8  A    between atoms: C7_22  and  C8_27 
REMARK    9  A    between atoms: C8_27  and  C9_28 
REMARK   10  A    between atoms: C12_31  and  O4_32 
REMARK   11  A    between atoms: C18_43  and  N10_44 
ROOT
HETATM    1  C1  UNL     1      30.676  29.008  30.149  1.00  0.00     0.159 C 
HETATM    2  N1  UNL     1      29.799  29.974  29.541  1.00  0.00    -0.321 N 
HETATM    3  C2  UNL     1      28.396  29.838  29.614  1.00  0.00     0.142 A 
HETATM    4  N5  UNL     1      27.674  30.715  29.087  1.00  0.00    -0.343 N 
ATOM      5  H5  UNL     1      26.670  30.559  29.177  1.00  0.00     0.163 HD
HETATM    6  C5  UNL     1      28.043  31.910  28.374  1.00  0.00     0.330 A 
HETATM    7  C15 UNL     1      29.524  32.047  28.322  1.00  0.00     0.079 A 
HETATM    8  C16 UNL     1      30.394  31.097  28.882  1.00  0.00     0.123 A 
HETATM    9  N8  UNL     1      31.728  31.242  28.809  1.00  0.00    -0.338 N 
ATOM     10  H8  UNL     1      32.326  30.529  29.228  1.00  0.00     0.168 HD
HETATM   11  C17 UNL     1      32.299  32.293  28.202  1.00  0.00     0.183 A 
HETATM   12  N9  UNL     1      31.496  33.210  27.663  1.00  0.00    -0.338 N 
ATOM     13  H9  UNL     1      31.915  34.016  27.200  1.00  0.00     0.168 HD
HETATM   14  C18 UNL     1      30.123  33.113  27.708  1.00  0.00     0.113 A 
ENDROOT
BRANCH   6  15
HETATM   15  N6  UNL     1      27.471  31.895  27.037  1.00  0.00    -0.022 N 
ATOM     16  H62 UNL     1      28.185  32.096  26.336  1.00  0.00     0.283 HD
ATOM     17  H61 UNL     1      27.224  30.945  26.761  1.00  0.00     0.283 HD
BRANCH  15  18
HETATM   18  C6  UNL     1      26.343  32.780  26.885  1.00  0.00     0.352 C 
BRANCH  18  19
HETATM   19  O3  UNL     1      26.484  33.574  25.734  1.00  0.00    -0.368 OA
ATOM     20  H3  UNL     1      26.512  34.496  25.961  1.00  0.00     0.212 HD
ENDBRANCH  18  19
BRANCH  18  21
HETATM   21  C7  UNL     1      25.005  32.089  26.891  1.00  0.00     0.243 C 
BRANCH  21  22
HETATM   22  N7  UNL     1      24.370  32.294  28.196  1.00  0.00    -0.071 N 
ATOM     23  H73 UNL     1      23.354  32.226  28.148  1.00  0.00     0.274 HD
ATOM     24  H72 UNL     1      24.536  31.516  28.835  1.00  0.00     0.274 HD
ATOM     25  H71 UNL     1      24.683  33.186  28.580  1.00  0.00     0.274 HD
ENDBRANCH  21  22
BRANCH  21  26
HETATM   26  C8  UNL     1      25.103  30.577  26.771  1.00  0.00     0.075 C 
BRANCH  26  27
HETATM   27  C9  UNL     1      23.984  29.982  26.007  1.00  0.00    -0.056 A 
HETATM   28  C10 UNL     1      23.925  28.606  25.756  1.00  0.00     0.010 A 
HETATM   29  C11 UNL     1      22.887  28.037  25.056  1.00  0.00     0.037 A 
HETATM   30  C12 UNL     1      21.866  28.811  24.578  1.00  0.00     0.065 A 
HETATM   31  C13 UNL     1      21.892  30.152  24.805  1.00  0.00     0.037 A 
HETATM   32  C14 UNL     1      22.948  30.728  25.516  1.00  0.00     0.010 A 
BRANCH  30  33
HETATM   33  O4  UNL     1      20.804  28.232  23.862  1.00  0.00    -0.361 OA
ATOM     34  H4  UNL     1      19.954  28.113  24.270  1.00  0.00     0.217 HD
ENDBRANCH  30  33
ENDBRANCH  26  27
ENDBRANCH  21  26
ENDBRANCH  18  21
ENDBRANCH  15  18
ENDBRANCH   6  15
BRANCH   3  35
HETATM   35  C3  UNL     1      27.860  28.655  30.313  1.00  0.00     0.176 A 
HETATM   36  C4  UNL     1      27.274  28.687  31.572  1.00  0.00     0.173 A 
HETATM   37  N2  UNL     1      27.119  29.847  32.380  1.00  0.00    -0.078 NA
HETATM   38  N3  UNL     1      26.893  27.445  31.874  1.00  0.00    -0.223 N 
HETATM   39  O1  UNL     1      27.211  26.675  30.881  1.00  0.00    -0.126 OA
ATOM     40  H3  UNL     1      26.432  27.153  32.736  1.00  0.00     0.198 HD
HETATM   41  N4  UNL     1      27.792  27.377  29.934  1.00  0.00    -0.095 N 
BRANCH  41  42
HETATM   42  O2  UNL     1      28.254  26.898  28.738  1.00  0.00    -0.261 OA
ATOM     43  H2  UNL     1      29.160  26.936  28.457  1.00  0.00     0.247 HD
ENDBRANCH  41  42
ENDBRANCH   3  35
BRANCH  14  44
HETATM   44  N10 UNL     1      29.425  34.048  27.194  1.00  0.00    -0.385 N 
ATOM     45 2H10 UNL     1      28.750  33.813  26.466  1.00  0.00     0.157 HD
ATOM     46 1H10 UNL     1      29.552  35.017  27.484  1.00  0.00     0.157 HD
ENDBRANCH  14  44
TORSDOF 11
ENDMDL
MODEL 4
REMARK VINA RESULT: -8.305080717      1.282      1.387
REMARK  11 active torsions:
REMARK  status: ('A' for Active; 'I' for Inactive)
REMARK    1  A    between atoms: C2_3  and  C3_4 
REMARK    2  A    between atoms: N4_10  and  O2_11 
REMARK    3  A    between atoms: C5_15  and  N6_16 
REMARK    4  A    between atoms: N6_16  and  C6_19 
REMARK    5  A    between atoms: C6_19  and  O3_20 
REMARK    6  A    between atoms: C6_19  and  C7_22 
REMARK    7  A    between atoms: C7_22  and  N7_23 
REMARK    8  A    between atoms: C7_22  and  C8_27 
REMARK    9  A    between atoms: C8_27  and  C9_28 
REMARK   10  A    between atoms: C12_31  and  O4_32 
REMARK   11  A    between atoms: C18_43  and  N10_44 
ROOT
HETATM    1  C1  UNL     1      31.459  30.823  29.382  1.00  0.00     0.159 C 
HETATM    2  N1  UNL     1      30.059  31.070  29.606  1.00  0.00    -0.321 N 
HETATM    3  C2  UNL     1      29.284  30.212  30.415  1.00  0.00     0.142 A 
HETATM    4  N5  UNL     1      28.074  30.480  30.597  1.00  0.00    -0.343 N 
ATOM      5  H5  UNL     1      27.572  29.822  31.193  1.00  0.00     0.163 HD
HETATM    6  C5  UNL     1      27.283  31.574  30.094  1.00  0.00     0.330 A 
HETATM    7  C15 UNL     1      28.120  32.477  29.259  1.00  0.00     0.079 A 
HETATM    8  C16 UNL     1      29.480  32.233  29.004  1.00  0.00     0.123 A 
HETATM    9  N8  UNL     1      30.207  33.061  28.234  1.00  0.00    -0.338 N 
ATOM     10  H8  UNL     1      31.191  32.848  28.073  1.00  0.00     0.168 HD
HETATM   11  C17 UNL     1      29.679  34.158  27.671  1.00  0.00     0.183 A 
HETATM   12  N9  UNL     1      28.391  34.414  27.898  1.00  0.00    -0.338 N 
ATOM     13  H9  UNL     1      27.975  35.245  27.478  1.00  0.00     0.168 HD
HETATM   14  C18 UNL     1      27.598  33.600  28.678  1.00  0.00     0.113 A 
ENDROOT
BRANCH   6  15
HETATM   15  N6  UNL     1      26.146  31.068  29.343  1.00  0.00    -0.022 N 
ATOM     16  H62 UNL     1      25.299  31.089  29.912  1.00  0.00     0.283 HD
ATOM     17  H61 UNL     1      25.875  31.725  28.612  1.00  0.00     0.283 HD
BRANCH  15  18
HETATM   18  C6  UNL     1      26.358  29.752  28.794  1.00  0.00     0.352 C 
BRANCH  18  19
HETATM   19  O3  UNL     1      25.527  28.809  29.422  1.00  0.00    -0.368 OA
ATOM     20  H3  UNL     1      25.748  27.928  29.145  1.00  0.00     0.212 HD
ENDBRANCH  18  19
BRANCH  18  21
HETATM   21  C7  UNL     1      26.214  29.673  27.297  1.00  0.00     0.243 C 
BRANCH  21  22
HETATM   22  N7  UNL     1      27.481  30.064  26.675  1.00  0.00    -0.071 N 
ATOM     23  H73 UNL     1      27.513  31.059  26.452  1.00  0.00     0.274 HD
ATOM     24  H72 UNL     1      28.260  30.040  27.333  1.00  0.00     0.274 HD
ATOM     25  H71 UNL     1      27.644  29.477  25.857  1.00  0.00     0.274 HD
ENDBRANCH  21  22
BRANCH  21  26
HETATM   26  C8  UNL     1      25.212  30.666  26.731  1.00  0.00     0.075 C 
BRANCH  26  27
HETATM   27  C9  UNL     1      24.081  30.015  26.031  1.00  0.00    -0.056 A 
HETATM   28  C10 UNL     1      24.057  28.631  25.821  1.00  0.00     0.010 A 
HETATM   29  C11 UNL     1      23.010  28.009  25.183  1.00  0.00     0.037 A 
HETATM   30  C12 UNL     1      21.946  28.736  24.727  1.00  0.00     0.065 A 
HETATM   31  C13 UNL     1      21.938  30.084  24.915  1.00  0.00     0.037 A 
HETATM   32  C14 UNL     1      23.002  30.713  25.564  1.00  0.00     0.010 A 
BRANCH  30  33
HETATM   33  O4  UNL     1      20.874  28.104  24.073  1.00  0.00    -0.361 OA
ATOM     34  H4  UNL     1      20.249  28.610  23.569  1.00  0.00     0.217 HD
ENDBRANCH  30  33
ENDBRANCH  26  27
ENDBRANCH  21  26
ENDBRANCH  18  21
ENDBRANCH  15  18
ENDBRANCH   6  15
BRANCH   3  35
HETATM   35  C3  UNL     1      29.955  29.037  31.002  1.00  0.00     0.176 A 
HETATM   36  C4  UNL     1      29.881  27.752  30.481  1.00  0.00     0.173 A 
HETATM   37  N2  UNL     1      29.141  27.369  29.328  1.00  0.00    -0.078 NA
HETATM   38  N3  UNL     1      30.621  26.957  31.256  1.00  0.00    -0.223 N 
HETATM   39  O1  UNL     1      31.132  27.681  32.202  1.00  0.00    -0.126 OA
ATOM     40  H3  UNL     1      30.760  25.955  31.126  1.00  0.00     0.198 HD
HETATM   41  N4  UNL     1      30.747  28.930  32.071  1.00  0.00    -0.095 N 
BRANCH  41  42
HETATM   42  O2  UNL     1      31.097  29.976  32.883  1.00  0.00    -0.261 OA
ATOM     43  H2  UNL     1      30.683  30.170  33.716  1.00  0.00     0.247 HD
ENDBRANCH  41  42
ENDBRANCH   3  35
BRANCH  14  44
HETATM   44  N10 UNL     1      26.381  33.931  28.869  1.00  0.00    -0.385 N 
ATOM     45 2H10 UNL     1      25.715  33.812  28.106  1.00  0.00     0.157 HD
ATOM     46 1H10 UNL     1      26.081  34.329  29.759  1.00  0.00     0.157 HD
ENDBRANCH  14  44
TORSDOF 11
ENDMDL
MODEL 5
REMARK VINA RESULT: -8.300407210      1.329      1.805
REMARK  11 active torsions:
REMARK  status: ('A' for Active; 'I' for Inactive)
REMARK    1  A    between atoms: C2_3  and  C3_4 
REMARK    2  A    between atoms: N4_10  and  O2_11 
REMARK    3  A    between atoms: C5_15  and  N6_16 
REMARK    4  A    between atoms: N6_16  and  C6_19 
REMARK    5  A    between atoms: C6_19  and  O3_20 
REMARK    6  A    between atoms: C6_19  and  C7_22 
REMARK    7  A    between atoms: C7_22  and  N7_23 
REMARK    8  A    between atoms: C7_22  and  C8_27 
REMARK    9  A    between atoms: C8_27  and  C9_28 
REMARK   10  A    between atoms: C12_31  and  O4_32 
REMARK   11  A    between atoms: C18_43  and  N10_44 
ROOT
HETATM    1  C1  UNL     1      31.543  30.678  29.006  1.00  0.00     0.159 C 
HETATM    2  N1  UNL     1      30.167  30.951  29.324  1.00  0.00    -0.321 N 
HETATM    3  C2  UNL     1      29.419  30.081  30.147  1.00  0.00     0.142 A 
HETATM    4  N5  UNL     1      28.230  30.371  30.414  1.00  0.00    -0.343 N 
ATOM      5  H5  UNL     1      27.747  29.704  31.014  1.00  0.00     0.163 HD
HETATM    6  C5  UNL     1      27.441  31.504  30.003  1.00  0.00     0.330 A 
HETATM    7  C15 UNL     1      28.250  32.418  29.152  1.00  0.00     0.079 A 
HETATM    8  C16 UNL     1      29.584  32.151  28.805  1.00  0.00     0.123 A 
HETATM    9  N8  UNL     1      30.286  32.990  28.024  1.00  0.00    -0.338 N 
ATOM     10  H8  UNL     1      31.253  32.759  27.794  1.00  0.00     0.168 HD
HETATM   11  C17 UNL     1      29.755  34.121  27.537  1.00  0.00     0.183 A 
HETATM   12  N9  UNL     1      28.490  34.401  27.852  1.00  0.00    -0.338 N 
ATOM     13  H9  UNL     1      28.073  35.258  27.491  1.00  0.00     0.168 HD
HETATM   14  C18 UNL     1      27.724  33.577  28.648  1.00  0.00     0.113 A 
ENDROOT
BRANCH   6  15
HETATM   15  N6  UNL     1      26.246  31.057  29.305  1.00  0.00    -0.022 N 
ATOM     16  H62 UNL     1      25.428  31.122  29.911  1.00  0.00     0.283 HD
ATOM     17  H61 UNL     1      25.977  31.727  28.584  1.00  0.00     0.283 HD
BRANCH  15  18
HETATM   18  C6  UNL     1      26.366  29.732  28.750  1.00  0.00     0.352 C 
BRANCH  18  19
HETATM   19  O3  UNL     1      25.487  28.842  29.390  1.00  0.00    -0.368 OA
ATOM     20  H3  UNL     1      25.968  28.194  29.891  1.00  0.00     0.212 HD
ENDBRANCH  18  19
BRANCH  18  21
HETATM   21  C7  UNL     1      26.192  29.665  27.255  1.00  0.00     0.243 C 
BRANCH  21  22
HETATM   22  N7  UNL     1      27.446  30.063  26.613  1.00  0.00    -0.071 N 
ATOM     23  H73 UNL     1      28.266  29.781  27.151  1.00  0.00     0.274 HD
ATOM     24  H72 UNL     1      27.638  29.524  25.768  1.00  0.00     0.274 HD
ATOM     25  H71 UNL     1      27.424  31.067  26.436  1.00  0.00     0.274 HD
ENDBRANCH  21  22
BRANCH  21  26
HETATM   26  C8  UNL     1      25.178  30.662  26.718  1.00  0.00     0.075 C 
BRANCH  26  27
HETATM   27  C9  UNL     1      24.053  30.017  26.006  1.00  0.00    -0.056 A 
HETATM   28  C10 UNL     1      24.037  28.637  25.769  1.00  0.00     0.010 A 
HETATM   29  C11 UNL     1      22.994  28.021  25.118  1.00  0.00     0.037 A 
HETATM   30  C12 UNL     1      21.925  28.750  24.676  1.00  0.00     0.065 A 
HETATM   31  C13 UNL     1      21.909  30.094  24.890  1.00  0.00     0.037 A 
HETATM   32  C14 UNL     1      22.969  30.717  25.552  1.00  0.00     0.010 A 
BRANCH  30  33
HETATM   33  O4  UNL     1      20.858  28.123  24.010  1.00  0.00    -0.361 OA
ATOM     34  H4  UNL     1      21.017  27.571  23.254  1.00  0.00     0.217 HD
ENDBRANCH  30  33
ENDBRANCH  26  27
ENDBRANCH  21  26
ENDBRANCH  18  21
ENDBRANCH  15  18
ENDBRANCH   6  15
BRANCH   3  35
HETATM   35  C3  UNL     1      30.092  28.867  30.646  1.00  0.00     0.176 A 
HETATM   36  C4  UNL     1      30.775  28.790  31.853  1.00  0.00     0.173 A 
HETATM   37  N2  UNL     1      30.947  29.860  32.774  1.00  0.00    -0.078 NA
HETATM   38  N3  UNL     1      31.234  27.544  31.981  1.00  0.00    -0.223 N 
HETATM   39  O1  UNL     1      30.869  26.873  30.933  1.00  0.00    -0.126 OA
ATOM     40  H3  UNL     1      31.776  27.183  32.765  1.00  0.00     0.198 HD
HETATM   41  N4  UNL     1      30.184  27.644  30.119  1.00  0.00    -0.095 N 
BRANCH  41  42
HETATM   42  O2  UNL     1      29.635  27.273  28.921  1.00  0.00    -0.261 OA
ATOM     43  H2  UNL     1      29.578  26.377  28.611  1.00  0.00     0.247 HD
ENDBRANCH  41  42
ENDBRANCH   3  35
BRANCH  14  44
HETATM   44  N10 UNL     1      26.531  33.930  28.926  1.00  0.00    -0.385 N 
ATOM     45 2H10 UNL     1      25.942  34.299  28.181  1.00  0.00     0.157 HD
ATOM     46 1H10 UNL     1      26.177  33.868  29.881  1.00  0.00     0.157 HD
ENDBRANCH  14  44
TORSDOF 11
ENDMDL
