MODEL 1
REMARK VINA RESULT: -4.372404431      0.000      0.000
REMARK  4 active torsions:
REMARK  status: ('A' for Active; 'I' for Inactive)
REMARK    1  A    between atoms: N1_1  and  C1_5 
REMARK    2  A    between atoms: C2_9  and  O1_10 
REMARK    3  A    between atoms: O1_10  and  N3_11 
REMARK    4  A    between atoms: N3_11  and  C3_13 
ROOT
HETATM    1  C1  UNL     1      26.595   3.003  36.832  1.00  0.00     0.530 C 
HETATM    2  N2  UNL     1      25.893   2.358  35.759  1.00  0.00     0.029 N 
ATOM      3  H21 UNL     1      25.299   1.544  35.914  1.00  0.00     0.288 HD
ATOM      4  H22 UNL     1      26.378   1.814  35.045  1.00  0.00     0.288 HD
HETATM    5  C2  UNL     1      25.337   3.685  35.480  1.00  0.00     0.499 C 
HETATM    6  O2  UNL     1      26.321   4.250  36.324  1.00  0.00    -0.282 OA
ENDROOT
BRANCH   5   7
HETATM    7  O1  UNL     1      25.492   4.064  34.179  1.00  0.00    -0.222 OA
BRANCH   7   8
HETATM    8  N3  UNL     1      25.156   5.254  33.811  1.00  0.00    -0.293 N 
ATOM      9  H3  UNL     1      24.515   5.798  34.388  1.00  0.00     0.188 HD
BRANCH   8  10
HETATM   10  C3  UNL     1      25.663   5.811  32.621  1.00  0.00     0.106 C 
HETATM   11  C4  UNL     1      25.481   7.335  32.600  1.00  0.00     0.027 C 
HETATM   12  C5  UNL     1      25.251   7.579  31.136  1.00  0.00     0.002 C 
HETATM   13  C6  UNL     1      24.245   6.497  30.806  1.00  0.00     0.002 C 
HETATM   14  C7  UNL     1      24.894   5.286  31.441  1.00  0.00     0.027 C 
ENDBRANCH   8  10
ENDBRANCH   7   8
ENDBRANCH   5   7
BRANCH   1  15
HETATM   15  N1  UNL     1      28.043   2.771  36.802  1.00  0.00    -0.027 N 
ATOM     16  H13 UNL     1      28.310   2.062  37.485  1.00  0.00     0.279 HD
ATOM     17  H12 UNL     1      28.316   2.290  35.944  1.00  0.00     0.279 HD
ATOM     18  H11 UNL     1      28.591   3.621  36.931  1.00  0.00     0.279 HD
ENDBRANCH   1  15
TORSDOF 4
ENDMDL
MODEL 2
REMARK VINA RESULT: -4.091458539      2.964      3.989
REMARK  4 active torsions:
REMARK  status: ('A' for Active; 'I' for Inactive)
REMARK    1  A    between atoms: N1_1  and  C1_5 
REMARK    2  A    between atoms: C2_9  and  O1_10 
REMARK    3  A    between atoms: O1_10  and  N3_11 
REMARK    4  A    between atoms: N3_11  and  C3_13 
ROOT
HETATM    1  C1  UNL     1      25.859   4.396  32.753  1.00  0.00     0.530 C 
HETATM    2  N2  UNL     1      24.850   5.131  33.463  1.00  0.00     0.029 N 
ATOM      3  H21 UNL     1      24.632   4.941  34.441  1.00  0.00     0.288 HD
ATOM      4  H22 UNL     1      23.857   5.018  33.263  1.00  0.00     0.288 HD
HETATM    5  C2  UNL     1      25.594   6.324  33.050  1.00  0.00     0.499 C 
HETATM    6  O2  UNL     1      26.307   5.531  32.121  1.00  0.00    -0.282 OA
ENDROOT
BRANCH   5   7
HETATM    7  O1  UNL     1      24.809   7.257  32.439  1.00  0.00    -0.222 OA
BRANCH   7   8
HETATM    8  N3  UNL     1      25.246   8.459  32.272  1.00  0.00    -0.293 N 
ATOM      9  H3  UNL     1      25.531   9.008  33.083  1.00  0.00     0.188 HD
BRANCH   8  10
HETATM   10  C3  UNL     1      25.336   9.022  30.985  1.00  0.00     0.106 C 
HETATM   11  C4  UNL     1      25.123   7.960  29.898  1.00  0.00     0.027 C 
HETATM   12  C5  UNL     1      26.032   8.468  28.815  1.00  0.00     0.002 C 
HETATM   13  C6  UNL     1      27.287   8.786  29.602  1.00  0.00     0.002 C 
HETATM   14  C7  UNL     1      26.717   9.573  30.762  1.00  0.00     0.027 C 
ENDBRANCH   8  10
ENDBRANCH   7   8
ENDBRANCH   5   7
BRANCH   1  15
HETATM   15  N1  UNL     1      25.309   3.468  31.758  1.00  0.00    -0.027 N 
ATOM     16  H13 UNL     1      26.054   3.063  31.192  1.00  0.00     0.279 HD
ATOM     17  H12 UNL     1      24.959   2.621  32.207  1.00  0.00     0.279 HD
ATOM     18  H11 UNL     1      24.593   3.888  31.167  1.00  0.00     0.279 HD
ENDBRANCH   1  15
TORSDOF 4
ENDMDL
MODEL 3
REMARK VINA RESULT: -4.046337739      1.616      2.293
REMARK  4 active torsions:
REMARK  status: ('A' for Active; 'I' for Inactive)
REMARK    1  A    between atoms: N1_1  and  C1_5 
REMARK    2  A    between atoms: C2_9  and  O1_10 
REMARK    3  A    between atoms: O1_10  and  N3_11 
REMARK    4  A    between atoms: N3_11  and  C3_13 
ROOT
HETATM    1  C1  UNL     1      27.596   1.560  37.201  1.00  0.00     0.530 C 
HETATM    2  N2  UNL     1      28.125   2.853  36.872  1.00  0.00     0.029 N 
ATOM      3  H21 UNL     1      29.085   2.978  36.550  1.00  0.00     0.288 HD
ATOM      4  H22 UNL     1      28.318   3.557  37.584  1.00  0.00     0.288 HD
HETATM    5  C2  UNL     1      26.980   2.961  35.963  1.00  0.00     0.499 C 
HETATM    6  O2  UNL     1      26.390   1.852  36.612  1.00  0.00    -0.282 OA
ENDROOT
BRANCH   5   7
HETATM    7  O1  UNL     1      26.264   4.108  36.144  1.00  0.00    -0.222 OA
BRANCH   7   8
HETATM    8  N3  UNL     1      25.355   4.441  35.291  1.00  0.00    -0.293 N 
ATOM      9  H3  UNL     1      24.518   4.927  35.612  1.00  0.00     0.188 HD
BRANCH   8  10
HETATM   10  C3  UNL     1      25.504   4.142  33.924  1.00  0.00     0.106 C 
HETATM   11  C4  UNL     1      25.609   5.422  33.084  1.00  0.00     0.027 C 
HETATM   12  C5  UNL     1      24.928   4.992  31.815  1.00  0.00     0.002 C 
HETATM   13  C6  UNL     1      23.690   4.309  32.356  1.00  0.00     0.002 C 
HETATM   14  C7  UNL     1      24.287   3.416  33.422  1.00  0.00     0.027 C 
ENDBRANCH   8  10
ENDBRANCH   7   8
ENDBRANCH   5   7
BRANCH   1  15
HETATM   15  N1  UNL     1      27.400   1.363  38.642  1.00  0.00    -0.027 N 
ATOM     16  H13 UNL     1      28.275   1.497  39.148  1.00  0.00     0.279 HD
ATOM     17  H12 UNL     1      26.854   2.127  39.042  1.00  0.00     0.279 HD
ATOM     18  H11 UNL     1      26.983   0.461  38.873  1.00  0.00     0.279 HD
ENDBRANCH   1  15
TORSDOF 4
ENDMDL
MODEL 4
REMARK VINA RESULT: -4.040675493      1.966      2.658
REMARK  4 active torsions:
REMARK  status: ('A' for Active; 'I' for Inactive)
REMARK    1  A    between atoms: N1_1  and  C1_5 
REMARK    2  A    between atoms: C2_9  and  O1_10 
REMARK    3  A    between atoms: O1_10  and  N3_11 
REMARK    4  A    between atoms: N3_11  and  C3_13 
ROOT
HETATM    1  C1  UNL     1      24.445   3.430  35.212  1.00  0.00     0.530 C 
HETATM    2  N2  UNL     1      25.630   4.232  35.316  1.00  0.00     0.029 N 
ATOM      3  H21 UNL     1      26.463   3.904  35.805  1.00  0.00     0.288 HD
ATOM      4  H22 UNL     1      25.669   5.067  35.900  1.00  0.00     0.288 HD
HETATM    5  C2  UNL     1      25.566   4.309  33.854  1.00  0.00     0.499 C 
HETATM    6  O2  UNL     1      24.243   3.814  33.909  1.00  0.00    -0.282 OA
ENDROOT
BRANCH   5   7
HETATM    7  O1  UNL     1      25.621   5.589  33.386  1.00  0.00    -0.222 OA
BRANCH   7   8
HETATM    8  N3  UNL     1      25.401   5.828  32.137  1.00  0.00    -0.293 N 
ATOM      9  H3  UNL     1      25.756   5.184  31.431  1.00  0.00     0.188 HD
BRANCH   8  10
HETATM   10  C3  UNL     1      24.675   6.967  31.738  1.00  0.00     0.106 C 
HETATM   11  C4  UNL     1      24.522   7.020  30.212  1.00  0.00     0.027 C 
HETATM   12  C5  UNL     1      24.555   8.502  29.969  1.00  0.00     0.002 C 
HETATM   13  C6  UNL     1      25.734   8.920  30.822  1.00  0.00     0.002 C 
HETATM   14  C7  UNL     1      25.424   8.212  32.123  1.00  0.00     0.027 C 
ENDBRANCH   8  10
ENDBRANCH   7   8
ENDBRANCH   5   7
BRANCH   1  15
HETATM   15  N1  UNL     1      23.337   3.917  36.042  1.00  0.00    -0.027 N 
ATOM     16  H13 UNL     1      22.470   3.434  35.809  1.00  0.00     0.279 HD
ATOM     17  H12 UNL     1      23.447   3.611  37.009  1.00  0.00     0.279 HD
ATOM     18  H11 UNL     1      23.212   4.928  35.994  1.00  0.00     0.279 HD
ENDBRANCH   1  15
TORSDOF 4
ENDMDL
MODEL 5
REMARK VINA RESULT: -3.969803013      1.593      2.366
REMARK  4 active torsions:
REMARK  status: ('A' for Active; 'I' for Inactive)
REMARK    1  A    between atoms: N1_1  and  C1_5 
REMARK    2  A    between atoms: C2_9  and  O1_10 
REMARK    3  A    between atoms: O1_10  and  N3_11 
REMARK    4  A    between atoms: N3_11  and  C3_13 
ROOT
HETATM    1  C1  UNL     1      25.767   2.895  34.417  1.00  0.00     0.530 C 
HETATM    2  N2  UNL     1      25.513   3.129  33.024  1.00  0.00     0.029 N 
ATOM      3  H21 UNL     1      24.894   2.529  32.480  1.00  0.00     0.288 HD
ATOM      4  H22 UNL     1      26.225   2.971  32.311  1.00  0.00     0.288 HD
HETATM    5  C2  UNL     1      25.120   4.477  33.442  1.00  0.00     0.499 C 
HETATM    6  O2  UNL     1      25.720   4.238  34.700  1.00  0.00    -0.282 OA
ENDROOT
BRANCH   5   7
HETATM    7  O1  UNL     1      25.757   5.459  32.743  1.00  0.00    -0.222 OA
BRANCH   7   8
HETATM    8  N3  UNL     1      25.620   6.693  33.093  1.00  0.00    -0.293 N 
ATOM      9  H3  UNL     1      25.938   6.993  34.014  1.00  0.00     0.188 HD
BRANCH   8  10
HETATM   10  C3  UNL     1      25.036   7.631  32.220  1.00  0.00     0.106 C 
HETATM   11  C4  UNL     1      24.746   7.006  30.849  1.00  0.00     0.027 C 
HETATM   12  C5  UNL     1      24.973   8.181  29.941  1.00  0.00     0.002 C 
HETATM   13  C6  UNL     1      26.279   8.728  30.480  1.00  0.00     0.002 C 
HETATM   14  C7  UNL     1      25.995   8.761  31.966  1.00  0.00     0.027 C 
ENDBRANCH   8  10
ENDBRANCH   7   8
ENDBRANCH   5   7
BRANCH   1  15
HETATM   15  N1  UNL     1      27.117   2.386  34.685  1.00  0.00    -0.027 N 
ATOM     16  H13 UNL     1      27.663   2.339  33.825  1.00  0.00     0.279 HD
ATOM     17  H12 UNL     1      27.669   3.075  35.198  1.00  0.00     0.279 HD
ATOM     18  H11 UNL     1      27.122   1.487  35.166  1.00  0.00     0.279 HD
ENDBRANCH   1  15
TORSDOF 4
ENDMDL
