MODEL 1
REMARK VINA RESULT: -3.702386784      0.000      0.000
REMARK  4 active torsions:
REMARK  status: ('A' for Active; 'I' for Inactive)
REMARK    1  A    between atoms: O1_2  and  N1_3 
REMARK    2  A    between atoms: N1_3  and  C2_5 
REMARK    3  A    between atoms: C2_5  and  O2_9 
REMARK    4  A    between atoms: O2_9  and  C3_10 
ROOT
HETATM    1  O2  UNL     1      25.531   4.782  32.927  1.00  0.00    -0.316 OA
ENDROOT
BRANCH   1   2
HETATM    2  C2  UNL     1      24.966   3.894  33.824  1.00  0.00     0.237 C 
HETATM    3  N2  UNL     1      24.508   2.789  33.349  1.00  0.00    -0.364 N 
ATOM      4  H22 UNL     1      24.091   2.134  34.011  1.00  0.00     0.159 HD
ATOM      5  H21 UNL     1      24.549   2.556  32.357  1.00  0.00     0.159 HD
BRANCH   2   6
HETATM    6  N1  UNL     1      24.910   4.217  35.202  1.00  0.00    -0.231 N 
ATOM      7  H1  UNL     1      24.008   4.270  35.675  1.00  0.00     0.198 HD
BRANCH   6   8
HETATM    8  O1  UNL     1      26.032   4.452  35.883  1.00  0.00    -0.282 OA
HETATM    9  C1  UNL     1      26.515   3.361  36.567  1.00  0.00     0.237 C 
ENDBRANCH   6   8
ENDBRANCH   2   6
ENDBRANCH   1   2
BRANCH   1  10
HETATM   10  C3  UNL     1      24.832   5.951  32.468  1.00  0.00     0.135 C 
HETATM   11  C4  UNL     1      24.418   5.798  31.050  1.00  0.00     0.060 C 
HETATM   12  C5  UNL     1      24.336   7.077  30.277  1.00  0.00     0.235 C 
HETATM   13  N3  UNL     1      25.545   7.824  30.489  1.00  0.00    -0.075 N 
HETATM   14  C6  UNL     1      25.537   8.286  31.864  1.00  0.00     0.235 C 
ATOM     15  H32 UNL     1      26.386   7.298  30.251  1.00  0.00     0.277 HD
ATOM     16  H31 UNL     1      25.667   8.581  29.816  1.00  0.00     0.277 HD
HETATM   17  C7  UNL     1      25.717   7.110  32.755  1.00  0.00     0.060 C 
ENDBRANCH   1  10
TORSDOF 4
ENDMDL
MODEL 2
REMARK VINA RESULT: -3.659385367      0.900      1.661
REMARK  4 active torsions:
REMARK  status: ('A' for Active; 'I' for Inactive)
REMARK    1  A    between atoms: O1_2  and  N1_3 
REMARK    2  A    between atoms: N1_3  and  C2_5 
REMARK    3  A    between atoms: C2_5  and  O2_9 
REMARK    4  A    between atoms: O2_9  and  C3_10 
ROOT
HETATM    1  O2  UNL     1      24.616   5.504  32.796  1.00  0.00    -0.316 OA
ENDROOT
BRANCH   1   2
HETATM    2  C2  UNL     1      25.209   4.448  33.462  1.00  0.00     0.237 C 
HETATM    3  N2  UNL     1      25.949   3.656  32.770  1.00  0.00    -0.364 N 
ATOM      4  H22 UNL     1      26.387   2.875  33.261  1.00  0.00     0.159 HD
ATOM      5  H21 UNL     1      26.108   3.782  31.770  1.00  0.00     0.159 HD
BRANCH   2   6
HETATM    6  N1  UNL     1      24.988   4.272  34.850  1.00  0.00    -0.231 N 
ATOM      7  H1  UNL     1      24.081   3.946  35.184  1.00  0.00     0.198 HD
BRANCH   6   8
HETATM    8  O1  UNL     1      25.963   4.531  35.722  1.00  0.00    -0.282 OA
HETATM    9  C1  UNL     1      26.386   3.435  36.438  1.00  0.00     0.237 C 
ENDBRANCH   6   8
ENDBRANCH   2   6
ENDBRANCH   1   2
BRANCH   1  10
HETATM   10  C3  UNL     1      25.326   6.287  31.821  1.00  0.00     0.135 C 
HETATM   11  C4  UNL     1      25.832   7.548  32.420  1.00  0.00     0.060 C 
HETATM   12  C5  UNL     1      25.944   8.697  31.467  1.00  0.00     0.235 C 
HETATM   13  N3  UNL     1      24.714   8.812  30.734  1.00  0.00    -0.075 N 
HETATM   14  C6  UNL     1      24.628   7.670  29.843  1.00  0.00     0.235 C 
ATOM     15  H32 UNL     1      23.898   8.907  31.338  1.00  0.00     0.277 HD
ATOM     16  H31 UNL     1      24.624   9.704  30.247  1.00  0.00     0.277 HD
HETATM   17  C7  UNL     1      24.408   6.451  30.664  1.00  0.00     0.060 C 
ENDBRANCH   1  10
TORSDOF 4
ENDMDL
MODEL 3
REMARK VINA RESULT: -3.620269652      3.989      5.882
REMARK  4 active torsions:
REMARK  status: ('A' for Active; 'I' for Inactive)
REMARK    1  A    between atoms: O1_2  and  N1_3 
REMARK    2  A    between atoms: N1_3  and  C2_5 
REMARK    3  A    between atoms: C2_5  and  O2_9 
REMARK    4  A    between atoms: O2_9  and  C3_10 
ROOT
HETATM    1  O2  UNL     1      27.955   2.072  36.870  1.00  0.00    -0.316 OA
ENDROOT
BRANCH   1   2
HETATM    2  C2  UNL     1      28.323   1.047  37.721  1.00  0.00     0.237 C 
HETATM    3  N2  UNL     1      28.011  -0.151  37.371  1.00  0.00    -0.364 N 
ATOM      4  H22 UNL     1      28.283  -0.908  37.999  1.00  0.00     0.159 HD
ATOM      5  H21 UNL     1      27.513  -0.360  36.505  1.00  0.00     0.159 HD
BRANCH   2   6
HETATM    6  N1  UNL     1      29.015   1.337  38.923  1.00  0.00    -0.231 N 
ATOM      7  H1  UNL     1      29.636   2.146  38.970  1.00  0.00     0.198 HD
BRANCH   6   8
HETATM    8  O1  UNL     1      28.859   0.557  39.992  1.00  0.00    -0.282 OA
HETATM    9  C1  UNL     1      27.785   0.894  40.784  1.00  0.00     0.237 C 
ENDBRANCH   6   8
ENDBRANCH   2   6
ENDBRANCH   1   2
BRANCH   1  10
HETATM   10  C3  UNL     1      26.697   2.072  36.174  1.00  0.00     0.135 C 
HETATM   11  C4  UNL     1      26.854   2.598  34.794  1.00  0.00     0.060 C 
HETATM   12  C5  UNL     1      25.645   3.283  34.240  1.00  0.00     0.235 C 
HETATM   13  N3  UNL     1      25.163   4.228  35.209  1.00  0.00    -0.075 N 
HETATM   14  C6  UNL     1      24.617   3.474  36.321  1.00  0.00     0.235 C 
ATOM     15  H32 UNL     1      25.874   4.901  35.496  1.00  0.00     0.277 HD
ATOM     16  H31 UNL     1      24.499   4.895  34.817  1.00  0.00     0.277 HD
HETATM   17  C7  UNL     1      25.740   2.813  37.036  1.00  0.00     0.060 C 
ENDBRANCH   1  10
TORSDOF 4
ENDMDL
MODEL 4
REMARK VINA RESULT: -3.573740931      4.336      6.074
REMARK  4 active torsions:
REMARK  status: ('A' for Active; 'I' for Inactive)
REMARK    1  A    between atoms: O1_2  and  N1_3 
REMARK    2  A    between atoms: N1_3  and  C2_5 
REMARK    3  A    between atoms: C2_5  and  O2_9 
REMARK    4  A    between atoms: O2_9  and  C3_10 
ROOT
HETATM    1  O2  UNL     1      26.487   0.979  37.316  1.00  0.00    -0.316 OA
ENDROOT
BRANCH   1   2
HETATM    2  C2  UNL     1      27.820   0.650  37.473  1.00  0.00     0.237 C 
HETATM    3  N2  UNL     1      28.239  -0.413  36.882  1.00  0.00    -0.364 N 
ATOM      4  H22 UNL     1      29.224  -0.656  36.998  1.00  0.00     0.159 HD
ATOM      5  H21 UNL     1      27.631  -1.004  36.314  1.00  0.00     0.159 HD
BRANCH   2   6
HETATM    6  N1  UNL     1      28.664   1.470  38.262  1.00  0.00    -0.231 N 
ATOM      7  H1  UNL     1      28.827   2.440  37.992  1.00  0.00     0.198 HD
BRANCH   6   8
HETATM    8  O1  UNL     1      29.247   0.979  39.355  1.00  0.00    -0.282 OA
HETATM    9  C1  UNL     1      28.369   0.635  40.357  1.00  0.00     0.237 C 
ENDBRANCH   6   8
ENDBRANCH   2   6
ENDBRANCH   1   2
BRANCH   1  10
HETATM   10  C3  UNL     1      26.035   2.343  37.288  1.00  0.00     0.135 C 
HETATM   11  C4  UNL     1      24.565   2.420  37.478  1.00  0.00     0.060 C 
HETATM   12  C5  UNL     1      23.903   3.585  36.811  1.00  0.00     0.235 C 
HETATM   13  N3  UNL     1      24.354   3.656  35.449  1.00  0.00    -0.075 N 
HETATM   14  C6  UNL     1      25.749   4.054  35.470  1.00  0.00     0.235 C 
ATOM     15  H32 UNL     1      24.195   2.791  34.931  1.00  0.00     0.277 HD
ATOM     16  H31 UNL     1      23.775   4.265  34.871  1.00  0.00     0.277 HD
HETATM   17  C7  UNL     1      26.549   2.930  36.023  1.00  0.00     0.060 C 
ENDBRANCH   1  10
TORSDOF 4
ENDMDL
MODEL 5
REMARK VINA RESULT: -3.565479810      2.056      5.365
REMARK  4 active torsions:
REMARK  status: ('A' for Active; 'I' for Inactive)
REMARK    1  A    between atoms: O1_2  and  N1_3 
REMARK    2  A    between atoms: N1_3  and  C2_5 
REMARK    3  A    between atoms: C2_5  and  O2_9 
REMARK    4  A    between atoms: O2_9  and  C3_10 
ROOT
HETATM    1  O2  UNL     1      25.982   4.083  33.316  1.00  0.00    -0.316 OA
ENDROOT
BRANCH   1   2
HETATM    2  C2  UNL     1      25.138   5.169  33.173  1.00  0.00     0.237 C 
HETATM    3  N2  UNL     1      23.881   4.928  33.053  1.00  0.00    -0.364 N 
ATOM      4  H22 UNL     1      23.258   5.730  32.947  1.00  0.00     0.159 HD
ATOM      5  H21 UNL     1      23.498   3.982  33.060  1.00  0.00     0.159 HD
BRANCH   2   6
HETATM    6  N1  UNL     1      25.670   6.483  33.163  1.00  0.00    -0.231 N 
ATOM      7  H1  UNL     1      26.619   6.650  33.496  1.00  0.00     0.198 HD
BRANCH   6   8
HETATM    8  O1  UNL     1      24.933   7.501  32.719  1.00  0.00    -0.282 OA
HETATM    9  C1  UNL     1      25.633   8.422  31.974  1.00  0.00     0.237 C 
ENDBRANCH   6   8
ENDBRANCH   2   6
ENDBRANCH   1   2
BRANCH   1  10
HETATM   10  C3  UNL     1      25.896   3.193  34.442  1.00  0.00     0.135 C 
HETATM   11  C4  UNL     1      25.849   3.953  35.716  1.00  0.00     0.060 C 
HETATM   12  C5  UNL     1      26.439   3.244  36.894  1.00  0.00     0.235 C 
HETATM   13  N3  UNL     1      27.731   2.733  36.528  1.00  0.00    -0.075 N 
HETATM   14  C6  UNL     1      27.522   1.654  35.581  1.00  0.00     0.235 C 
ATOM     15  H32 UNL     1      28.359   3.456  36.175  1.00  0.00     0.277 HD
ATOM     16  H31 UNL     1      28.290   2.453  37.333  1.00  0.00     0.277 HD
HETATM   17  C7  UNL     1      27.026   2.237  34.308  1.00  0.00     0.060 C 
ENDBRANCH   1  10
TORSDOF 4
ENDMDL
