MODEL 1
REMARK VINA RESULT: -3.637898267      0.000      0.000
REMARK  5 active torsions:
REMARK  status: ('A' for Active; 'I' for Inactive)
REMARK    1  A    between atoms: N1_7  and  O1_8 
REMARK    2  A    between atoms: O1_8  and  C7_9 
REMARK    3  A    between atoms: C7_9  and  N2_10 
REMARK    4  A    between atoms: C7_9  and  N3_14 
REMARK    5  A    between atoms: N3_14  and  N4_15 
ROOT
HETATM    1  C7  UNL     1      25.557   4.694  33.372  1.00  0.00     0.453 C 
ENDROOT
BRANCH   1   2
HETATM    2  O1  UNL     1      24.609   5.379  32.654  1.00  0.00    -0.251 OA
BRANCH   2   3
HETATM    3  N1  UNL     1      25.153   6.306  31.807  1.00  0.00    -0.189 NA
HETATM    4  C2  UNL     1      24.190   6.552  30.753  1.00  0.00     0.082 C 
HETATM    5  C1  UNL     1      23.871   5.292  29.975  1.00  0.00     0.028 C 
HETATM    6  C3  UNL     1      24.780   7.539  29.775  1.00  0.00     0.022 C 
HETATM    7  C4  UNL     1      25.001   8.852  30.507  1.00  0.00     0.003 C 
HETATM    8  C5  UNL     1      25.876   8.642  31.731  1.00  0.00     0.017 C 
HETATM    9  C6  UNL     1      25.290   7.534  32.568  1.00  0.00     0.121 C 
ENDBRANCH   2   3
ENDBRANCH   1   2
BRANCH   1  10
HETATM   10  N2  UNL     1      25.294   4.650  34.787  1.00  0.00    -0.035 N 
ATOM     11  H23 UNL     1      24.625   3.913  35.006  1.00  0.00     0.279 HD
ATOM     12  H22 UNL     1      26.107   4.298  35.293  1.00  0.00     0.279 HD
ATOM     13  H21 UNL     1      24.988   5.542  35.175  1.00  0.00     0.279 HD
ENDBRANCH   1  10
BRANCH   1  14
HETATM   14  N3  UNL     1      25.591   3.294  32.917  1.00  0.00    -0.086 NA
BRANCH  14  15
HETATM   15  N4  UNL     1      26.254   3.169  31.704  1.00  0.00    -0.344 N 
ATOM     16  H42 UNL     1      27.261   3.291  31.599  1.00  0.00     0.172 HD
ATOM     17  H41 UNL     1      25.608   2.944  30.947  1.00  0.00     0.172 HD
ENDBRANCH  14  15
ENDBRANCH   1  14
TORSDOF 5
ENDMDL
MODEL 2
REMARK VINA RESULT: -3.567394101      4.670      6.046
REMARK  5 active torsions:
REMARK  status: ('A' for Active; 'I' for Inactive)
REMARK    1  A    between atoms: N1_7  and  O1_8 
REMARK    2  A    between atoms: O1_8  and  C7_9 
REMARK    3  A    between atoms: C7_9  and  N2_10 
REMARK    4  A    between atoms: C7_9  and  N3_14 
REMARK    5  A    between atoms: N3_14  and  N4_15 
ROOT
HETATM    1  C7  UNL     1      28.433   8.942  27.453  1.00  0.00     0.453 C 
ENDROOT
BRANCH   1   2
HETATM    2  O1  UNL     1      27.253   8.263  27.630  1.00  0.00    -0.251 OA
BRANCH   2   3
HETATM    3  N1  UNL     1      26.465   8.815  28.604  1.00  0.00    -0.189 NA
HETATM    4  C2  UNL     1      25.382   7.889  28.865  1.00  0.00     0.082 C 
HETATM    5  C1  UNL     1      24.544   7.638  27.628  1.00  0.00     0.028 C 
HETATM    6  C3  UNL     1      24.468   8.491  29.905  1.00  0.00     0.022 C 
HETATM    7  C4  UNL     1      25.258   8.645  31.194  1.00  0.00     0.003 C 
HETATM    8  C5  UNL     1      26.508   9.476  30.959  1.00  0.00     0.017 C 
HETATM    9  C6  UNL     1      27.277   8.888  29.804  1.00  0.00     0.121 C 
ENDBRANCH   2   3
ENDBRANCH   1   2
BRANCH   1  10
HETATM   10  N2  UNL     1      29.454   8.168  26.797  1.00  0.00    -0.035 N 
ATOM     11  H23 UNL     1      30.375   8.572  26.965  1.00  0.00     0.279 HD
ATOM     12  H22 UNL     1      29.576   7.266  27.260  1.00  0.00     0.279 HD
ATOM     13  H21 UNL     1      29.294   8.040  25.798  1.00  0.00     0.279 HD
ENDBRANCH   1  10
BRANCH   1  14
HETATM   14  N3  UNL     1      28.194  10.116  26.598  1.00  0.00    -0.086 NA
BRANCH  14  15
HETATM   15  N4  UNL     1      29.365  10.553  25.996  1.00  0.00    -0.344 N 
ATOM     16  H42 UNL     1      29.638  10.298  25.046  1.00  0.00     0.172 HD
ATOM     17  H41 UNL     1      29.904  11.154  26.620  1.00  0.00     0.172 HD
ENDBRANCH  14  15
ENDBRANCH   1  14
TORSDOF 5
ENDMDL
MODEL 3
REMARK VINA RESULT: -3.461806831      6.769      8.266
REMARK  5 active torsions:
REMARK  status: ('A' for Active; 'I' for Inactive)
REMARK    1  A    between atoms: N1_7  and  O1_8 
REMARK    2  A    between atoms: O1_8  and  C7_9 
REMARK    3  A    between atoms: C7_9  and  N2_10 
REMARK    4  A    between atoms: C7_9  and  N3_14 
REMARK    5  A    between atoms: N3_14  and  N4_15 
ROOT
HETATM    1  C7  UNL     1      28.148   0.284  38.693  1.00  0.00     0.453 C 
ENDROOT
BRANCH   1   2
HETATM    2  O1  UNL     1      27.586   0.963  37.641  1.00  0.00    -0.251 OA
BRANCH   2   3
HETATM    3  N1  UNL     1      26.354   1.480  37.942  1.00  0.00    -0.189 NA
HETATM    4  C2  UNL     1      25.927   2.276  36.809  1.00  0.00     0.082 C 
HETATM    5  C1  UNL     1      26.889   3.412  36.523  1.00  0.00     0.028 C 
HETATM    6  C3  UNL     1      24.590   2.898  37.127  1.00  0.00     0.022 C 
HETATM    7  C4  UNL     1      23.579   1.778  37.305  1.00  0.00     0.003 C 
HETATM    8  C5  UNL     1      24.043   0.803  38.373  1.00  0.00     0.017 C 
HETATM    9  C6  UNL     1      25.446   0.354  38.051  1.00  0.00     0.121 C 
ENDBRANCH   2   3
ENDBRANCH   1   2
BRANCH   1  10
HETATM   10  N2  UNL     1      28.730  -0.980  38.324  1.00  0.00    -0.035 N 
ATOM     11  H23 UNL     1      28.231  -1.388  37.534  1.00  0.00     0.279 HD
ATOM     12  H22 UNL     1      29.645  -0.843  37.895  1.00  0.00     0.279 HD
ATOM     13  H21 UNL     1      28.789  -1.646  39.095  1.00  0.00     0.279 HD
ENDBRANCH   1  10
BRANCH   1  14
HETATM   14  N3  UNL     1      29.242   1.090  39.260  1.00  0.00    -0.086 NA
BRANCH  14  15
HETATM   15  N4  UNL     1      29.703   2.033  38.351  1.00  0.00    -0.344 N 
ATOM     16  H42 UNL     1      29.378   2.088  37.386  1.00  0.00     0.172 HD
ATOM     17  H41 UNL     1      30.396   2.651  38.773  1.00  0.00     0.172 HD
ENDBRANCH  14  15
ENDBRANCH   1  14
TORSDOF 5
ENDMDL
MODEL 4
REMARK VINA RESULT: -3.432370554      5.135      6.526
REMARK  5 active torsions:
REMARK  status: ('A' for Active; 'I' for Inactive)
REMARK    1  A    between atoms: N1_7  and  O1_8 
REMARK    2  A    between atoms: O1_8  and  C7_9 
REMARK    3  A    between atoms: C7_9  and  N2_10 
REMARK    4  A    between atoms: C7_9  and  N3_14 
REMARK    5  A    between atoms: N3_14  and  N4_15 
ROOT
HETATM    1  C7  UNL     1      27.608   0.990  37.135  1.00  0.00     0.453 C 
ENDROOT
BRANCH   1   2
HETATM    2  O1  UNL     1      27.873   2.106  36.381  1.00  0.00    -0.251 OA
BRANCH   2   3
HETATM    3  N1  UNL     1      26.747   2.829  36.091  1.00  0.00    -0.189 NA
HETATM    4  C2  UNL     1      26.196   2.303  34.859  1.00  0.00     0.082 C 
HETATM    5  C1  UNL     1      27.175   2.421  33.708  1.00  0.00     0.028 C 
HETATM    6  C3  UNL     1      24.976   3.111  34.488  1.00  0.00     0.022 C 
HETATM    7  C4  UNL     1      23.933   2.915  35.574  1.00  0.00     0.003 C 
HETATM    8  C5  UNL     1      24.498   3.293  36.933  1.00  0.00     0.017 C 
HETATM    9  C6  UNL     1      25.793   2.553  37.149  1.00  0.00     0.121 C 
ENDBRANCH   2   3
ENDBRANCH   1   2
BRANCH   1  10
HETATM   10  N2  UNL     1      27.930  -0.248  36.473  1.00  0.00    -0.035 N 
ATOM     11  H23 UNL     1      28.889  -0.526  36.679  1.00  0.00     0.279 HD
ATOM     12  H22 UNL     1      27.430  -1.026  36.903  1.00  0.00     0.279 HD
ATOM     13  H21 UNL     1      27.769  -0.229  35.466  1.00  0.00     0.279 HD
ENDBRANCH   1  10
BRANCH   1  14
HETATM   14  N3  UNL     1      28.427   1.027  38.358  1.00  0.00    -0.086 NA
BRANCH  14  15
HETATM   15  N4  UNL     1      29.461   1.946  38.250  1.00  0.00    -0.344 N 
ATOM     16  H42 UNL     1      30.268   1.960  38.875  1.00  0.00     0.172 HD
ATOM     17  H41 UNL     1      29.308   2.592  37.475  1.00  0.00     0.172 HD
ENDBRANCH  14  15
ENDBRANCH   1  14
TORSDOF 5
ENDMDL
MODEL 5
REMARK VINA RESULT: -3.392773455      4.564      6.487
REMARK  5 active torsions:
REMARK  status: ('A' for Active; 'I' for Inactive)
REMARK    1  A    between atoms: N1_7  and  O1_8 
REMARK    2  A    between atoms: O1_8  and  C7_9 
REMARK    3  A    between atoms: C7_9  and  N2_10 
REMARK    4  A    between atoms: C7_9  and  N3_14 
REMARK    5  A    between atoms: N3_14  and  N4_15 
ROOT
HETATM    1  C7  UNL     1      23.014   3.660  37.196  1.00  0.00     0.453 C 
ENDROOT
BRANCH   1   2
HETATM    2  O1  UNL     1      24.321   3.969  36.912  1.00  0.00    -0.251 OA
BRANCH   2   3
HETATM    3  N1  UNL     1      25.032   2.893  36.451  1.00  0.00    -0.189 NA
HETATM    4  C2  UNL     1      26.177   3.405  35.727  1.00  0.00     0.082 C 
HETATM    5  C1  UNL     1      25.762   4.268  34.553  1.00  0.00     0.028 C 
HETATM    6  C3  UNL     1      26.959   2.241  35.167  1.00  0.00     0.022 C 
HETATM    7  C4  UNL     1      27.485   1.422  36.333  1.00  0.00     0.003 C 
HETATM    8  C5  UNL     1      26.345   0.985  37.237  1.00  0.00     0.017 C 
HETATM    9  C6  UNL     1      25.531   2.194  37.621  1.00  0.00     0.121 C 
ENDBRANCH   2   3
ENDBRANCH   1   2
BRANCH   1  10
HETATM   10  N2  UNL     1      22.233   4.788  37.631  1.00  0.00    -0.035 N 
ATOM     11  H23 UNL     1      22.778   5.648  37.571  1.00  0.00     0.279 HD
ATOM     12  H22 UNL     1      21.502   5.002  36.953  1.00  0.00     0.279 HD
ATOM     13  H21 UNL     1      21.837   4.678  38.565  1.00  0.00     0.279 HD
ENDBRANCH   1  10
BRANCH   1  14
HETATM   14  N3  UNL     1      22.361   3.152  35.978  1.00  0.00    -0.086 NA
BRANCH  14  15
HETATM   15  N4  UNL     1      22.296   4.127  34.992  1.00  0.00    -0.344 N 
ATOM     16  H42 UNL     1      21.424   4.558  34.684  1.00  0.00     0.172 HD
ATOM     17  H41 UNL     1      23.222   4.349  34.625  1.00  0.00     0.172 HD
ENDBRANCH  14  15
ENDBRANCH   1  14
TORSDOF 5
ENDMDL
