MODEL 1
REMARK VINA RESULT: -7.197151895      0.000      0.000
REMARK  12 active torsions:
REMARK  status: ('A' for Active; 'I' for Inactive)
REMARK       I    between atoms: C2_2  and  N1_4 
REMARK    1  A    between atoms: N1_4  and  C3_6 
REMARK    2  A    between atoms: C3_6  and  C4_7 
REMARK    3  A    between atoms: C3_6  and  C15_40 
REMARK    4  A    between atoms: C4_7  and  N2_8 
REMARK    5  A    between atoms: C5_9  and  N3_10 
REMARK    6  A    between atoms: C6_15  and  C7_16 
REMARK    7  A    between atoms: C7_16  and  C8_17 
REMARK    8  A    between atoms: C10_20  and  N5_21 
REMARK    9  A    between atoms: C13_29  and  N9_30 
REMARK       I    between atoms: N9_30  and  C14_31 
REMARK       I    between atoms: C14_31  and  N10_32 
REMARK       I    between atoms: C14_31  and  N11_36 
REMARK   10  A    between atoms: C15_40  and  C16_42 
REMARK   11  A    between atoms: C16_42  and  O3_43 
REMARK   12  A    between atoms: C16_42  and  O4_45 
ROOT
HETATM    1  C8  UNL     1     -13.116  12.287  -0.289  1.00  0.00     0.042 A 
HETATM    2  C9  UNL     1     -12.126  12.075  -1.211  1.00  0.00     0.080 A 
HETATM    3  S1  UNL     1     -12.764  12.798  -2.613  1.00  0.00    -0.063 SA
HETATM    4  C10 UNL     1     -14.242  13.332  -1.966  1.00  0.00     0.158 A 
HETATM    5  N6  UNL     1     -14.198  12.936  -0.695  1.00  0.00    -0.231 N 
HETATM    6  C11 UNL     1     -15.314  13.248   0.162  1.00  0.00     0.191 C 
HETATM    7  N7  UNL     1     -16.238  13.486   0.854  1.00  0.00    -0.171 NA
ENDROOT
BRANCH   1   8
HETATM    8  C7  UNL     1     -12.967  11.834   1.149  1.00  0.00     0.118 C 
BRANCH   8   9
HETATM    9  C6  UNL     1     -13.164  10.397   1.329  1.00  0.00     0.061 A 
HETATM   10  N4  UNL     1     -12.165   9.546   0.933  1.00  0.00    -0.193 N 
HETATM   11  C5  UNL     1     -12.236   8.241   1.133  1.00  0.00     0.680 A 
ATOM     12  H4  UNL     1     -11.342   9.931   0.470  1.00  0.00     0.184 HD
HETATM   13  N2  UNL     1     -13.283   7.609   1.736  1.00  0.00    -0.152 N 
HETATM   14  C13 UNL     1     -14.332   8.389   2.158  1.00  0.00     0.220 A 
HETATM   15  C12 UNL     1     -14.215   9.793   1.927  1.00  0.00     0.128 A 
HETATM   16  N8  UNL     1     -15.305  10.603   2.355  1.00  0.00    -0.095 NA
BRANCH  11  17
HETATM   17  N3  UNL     1     -11.255   7.454   0.736  1.00  0.00    -0.234 N 
ATOM     18  H32 UNL     1     -11.206   7.145  -0.234  1.00  0.00     0.174 HD
ATOM     19  H31 UNL     1     -10.585   7.194   1.460  1.00  0.00     0.174 HD
ENDBRANCH  11  17
BRANCH  13  20
HETATM   20  C4  UNL     1     -13.281   6.195   1.861  1.00  0.00     0.183 C 
BRANCH  20  21
HETATM   21  C3  UNL     1     -14.198   5.369   1.072  1.00  0.00     0.178 C 
BRANCH  21  22
HETATM   22  N1  UNL     1     -13.509   4.028   0.960  1.00  0.00    -0.348 N 
HETATM   23  C2  UNL     1     -14.139   2.845   1.354  1.00  0.00     0.214 C 
HETATM   24  C1  UNL     1     -13.471   1.534   1.235  1.00  0.00     0.117 C 
HETATM   25  O1  UNL     1     -15.317   2.900   1.823  1.00  0.00    -0.274 OA
ATOM     26  H1  UNL     1     -12.560   3.986   0.587  1.00  0.00     0.163 HD
ENDBRANCH  21  22
BRANCH  21  27
HETATM   27  C15 UNL     1     -14.614   5.654  -0.272  1.00  0.00     0.205 C 
HETATM   28  O2  UNL     1     -13.810   5.979  -1.177  1.00  0.00    -0.290 OA
BRANCH  27  29
HETATM   29  C16 UNL     1     -16.021   5.580  -0.734  1.00  0.00     0.327 C 
BRANCH  29  30
HETATM   30  O3  UNL     1     -16.864   4.963   0.232  1.00  0.00    -0.365 OA
ATOM     31  H3  UNL     1     -16.364   4.507   0.899  1.00  0.00     0.213 HD
ENDBRANCH  29  30
BRANCH  29  32
HETATM   32  O4  UNL     1     -16.270   4.977  -1.916  1.00  0.00    -0.365 OA
ATOM     33  H4  UNL     1     -16.128   5.476  -2.712  1.00  0.00     0.213 HD
ENDBRANCH  29  32
ENDBRANCH  27  29
ENDBRANCH  21  27
ENDBRANCH  20  21
ENDBRANCH  13  20
BRANCH  14  34
HETATM   34  N9  UNL     1     -15.349   7.950   2.623  1.00  0.00    -0.369 NA
HETATM   35  C14 UNL     1     -16.478   7.472   3.131  1.00  0.00     0.556 C 
HETATM   36  N10 UNL     1     -17.531   6.998   2.193  1.00  0.00    -0.021 N 
HETATM   37  N11 UNL     1     -17.228   8.404   4.018  1.00  0.00    -0.021 N 
ATOM     38 3H10 UNL     1     -17.753   7.747   1.537  1.00  0.00     0.280 HD
ATOM     39 2H10 UNL     1     -17.129   6.302   1.566  1.00  0.00     0.280 HD
ATOM     40 1H10 UNL     1     -18.398   6.631   2.584  1.00  0.00     0.280 HD
ATOM     41 3H11 UNL     1     -16.622   8.736   4.768  1.00  0.00     0.280 HD
ATOM     42 2H11 UNL     1     -17.410   9.280   3.529  1.00  0.00     0.280 HD
ATOM     43 1H11 UNL     1     -18.096   8.037   4.408  1.00  0.00     0.280 HD
ENDBRANCH  14  34
ENDBRANCH   8   9
ENDBRANCH   1   8
BRANCH   4  44
HETATM   44  N5  UNL     1     -15.215  14.002  -2.564  1.00  0.00    -0.379 N 
ATOM     45  H52 UNL     1     -16.053  13.616  -2.999  1.00  0.00     0.158 HD
ATOM     46  H51 UNL     1     -15.315  15.009  -2.689  1.00  0.00     0.158 HD
ENDBRANCH   4  44
TORSDOF 12
ENDMDL
MODEL 2
REMARK VINA RESULT: -7.188174912      1.807      2.511
REMARK  12 active torsions:
REMARK  status: ('A' for Active; 'I' for Inactive)
REMARK       I    between atoms: C2_2  and  N1_4 
REMARK    1  A    between atoms: N1_4  and  C3_6 
REMARK    2  A    between atoms: C3_6  and  C4_7 
REMARK    3  A    between atoms: C3_6  and  C15_40 
REMARK    4  A    between atoms: C4_7  and  N2_8 
REMARK    5  A    between atoms: C5_9  and  N3_10 
REMARK    6  A    between atoms: C6_15  and  C7_16 
REMARK    7  A    between atoms: C7_16  and  C8_17 
REMARK    8  A    between atoms: C10_20  and  N5_21 
REMARK    9  A    between atoms: C13_29  and  N9_30 
REMARK       I    between atoms: N9_30  and  C14_31 
REMARK       I    between atoms: C14_31  and  N10_32 
REMARK       I    between atoms: C14_31  and  N11_36 
REMARK   10  A    between atoms: C15_40  and  C16_42 
REMARK   11  A    between atoms: C16_42  and  O3_43 
REMARK   12  A    between atoms: C16_42  and  O4_45 
ROOT
HETATM    1  C8  UNL     1     -13.251  12.537  -1.842  1.00  0.00     0.042 A 
HETATM    2  C9  UNL     1     -13.882  13.531  -1.143  1.00  0.00     0.080 A 
HETATM    3  S1  UNL     1     -15.256  13.840  -2.097  1.00  0.00    -0.063 SA
HETATM    4  C10 UNL     1     -14.968  12.701  -3.325  1.00  0.00     0.158 A 
HETATM    5  N6  UNL     1     -13.824  12.122  -2.962  1.00  0.00    -0.231 N 
HETATM    6  C11 UNL     1     -13.289  11.074  -3.795  1.00  0.00     0.191 C 
HETATM    7  N7  UNL     1     -12.844  10.233  -4.490  1.00  0.00    -0.171 NA
ENDROOT
BRANCH   1   8
HETATM    8  C7  UNL     1     -11.969  11.907  -1.336  1.00  0.00     0.118 C 
BRANCH   8   9
HETATM    9  C6  UNL     1     -12.165  10.585  -0.743  1.00  0.00     0.061 A 
HETATM   10  N4  UNL     1     -11.709   9.489  -1.427  1.00  0.00    -0.193 N 
HETATM   11  C5  UNL     1     -11.780   8.269  -0.922  1.00  0.00     0.680 A 
ATOM     12  H4  UNL     1     -11.302   9.617  -2.354  1.00  0.00     0.184 HD
HETATM   13  N2  UNL     1     -12.304   7.969   0.301  1.00  0.00    -0.152 N 
HETATM   14  C13 UNL     1     -12.791   9.013   1.051  1.00  0.00     0.220 A 
HETATM   15  C12 UNL     1     -12.693  10.314   0.471  1.00  0.00     0.128 A 
HETATM   16  N8  UNL     1     -13.205  11.396   1.242  1.00  0.00    -0.095 NA
BRANCH  11  17
HETATM   17  N3  UNL     1     -11.332   7.238  -1.611  1.00  0.00    -0.234 N 
ATOM     18  H32 UNL     1     -11.504   6.288  -1.283  1.00  0.00     0.174 HD
ATOM     19  H31 UNL     1     -10.818   7.471  -2.461  1.00  0.00     0.174 HD
ENDBRANCH  11  17
BRANCH  13  20
HETATM   20  C4  UNL     1     -12.374   6.619   0.731  1.00  0.00     0.183 C 
BRANCH  20  21
HETATM   21  C3  UNL     1     -13.640   5.883   0.693  1.00  0.00     0.178 C 
BRANCH  21  22
HETATM   22  N1  UNL     1     -13.245   4.429   0.821  1.00  0.00    -0.348 N 
HETATM   23  C2  UNL     1     -13.748   3.620   1.842  1.00  0.00     0.214 C 
HETATM   24  C1  UNL     1     -13.371   2.197   1.962  1.00  0.00     0.117 C 
HETATM   25  O1  UNL     1     -14.553   4.120   2.685  1.00  0.00    -0.274 OA
ATOM     26  H1  UNL     1     -12.593   4.029   0.145  1.00  0.00     0.163 HD
ENDBRANCH  21  22
BRANCH  21  27
HETATM   27  C15 UNL     1     -14.565   5.891  -0.405  1.00  0.00     0.205 C 
HETATM   28  O2  UNL     1     -14.197   5.857  -1.602  1.00  0.00    -0.290 OA
BRANCH  27  29
HETATM   29  C16 UNL     1     -16.038   5.923  -0.243  1.00  0.00     0.327 C 
BRANCH  29  30
HETATM   30  O3  UNL     1     -16.477   7.127   0.377  1.00  0.00    -0.365 OA
ATOM     31  H3  UNL     1     -16.476   7.858  -0.230  1.00  0.00     0.213 HD
ENDBRANCH  29  30
BRANCH  29  32
HETATM   32  O4  UNL     1     -16.628   4.903   0.417  1.00  0.00    -0.365 OA
ATOM     33  H4  UNL     1     -17.536   4.706   0.218  1.00  0.00     0.213 HD
ENDBRANCH  29  32
ENDBRANCH  27  29
ENDBRANCH  21  27
ENDBRANCH  20  21
ENDBRANCH  13  20
BRANCH  14  34
HETATM   34  N9  UNL     1     -13.355   8.876   2.102  1.00  0.00    -0.369 NA
HETATM   35  C14 UNL     1     -13.987   8.729   3.260  1.00  0.00     0.556 C 
HETATM   36  N10 UNL     1     -15.252   7.947   3.282  1.00  0.00    -0.021 N 
HETATM   37  N11 UNL     1     -14.375   9.993   3.945  1.00  0.00    -0.021 N 
ATOM     38 3H10 UNL     1     -15.898   8.342   2.599  1.00  0.00     0.280 HD
ATOM     39 2H10 UNL     1     -15.080   7.026   2.879  1.00  0.00     0.280 HD
ATOM     40 1H10 UNL     1     -15.737   7.834   4.172  1.00  0.00     0.280 HD
ATOM     41 3H11 UNL     1     -13.556  10.589   4.068  1.00  0.00     0.280 HD
ATOM     42 2H11 UNL     1     -14.929  10.574   3.317  1.00  0.00     0.280 HD
ATOM     43 1H11 UNL     1     -14.860   9.881   4.835  1.00  0.00     0.280 HD
ENDBRANCH  14  34
ENDBRANCH   8   9
ENDBRANCH   1   8
BRANCH   4  44
HETATM   44  N5  UNL     1     -15.703  12.426  -4.390  1.00  0.00    -0.379 N 
ATOM     45  H52 UNL     1     -16.718  12.478  -4.470  1.00  0.00     0.158 HD
ATOM     46  H51 UNL     1     -15.398  12.131  -5.318  1.00  0.00     0.158 HD
ENDBRANCH   4  44
TORSDOF 12
ENDMDL
MODEL 3
REMARK VINA RESULT: -7.156274537      1.432      1.723
REMARK  12 active torsions:
REMARK  status: ('A' for Active; 'I' for Inactive)
REMARK       I    between atoms: C2_2  and  N1_4 
REMARK    1  A    between atoms: N1_4  and  C3_6 
REMARK    2  A    between atoms: C3_6  and  C4_7 
REMARK    3  A    between atoms: C3_6  and  C15_40 
REMARK    4  A    between atoms: C4_7  and  N2_8 
REMARK    5  A    between atoms: C5_9  and  N3_10 
REMARK    6  A    between atoms: C6_15  and  C7_16 
REMARK    7  A    between atoms: C7_16  and  C8_17 
REMARK    8  A    between atoms: C10_20  and  N5_21 
REMARK    9  A    between atoms: C13_29  and  N9_30 
REMARK       I    between atoms: N9_30  and  C14_31 
REMARK       I    between atoms: C14_31  and  N10_32 
REMARK       I    between atoms: C14_31  and  N11_36 
REMARK   10  A    between atoms: C15_40  and  C16_42 
REMARK   11  A    between atoms: C16_42  and  O3_43 
REMARK   12  A    between atoms: C16_42  and  O4_45 
ROOT
HETATM    1  C8  UNL     1     -12.403  11.421  -1.759  1.00  0.00     0.042 A 
HETATM    2  C9  UNL     1     -12.609  10.797  -2.960  1.00  0.00     0.080 A 
HETATM    3  S1  UNL     1     -13.746  11.812  -3.716  1.00  0.00    -0.063 SA
HETATM    4  C10 UNL     1     -13.901  12.972  -2.483  1.00  0.00     0.158 A 
HETATM    5  N6  UNL     1     -13.076  12.539  -1.531  1.00  0.00    -0.231 N 
HETATM    6  C11 UNL     1     -12.952  13.317  -0.323  1.00  0.00     0.191 C 
HETATM    7  N7  UNL     1     -12.870  13.944   0.672  1.00  0.00    -0.171 NA
ENDROOT
BRANCH   1   8
HETATM    8  C7  UNL     1     -11.416  10.879  -0.746  1.00  0.00     0.118 C 
BRANCH   8   9
HETATM    9  C6  UNL     1     -11.792   9.573  -0.208  1.00  0.00     0.061 A 
HETATM   10  N4  UNL     1     -11.099   8.469  -0.631  1.00  0.00    -0.193 N 
HETATM   11  C5  UNL     1     -11.329   7.265  -0.134  1.00  0.00     0.680 A 
ATOM     12  H4  UNL     1     -10.385   8.578  -1.351  1.00  0.00     0.184 HD
HETATM   13  N2  UNL     1     -12.258   6.991   0.826  1.00  0.00    -0.152 N 
HETATM   14  C13 UNL     1     -13.003   8.044   1.301  1.00  0.00     0.220 A 
HETATM   15  C12 UNL     1     -12.722   9.327   0.741  1.00  0.00     0.128 A 
HETATM   16  N8  UNL     1     -13.499  10.418   1.225  1.00  0.00    -0.095 NA
BRANCH  11  17
HETATM   17  N3  UNL     1     -10.643   6.226  -0.567  1.00  0.00    -0.234 N 
ATOM     18  H32 UNL     1     -10.288   5.534   0.094  1.00  0.00     0.174 HD
ATOM     19  H31 UNL     1     -10.504   6.184  -1.576  1.00  0.00     0.174 HD
ENDBRANCH  11  17
BRANCH  13  20
HETATM   20  C4  UNL     1     -12.458   5.655   1.259  1.00  0.00     0.183 C 
BRANCH  20  21
HETATM   21  C3  UNL     1     -13.647   4.902   0.852  1.00  0.00     0.178 C 
BRANCH  21  22
HETATM   22  N1  UNL     1     -13.222   3.452   0.907  1.00  0.00    -0.348 N 
HETATM   23  C2  UNL     1     -14.049   2.466   1.449  1.00  0.00     0.214 C 
HETATM   24  C1  UNL     1     -13.641   1.048   1.493  1.00  0.00     0.117 C 
HETATM   25  O1  UNL     1     -15.183   2.799   1.913  1.00  0.00    -0.274 OA
ATOM     26  H1  UNL     1     -12.308   3.187   0.538  1.00  0.00     0.163 HD
ENDBRANCH  21  22
BRANCH  21  27
HETATM   27  C15 UNL     1     -14.300   5.020  -0.421  1.00  0.00     0.205 C 
HETATM   28  O2  UNL     1     -13.734   4.743  -1.503  1.00  0.00    -0.290 OA
BRANCH  27  29
HETATM   29  C16 UNL     1     -15.705   5.463  -0.589  1.00  0.00     0.327 C 
BRANCH  29  30
HETATM   30  O3  UNL     1     -15.823   6.881  -0.551  1.00  0.00    -0.365 OA
ATOM     31  H3  UNL     1     -16.559   7.189  -1.067  1.00  0.00     0.213 HD
ENDBRANCH  29  30
BRANCH  29  32
HETATM   32  O4  UNL     1     -16.633   4.968   0.258  1.00  0.00    -0.365 OA
ATOM     33  H4  UNL     1     -17.025   4.127   0.051  1.00  0.00     0.213 HD
ENDBRANCH  29  32
ENDBRANCH  27  29
ENDBRANCH  21  27
ENDBRANCH  20  21
ENDBRANCH  13  20
BRANCH  14  34
HETATM   34  N9  UNL     1     -13.909   7.925   2.080  1.00  0.00    -0.369 NA
HETATM   35  C14 UNL     1     -14.917   7.800   2.934  1.00  0.00     0.556 C 
HETATM   36  N10 UNL     1     -16.200   7.233   2.438  1.00  0.00    -0.021 N 
HETATM   37  N11 UNL     1     -15.355   9.059   3.600  1.00  0.00    -0.021 N 
ATOM     38 3H10 UNL     1     -16.513   7.775   1.633  1.00  0.00     0.280 HD
ATOM     39 2H10 UNL     1     -16.017   6.328   2.006  1.00  0.00     0.280 HD
ATOM     40 1H10 UNL     1     -16.974   7.137   3.095  1.00  0.00     0.280 HD
ATOM     41 3H11 UNL     1     -14.561   9.505   4.060  1.00  0.00     0.280 HD
ATOM     42 2H11 UNL     1     -15.578   9.765   2.898  1.00  0.00     0.280 HD
ATOM     43 1H11 UNL     1     -16.129   8.963   4.256  1.00  0.00     0.280 HD
ENDBRANCH  14  34
ENDBRANCH   8   9
ENDBRANCH   1   8
BRANCH   4  44
HETATM   44  N5  UNL     1     -14.648  14.064  -2.462  1.00  0.00    -0.379 N 
ATOM     45  H52 UNL     1     -15.563  14.196  -2.894  1.00  0.00     0.158 HD
ATOM     46  H51 UNL     1     -14.460  14.959  -2.009  1.00  0.00     0.158 HD
ENDBRANCH   4  44
TORSDOF 12
ENDMDL
MODEL 4
REMARK VINA RESULT: -7.132528379      3.906      7.877
REMARK  12 active torsions:
REMARK  status: ('A' for Active; 'I' for Inactive)
REMARK       I    between atoms: C2_2  and  N1_4 
REMARK    1  A    between atoms: N1_4  and  C3_6 
REMARK    2  A    between atoms: C3_6  and  C4_7 
REMARK    3  A    between atoms: C3_6  and  C15_40 
REMARK    4  A    between atoms: C4_7  and  N2_8 
REMARK    5  A    between atoms: C5_9  and  N3_10 
REMARK    6  A    between atoms: C6_15  and  C7_16 
REMARK    7  A    between atoms: C7_16  and  C8_17 
REMARK    8  A    between atoms: C10_20  and  N5_21 
REMARK    9  A    between atoms: C13_29  and  N9_30 
REMARK       I    between atoms: N9_30  and  C14_31 
REMARK       I    between atoms: C14_31  and  N10_32 
REMARK       I    between atoms: C14_31  and  N11_36 
REMARK   10  A    between atoms: C15_40  and  C16_42 
REMARK   11  A    between atoms: C16_42  and  O3_43 
REMARK   12  A    between atoms: C16_42  and  O4_45 
ROOT
HETATM    1  C8  UNL     1     -12.286   3.405   0.899  1.00  0.00     0.042 A 
HETATM    2  C9  UNL     1     -10.921   3.313   0.829  1.00  0.00     0.080 A 
HETATM    3  S1  UNL     1     -10.589   1.961   1.807  1.00  0.00    -0.063 SA
HETATM    4  C10 UNL     1     -12.184   1.580   2.253  1.00  0.00     0.158 A 
HETATM    5  N6  UNL     1     -12.919   2.505   1.636  1.00  0.00    -0.231 N 
HETATM    6  C11 UNL     1     -14.352   2.462   1.793  1.00  0.00     0.191 C 
HETATM    7  N7  UNL     1     -15.521   2.437   1.942  1.00  0.00    -0.171 NA
ENDROOT
BRANCH   1   8
HETATM    8  C7  UNL     1     -13.046   4.469   0.134  1.00  0.00     0.118 C 
BRANCH   8   9
HETATM    9  C6  UNL     1     -12.755   5.829   0.584  1.00  0.00     0.061 A 
HETATM   10  N4  UNL     1     -11.546   6.382   0.249  1.00  0.00    -0.193 N 
HETATM   11  C5  UNL     1     -11.241   7.633   0.553  1.00  0.00     0.680 A 
ATOM     12  H4  UNL     1     -10.862   5.813  -0.250  1.00  0.00     0.184 HD
HETATM   13  N2  UNL     1     -12.067   8.489   1.218  1.00  0.00    -0.152 N 
HETATM   14  C13 UNL     1     -13.298   8.011   1.598  1.00  0.00     0.220 A 
HETATM   15  C12 UNL     1     -13.591   6.658   1.248  1.00  0.00     0.128 A 
HETATM   16  N8  UNL     1     -14.862   6.156   1.648  1.00  0.00    -0.095 NA
BRANCH  11  17
HETATM   17  N3  UNL     1     -10.067   8.130   0.214  1.00  0.00    -0.234 N 
ATOM     18  H32 UNL     1      -9.425   8.464   0.933  1.00  0.00     0.174 HD
ATOM     19  H31 UNL     1      -9.875   8.152  -0.787  1.00  0.00     0.174 HD
ENDBRANCH  11  17
BRANCH  13  20
HETATM   20  C4  UNL     1     -11.624   9.800   1.535  1.00  0.00     0.183 C 
BRANCH  20  21
HETATM   21  C3  UNL     1     -12.222  10.972   0.892  1.00  0.00     0.178 C 
BRANCH  21  22
HETATM   22  N1  UNL     1     -11.193  11.424  -0.120  1.00  0.00    -0.348 N 
HETATM   23  C2  UNL     1     -11.288  11.073  -1.468  1.00  0.00     0.214 C 
HETATM   24  C1  UNL     1     -10.290  11.523  -2.459  1.00  0.00     0.117 C 
HETATM   25  O1  UNL     1     -12.259  10.352  -1.851  1.00  0.00    -0.274 OA
ATOM     26  H1  UNL     1     -10.410  12.000   0.191  1.00  0.00     0.163 HD
ENDBRANCH  21  22
BRANCH  21  27
HETATM   27  C15 UNL     1     -12.593  12.183   1.569  1.00  0.00     0.205 C 
HETATM   28  O2  UNL     1     -13.000  12.201   2.754  1.00  0.00    -0.290 OA
BRANCH  27  29
HETATM   29  C16 UNL     1     -12.519  13.529   0.952  1.00  0.00     0.327 C 
BRANCH  29  30
HETATM   30  O3  UNL     1     -13.200  13.578  -0.297  1.00  0.00    -0.365 OA
ATOM     31  H3  UNL     1     -13.407  14.470  -0.552  1.00  0.00     0.213 HD
ENDBRANCH  29  30
BRANCH  29  32
HETATM   32  O4  UNL     1     -11.298  14.072   0.755  1.00  0.00    -0.365 OA
ATOM     33  H4  UNL     1     -11.176  14.640   0.004  1.00  0.00     0.213 HD
ENDBRANCH  29  32
ENDBRANCH  27  29
ENDBRANCH  21  27
ENDBRANCH  20  21
ENDBRANCH  13  20
BRANCH  14  34
HETATM   34  N9  UNL     1     -14.082   8.632   2.262  1.00  0.00    -0.369 NA
HETATM   35  C14 UNL     1     -14.946   9.312   3.006  1.00  0.00     0.556 C 
HETATM   36  N10 UNL     1     -14.444   9.996   4.227  1.00  0.00    -0.021 N 
HETATM   37  N11 UNL     1     -16.102   8.530   3.524  1.00  0.00    -0.021 N 
ATOM     38 3H10 UNL     1     -13.964   9.315   4.815  1.00  0.00     0.280 HD
ATOM     39 2H10 UNL     1     -13.672  10.611   3.970  1.00  0.00     0.280 HD
ATOM     40 1H10 UNL     1     -15.108  10.519   4.798  1.00  0.00     0.280 HD
ATOM     41 3H11 UNL     1     -16.590   8.074   2.752  1.00  0.00     0.280 HD
ATOM     42 2H11 UNL     1     -15.770   7.713   4.036  1.00  0.00     0.280 HD
ATOM     43 1H11 UNL     1     -16.766   9.052   4.095  1.00  0.00     0.280 HD
ENDBRANCH  14  34
ENDBRANCH   8   9
ENDBRANCH   1   8
BRANCH   4  44
HETATM   44  N5  UNL     1     -12.617   0.590   3.017  1.00  0.00    -0.379 N 
ATOM     45  H52 UNL     1     -12.191  -0.328   3.139  1.00  0.00     0.158 HD
ATOM     46  H51 UNL     1     -13.435   0.564   3.627  1.00  0.00     0.158 HD
ENDBRANCH   4  44
TORSDOF 12
ENDMDL
MODEL 5
REMARK VINA RESULT: -7.125551457      2.335      4.345
REMARK  12 active torsions:
REMARK  status: ('A' for Active; 'I' for Inactive)
REMARK       I    between atoms: C2_2  and  N1_4 
REMARK    1  A    between atoms: N1_4  and  C3_6 
REMARK    2  A    between atoms: C3_6  and  C4_7 
REMARK    3  A    between atoms: C3_6  and  C15_40 
REMARK    4  A    between atoms: C4_7  and  N2_8 
REMARK    5  A    between atoms: C5_9  and  N3_10 
REMARK    6  A    between atoms: C6_15  and  C7_16 
REMARK    7  A    between atoms: C7_16  and  C8_17 
REMARK    8  A    between atoms: C10_20  and  N5_21 
REMARK    9  A    between atoms: C13_29  and  N9_30 
REMARK       I    between atoms: N9_30  and  C14_31 
REMARK       I    between atoms: C14_31  and  N10_32 
REMARK       I    between atoms: C14_31  and  N11_36 
REMARK   10  A    between atoms: C15_40  and  C16_42 
REMARK   11  A    between atoms: C16_42  and  O3_43 
REMARK   12  A    between atoms: C16_42  and  O4_45 
ROOT
HETATM    1  C8  UNL     1     -13.557  12.935  -2.130  1.00  0.00     0.042 A 
HETATM    2  C9  UNL     1     -14.234  14.020  -1.642  1.00  0.00     0.080 A 
HETATM    3  S1  UNL     1     -15.602  14.089  -2.651  1.00  0.00    -0.063 SA
HETATM    4  C10 UNL     1     -15.253  12.747  -3.634  1.00  0.00     0.158 A 
HETATM    5  N6  UNL     1     -14.096  12.292  -3.155  1.00  0.00    -0.231 N 
HETATM    6  C11 UNL     1     -13.512  11.124  -3.766  1.00  0.00     0.191 C 
HETATM    7  N7  UNL     1     -13.026  10.182  -4.282  1.00  0.00    -0.171 NA
ENDROOT
BRANCH   1   8
HETATM    8  C7  UNL     1     -12.262  12.462  -1.501  1.00  0.00     0.118 C 
BRANCH   8   9
HETATM    9  C6  UNL     1     -12.462  11.536  -0.387  1.00  0.00     0.061 A 
HETATM   10  N4  UNL     1     -13.496  11.772   0.481  1.00  0.00    -0.193 N 
HETATM   11  C5  UNL     1     -13.788  10.938   1.465  1.00  0.00     0.680 A 
ATOM     12  H4  UNL     1     -14.057  12.615   0.364  1.00  0.00     0.184 HD
HETATM   13  N2  UNL     1     -13.111   9.784   1.725  1.00  0.00    -0.152 N 
HETATM   14  C13 UNL     1     -12.053   9.475   0.904  1.00  0.00     0.220 A 
HETATM   15  C12 UNL     1     -11.773  10.398  -0.148  1.00  0.00     0.128 A 
HETATM   16  N8  UNL     1     -10.671  10.085  -0.995  1.00  0.00    -0.095 NA
BRANCH  11  17
HETATM   17  N3  UNL     1     -14.790  11.200   2.281  1.00  0.00    -0.234 N 
ATOM     18  H32 UNL     1     -15.212  12.128   2.293  1.00  0.00     0.174 HD
ATOM     19  H31 UNL     1     -15.085  10.423   2.873  1.00  0.00     0.174 HD
ENDBRANCH  11  17
BRANCH  13  20
HETATM   20  C4  UNL     1     -13.477   8.981   2.836  1.00  0.00     0.183 C 
BRANCH  20  21
HETATM   21  C3  UNL     1     -14.437   7.885   2.689  1.00  0.00     0.178 C 
BRANCH  21  22
HETATM   22  N1  UNL     1     -13.980   7.136   1.457  1.00  0.00    -0.348 N 
HETATM   23  C2  UNL     1     -13.913   5.742   1.429  1.00  0.00     0.214 C 
HETATM   24  C1  UNL     1     -13.478   5.009   0.223  1.00  0.00     0.117 C 
HETATM   25  O1  UNL     1     -14.237   5.088   2.467  1.00  0.00    -0.274 OA
ATOM     26  H1  UNL     1     -13.716   7.664   0.624  1.00  0.00     0.163 HD
ENDBRANCH  21  22
BRANCH  21  27
HETATM   27  C15 UNL     1     -15.849   8.047   2.487  1.00  0.00     0.205 C 
HETATM   28  O2  UNL     1     -16.328   8.682   1.519  1.00  0.00    -0.290 OA
BRANCH  27  29
HETATM   29  C16 UNL     1     -16.882   7.476   3.384  1.00  0.00     0.327 C 
BRANCH  29  30
HETATM   30  O3  UNL     1     -17.494   8.474   4.193  1.00  0.00    -0.365 OA
ATOM     31  H3  UNL     1     -17.045   8.581   5.024  1.00  0.00     0.213 HD
ENDBRANCH  29  30
BRANCH  29  32
HETATM   32  O4  UNL     1     -16.521   6.469   4.209  1.00  0.00    -0.365 OA
ATOM     33  H4  UNL     1     -16.407   5.603   3.834  1.00  0.00     0.213 HD
ENDBRANCH  29  32
ENDBRANCH  27  29
ENDBRANCH  21  27
ENDBRANCH  20  21
ENDBRANCH  13  20
BRANCH  14  34
HETATM   34  N9  UNL     1     -11.323   8.537   1.076  1.00  0.00    -0.369 NA
HETATM   35  C14 UNL     1     -10.509   7.506   1.265  1.00  0.00     0.556 C 
HETATM   36  N10 UNL     1      -9.499   7.592   2.354  1.00  0.00    -0.021 N 
HETATM   37  N11 UNL     1      -9.684   7.115   0.088  1.00  0.00    -0.021 N 
ATOM     38 3H10 UNL     1      -8.942   8.437   2.224  1.00  0.00     0.280 HD
ATOM     39 2H10 UNL     1      -9.974   7.805   3.231  1.00  0.00     0.280 HD
ATOM     40 1H10 UNL     1      -8.873   6.800   2.499  1.00  0.00     0.280 HD
ATOM     41 3H11 UNL     1     -10.285   6.941  -0.717  1.00  0.00     0.280 HD
ATOM     42 2H11 UNL     1      -9.156   7.920  -0.250  1.00  0.00     0.280 HD
ATOM     43 1H11 UNL     1      -9.058   6.323   0.233  1.00  0.00     0.280 HD
ENDBRANCH  14  34
ENDBRANCH   8   9
ENDBRANCH   1   8
BRANCH   4  44
HETATM   44  N5  UNL     1     -15.961  12.246  -4.633  1.00  0.00    -0.379 N 
ATOM     45  H52 UNL     1     -15.690  11.493  -5.265  1.00  0.00     0.158 HD
ATOM     46  H51 UNL     1     -16.897  12.504  -4.946  1.00  0.00     0.158 HD
ENDBRANCH   4  44
TORSDOF 12
ENDMDL
