MODEL 1
REMARK VINA RESULT: -8.126457818      0.000      0.000
REMARK  13 active torsions:
REMARK  status: ('A' for Active; 'I' for Inactive)
REMARK       I    between atoms: N1_1  and  C1_4 
REMARK       I    between atoms: C1_4  and  N3_6 
REMARK    1  A    between atoms: N3_6  and  C2_8 
REMARK    2  A    between atoms: C3_14  and  C4_15 
REMARK    3  A    between atoms: C4_15  and  O2_16 
REMARK    4  A    between atoms: C4_15  and  C5_18 
REMARK    5  A    between atoms: C5_18  and  O3_19 
REMARK    6  A    between atoms: C5_18  and  C6_21 
REMARK    7  A    between atoms: C6_21  and  C7_22 
REMARK    8  A    between atoms: C7_22  and  N6_23 
REMARK       I    between atoms: N6_23  and  C8_25 
REMARK    9  A    between atoms: C8_25  and  C9_27 
REMARK   10  A    between atoms: C11_29  and  C12_30 
REMARK   11  A    between atoms: N7_33  and  C13_34 
REMARK   12  A    between atoms: C14_40  and  N10_41 
REMARK   13  A    between atoms: N12_46  and  O8_48 
ROOT
HETATM    1  C6  UNL     1     -14.337   5.783   0.835  1.00  0.00     0.059 C 
HETATM    2  N12 UNL     1     -15.149   4.986   0.240  1.00  0.00    -0.273 N 
ATOM      3  H12 UNL     1     -14.745   4.384  -0.478  1.00  0.00     0.193 HD
ENDROOT
BRANCH   1   4
HETATM    4  C5  UNL     1     -12.923   5.723   0.394  1.00  0.00     0.202 C 
BRANCH   4   5
HETATM    5  C4  UNL     1     -12.648   6.428  -0.908  1.00  0.00     0.208 C 
BRANCH   5   6
HETATM    6  C3  UNL     1     -11.833   7.653  -0.805  1.00  0.00     0.111 A 
HETATM    7  C2  UNL     1     -11.811   8.681  -1.752  1.00  0.00     0.157 A 
HETATM    8  N4  UNL     1     -10.934   9.586  -1.317  1.00  0.00    -0.223 N 
HETATM    9  O1  UNL     1     -10.448   9.168  -0.201  1.00  0.00    -0.155 OA
ATOM     10  H4  UNL     1     -10.691  10.458  -1.787  1.00  0.00     0.198 HD
HETATM   11  N5  UNL     1     -10.957   8.035   0.125  1.00  0.00    -0.239 N 
ATOM     12  H5  UNL     1     -10.726   7.508   0.968  1.00  0.00     0.196 HD
BRANCH   7  13
HETATM   13  N3  UNL     1     -12.524   8.697  -2.823  1.00  0.00    -0.314 N 
HETATM   14  C1  UNL     1     -12.665   9.853  -3.633  1.00  0.00     0.187 C 
HETATM   15  N1  UNL     1     -12.434   9.779  -4.901  1.00  0.00    -0.373 N 
HETATM   16  N2  UNL     1     -13.055  11.079  -3.047  1.00  0.00    -0.064 NA
ATOM     17  H12 UNL     1     -12.535  10.609  -5.483  1.00  0.00     0.158 HD
ATOM     18  H11 UNL     1     -12.153   8.894  -5.324  1.00  0.00     0.158 HD
ATOM     19  H3  UNL     1     -13.009   7.843  -3.101  1.00  0.00     0.170 HD
ENDBRANCH   7  13
ENDBRANCH   5   6
BRANCH   5  20
HETATM   20  O2  UNL     1     -13.757   6.558  -1.714  1.00  0.00    -0.386 OA
ATOM     21  H2  UNL     1     -13.757   7.342  -2.250  1.00  0.00     0.210 HD
ENDBRANCH   5  20
ENDBRANCH   4   5
BRANCH   4  22
HETATM   22  O3  UNL     1     -11.996   5.989   1.389  1.00  0.00    -0.387 OA
ATOM     23  H3  UNL     1     -11.947   5.321   2.063  1.00  0.00     0.210 HD
ENDBRANCH   4  22
ENDBRANCH   1   4
BRANCH   1  24
HETATM   24  C7  UNL     1     -14.810   6.729   1.871  1.00  0.00     0.180 C 
BRANCH  24  25
HETATM   25  N6  UNL     1     -14.757   8.115   1.507  1.00  0.00    -0.350 N 
HETATM   26  C8  UNL     1     -13.723   8.976   1.958  1.00  0.00     0.270 C 
HETATM   27  O4  UNL     1     -12.824   8.513   2.694  1.00  0.00    -0.266 OA
ATOM     28  H6  UNL     1     -15.487   8.495   0.905  1.00  0.00     0.163 HD
BRANCH  26  29
HETATM   29  C9  UNL     1     -13.690  10.384   1.582  1.00  0.00     0.118 A 
HETATM   30  C10 UNL     1     -12.629  11.257   1.676  1.00  0.00     0.075 A 
HETATM   31  C11 UNL     1     -13.047  12.480   1.204  1.00  0.00     0.137 A 
HETATM   32  N7  UNL     1     -14.334  12.342   0.835  1.00  0.00    -0.228 N 
HETATM   33  N11 UNL     1     -14.694  11.098   1.066  1.00  0.00    -0.286 N 
ATOM     34  H11 UNL     1     -15.624  10.724   0.875  1.00  0.00     0.188 HD
BRANCH  31  35
HETATM   35  C12 UNL     1     -12.215  13.675   1.136  1.00  0.00     0.229 C 
HETATM   36  O5  UNL     1     -11.325  13.743   0.266  1.00  0.00    -0.643 OA
HETATM   37  O6  UNL     1     -12.377  14.738   2.004  1.00  0.00    -0.643 OA
ENDBRANCH  31  35
BRANCH  32  38
HETATM   38  C13 UNL     1     -15.175  13.350   0.287  1.00  0.00     0.195 A 
HETATM   39  N8  UNL     1     -16.184  14.014   0.881  1.00  0.00    -0.220 N 
HETATM   40  O7  UNL     1     -16.707  14.866   0.030  1.00  0.00    -0.153 OA
ATOM     41  H8  UNL     1     -16.493  13.878   1.843  1.00  0.00     0.198 HD
HETATM   42  N9  UNL     1     -16.084  14.780  -1.084  1.00  0.00    -0.222 N 
HETATM   43  C14 UNL     1     -15.108  13.847  -0.996  1.00  0.00     0.169 A 
ATOM     44  H9  UNL     1     -16.291  15.332  -1.916  1.00  0.00     0.198 HD
BRANCH  43  45
HETATM   45  N10 UNL     1     -14.274  13.475  -1.888  1.00  0.00    -0.381 N 
ATOM     46 2H10 UNL     1     -13.620  12.694  -1.865  1.00  0.00     0.157 HD
ATOM     47 1H10 UNL     1     -14.140  13.926  -2.793  1.00  0.00     0.157 HD
ENDBRANCH  43  45
ENDBRANCH  32  38
ENDBRANCH  26  29
ENDBRANCH  24  25
ENDBRANCH   1  24
BRANCH   2  48
HETATM   48  O8  UNL     1     -16.454   4.852   0.450  1.00  0.00    -0.290 OA
ATOM     49  H8  UNL     1     -16.999   4.099   0.253  1.00  0.00     0.244 HD
ENDBRANCH   2  48
TORSDOF 13
ENDMDL
MODEL 2
REMARK VINA RESULT: -7.940626721      2.606      4.405
REMARK  13 active torsions:
REMARK  status: ('A' for Active; 'I' for Inactive)
REMARK       I    between atoms: N1_1  and  C1_4 
REMARK       I    between atoms: C1_4  and  N3_6 
REMARK    1  A    between atoms: N3_6  and  C2_8 
REMARK    2  A    between atoms: C3_14  and  C4_15 
REMARK    3  A    between atoms: C4_15  and  O2_16 
REMARK    4  A    between atoms: C4_15  and  C5_18 
REMARK    5  A    between atoms: C5_18  and  O3_19 
REMARK    6  A    between atoms: C5_18  and  C6_21 
REMARK    7  A    between atoms: C6_21  and  C7_22 
REMARK    8  A    between atoms: C7_22  and  N6_23 
REMARK       I    between atoms: N6_23  and  C8_25 
REMARK    9  A    between atoms: C8_25  and  C9_27 
REMARK   10  A    between atoms: C11_29  and  C12_30 
REMARK   11  A    between atoms: N7_33  and  C13_34 
REMARK   12  A    between atoms: C14_40  and  N10_41 
REMARK   13  A    between atoms: N12_46  and  O8_48 
ROOT
HETATM    1  C6  UNL     1     -11.359   4.560   1.271  1.00  0.00     0.059 C 
HETATM    2  N12 UNL     1     -11.020   3.741   2.200  1.00  0.00    -0.273 N 
ATOM      3  H12 UNL     1     -11.583   2.895   2.282  1.00  0.00     0.193 HD
ENDROOT
BRANCH   1   4
HETATM    4  C5  UNL     1     -12.527   4.165   0.446  1.00  0.00     0.202 C 
BRANCH   4   5
HETATM    5  C4  UNL     1     -13.861   4.437   1.090  1.00  0.00     0.208 C 
BRANCH   5   6
HETATM    6  C3  UNL     1     -14.764   5.319   0.326  1.00  0.00     0.111 A 
HETATM    7  C2  UNL     1     -15.442   6.420   0.857  1.00  0.00     0.157 A 
HETATM    8  N4  UNL     1     -16.174   6.934  -0.131  1.00  0.00    -0.223 N 
HETATM    9  O1  UNL     1     -15.977   6.223  -1.186  1.00  0.00    -0.155 OA
ATOM     10  H4  UNL     1     -16.785   7.748  -0.063  1.00  0.00     0.198 HD
HETATM   11  N5  UNL     1     -15.153   5.268  -0.948  1.00  0.00    -0.239 N 
ATOM     12  H5  UNL     1     -14.843   4.575  -1.630  1.00  0.00     0.196 HD
BRANCH   7  13
HETATM   13  N3  UNL     1     -15.341   6.815   2.078  1.00  0.00    -0.314 N 
HETATM   14  C1  UNL     1     -16.293   7.674   2.686  1.00  0.00     0.187 C 
HETATM   15  N1  UNL     1     -16.826   7.343   3.814  1.00  0.00    -0.373 N 
HETATM   16  N2  UNL     1     -16.654   8.885   2.052  1.00  0.00    -0.064 NA
ATOM     17  H12 UNL     1     -17.510   7.959   4.251  1.00  0.00     0.158 HD
ATOM     18  H11 UNL     1     -16.566   6.469   4.271  1.00  0.00     0.158 HD
ATOM     19  H3  UNL     1     -14.545   6.499   2.630  1.00  0.00     0.170 HD
ENDBRANCH   7  13
ENDBRANCH   5   6
BRANCH   5  20
HETATM   20  O2  UNL     1     -13.780   4.740   2.430  1.00  0.00    -0.386 OA
ATOM     21  H2  UNL     1     -14.571   5.124   2.789  1.00  0.00     0.210 HD
ENDBRANCH   5  20
ENDBRANCH   4   5
BRANCH   4  22
HETATM   22  O3  UNL     1     -12.451   4.545  -0.884  1.00  0.00    -0.387 OA
ATOM     23  H3  UNL     1     -11.962   5.346  -1.031  1.00  0.00     0.210 HD
ENDBRANCH   4  22
ENDBRANCH   1   4
BRANCH   1  24
HETATM   24  C7  UNL     1     -10.641   5.839   1.073  1.00  0.00     0.180 C 
BRANCH  24  25
HETATM   25  N6  UNL     1     -11.276   6.994   1.638  1.00  0.00    -0.350 N 
HETATM   26  C8  UNL     1     -12.106   7.852   0.871  1.00  0.00     0.270 C 
HETATM   27  O4  UNL     1     -12.296   7.593  -0.338  1.00  0.00    -0.266 OA
ATOM     28  H6  UNL     1     -11.126   7.207   2.624  1.00  0.00     0.163 HD
BRANCH  26  29
HETATM   29  C9  UNL     1     -12.738   9.025   1.463  1.00  0.00     0.118 A 
HETATM   30  C10 UNL     1     -12.563   9.524   2.735  1.00  0.00     0.075 A 
HETATM   31  C11 UNL     1     -13.353  10.643   2.859  1.00  0.00     0.137 A 
HETATM   32  N7  UNL     1     -13.989  10.810   1.684  1.00  0.00    -0.228 N 
HETATM   33  N11 UNL     1     -13.612   9.845   0.875  1.00  0.00    -0.286 N 
ATOM     34  H11 UNL     1     -13.945   9.736  -0.083  1.00  0.00     0.188 HD
BRANCH  31  35
HETATM   35  C12 UNL     1     -13.451  11.465   4.060  1.00  0.00     0.229 C 
HETATM   36  O5  UNL     1     -13.308  12.698   3.961  1.00  0.00    -0.643 OA
HETATM   37  O6  UNL     1     -13.697  10.922   5.307  1.00  0.00    -0.643 OA
ENDBRANCH  31  35
BRANCH  32  38
HETATM   38  C13 UNL     1     -14.910  11.844   1.355  1.00  0.00     0.195 A 
HETATM   39  N8  UNL     1     -16.252  11.833   1.449  1.00  0.00    -0.220 N 
HETATM   40  O7  UNL     1     -16.728  12.987   1.045  1.00  0.00    -0.153 OA
ATOM     41  H8  UNL     1     -16.813  11.049   1.784  1.00  0.00     0.198 HD
HETATM   42  N9  UNL     1     -15.756  13.740   0.693  1.00  0.00    -0.222 N 
HETATM   43  C14 UNL     1     -14.583  13.088   0.861  1.00  0.00     0.169 A 
ATOM     44  H9  UNL     1     -15.851  14.692   0.339  1.00  0.00     0.198 HD
BRANCH  43  45
HETATM   45  N10 UNL     1     -13.398  13.501   0.627  1.00  0.00    -0.381 N 
ATOM     46 2H10 UNL     1     -12.515  13.150   0.997  1.00  0.00     0.157 HD
ATOM     47 1H10 UNL     1     -13.155  14.273   0.007  1.00  0.00     0.157 HD
ENDBRANCH  43  45
ENDBRANCH  32  38
ENDBRANCH  26  29
ENDBRANCH  24  25
ENDBRANCH   1  24
BRANCH   2  48
HETATM   48  O8  UNL     1     -10.021   3.867   3.066  1.00  0.00    -0.290 OA
ATOM     49  H8  UNL     1      -9.837   3.322   3.822  1.00  0.00     0.244 HD
ENDBRANCH   2  48
TORSDOF 13
ENDMDL
MODEL 3
REMARK VINA RESULT: -7.832246939      1.400      2.394
REMARK  13 active torsions:
REMARK  status: ('A' for Active; 'I' for Inactive)
REMARK       I    between atoms: N1_1  and  C1_4 
REMARK       I    between atoms: C1_4  and  N3_6 
REMARK    1  A    between atoms: N3_6  and  C2_8 
REMARK    2  A    between atoms: C3_14  and  C4_15 
REMARK    3  A    between atoms: C4_15  and  O2_16 
REMARK    4  A    between atoms: C4_15  and  C5_18 
REMARK    5  A    between atoms: C5_18  and  O3_19 
REMARK    6  A    between atoms: C5_18  and  C6_21 
REMARK    7  A    between atoms: C6_21  and  C7_22 
REMARK    8  A    between atoms: C7_22  and  N6_23 
REMARK       I    between atoms: N6_23  and  C8_25 
REMARK    9  A    between atoms: C8_25  and  C9_27 
REMARK   10  A    between atoms: C11_29  and  C12_30 
REMARK   11  A    between atoms: N7_33  and  C13_34 
REMARK   12  A    between atoms: C14_40  and  N10_41 
REMARK   13  A    between atoms: N12_46  and  O8_48 
ROOT
HETATM    1  C6  UNL     1     -13.815   5.711   1.198  1.00  0.00     0.059 C 
HETATM    2  N12 UNL     1     -12.534   5.615   1.209  1.00  0.00    -0.273 N 
ATOM      3  H12 UNL     1     -12.132   4.886   0.620  1.00  0.00     0.193 HD
ENDROOT
BRANCH   1   4
HETATM    4  C5  UNL     1     -14.534   4.746   0.332  1.00  0.00     0.202 C 
BRANCH   4   5
HETATM    5  C4  UNL     1     -14.774   5.232  -1.073  1.00  0.00     0.208 C 
BRANCH   5   6
HETATM    6  C3  UNL     1     -13.582   5.271  -1.941  1.00  0.00     0.111 A 
HETATM    7  C2  UNL     1     -12.817   6.413  -2.196  1.00  0.00     0.157 A 
HETATM    8  N4  UNL     1     -11.856   6.050  -3.046  1.00  0.00    -0.223 N 
HETATM    9  O1  UNL     1     -12.002   4.797  -3.302  1.00  0.00    -0.155 OA
ATOM     10  H4  UNL     1     -11.131   6.658  -3.426  1.00  0.00     0.198 HD
HETATM   11  N5  UNL     1     -13.007   4.312  -2.668  1.00  0.00    -0.239 N 
ATOM     12  H5  UNL     1     -13.319   3.342  -2.713  1.00  0.00     0.196 HD
BRANCH   7  13
HETATM   13  N3  UNL     1     -13.045   7.570  -1.681  1.00  0.00    -0.314 N 
HETATM   14  C1  UNL     1     -12.006   8.431  -1.242  1.00  0.00     0.187 C 
HETATM   15  N1  UNL     1     -11.969   9.653  -1.656  1.00  0.00    -0.373 N 
HETATM   16  N2  UNL     1     -11.017   7.945  -0.356  1.00  0.00    -0.064 NA
ATOM     17  H12 UNL     1     -11.223  10.272  -1.341  1.00  0.00     0.158 HD
ATOM     18  H11 UNL     1     -12.682  10.003  -2.296  1.00  0.00     0.158 HD
ATOM     19  H3  UNL     1     -14.011   7.881  -1.584  1.00  0.00     0.170 HD
ENDBRANCH   7  13
ENDBRANCH   5   6
BRANCH   5  20
HETATM   20  O2  UNL     1     -15.558   6.362  -1.143  1.00  0.00    -0.386 OA
ATOM     21  H2  UNL     1     -16.482   6.185  -1.272  1.00  0.00     0.210 HD
ENDBRANCH   5  20
ENDBRANCH   4   5
BRANCH   4  22
HETATM   22  O3  UNL     1     -14.070   3.443   0.410  1.00  0.00    -0.387 OA
ATOM     23  H3  UNL     1     -14.757   2.789   0.472  1.00  0.00     0.210 HD
ENDBRANCH   4  22
ENDBRANCH   1   4
BRANCH   1  24
HETATM   24  C7  UNL     1     -14.519   6.707   2.037  1.00  0.00     0.180 C 
BRANCH  24  25
HETATM   25  N6  UNL     1     -14.450   8.061   1.571  1.00  0.00    -0.350 N 
HETATM   26  C8  UNL     1     -13.737   9.067   2.272  1.00  0.00     0.270 C 
HETATM   27  O4  UNL     1     -13.143   8.766   3.331  1.00  0.00    -0.266 OA
ATOM     28  H6  UNL     1     -14.931   8.310   0.706  1.00  0.00     0.163 HD
BRANCH  26  29
HETATM   29  C9  UNL     1     -13.684  10.440   1.784  1.00  0.00     0.118 A 
HETATM   30  C10 UNL     1     -12.626  11.319   1.855  1.00  0.00     0.075 A 
HETATM   31  C11 UNL     1     -13.020  12.499   1.267  1.00  0.00     0.137 A 
HETATM   32  N7  UNL     1     -14.289  12.329   0.852  1.00  0.00    -0.228 N 
HETATM   33  N11 UNL     1     -14.662  11.107   1.167  1.00  0.00    -0.286 N 
ATOM     34  H11 UNL     1     -15.583  10.718   0.965  1.00  0.00     0.188 HD
BRANCH  31  35
HETATM   35  C12 UNL     1     -12.183  13.686   1.139  1.00  0.00     0.229 C 
HETATM   36  O5  UNL     1     -11.286  13.703   0.274  1.00  0.00    -0.643 OA
HETATM   37  O6  UNL     1     -12.349  14.796   1.945  1.00  0.00    -0.643 OA
ENDBRANCH  31  35
BRANCH  32  38
HETATM   38  C13 UNL     1     -15.102  13.288   0.186  1.00  0.00     0.195 A 
HETATM   39  N8  UNL     1     -16.137  13.995   0.677  1.00  0.00    -0.220 N 
HETATM   40  O7  UNL     1     -16.619  14.774  -0.263  1.00  0.00    -0.153 OA
ATOM     41  H8  UNL     1     -16.491  13.936   1.632  1.00  0.00     0.198 HD
HETATM   42  N9  UNL     1     -15.944  14.601  -1.336  1.00  0.00    -0.222 N 
HETATM   43  C14 UNL     1     -14.975  13.682  -1.128  1.00  0.00     0.169 A 
ATOM     44  H9  UNL     1     -16.112  15.085  -2.218  1.00  0.00     0.198 HD
BRANCH  43  45
HETATM   45  N10 UNL     1     -14.100  13.241  -1.948  1.00  0.00    -0.381 N 
ATOM     46 2H10 UNL     1     -13.134  13.543  -2.074  1.00  0.00     0.157 HD
ATOM     47 1H10 UNL     1     -14.250  12.491  -2.622  1.00  0.00     0.157 HD
ENDBRANCH  43  45
ENDBRANCH  32  38
ENDBRANCH  26  29
ENDBRANCH  24  25
ENDBRANCH   1  24
BRANCH   2  48
HETATM   48  O8  UNL     1     -11.672   6.354   1.898  1.00  0.00    -0.290 OA
ATOM     49  H8  UNL     1     -10.725   6.287   1.903  1.00  0.00     0.244 HD
ENDBRANCH   2  48
TORSDOF 13
ENDMDL
MODEL 4
REMARK VINA RESULT: -7.766165360      2.300      4.776
REMARK  13 active torsions:
REMARK  status: ('A' for Active; 'I' for Inactive)
REMARK       I    between atoms: N1_1  and  C1_4 
REMARK       I    between atoms: C1_4  and  N3_6 
REMARK    1  A    between atoms: N3_6  and  C2_8 
REMARK    2  A    between atoms: C3_14  and  C4_15 
REMARK    3  A    between atoms: C4_15  and  O2_16 
REMARK    4  A    between atoms: C4_15  and  C5_18 
REMARK    5  A    between atoms: C5_18  and  O3_19 
REMARK    6  A    between atoms: C5_18  and  C6_21 
REMARK    7  A    between atoms: C6_21  and  C7_22 
REMARK    8  A    between atoms: C7_22  and  N6_23 
REMARK       I    between atoms: N6_23  and  C8_25 
REMARK    9  A    between atoms: C8_25  and  C9_27 
REMARK   10  A    between atoms: C11_29  and  C12_30 
REMARK   11  A    between atoms: N7_33  and  C13_34 
REMARK   12  A    between atoms: C14_40  and  N10_41 
REMARK   13  A    between atoms: N12_46  and  O8_48 
ROOT
HETATM    1  C6  UNL     1     -13.753   4.656  -0.288  1.00  0.00     0.059 C 
HETATM    2  N12 UNL     1     -12.804   3.808  -0.115  1.00  0.00    -0.273 N 
ATOM      3  H12 UNL     1     -12.783   3.333   0.787  1.00  0.00     0.193 HD
ENDROOT
BRANCH   1   4
HETATM    4  C5  UNL     1     -14.687   4.831   0.851  1.00  0.00     0.202 C 
BRANCH   4   5
HETATM    5  C4  UNL     1     -14.386   6.022   1.722  1.00  0.00     0.208 C 
BRANCH   5   6
HETATM    6  C3  UNL     1     -15.333   7.147   1.606  1.00  0.00     0.111 A 
HETATM    7  C2  UNL     1     -15.398   8.231   2.487  1.00  0.00     0.157 A 
HETATM    8  N4  UNL     1     -16.395   9.009   2.066  1.00  0.00    -0.223 N 
HETATM    9  O1  UNL     1     -16.911   8.466   1.019  1.00  0.00    -0.155 OA
ATOM     10  H4  UNL     1     -16.697   9.882   2.499  1.00  0.00     0.198 HD
HETATM   11  N5  UNL     1     -16.308   7.372   0.725  1.00  0.00    -0.239 N 
ATOM     12  H5  UNL     1     -16.539   6.766  -0.063  1.00  0.00     0.196 HD
BRANCH   7  13
HETATM   13  N3  UNL     1     -14.617   8.393   3.497  1.00  0.00    -0.314 N 
HETATM   14  C1  UNL     1     -13.598   9.379   3.526  1.00  0.00     0.187 C 
HETATM   15  N1  UNL     1     -13.528  10.199   4.520  1.00  0.00    -0.373 N 
HETATM   16  N2  UNL     1     -12.667   9.459   2.465  1.00  0.00    -0.064 NA
ATOM     17  H12 UNL     1     -12.795  10.908   4.541  1.00  0.00     0.158 HD
ATOM     18  H11 UNL     1     -14.200  10.142   5.285  1.00  0.00     0.158 HD
ATOM     19  H3  UNL     1     -14.736   7.788   4.310  1.00  0.00     0.170 HD
ENDBRANCH   7  13
ENDBRANCH   5   6
BRANCH   5  20
HETATM   20  O2  UNL     1     -13.062   6.399   1.709  1.00  0.00    -0.386 OA
ATOM     21  H2  UNL     1     -12.801   6.926   2.455  1.00  0.00     0.210 HD
ENDBRANCH   5  20
ENDBRANCH   4   5
BRANCH   4  22
HETATM   22  O3  UNL     1     -16.027   4.691   0.526  1.00  0.00    -0.387 OA
ATOM     23  H3  UNL     1     -16.250   3.844   0.157  1.00  0.00     0.210 HD
ENDBRANCH   4  22
ENDBRANCH   1   4
BRANCH   1  24
HETATM   24  C7  UNL     1     -13.871   5.433  -1.542  1.00  0.00     0.180 C 
BRANCH  24  25
HETATM   25  N6  UNL     1     -13.392   6.783  -1.476  1.00  0.00    -0.350 N 
HETATM   26  C8  UNL     1     -12.008   7.094  -1.461  1.00  0.00     0.270 C 
HETATM   27  O4  UNL     1     -11.175   6.163  -1.511  1.00  0.00    -0.266 OA
ATOM     28  H6  UNL     1     -14.069   7.545  -1.437  1.00  0.00     0.163 HD
BRANCH  26  29
HETATM   29  C9  UNL     1     -11.541   8.473  -1.387  1.00  0.00     0.118 A 
HETATM   30  C10 UNL     1     -10.318   8.971  -1.781  1.00  0.00     0.075 A 
HETATM   31  C11 UNL     1     -10.315  10.324  -1.531  1.00  0.00     0.137 A 
HETATM   32  N7  UNL     1     -11.513  10.630  -0.998  1.00  0.00    -0.228 N 
HETATM   33  N11 UNL     1     -12.221   9.524  -0.922  1.00  0.00    -0.286 N 
ATOM     34  H11 UNL     1     -13.171   9.474  -0.554  1.00  0.00     0.188 HD
BRANCH  31  35
HETATM   35  C12 UNL     1      -9.199  11.220  -1.809  1.00  0.00     0.229 C 
HETATM   36  O5  UNL     1      -8.823  11.368  -2.988  1.00  0.00    -0.643 OA
HETATM   37  O6  UNL     1      -8.542  11.911  -0.810  1.00  0.00    -0.643 OA
ENDBRANCH  31  35
BRANCH  32  38
HETATM   38  C13 UNL     1     -11.957  11.917  -0.585  1.00  0.00     0.195 A 
HETATM   39  N8  UNL     1     -11.498  12.677   0.426  1.00  0.00    -0.220 N 
HETATM   40  O7  UNL     1     -12.178  13.799   0.473  1.00  0.00    -0.153 OA
ATOM     41  H8  UNL     1     -10.739  12.422   1.059  1.00  0.00     0.198 HD
HETATM   42  N9  UNL     1     -13.053  13.796  -0.460  1.00  0.00    -0.222 N 
HETATM   43  C14 UNL     1     -12.972  12.645  -1.165  1.00  0.00     0.169 A 
ATOM     44  H9  UNL     1     -13.714  14.551  -0.645  1.00  0.00     0.198 HD
BRANCH  43  45
HETATM   45  N10 UNL     1     -13.669  12.271  -2.167  1.00  0.00    -0.381 N 
ATOM     46 2H10 UNL     1     -13.358  12.040  -3.111  1.00  0.00     0.157 HD
ATOM     47 1H10 UNL     1     -14.680  12.141  -2.166  1.00  0.00     0.157 HD
ENDBRANCH  43  45
ENDBRANCH  32  38
ENDBRANCH  26  29
ENDBRANCH  24  25
ENDBRANCH   1  24
BRANCH   2  48
HETATM   48  O8  UNL     1     -11.847   3.477  -0.974  1.00  0.00    -0.290 OA
ATOM     49  H8  UNL     1     -11.071   2.956  -0.805  1.00  0.00     0.244 HD
ENDBRANCH   2  48
TORSDOF 13
ENDMDL
MODEL 5
REMARK VINA RESULT: -7.709895906      2.495      5.775
REMARK  13 active torsions:
REMARK  status: ('A' for Active; 'I' for Inactive)
REMARK       I    between atoms: N1_1  and  C1_4 
REMARK       I    between atoms: C1_4  and  N3_6 
REMARK    1  A    between atoms: N3_6  and  C2_8 
REMARK    2  A    between atoms: C3_14  and  C4_15 
REMARK    3  A    between atoms: C4_15  and  O2_16 
REMARK    4  A    between atoms: C4_15  and  C5_18 
REMARK    5  A    between atoms: C5_18  and  O3_19 
REMARK    6  A    between atoms: C5_18  and  C6_21 
REMARK    7  A    between atoms: C6_21  and  C7_22 
REMARK    8  A    between atoms: C7_22  and  N6_23 
REMARK       I    between atoms: N6_23  and  C8_25 
REMARK    9  A    between atoms: C8_25  and  C9_27 
REMARK   10  A    between atoms: C11_29  and  C12_30 
REMARK   11  A    between atoms: N7_33  and  C13_34 
REMARK   12  A    between atoms: C14_40  and  N10_41 
REMARK   13  A    between atoms: N12_46  and  O8_48 
ROOT
HETATM    1  C6  UNL     1      -9.602  10.114  -2.565  1.00  0.00     0.059 C 
HETATM    2  N12 UNL     1      -9.759   9.895  -3.821  1.00  0.00    -0.273 N 
ATOM      3  H12 UNL     1      -9.902  10.718  -4.407  1.00  0.00     0.193 HD
ENDROOT
BRANCH   1   4
HETATM    4  C5  UNL     1      -9.654  11.534  -2.138  1.00  0.00     0.202 C 
BRANCH   4   5
HETATM    5  C4  UNL     1     -11.010  12.174  -2.280  1.00  0.00     0.208 C 
BRANCH   5   6
HETATM    6  C3  UNL     1     -11.512  12.865  -1.077  1.00  0.00     0.111 A 
HETATM    7  C2  UNL     1     -12.825  13.313  -0.902  1.00  0.00     0.157 A 
HETATM    8  N4  UNL     1     -12.873  13.908   0.290  1.00  0.00    -0.223 N 
HETATM    9  O1  UNL     1     -11.700  13.843   0.816  1.00  0.00    -0.155 OA
ATOM     10  H4  UNL     1     -13.695  14.340   0.711  1.00  0.00     0.198 HD
HETATM   11  N5  UNL     1     -10.880  13.235   0.037  1.00  0.00    -0.239 N 
ATOM     12  H5  UNL     1      -9.895  13.063   0.239  1.00  0.00     0.196 HD
BRANCH   7  13
HETATM   13  N3  UNL     1     -13.767  13.153  -1.764  1.00  0.00    -0.314 N 
HETATM   14  C1  UNL     1     -15.040  13.766  -1.629  1.00  0.00     0.187 C 
HETATM   15  N1  UNL     1     -15.526  14.452  -2.608  1.00  0.00    -0.373 N 
HETATM   16  N2  UNL     1     -15.766  13.622  -0.425  1.00  0.00    -0.064 NA
ATOM     17  H12 UNL     1     -16.441  14.892  -2.512  1.00  0.00     0.158 HD
ATOM     18  H11 UNL     1     -15.003  14.556  -3.477  1.00  0.00     0.158 HD
ATOM     19  H3  UNL     1     -13.592  12.561  -2.576  1.00  0.00     0.170 HD
ENDBRANCH   7  13
ENDBRANCH   5   6
BRANCH   5  20
HETATM   20  O2  UNL     1     -11.942  11.371  -2.897  1.00  0.00    -0.386 OA
ATOM     21  H2  UNL     1     -12.737  11.242  -2.393  1.00  0.00     0.210 HD
ENDBRANCH   5  20
ENDBRANCH   4   5
BRANCH   4  22
HETATM   22  O3  UNL     1      -9.025  11.798  -0.932  1.00  0.00    -0.387 OA
ATOM     23  H3  UNL     1      -8.875  11.028  -0.396  1.00  0.00     0.210 HD
ENDBRANCH   4  22
ENDBRANCH   1   4
BRANCH   1  24
HETATM   24  C7  UNL     1      -9.420   9.000  -1.607  1.00  0.00     0.180 C 
BRANCH  24  25
HETATM   25  N6  UNL     1     -10.233   9.065  -0.428  1.00  0.00    -0.350 N 
HETATM   26  C8  UNL     1     -11.647   8.959  -0.478  1.00  0.00     0.270 C 
HETATM   27  O4  UNL     1     -12.206   8.800  -1.585  1.00  0.00    -0.266 OA
ATOM     28  H6  UNL     1      -9.780   9.192   0.477  1.00  0.00     0.163 HD
BRANCH  26  29
HETATM   29  C9  UNL     1     -12.456   9.033   0.733  1.00  0.00     0.118 A 
HETATM   30  C10 UNL     1     -12.182   9.731   1.888  1.00  0.00     0.075 A 
HETATM   31  C11 UNL     1     -13.220   9.518   2.765  1.00  0.00     0.137 A 
HETATM   32  N7  UNL     1     -14.100   8.707   2.146  1.00  0.00    -0.228 N 
HETATM   33  N11 UNL     1     -13.629   8.433   0.948  1.00  0.00    -0.286 N 
ATOM     34  H11 UNL     1     -14.102   7.837   0.268  1.00  0.00     0.188 HD
BRANCH  31  35
HETATM   35  C12 UNL     1     -13.310  10.085   4.104  1.00  0.00     0.229 C 
HETATM   36  O5  UNL     1     -13.720  11.254   4.240  1.00  0.00    -0.643 OA
HETATM   37  O6  UNL     1     -12.955   9.372   5.233  1.00  0.00    -0.643 OA
ENDBRANCH  31  35
BRANCH  32  38
HETATM   38  C13 UNL     1     -15.328   8.222   2.674  1.00  0.00     0.195 A 
HETATM   39  N8  UNL     1     -15.543   7.126   3.425  1.00  0.00    -0.220 N 
HETATM   40  O7  UNL     1     -16.821   7.034   3.708  1.00  0.00    -0.153 OA
ATOM     41  H8  UNL     1     -14.824   6.469   3.728  1.00  0.00     0.198 HD
HETATM   42  N9  UNL     1     -17.440   8.018   3.174  1.00  0.00    -0.222 N 
HETATM   43  C14 UNL     1     -16.565   8.806   2.508  1.00  0.00     0.169 A 
ATOM     44  H9  UNL     1     -18.444   8.184   3.240  1.00  0.00     0.198 HD
BRANCH  43  45
HETATM   45  N10 UNL     1     -16.792   9.877   1.852  1.00  0.00    -0.381 N 
ATOM     46 2H10 UNL     1     -16.244  10.294   1.100  1.00  0.00     0.157 HD
ATOM     47 1H10 UNL     1     -17.592  10.494   1.991  1.00  0.00     0.157 HD
ENDBRANCH  43  45
ENDBRANCH  32  38
ENDBRANCH  26  29
ENDBRANCH  24  25
ENDBRANCH   1  24
BRANCH   2  48
HETATM   48  O8  UNL     1      -9.756   8.724  -4.446  1.00  0.00    -0.290 OA
ATOM     49  H8  UNL     1      -9.878   8.561  -5.374  1.00  0.00     0.244 HD
ENDBRANCH   2  48
TORSDOF 13
ENDMDL
