MODEL 1
REMARK VINA RESULT: -7.127970159      0.000      0.000
REMARK  13 active torsions:
REMARK  status: ('A' for Active; 'I' for Inactive)
REMARK    1  A    between atoms: C2_2  and  C3_3 
REMARK    2  A    between atoms: C2_2  and  N12_41 
REMARK    3  A    between atoms: C3_3  and  N1_4 
REMARK    4  A    between atoms: C4_5  and  N2_6 
REMARK    5  A    between atoms: N2_6  and  C5_8 
REMARK    6  A    between atoms: C9_18  and  N6_19 
REMARK    7  A    between atoms: C11_24  and  O1_26 
REMARK    8  A    between atoms: C14_31  and  N9_32 
REMARK    9  A    between atoms: N12_41  and  C17_43 
REMARK   10  A    between atoms: C17_43  and  C18_44 
REMARK   11  A    between atoms: C18_44  and  O2_45 
REMARK   12  A    between atoms: C18_44  and  C19_47 
REMARK   13  A    between atoms: C19_47  and  O3_48 
ROOT
HETATM    1  N1  UNL     1     -13.609   8.641   2.219  1.00  0.00    -0.161 N 
HETATM    2  C4  UNL     1     -13.146   8.046   1.112  1.00  0.00     0.683 A 
HETATM    3  N8  UNL     1     -14.171   7.327   0.599  1.00  0.00    -0.184 N 
ATOM      4  H8  UNL     1     -14.113   6.767  -0.250  1.00  0.00     0.184 HD
HETATM    5  C13 UNL     1     -15.270   7.447   1.349  1.00  0.00     0.137 A 
HETATM    6  C14 UNL     1     -16.554   6.961   1.312  1.00  0.00     0.131 A 
HETATM    7  N10 UNL     1     -17.448   7.297   2.269  1.00  0.00    -0.337 N 
ATOM      8  H10 UNL     1     -18.398   6.926   2.225  1.00  0.00     0.168 HD
HETATM    9  C15 UNL     1     -17.094   8.127   3.294  1.00  0.00     0.183 A 
HETATM   10  N11 UNL     1     -15.845   8.600   3.329  1.00  0.00    -0.336 N 
ATOM     11  H11 UNL     1     -15.573   9.221   4.092  1.00  0.00     0.168 HD
HETATM   12  C16 UNL     1     -14.936   8.283   2.392  1.00  0.00     0.156 A 
ENDROOT
BRANCH   2  13
HETATM   13  N2  UNL     1     -11.824   8.142   0.612  1.00  0.00    -0.211 N 
ATOM     14  H2  UNL     1     -11.165   8.801   1.026  1.00  0.00     0.178 HD
BRANCH  13  15
HETATM   15  C5  UNL     1     -11.414   7.300  -0.488  1.00  0.00     0.204 C 
HETATM   16  C6  UNL     1     -11.590   8.004  -1.792  1.00  0.00     0.142 A 
HETATM   17  N3  UNL     1     -12.461   8.908  -2.240  1.00  0.00    -0.177 N 
HETATM   18  N7  UNL     1     -10.648   7.583  -2.643  1.00  0.00    -0.166 N 
HETATM   19  C7  UNL     1     -12.447   9.423  -3.502  1.00  0.00     0.693 A 
ATOM     20  H3  UNL     1     -13.183   9.236  -1.598  1.00  0.00     0.185 HD
HETATM   21  N4  UNL     1     -13.321  10.289  -3.848  1.00  0.00    -0.234 N 
HETATM   22  N5  UNL     1     -11.498   8.990  -4.342  1.00  0.00    -0.019 N 
ATOM     23  H42 UNL     1     -14.045  10.619  -3.209  1.00  0.00     0.174 HD
ATOM     24  H41 UNL     1     -13.311  10.674  -4.793  1.00  0.00     0.174 HD
HETATM   25  C8  UNL     1     -11.365   9.440  -5.692  1.00  0.00     0.195 C 
HETATM   26  C9  UNL     1     -10.595   8.059  -3.892  1.00  0.00     0.696 A 
HETATM   27  C10 UNL     1      -9.781   6.610  -1.999  1.00  0.00     0.189 C 
HETATM   28  C11 UNL     1      -9.908   7.067  -0.531  1.00  0.00     0.099 C 
HETATM   29  C12 UNL     1      -9.149   8.369  -0.431  1.00  0.00     0.050 C 
BRANCH  26  30
HETATM   30  N6  UNL     1      -9.683   7.644  -4.694  1.00  0.00    -0.234 N 
ATOM     31  H62 UNL     1      -8.909   8.260  -4.943  1.00  0.00     0.174 HD
ATOM     32  H61 UNL     1      -9.752   6.699  -5.070  1.00  0.00     0.174 HD
ENDBRANCH  26  30
BRANCH  28  33
HETATM   33  O1  UNL     1      -9.455   6.101   0.322  1.00  0.00    -0.386 OA
ATOM     34  H1  UNL     1      -9.000   6.429   1.089  1.00  0.00     0.210 HD
ENDBRANCH  28  33
ENDBRANCH  13  15
ENDBRANCH   2  13
BRANCH   1  35
HETATM   35  C3  UNL     1     -12.973   9.564   3.138  1.00  0.00     0.200 C 
BRANCH  35  36
HETATM   36  C2  UNL     1     -13.241  10.994   2.899  1.00  0.00    -0.003 C 
HETATM   37  C1  UNL     1     -13.412  11.840   4.147  1.00  0.00     0.064 C 
BRANCH  36  38
HETATM   38  N12 UNL     1     -12.482  11.717   1.954  1.00  0.00    -0.393 N 
ATOM     39  H12 UNL     1     -11.633  11.323   1.549  1.00  0.00     0.159 HD
BRANCH  38  40
HETATM   40  C17 UNL     1     -12.939  13.011   1.582  1.00  0.00     0.153 C 
BRANCH  40  41
HETATM   41  C18 UNL     1     -12.271  13.392   0.264  1.00  0.00     0.159 C 
BRANCH  41  42
HETATM   42  O2  UNL     1     -11.047  13.988   0.477  1.00  0.00    -0.392 OA
ATOM     43  H2  UNL     1     -11.118  14.935   0.466  1.00  0.00     0.210 HD
ENDBRANCH  41  42
BRANCH  41  44
HETATM   44  C19 UNL     1     -12.006  12.106  -0.514  1.00  0.00     0.197 C 
BRANCH  44  45
HETATM   45  O3  UNL     1     -13.178  11.460  -0.847  1.00  0.00    -0.398 OA
ATOM     46  H3  UNL     1     -13.044  10.526  -0.962  1.00  0.00     0.209 HD
ENDBRANCH  44  45
ENDBRANCH  41  44
ENDBRANCH  40  41
ENDBRANCH  38  40
ENDBRANCH  36  38
ENDBRANCH  35  36
ENDBRANCH   1  35
BRANCH   6  47
HETATM   47  N9  UNL     1     -16.912   6.180   0.358  1.00  0.00    -0.383 N 
ATOM     48  H92 UNL     1     -16.310   5.400   0.094  1.00  0.00     0.157 HD
ATOM     49  H91 UNL     1     -17.793   6.345  -0.127  1.00  0.00     0.157 HD
ENDBRANCH   6  47
TORSDOF 13
ENDMDL
MODEL 2
REMARK VINA RESULT: -6.950151625      2.706      4.641
REMARK  13 active torsions:
REMARK  status: ('A' for Active; 'I' for Inactive)
REMARK    1  A    between atoms: C2_2  and  C3_3 
REMARK    2  A    between atoms: C2_2  and  N12_41 
REMARK    3  A    between atoms: C3_3  and  N1_4 
REMARK    4  A    between atoms: C4_5  and  N2_6 
REMARK    5  A    between atoms: N2_6  and  C5_8 
REMARK    6  A    between atoms: C9_18  and  N6_19 
REMARK    7  A    between atoms: C11_24  and  O1_26 
REMARK    8  A    between atoms: C14_31  and  N9_32 
REMARK    9  A    between atoms: N12_41  and  C17_43 
REMARK   10  A    between atoms: C17_43  and  C18_44 
REMARK   11  A    between atoms: C18_44  and  O2_45 
REMARK   12  A    between atoms: C18_44  and  C19_47 
REMARK   13  A    between atoms: C19_47  and  O3_48 
ROOT
HETATM    1  N1  UNL     1     -13.440  11.801   1.493  1.00  0.00    -0.161 N 
HETATM    2  C4  UNL     1     -12.629  11.358   0.524  1.00  0.00     0.683 A 
HETATM    3  N8  UNL     1     -13.048  11.934  -0.627  1.00  0.00    -0.184 N 
ATOM      4  H8  UNL     1     -12.615  11.782  -1.537  1.00  0.00     0.184 HD
HETATM    5  C13 UNL     1     -14.102  12.726  -0.416  1.00  0.00     0.137 A 
HETATM    6  C14 UNL     1     -14.909  13.528  -1.185  1.00  0.00     0.131 A 
HETATM    7  N10 UNL     1     -15.928  14.221  -0.628  1.00  0.00    -0.337 N 
ATOM      8  H10 UNL     1     -16.518  14.811  -1.215  1.00  0.00     0.168 HD
HETATM    9  C15 UNL     1     -16.177  14.138   0.712  1.00  0.00     0.183 A 
HETATM   10  N11 UNL     1     -15.392  13.357   1.460  1.00  0.00    -0.336 N 
ATOM     11  H11 UNL     1     -15.572  13.290   2.462  1.00  0.00     0.168 HD
HETATM   12  C16 UNL     1     -14.372  12.658   0.933  1.00  0.00     0.156 A 
ENDROOT
BRANCH   2  13
HETATM   13  N2  UNL     1     -11.563  10.440   0.692  1.00  0.00    -0.211 N 
ATOM     14  H2  UNL     1     -10.616  10.779   0.861  1.00  0.00     0.178 HD
BRANCH  13  15
HETATM   15  C5  UNL     1     -11.825   9.021   0.623  1.00  0.00     0.204 C 
HETATM   16  C6  UNL     1     -11.706   8.525  -0.779  1.00  0.00     0.142 A 
HETATM   17  N3  UNL     1     -11.948   9.068  -1.972  1.00  0.00    -0.177 N 
HETATM   18  N7  UNL     1     -11.268   7.261  -0.756  1.00  0.00    -0.166 N 
HETATM   19  C7  UNL     1     -11.777   8.418  -3.157  1.00  0.00     0.693 A 
ATOM     20  H3  UNL     1     -12.282  10.032  -2.000  1.00  0.00     0.185 HD
HETATM   21  N4  UNL     1     -12.033   9.016  -4.258  1.00  0.00    -0.234 N 
HETATM   22  N5  UNL     1     -11.339   7.153  -3.116  1.00  0.00    -0.019 N 
ATOM     23  H42 UNL     1     -12.367   9.980  -4.288  1.00  0.00     0.174 HD
ATOM     24  H41 UNL     1     -11.905   8.529  -5.145  1.00  0.00     0.174 HD
HETATM   25  C8  UNL     1     -11.118   6.349  -4.279  1.00  0.00     0.195 C 
HETATM   26  C9  UNL     1     -11.086   6.582  -1.894  1.00  0.00     0.696 A 
HETATM   27  C10 UNL     1     -11.048   6.825   0.613  1.00  0.00     0.189 C 
HETATM   28  C11 UNL     1     -10.735   8.182   1.279  1.00  0.00     0.099 C 
HETATM   29  C12 UNL     1      -9.364   8.582   0.788  1.00  0.00     0.050 C 
BRANCH  26  30
HETATM   30  N6  UNL     1     -10.664   5.371  -1.852  1.00  0.00    -0.234 N 
ATOM     31  H62 UNL     1      -9.714   5.154  -2.153  1.00  0.00     0.174 HD
ATOM     32  H61 UNL     1     -11.295   4.642  -1.517  1.00  0.00     0.174 HD
ENDBRANCH  26  30
BRANCH  28  33
HETATM   33  O1  UNL     1     -10.826   8.089   2.640  1.00  0.00    -0.386 OA
ATOM     34  H1  UNL     1     -10.332   7.374   3.024  1.00  0.00     0.210 HD
ENDBRANCH  28  33
ENDBRANCH  13  15
ENDBRANCH   2  13
BRANCH   1  35
HETATM   35  C3  UNL     1     -13.431  11.560   2.923  1.00  0.00     0.200 C 
BRANCH  35  36
HETATM   36  C2  UNL     1     -13.634  10.160   3.339  1.00  0.00    -0.003 C 
HETATM   37  C1  UNL     1     -13.296   9.856   4.786  1.00  0.00     0.064 C 
BRANCH  36  38
HETATM   38  N12 UNL     1     -14.817   9.474   2.989  1.00  0.00    -0.393 N 
ATOM     39  H12 UNL     1     -15.731   9.919   3.082  1.00  0.00     0.159 HD
BRANCH  38  40
HETATM   40  C17 UNL     1     -14.697   8.143   2.503  1.00  0.00     0.153 C 
BRANCH  40  41
HETATM   41  C18 UNL     1     -16.026   7.430   2.734  1.00  0.00     0.159 C 
BRANCH  41  42
HETATM   42  O2  UNL     1     -15.983   6.644   3.865  1.00  0.00    -0.392 OA
ATOM     43  H2  UNL     1     -16.833   6.262   4.052  1.00  0.00     0.210 HD
ENDBRANCH  41  42
BRANCH  41  44
HETATM   44  C19 UNL     1     -17.092   8.495   2.978  1.00  0.00     0.197 C 
BRANCH  44  45
HETATM   45  O3  UNL     1     -17.512   8.506   4.291  1.00  0.00    -0.398 OA
ATOM     46  H3  UNL     1     -18.330   8.034   4.402  1.00  0.00     0.209 HD
ENDBRANCH  44  45
ENDBRANCH  41  44
ENDBRANCH  40  41
ENDBRANCH  38  40
ENDBRANCH  36  38
ENDBRANCH  35  36
ENDBRANCH   1  35
BRANCH   6  47
HETATM   47  N9  UNL     1     -14.695  13.624  -2.447  1.00  0.00    -0.383 N 
ATOM     48  H92 UNL     1     -14.715  12.784  -3.026  1.00  0.00     0.157 HD
ATOM     49  H91 UNL     1     -14.507  14.537  -2.861  1.00  0.00     0.157 HD
ENDBRANCH   6  47
TORSDOF 13
ENDMDL
MODEL 3
REMARK VINA RESULT: -6.767766282      2.367      3.596
REMARK  13 active torsions:
REMARK  status: ('A' for Active; 'I' for Inactive)
REMARK    1  A    between atoms: C2_2  and  C3_3 
REMARK    2  A    between atoms: C2_2  and  N12_41 
REMARK    3  A    between atoms: C3_3  and  N1_4 
REMARK    4  A    between atoms: C4_5  and  N2_6 
REMARK    5  A    between atoms: N2_6  and  C5_8 
REMARK    6  A    between atoms: C9_18  and  N6_19 
REMARK    7  A    between atoms: C11_24  and  O1_26 
REMARK    8  A    between atoms: C14_31  and  N9_32 
REMARK    9  A    between atoms: N12_41  and  C17_43 
REMARK   10  A    between atoms: C17_43  and  C18_44 
REMARK   11  A    between atoms: C18_44  and  O2_45 
REMARK   12  A    between atoms: C18_44  and  C19_47 
REMARK   13  A    between atoms: C19_47  and  O3_48 
ROOT
HETATM    1  N1  UNL     1     -12.417  11.412   0.876  1.00  0.00    -0.161 N 
HETATM    2  C4  UNL     1     -12.561  10.305   0.137  1.00  0.00     0.683 A 
HETATM    3  N8  UNL     1     -13.200   9.399   0.914  1.00  0.00    -0.184 N 
ATOM      4  H8  UNL     1     -13.448   8.457   0.613  1.00  0.00     0.184 HD
HETATM    5  C13 UNL     1     -13.463   9.899   2.124  1.00  0.00     0.137 A 
HETATM    6  C14 UNL     1     -14.067   9.450   3.272  1.00  0.00     0.131 A 
HETATM    7  N10 UNL     1     -14.169  10.250   4.358  1.00  0.00    -0.337 N 
ATOM      8  H10 UNL     1     -14.620   9.898   5.203  1.00  0.00     0.168 HD
HETATM    9  C15 UNL     1     -13.674  11.522   4.336  1.00  0.00     0.183 A 
HETATM   10  N11 UNL     1     -13.087  11.959   3.218  1.00  0.00    -0.336 N 
ATOM     11  H11 UNL     1     -12.715  12.909   3.194  1.00  0.00     0.168 HD
HETATM   12  C16 UNL     1     -12.972  11.186   2.124  1.00  0.00     0.156 A 
ENDROOT
BRANCH   2  13
HETATM   13  N2  UNL     1     -12.097  10.129  -1.191  1.00  0.00    -0.211 N 
ATOM     14  H2  UNL     1     -12.577  10.586  -1.966  1.00  0.00     0.178 HD
BRANCH  13  15
HETATM   15  C5  UNL     1     -10.941   9.300  -1.439  1.00  0.00     0.204 C 
HETATM   16  C6  UNL     1     -10.843   8.941  -2.884  1.00  0.00     0.142 A 
HETATM   17  N3  UNL     1     -11.745   8.725  -3.843  1.00  0.00    -0.177 N 
HETATM   18  N7  UNL     1      -9.553   8.817  -3.214  1.00  0.00    -0.166 N 
HETATM   19  C7  UNL     1     -11.431   8.389  -5.125  1.00  0.00     0.693 A 
ATOM     20  H3  UNL     1     -12.731   8.817  -3.601  1.00  0.00     0.185 HD
HETATM   21  N4  UNL     1     -12.360   8.201  -5.983  1.00  0.00    -0.234 N 
HETATM   22  N5  UNL     1     -10.134   8.269  -5.439  1.00  0.00    -0.019 N 
ATOM     23  H42 UNL     1     -13.348   8.293  -5.744  1.00  0.00     0.174 HD
ATOM     24  H41 UNL     1     -12.125   7.949  -6.943  1.00  0.00     0.174 HD
HETATM   25  C8  UNL     1      -9.660   7.920  -6.742  1.00  0.00     0.195 C 
HETATM   26  C9  UNL     1      -9.196   8.489  -4.461  1.00  0.00     0.696 A 
HETATM   27  C10 UNL     1      -8.707   9.091  -2.064  1.00  0.00     0.189 C 
HETATM   28  C11 UNL     1      -9.624  10.051  -1.278  1.00  0.00     0.099 C 
HETATM   29  C12 UNL     1      -9.634  11.347  -2.053  1.00  0.00     0.050 C 
BRANCH  26  30
HETATM   30  N6  UNL     1      -7.953   8.377  -4.759  1.00  0.00    -0.234 N 
ATOM     31  H62 UNL     1      -7.524   7.452  -4.804  1.00  0.00     0.174 HD
ATOM     32  H61 UNL     1      -7.415   9.223  -4.947  1.00  0.00     0.174 HD
ENDBRANCH  26  30
BRANCH  28  33
HETATM   33  O1  UNL     1      -9.197  10.186   0.013  1.00  0.00    -0.386 OA
ATOM     34  H1  UNL     1      -8.365  10.633   0.112  1.00  0.00     0.210 HD
ENDBRANCH  28  33
ENDBRANCH  13  15
ENDBRANCH   2  13
BRANCH   1  35
HETATM   35  C3  UNL     1     -11.855  12.707   0.546  1.00  0.00     0.200 C 
BRANCH  35  36
HETATM   36  C2  UNL     1     -12.720  13.598  -0.250  1.00  0.00    -0.003 C 
HETATM   37  C1  UNL     1     -12.744  13.319  -1.741  1.00  0.00     0.064 C 
BRANCH  36  38
HETATM   38  N12 UNL     1     -14.030  13.898   0.183  1.00  0.00    -0.393 N 
ATOM     39  H12 UNL     1     -14.211  14.694   0.795  1.00  0.00     0.159 HD
BRANCH  38  40
HETATM   40  C17 UNL     1     -15.088  13.059  -0.261  1.00  0.00     0.153 C 
BRANCH  40  41
HETATM   41  C18 UNL     1     -16.342  13.415   0.531  1.00  0.00     0.159 C 
BRANCH  41  42
HETATM   42  O2  UNL     1     -16.290  12.904   1.809  1.00  0.00    -0.392 OA
ATOM     43  H2  UNL     1     -16.676  12.037   1.851  1.00  0.00     0.210 HD
ENDBRANCH  41  42
BRANCH  41  44
HETATM   44  C19 UNL     1     -16.395  14.934   0.666  1.00  0.00     0.197 C 
BRANCH  44  45
HETATM   45  O3  UNL     1     -16.742  15.541  -0.523  1.00  0.00    -0.398 OA
ATOM     46  H3  UNL     1     -16.454  16.446  -0.554  1.00  0.00     0.209 HD
ENDBRANCH  44  45
ENDBRANCH  41  44
ENDBRANCH  40  41
ENDBRANCH  38  40
ENDBRANCH  36  38
ENDBRANCH  35  36
ENDBRANCH   1  35
BRANCH   6  47
HETATM   47  N9  UNL     1     -14.541   8.258   3.318  1.00  0.00    -0.383 N 
ATOM     48  H92 UNL     1     -14.197   7.607   4.024  1.00  0.00     0.157 HD
ATOM     49  H91 UNL     1     -15.257   7.972   2.651  1.00  0.00     0.157 HD
ENDBRANCH   6  47
TORSDOF 13
ENDMDL
MODEL 4
REMARK VINA RESULT: -6.758504481      2.300      4.427
REMARK  13 active torsions:
REMARK  status: ('A' for Active; 'I' for Inactive)
REMARK    1  A    between atoms: C2_2  and  C3_3 
REMARK    2  A    between atoms: C2_2  and  N12_41 
REMARK    3  A    between atoms: C3_3  and  N1_4 
REMARK    4  A    between atoms: C4_5  and  N2_6 
REMARK    5  A    between atoms: N2_6  and  C5_8 
REMARK    6  A    between atoms: C9_18  and  N6_19 
REMARK    7  A    between atoms: C11_24  and  O1_26 
REMARK    8  A    between atoms: C14_31  and  N9_32 
REMARK    9  A    between atoms: N12_41  and  C17_43 
REMARK   10  A    between atoms: C17_43  and  C18_44 
REMARK   11  A    between atoms: C18_44  and  O2_45 
REMARK   12  A    between atoms: C18_44  and  C19_47 
REMARK   13  A    between atoms: C19_47  and  O3_48 
ROOT
HETATM    1  N1  UNL     1     -13.596  10.263   1.996  1.00  0.00    -0.161 N 
HETATM    2  C4  UNL     1     -12.399  10.310   1.400  1.00  0.00     0.683 A 
HETATM    3  N8  UNL     1     -12.436  11.351   0.535  1.00  0.00    -0.184 N 
ATOM      4  H8  UNL     1     -11.659  11.631  -0.062  1.00  0.00     0.184 HD
HETATM    5  C13 UNL     1     -13.623  11.963   0.565  1.00  0.00     0.137 A 
HETATM    6  C14 UNL     1     -14.203  13.031  -0.073  1.00  0.00     0.131 A 
HETATM    7  N10 UNL     1     -15.475  13.395   0.207  1.00  0.00    -0.337 N 
ATOM      8  H10 UNL     1     -15.891  14.192  -0.277  1.00  0.00     0.168 HD
HETATM    9  C15 UNL     1     -16.210  12.709   1.131  1.00  0.00     0.183 A 
HETATM   10  N11 UNL     1     -15.644  11.669   1.751  1.00  0.00    -0.336 N 
ATOM     11  H11 UNL     1     -16.187  11.151   2.442  1.00  0.00     0.168 HD
HETATM   12  C16 UNL     1     -14.383  11.285   1.492  1.00  0.00     0.156 A 
ENDROOT
BRANCH   2  13
HETATM   13  N2  UNL     1     -11.325   9.413   1.625  1.00  0.00    -0.211 N 
ATOM     14  H2  UNL     1     -10.478   9.734   2.092  1.00  0.00     0.178 HD
BRANCH  13  15
HETATM   15  C5  UNL     1     -11.438   8.041   1.189  1.00  0.00     0.204 C 
HETATM   16  C6  UNL     1     -11.565   7.962  -0.296  1.00  0.00     0.142 A 
HETATM   17  N3  UNL     1     -12.113   8.755  -1.217  1.00  0.00    -0.177 N 
HETATM   18  N7  UNL     1     -10.997   6.828  -0.721  1.00  0.00    -0.166 N 
HETATM   19  C7  UNL     1     -12.127   8.481  -2.552  1.00  0.00     0.693 A 
ATOM     20  H3  UNL     1     -12.549   9.623  -0.903  1.00  0.00     0.185 HD
HETATM   21  N4  UNL     1     -12.674   9.299  -3.367  1.00  0.00    -0.234 N 
HETATM   22  N5  UNL     1     -11.554   7.341  -2.960  1.00  0.00    -0.019 N 
ATOM     23  H42 UNL     1     -13.111  10.168  -3.056  1.00  0.00     0.174 HD
ATOM     24  H41 UNL     1     -12.684   9.094  -4.366  1.00  0.00     0.174 HD
HETATM   25  C8  UNL     1     -11.497   6.924  -4.326  1.00  0.00     0.195 C 
HETATM   26  C9  UNL     1     -10.986   6.516  -2.021  1.00  0.00     0.696 A 
HETATM   27  C10 UNL     1     -10.444   6.086   0.402  1.00  0.00     0.189 C 
HETATM   28  C11 UNL     1     -10.149   7.249   1.372  1.00  0.00     0.099 C 
HETATM   29  C12 UNL     1      -8.966   7.987   0.792  1.00  0.00     0.050 C 
BRANCH  26  30
HETATM   30  N6  UNL     1     -10.434   5.424  -2.410  1.00  0.00    -0.234 N 
ATOM     31  H62 UNL     1     -10.249   5.275  -3.402  1.00  0.00     0.174 HD
ATOM     32  H61 UNL     1     -10.192   4.721  -1.712  1.00  0.00     0.174 HD
ENDBRANCH  26  30
BRANCH  28  33
HETATM   33  O1  UNL     1      -9.939   6.784   2.640  1.00  0.00    -0.386 OA
ATOM     34  H1  UNL     1      -9.712   5.863   2.694  1.00  0.00     0.210 HD
ENDBRANCH  28  33
ENDBRANCH  13  15
ENDBRANCH   2  13
BRANCH   1  35
HETATM   35  C3  UNL     1     -14.103   9.393   3.040  1.00  0.00     0.200 C 
BRANCH  35  36
HETATM   36  C2  UNL     1     -14.972   8.290   2.591  1.00  0.00    -0.003 C 
HETATM   37  C1  UNL     1     -16.417   8.376   3.042  1.00  0.00     0.064 C 
BRANCH  36  38
HETATM   38  N12 UNL     1     -14.934   7.849   1.250  1.00  0.00    -0.393 N 
ATOM     39  H12 UNL     1     -14.260   8.235   0.589  1.00  0.00     0.159 HD
BRANCH  38  40
HETATM   40  C17 UNL     1     -15.864   6.852   0.850  1.00  0.00     0.153 C 
BRANCH  40  41
HETATM   41  C18 UNL     1     -15.149   5.882  -0.086  1.00  0.00     0.159 C 
BRANCH  41  42
HETATM   42  O2  UNL     1     -14.557   6.546  -1.138  1.00  0.00    -0.392 OA
ATOM     43  H2  UNL     1     -13.713   6.167  -1.354  1.00  0.00     0.210 HD
ENDBRANCH  41  42
BRANCH  41  44
HETATM   44  C19 UNL     1     -14.026   5.213   0.701  1.00  0.00     0.197 C 
BRANCH  44  45
HETATM   45  O3  UNL     1     -14.385   4.991   2.014  1.00  0.00    -0.398 OA
ATOM     46  H3  UNL     1     -13.679   4.591   2.509  1.00  0.00     0.209 HD
ENDBRANCH  44  45
ENDBRANCH  41  44
ENDBRANCH  40  41
ENDBRANCH  38  40
ENDBRANCH  36  38
ENDBRANCH  35  36
ENDBRANCH   1  35
BRANCH   6  47
HETATM   47  N9  UNL     1     -13.533  13.694  -0.944  1.00  0.00    -0.383 N 
ATOM     48  H92 UNL     1     -12.522  13.574  -0.998  1.00  0.00     0.157 HD
ATOM     49  H91 UNL     1     -14.016  14.333  -1.575  1.00  0.00     0.157 HD
ENDBRANCH   6  47
TORSDOF 13
ENDMDL
MODEL 5
REMARK VINA RESULT: -6.750334534      1.939      2.889
REMARK  13 active torsions:
REMARK  status: ('A' for Active; 'I' for Inactive)
REMARK    1  A    between atoms: C2_2  and  C3_3 
REMARK    2  A    between atoms: C2_2  and  N12_41 
REMARK    3  A    between atoms: C3_3  and  N1_4 
REMARK    4  A    between atoms: C4_5  and  N2_6 
REMARK    5  A    between atoms: N2_6  and  C5_8 
REMARK    6  A    between atoms: C9_18  and  N6_19 
REMARK    7  A    between atoms: C11_24  and  O1_26 
REMARK    8  A    between atoms: C14_31  and  N9_32 
REMARK    9  A    between atoms: N12_41  and  C17_43 
REMARK   10  A    between atoms: C17_43  and  C18_44 
REMARK   11  A    between atoms: C18_44  and  O2_45 
REMARK   12  A    between atoms: C18_44  and  C19_47 
REMARK   13  A    between atoms: C19_47  and  O3_48 
ROOT
HETATM    1  N1  UNL     1     -13.617   8.712   2.274  1.00  0.00    -0.161 N 
HETATM    2  C4  UNL     1     -13.119   8.127   1.177  1.00  0.00     0.683 A 
HETATM    3  N8  UNL     1     -14.118   7.385   0.646  1.00  0.00    -0.184 N 
ATOM      4  H8  UNL     1     -14.030   6.825  -0.201  1.00  0.00     0.184 HD
HETATM    5  C13 UNL     1     -15.233   7.481   1.374  1.00  0.00     0.137 A 
HETATM    6  C14 UNL     1     -16.504   6.965   1.314  1.00  0.00     0.131 A 
HETATM    7  N10 UNL     1     -17.424   7.282   2.253  1.00  0.00    -0.337 N 
ATOM      8  H10 UNL     1     -18.364   6.889   2.192  1.00  0.00     0.168 HD
HETATM    9  C15 UNL     1     -17.109   8.121   3.283  1.00  0.00     0.183 A 
HETATM   10  N11 UNL     1     -15.871   8.622   3.342  1.00  0.00    -0.336 N 
ATOM     11  H11 UNL     1     -15.628   9.250   4.108  1.00  0.00     0.168 HD
HETATM   12  C16 UNL     1     -14.937   8.325   2.422  1.00  0.00     0.156 A 
ENDROOT
BRANCH   2  13
HETATM   13  N2  UNL     1     -11.790   8.253   0.702  1.00  0.00    -0.211 N 
ATOM     14  H2  UNL     1     -11.023   7.798   1.197  1.00  0.00     0.178 HD
BRANCH  13  15
HETATM   15  C5  UNL     1     -11.527   9.028  -0.488  1.00  0.00     0.204 C 
HETATM   16  C6  UNL     1     -10.092   9.430  -0.557  1.00  0.00     0.142 A 
HETATM   17  N3  UNL     1      -9.173   9.725   0.363  1.00  0.00    -0.177 N 
HETATM   18  N7  UNL     1      -9.721   9.498  -1.840  1.00  0.00    -0.166 N 
HETATM   19  C7  UNL     1      -7.892  10.088   0.075  1.00  0.00     0.693 A 
ATOM     20  H3  UNL     1      -9.446   9.677   1.345  1.00  0.00     0.185 HD
HETATM   21  N4  UNL     1      -7.074  10.353   1.021  1.00  0.00    -0.234 N 
HETATM   22  N5  UNL     1      -7.537  10.151  -1.215  1.00  0.00    -0.019 N 
ATOM     23  H42 UNL     1      -7.344  10.305   2.004  1.00  0.00     0.174 HD
ATOM     24  H41 UNL     1      -6.115  10.624   0.805  1.00  0.00     0.174 HD
HETATM   25  C8  UNL     1      -6.230  10.518  -1.664  1.00  0.00     0.195 C 
HETATM   26  C9  UNL     1      -8.474   9.849  -2.172  1.00  0.00     0.696 A 
HETATM   27  C10 UNL     1     -10.832   9.141  -2.708  1.00  0.00     0.189 C 
HETATM   28  C11 UNL     1     -11.618   8.205  -1.767  1.00  0.00     0.099 C 
HETATM   29  C12 UNL     1     -10.803   6.938  -1.662  1.00  0.00     0.050 C 
BRANCH  26  30
HETATM   30  N6  UNL     1      -8.136   9.906  -3.409  1.00  0.00    -0.234 N 
ATOM     31  H62 UNL     1      -7.166   9.741  -3.677  1.00  0.00     0.174 HD
ATOM     32  H61 UNL     1      -8.851  10.120  -4.104  1.00  0.00     0.174 HD
ENDBRANCH  26  30
BRANCH  28  33
HETATM   33  O1  UNL     1     -12.889   8.004  -2.229  1.00  0.00    -0.386 OA
ATOM     34  H1  UNL     1     -12.944   7.751  -3.143  1.00  0.00     0.210 HD
ENDBRANCH  28  33
ENDBRANCH  13  15
ENDBRANCH   2  13
BRANCH   1  35
HETATM   35  C3  UNL     1     -13.018   9.651   3.203  1.00  0.00     0.200 C 
BRANCH  35  36
HETATM   36  C2  UNL     1     -13.486  11.045   3.098  1.00  0.00    -0.003 C 
HETATM   37  C1  UNL     1     -13.446  11.844   4.387  1.00  0.00     0.064 C 
BRANCH  36  38
HETATM   38  N12 UNL     1     -13.055  11.867   2.034  1.00  0.00    -0.393 N 
ATOM     39  H12 UNL     1     -12.091  12.197   1.982  1.00  0.00     0.159 HD
BRANCH  38  40
HETATM   40  C17 UNL     1     -14.005  12.220   1.037  1.00  0.00     0.153 C 
BRANCH  40  41
HETATM   41  C18 UNL     1     -13.390  13.302   0.155  1.00  0.00     0.159 C 
BRANCH  41  42
HETATM   42  O2  UNL     1     -13.378  14.523   0.793  1.00  0.00    -0.392 OA
ATOM     43  H2  UNL     1     -13.983  15.131   0.386  1.00  0.00     0.210 HD
ENDBRANCH  41  42
BRANCH  41  44
HETATM   44  C19 UNL     1     -11.933  12.924  -0.101  1.00  0.00     0.197 C 
BRANCH  44  45
HETATM   45  O3  UNL     1     -11.063  13.798   0.517  1.00  0.00    -0.398 OA
ATOM     46  H3  UNL     1     -10.201  13.775   0.119  1.00  0.00     0.209 HD
ENDBRANCH  44  45
ENDBRANCH  41  44
ENDBRANCH  40  41
ENDBRANCH  38  40
ENDBRANCH  36  38
ENDBRANCH  35  36
ENDBRANCH   1  35
BRANCH   6  47
HETATM   47  N9  UNL     1     -16.826   6.176   0.355  1.00  0.00    -0.383 N 
ATOM     48  H92 UNL     1     -16.164   5.463   0.047  1.00  0.00     0.157 HD
ATOM     49  H91 UNL     1     -17.739   6.265  -0.091  1.00  0.00     0.157 HD
ENDBRANCH   6  47
TORSDOF 13
ENDMDL
