MODEL 1
REMARK VINA RESULT: -7.161881858      0.000      0.000
REMARK  15 active torsions:
REMARK  status: ('A' for Active; 'I' for Inactive)
REMARK    1  A    between atoms: C2_2  and  N1_5 
REMARK    2  A    between atoms: C5_12  and  C6_13 
REMARK    3  A    between atoms: C6_13  and  N6_17 
REMARK    4  A    between atoms: N6_17  and  C7_18 
REMARK    5  A    between atoms: C8_21  and  N8_22 
REMARK    6  A    between atoms: C10_29  and  N11_30 
REMARK    7  A    between atoms: N12_32  and  O1_34 
REMARK    8  A    between atoms: O1_34  and  C11_35 
REMARK    9  A    between atoms: C11_35  and  C12_36 
REMARK   10  A    between atoms: C11_35  and  C13_39 
REMARK   11  A    between atoms: C12_36  and  O2_37 
REMARK   12  A    between atoms: C13_39  and  N13_40 
REMARK   13  A    between atoms: C13_39  and  C14_44 
REMARK   14  A    between atoms: C14_44  and  O3_45 
REMARK   15  A    between atoms: C14_44  and  O4_47 
ROOT
HETATM    1  C7  UNL     1     -14.434  11.598   1.345  1.00  0.00     0.227 A 
HETATM    2  N7  UNL     1     -15.378  12.552   1.067  1.00  0.00    -0.162 N 
ATOM      3  H7  UNL     1     -16.350  12.314   1.266  1.00  0.00     0.187 HD
HETATM    4  C8  UNL     1     -15.145  13.748   0.566  1.00  0.00     0.679 A 
HETATM    5  N9  UNL     1     -13.866  14.065   0.302  1.00  0.00    -0.177 N 
ATOM      6  H9  UNL     1     -13.657  14.985  -0.087  1.00  0.00     0.185 HD
HETATM    7  C9  UNL     1     -12.850  13.210   0.531  1.00  0.00     0.165 A 
HETATM    8  N10 UNL     1     -11.495  13.575   0.242  1.00  0.00    -0.079 NA
HETATM    9  C10 UNL     1     -13.088  11.960   1.054  1.00  0.00     0.150 A 
ENDROOT
BRANCH   1  10
HETATM   10  N6  UNL     1     -14.670  10.546   1.786  1.00  0.00    -0.364 NA
BRANCH  10  11
HETATM   11  C6  UNL     1     -14.931   9.371   2.286  1.00  0.00     0.209 C 
HETATM   12  N5  UNL     1     -15.148   9.161   3.592  1.00  0.00    -0.372 N 
ATOM     13  H52 UNL     1     -15.353   8.242   3.984  1.00  0.00     0.158 HD
ATOM     14  H51 UNL     1     -15.082  10.025   4.131  1.00  0.00     0.158 HD
BRANCH  11  15
HETATM   15  C5  UNL     1     -15.027   8.123   1.507  1.00  0.00     0.177 A 
HETATM   16  N4  UNL     1     -16.156   7.764   0.836  1.00  0.00    -0.276 N 
HETATM   17  N3  UNL     1     -16.198   6.641   0.180  1.00  0.00    -0.227 N 
ATOM     18  H4  UNL     1     -16.971   8.376   0.847  1.00  0.00     0.189 HD
HETATM   19  N2  UNL     1     -15.181   5.793   0.116  1.00  0.00    -0.222 N 
ATOM     20  H3  UNL     1     -17.058   6.400  -0.310  1.00  0.00     0.210 HD
HETATM   21  N1  UNL     1     -14.060   6.065   0.731  1.00  0.00    -0.231 N 
ATOM     22  H2  UNL     1     -15.273   4.927  -0.415  1.00  0.00     0.210 HD
HETATM   23  C15 UNL     1     -13.983   7.241   1.433  1.00  0.00     0.297 A 
HETATM   24  O5  UNL     1     -12.908   7.513   2.032  1.00  0.00    -0.264 OA
BRANCH  21  25
HETATM   25  C2  UNL     1     -12.880   5.219   0.725  1.00  0.00     0.048 C 
HETATM   26  C1  UNL     1     -12.876   4.427  -0.549  1.00  0.00     0.040 C 
HETATM   27  C3  UNL     1     -13.028   4.245   1.903  1.00  0.00     0.040 C 
HETATM   28  C4  UNL     1     -11.604   5.983   0.920  1.00  0.00     0.040 C 
ENDBRANCH  21  25
ENDBRANCH  11  15
ENDBRANCH  10  11
ENDBRANCH   1  10
BRANCH   9  29
HETATM   29  N11 UNL     1     -12.053  11.066   1.307  1.00  0.00    -0.274 N 
HETATM   30  N12 UNL     1     -11.570  10.085   0.794  1.00  0.00    -0.206 N 
ATOM     31  H12 UNL     1     -10.776   9.630   1.244  1.00  0.00     0.216 HD
ATOM     32  H11 UNL     1     -11.563  11.307   2.169  1.00  0.00     0.189 HD
BRANCH  30  33
HETATM   33  O1  UNL     1     -12.063   9.563  -0.384  1.00  0.00    -0.255 OA
BRANCH  33  34
HETATM   34  C11 UNL     1     -11.238   9.184  -1.488  1.00  0.00     0.212 C 
BRANCH  34  35
HETATM   35  C12 UNL     1     -11.696   7.885  -2.084  1.00  0.00     0.201 C 
BRANCH  35  36
HETATM   36  O2  UNL     1     -13.088   7.839  -2.111  1.00  0.00    -0.398 OA
ATOM     37  H2  UNL     1     -13.394   7.036  -1.706  1.00  0.00     0.209 HD
ENDBRANCH  35  36
ENDBRANCH  34  35
BRANCH  34  38
HETATM   38  C13 UNL     1     -11.241  10.349  -2.417  1.00  0.00     0.271 C 
BRANCH  38  39
HETATM   39  N13 UNL     1     -12.606  10.890  -2.387  1.00  0.00    -0.068 N 
ATOM     40 3H13 UNL     1     -13.225  10.468  -3.079  1.00  0.00     0.275 HD
ATOM     41 2H13 UNL     1     -13.135  10.612  -1.561  1.00  0.00     0.275 HD
ATOM     42 1H13 UNL     1     -12.512  11.902  -2.489  1.00  0.00     0.275 HD
ENDBRANCH  38  39
BRANCH  38  43
HETATM   43  C14 UNL     1     -10.226  11.406  -2.192  1.00  0.00     0.287 C 
BRANCH  43  44
HETATM   44  O3  UNL     1      -9.838  11.607  -0.888  1.00  0.00    -0.369 OA
ATOM     45  H3  UNL     1      -9.724  12.511  -0.619  1.00  0.00     0.212 HD
ENDBRANCH  43  44
BRANCH  43  46
HETATM   46  O4  UNL     1      -9.157  11.362  -3.105  1.00  0.00    -0.369 OA
ATOM     47  H4  UNL     1      -8.333  11.098  -2.712  1.00  0.00     0.212 HD
ENDBRANCH  43  46
ENDBRANCH  38  43
ENDBRANCH  34  38
ENDBRANCH  33  34
ENDBRANCH  30  33
ENDBRANCH   9  29
BRANCH   4  48
HETATM   48  N8  UNL     1     -16.079  14.628   0.310  1.00  0.00    -0.234 N 
ATOM     49  H82 UNL     1     -16.261  15.364   0.992  1.00  0.00     0.174 HD
ATOM     50  H81 UNL     1     -16.643  14.630  -0.540  1.00  0.00     0.174 HD
ENDBRANCH   4  48
TORSDOF 15
ENDMDL
MODEL 2
REMARK VINA RESULT: -7.040691152      2.801      7.651
REMARK  15 active torsions:
REMARK  status: ('A' for Active; 'I' for Inactive)
REMARK    1  A    between atoms: C2_2  and  N1_5 
REMARK    2  A    between atoms: C5_12  and  C6_13 
REMARK    3  A    between atoms: C6_13  and  N6_17 
REMARK    4  A    between atoms: N6_17  and  C7_18 
REMARK    5  A    between atoms: C8_21  and  N8_22 
REMARK    6  A    between atoms: C10_29  and  N11_30 
REMARK    7  A    between atoms: N12_32  and  O1_34 
REMARK    8  A    between atoms: O1_34  and  C11_35 
REMARK    9  A    between atoms: C11_35  and  C12_36 
REMARK   10  A    between atoms: C11_35  and  C13_39 
REMARK   11  A    between atoms: C12_36  and  O2_37 
REMARK   12  A    between atoms: C13_39  and  N13_40 
REMARK   13  A    between atoms: C13_39  and  C14_44 
REMARK   14  A    between atoms: C14_44  and  O3_45 
REMARK   15  A    between atoms: C14_44  and  O4_47 
ROOT
HETATM    1  C7  UNL     1     -10.861   6.068   1.269  1.00  0.00     0.227 A 
HETATM    2  N7  UNL     1      -9.644   6.165   1.892  1.00  0.00    -0.162 N 
ATOM      3  H7  UNL     1      -9.123   7.032   1.761  1.00  0.00     0.187 HD
HETATM    4  C8  UNL     1      -9.086   5.240   2.645  1.00  0.00     0.679 A 
HETATM    5  N9  UNL     1      -9.768   4.095   2.820  1.00  0.00    -0.177 N 
ATOM      6  H9  UNL     1      -9.359   3.361   3.399  1.00  0.00     0.185 HD
HETATM    7  C9  UNL     1     -10.974   3.882   2.257  1.00  0.00     0.165 A 
HETATM    8  N10 UNL     1     -11.681   2.653   2.463  1.00  0.00    -0.079 NA
HETATM    9  C10 UNL     1     -11.562   4.845   1.470  1.00  0.00     0.150 A 
ENDROOT
BRANCH   1  10
HETATM   10  N6  UNL     1     -11.330   6.903   0.605  1.00  0.00    -0.364 NA
BRANCH  10  11
HETATM   11  C6  UNL     1     -11.848   7.841  -0.138  1.00  0.00     0.209 C 
HETATM   12  N5  UNL     1     -12.794   7.608  -1.059  1.00  0.00    -0.372 N 
ATOM     13  H52 UNL     1     -13.199   8.341  -1.640  1.00  0.00     0.158 HD
ATOM     14  H51 UNL     1     -13.047   6.621  -1.101  1.00  0.00     0.158 HD
BRANCH  11  15
HETATM   15  C5  UNL     1     -11.482   9.268  -0.076  1.00  0.00     0.177 A 
HETATM   16  N4  UNL     1     -10.322   9.750  -0.602  1.00  0.00    -0.276 N 
HETATM   17  N3  UNL     1     -10.036  11.015  -0.502  1.00  0.00    -0.227 N 
ATOM     18  H4  UNL     1      -9.678   9.118  -1.076  1.00  0.00     0.189 HD
HETATM   19  N2  UNL     1     -10.822  11.898   0.096  1.00  0.00    -0.222 N 
ATOM     20  H3  UNL     1      -9.159  11.344  -0.905  1.00  0.00     0.210 HD
HETATM   21  N1  UNL     1     -11.954  11.516   0.626  1.00  0.00    -0.231 N 
ATOM     22  H2  UNL     1     -10.542  12.878   0.144  1.00  0.00     0.210 HD
HETATM   23  C15 UNL     1     -12.286  10.189   0.539  1.00  0.00     0.297 A 
HETATM   24  O5  UNL     1     -13.375   9.808   1.048  1.00  0.00    -0.264 OA
BRANCH  21  25
HETATM   25  C2  UNL     1     -12.897  12.393   1.298  1.00  0.00     0.048 C 
HETATM   26  C1  UNL     1     -14.173  12.405   0.509  1.00  0.00     0.040 C 
HETATM   27  C3  UNL     1     -12.290  13.804   1.266  1.00  0.00     0.040 C 
HETATM   28  C4  UNL     1     -13.124  12.025   2.735  1.00  0.00     0.040 C 
ENDBRANCH  21  25
ENDBRANCH  11  15
ENDBRANCH  10  11
ENDBRANCH   1  10
BRANCH   9  29
HETATM   29  N11 UNL     1     -12.809   4.650   0.888  1.00  0.00    -0.274 N 
HETATM   30  N12 UNL     1     -13.944   5.031   1.049  1.00  0.00    -0.206 N 
ATOM     31  H12 UNL     1     -14.675   4.689   0.426  1.00  0.00     0.216 HD
ATOM     32  H11 UNL     1     -12.749   4.001   0.103  1.00  0.00     0.189 HD
BRANCH  30  33
HETATM   33  O1  UNL     1     -14.278   5.917   2.054  1.00  0.00    -0.255 OA
BRANCH  33  34
HETATM   34  C11 UNL     1     -15.032   7.111   1.837  1.00  0.00     0.212 C 
BRANCH  34  35
HETATM   35  C12 UNL     1     -16.168   6.868   0.886  1.00  0.00     0.201 C 
BRANCH  35  36
HETATM   36  O2  UNL     1     -15.703   6.899  -0.427  1.00  0.00    -0.398 OA
ATOM     37  H2  UNL     1     -16.381   6.592  -1.018  1.00  0.00     0.209 HD
ENDBRANCH  35  36
ENDBRANCH  34  35
BRANCH  34  38
HETATM   38  C13 UNL     1     -15.425   7.595   3.190  1.00  0.00     0.271 C 
BRANCH  38  39
HETATM   39  N13 UNL     1     -15.127   9.033   3.212  1.00  0.00    -0.068 N 
ATOM     40 3H13 UNL     1     -15.469   9.531   2.390  1.00  0.00     0.275 HD
ATOM     41 2H13 UNL     1     -15.669   9.549   3.905  1.00  0.00     0.275 HD
ATOM     42 1H13 UNL     1     -14.118   9.111   3.344  1.00  0.00     0.275 HD
ENDBRANCH  38  39
BRANCH  38  43
HETATM   43  C14 UNL     1     -16.808   7.314   3.642  1.00  0.00     0.287 C 
BRANCH  43  44
HETATM   44  O3  UNL     1     -16.967   6.236   4.481  1.00  0.00    -0.369 OA
ATOM     45  H3  UNL     1     -17.711   6.268   5.070  1.00  0.00     0.212 HD
ENDBRANCH  43  44
BRANCH  43  46
HETATM   46  O4  UNL     1     -17.511   8.462   4.051  1.00  0.00    -0.369 OA
ATOM     47  H4  UNL     1     -18.424   8.463   3.788  1.00  0.00     0.212 HD
ENDBRANCH  43  46
ENDBRANCH  38  43
ENDBRANCH  34  38
ENDBRANCH  33  34
ENDBRANCH  30  33
ENDBRANCH   9  29
BRANCH   4  48
HETATM   48  N8  UNL     1      -7.917   5.371   3.218  1.00  0.00    -0.234 N 
ATOM     49  H82 UNL     1      -7.225   5.986   2.790  1.00  0.00     0.174 HD
ATOM     50  H81 UNL     1      -7.648   4.897   4.081  1.00  0.00     0.174 HD
ENDBRANCH   4  48
TORSDOF 15
ENDMDL
MODEL 3
REMARK VINA RESULT: -6.945698573      2.078      5.713
REMARK  15 active torsions:
REMARK  status: ('A' for Active; 'I' for Inactive)
REMARK    1  A    between atoms: C2_2  and  N1_5 
REMARK    2  A    between atoms: C5_12  and  C6_13 
REMARK    3  A    between atoms: C6_13  and  N6_17 
REMARK    4  A    between atoms: N6_17  and  C7_18 
REMARK    5  A    between atoms: C8_21  and  N8_22 
REMARK    6  A    between atoms: C10_29  and  N11_30 
REMARK    7  A    between atoms: N12_32  and  O1_34 
REMARK    8  A    between atoms: O1_34  and  C11_35 
REMARK    9  A    between atoms: C11_35  and  C12_36 
REMARK   10  A    between atoms: C11_35  and  C13_39 
REMARK   11  A    between atoms: C12_36  and  O2_37 
REMARK   12  A    between atoms: C13_39  and  N13_40 
REMARK   13  A    between atoms: C13_39  and  C14_44 
REMARK   14  A    between atoms: C14_44  and  O3_45 
REMARK   15  A    between atoms: C14_44  and  O4_47 
ROOT
HETATM    1  C7  UNL     1     -15.685  10.320   1.909  1.00  0.00     0.227 A 
HETATM    2  N7  UNL     1     -16.864  10.897   1.513  1.00  0.00    -0.162 N 
ATOM      3  H7  UNL     1     -16.881  11.915   1.442  1.00  0.00     0.187 HD
HETATM    4  C8  UNL     1     -17.977  10.258   1.217  1.00  0.00     0.679 A 
HETATM    5  N9  UNL     1     -17.958   8.917   1.311  1.00  0.00    -0.177 N 
ATOM      6  H9  UNL     1     -18.807   8.396   1.087  1.00  0.00     0.185 HD
HETATM    7  C9  UNL     1     -16.859   8.237   1.690  1.00  0.00     0.165 A 
HETATM    8  N10 UNL     1     -16.867   6.806   1.779  1.00  0.00    -0.079 NA
HETATM    9  C10 UNL     1     -15.694   8.900   2.000  1.00  0.00     0.150 A 
ENDROOT
BRANCH   1  10
HETATM   10  N6  UNL     1     -14.715  10.913   2.167  1.00  0.00    -0.364 NA
BRANCH  10  11
HETATM   11  C6  UNL     1     -13.631  11.573   2.462  1.00  0.00     0.209 C 
HETATM   12  N5  UNL     1     -13.313  11.939   3.712  1.00  0.00    -0.372 N 
ATOM     13  H52 UNL     1     -12.464  12.455   3.943  1.00  0.00     0.158 HD
ATOM     14  H51 UNL     1     -14.018  11.641   4.386  1.00  0.00     0.158 HD
BRANCH  11  15
HETATM   15  C5  UNL     1     -12.611  12.003   1.488  1.00  0.00     0.177 A 
HETATM   16  N4  UNL     1     -12.316  13.314   1.268  1.00  0.00    -0.276 N 
HETATM   17  N3  UNL     1     -11.423  13.642   0.381  1.00  0.00    -0.227 N 
ATOM     18  H4  UNL     1     -12.795  14.040   1.800  1.00  0.00     0.189 HD
HETATM   19  N2  UNL     1     -10.756  12.759  -0.348  1.00  0.00    -0.222 N 
ATOM     20  H3  UNL     1     -11.225  14.633   0.238  1.00  0.00     0.210 HD
HETATM   21  N1  UNL     1     -10.980  11.480  -0.196  1.00  0.00    -0.231 N 
ATOM     22  H2  UNL     1     -10.067  13.078  -1.030  1.00  0.00     0.210 HD
HETATM   23  C15 UNL     1     -11.917  11.099   0.730  1.00  0.00     0.297 A 
HETATM   24  O5  UNL     1     -12.143   9.869   0.884  1.00  0.00    -0.264 OA
BRANCH  21  25
HETATM   25  C2  UNL     1     -10.308  10.424  -0.931  1.00  0.00     0.048 C 
HETATM   26  C1  UNL     1      -9.399   9.697   0.016  1.00  0.00     0.040 C 
HETATM   27  C3  UNL     1      -9.447  11.109  -2.004  1.00  0.00     0.040 C 
HETATM   28  C4  UNL     1     -11.256   9.494  -1.630  1.00  0.00     0.040 C 
ENDBRANCH  21  25
ENDBRANCH  11  15
ENDBRANCH  10  11
ENDBRANCH   1  10
BRANCH   9  29
HETATM   29  N11 UNL     1     -14.546   8.216   2.385  1.00  0.00    -0.274 N 
HETATM   30  N12 UNL     1     -13.719   7.496   1.877  1.00  0.00    -0.206 N 
ATOM     31  H12 UNL     1     -12.956   7.136   2.451  1.00  0.00     0.216 HD
ATOM     32  H11 UNL     1     -14.345   8.364   3.374  1.00  0.00     0.189 HD
BRANCH  30  33
HETATM   33  O1  UNL     1     -13.777   7.148   0.543  1.00  0.00    -0.255 OA
BRANCH  33  34
HETATM   34  C11 UNL     1     -12.816   6.306  -0.097  1.00  0.00     0.212 C 
BRANCH  34  35
HETATM   35  C12 UNL     1     -12.026   5.524   0.911  1.00  0.00     0.201 C 
BRANCH  35  36
HETATM   36  O2  UNL     1     -12.889   4.827   1.754  1.00  0.00    -0.398 OA
ATOM     37  H2  UNL     1     -13.788   5.077   1.575  1.00  0.00     0.209 HD
ENDBRANCH  35  36
ENDBRANCH  34  35
BRANCH  34  38
HETATM   38  C13 UNL     1     -13.582   5.490  -1.081  1.00  0.00     0.271 C 
BRANCH  38  39
HETATM   39  N13 UNL     1     -12.868   4.212  -1.194  1.00  0.00    -0.068 N 
ATOM     40 3H13 UNL     1     -12.832   3.851  -2.147  1.00  0.00     0.275 HD
ATOM     41 2H13 UNL     1     -11.861   4.296  -1.055  1.00  0.00     0.275 HD
ATOM     42 1H13 UNL     1     -13.318   3.576  -0.535  1.00  0.00     0.275 HD
ENDBRANCH  38  39
BRANCH  38  43
HETATM   43  C14 UNL     1     -15.028   5.290  -0.824  1.00  0.00     0.287 C 
BRANCH  43  44
HETATM   44  O3  UNL     1     -15.355   4.656   0.351  1.00  0.00    -0.369 OA
ATOM     45  H3  UNL     1     -14.673   4.126   0.745  1.00  0.00     0.212 HD
ENDBRANCH  43  44
BRANCH  43  46
HETATM   46  O4  UNL     1     -15.809   6.429  -1.094  1.00  0.00    -0.369 OA
ATOM     47  H4  UNL     1     -15.393   7.244  -0.841  1.00  0.00     0.212 HD
ENDBRANCH  43  46
ENDBRANCH  38  43
ENDBRANCH  34  38
ENDBRANCH  33  34
ENDBRANCH  30  33
ENDBRANCH   9  29
BRANCH   4  48
HETATM   48  N8  UNL     1     -19.084  10.849   0.849  1.00  0.00    -0.234 N 
ATOM     49  H82 UNL     1     -19.217  11.833   1.082  1.00  0.00     0.174 HD
ATOM     50  H81 UNL     1     -19.832  10.388   0.332  1.00  0.00     0.174 HD
ENDBRANCH   4  48
TORSDOF 15
ENDMDL
MODEL 4
REMARK VINA RESULT: -6.878169574      0.911      1.905
REMARK  15 active torsions:
REMARK  status: ('A' for Active; 'I' for Inactive)
REMARK    1  A    between atoms: C2_2  and  N1_5 
REMARK    2  A    between atoms: C5_12  and  C6_13 
REMARK    3  A    between atoms: C6_13  and  N6_17 
REMARK    4  A    between atoms: N6_17  and  C7_18 
REMARK    5  A    between atoms: C8_21  and  N8_22 
REMARK    6  A    between atoms: C10_29  and  N11_30 
REMARK    7  A    between atoms: N12_32  and  O1_34 
REMARK    8  A    between atoms: O1_34  and  C11_35 
REMARK    9  A    between atoms: C11_35  and  C12_36 
REMARK   10  A    between atoms: C11_35  and  C13_39 
REMARK   11  A    between atoms: C12_36  and  O2_37 
REMARK   12  A    between atoms: C13_39  and  N13_40 
REMARK   13  A    between atoms: C13_39  and  C14_44 
REMARK   14  A    between atoms: C14_44  and  O3_45 
REMARK   15  A    between atoms: C14_44  and  O4_47 
ROOT
HETATM    1  C7  UNL     1     -14.368  11.616   1.299  1.00  0.00     0.227 A 
HETATM    2  N7  UNL     1     -15.312  12.571   1.025  1.00  0.00    -0.162 N 
ATOM      3  H7  UNL     1     -16.284  12.334   1.227  1.00  0.00     0.187 HD
HETATM    4  C8  UNL     1     -15.080  13.766   0.524  1.00  0.00     0.679 A 
HETATM    5  N9  UNL     1     -13.801  14.082   0.255  1.00  0.00    -0.177 N 
ATOM      6  H9  UNL     1     -13.592  15.002  -0.133  1.00  0.00     0.185 HD
HETATM    7  C9  UNL     1     -12.785  13.225   0.480  1.00  0.00     0.165 A 
HETATM    8  N10 UNL     1     -11.431  13.590   0.187  1.00  0.00    -0.079 NA
HETATM    9  C10 UNL     1     -13.023  11.975   1.004  1.00  0.00     0.150 A 
ENDROOT
BRANCH   1  10
HETATM   10  N6  UNL     1     -14.604  10.563   1.740  1.00  0.00    -0.364 NA
BRANCH  10  11
HETATM   11  C6  UNL     1     -14.868   9.389   2.241  1.00  0.00     0.209 C 
HETATM   12  N5  UNL     1     -15.110   9.184   3.543  1.00  0.00    -0.372 N 
ATOM     13  H52 UNL     1     -15.317   8.265   3.935  1.00  0.00     0.158 HD
ATOM     14  H51 UNL     1     -15.059  10.050   4.079  1.00  0.00     0.158 HD
BRANCH  11  15
HETATM   15  C5  UNL     1     -14.942   8.136   1.465  1.00  0.00     0.177 A 
HETATM   16  N4  UNL     1     -16.089   7.713   0.867  1.00  0.00    -0.276 N 
HETATM   17  N3  UNL     1     -16.108   6.589   0.212  1.00  0.00    -0.227 N 
ATOM     18  H4  UNL     1     -16.936   8.278   0.932  1.00  0.00     0.189 HD
HETATM   19  N2  UNL     1     -15.050   5.801   0.080  1.00  0.00    -0.222 N 
ATOM     20  H3  UNL     1     -16.983   6.298  -0.224  1.00  0.00     0.210 HD
HETATM   21  N1  UNL     1     -13.910   6.137   0.624  1.00  0.00    -0.231 N 
ATOM     22  H2  UNL     1     -15.126   4.930  -0.446  1.00  0.00     0.210 HD
HETATM   23  C15 UNL     1     -13.856   7.316   1.323  1.00  0.00     0.297 A 
HETATM   24  O5  UNL     1     -12.762   7.650   1.853  1.00  0.00    -0.264 OA
BRANCH  21  25
HETATM   25  C2  UNL     1     -12.686   5.360   0.541  1.00  0.00     0.048 C 
HETATM   26  C1  UNL     1     -12.715   4.573  -0.736  1.00  0.00     0.040 C 
HETATM   27  C3  UNL     1     -12.705   4.377   1.720  1.00  0.00     0.040 C 
HETATM   28  C4  UNL     1     -11.446   6.196   0.661  1.00  0.00     0.040 C 
ENDBRANCH  21  25
ENDBRANCH  11  15
ENDBRANCH  10  11
ENDBRANCH   1  10
BRANCH   9  29
HETATM   29  N11 UNL     1     -11.989  11.081   1.252  1.00  0.00    -0.274 N 
HETATM   30  N12 UNL     1     -11.390  10.214   0.659  1.00  0.00    -0.206 N 
ATOM     31  H12 UNL     1     -10.643   9.711   1.138  1.00  0.00     0.216 HD
ATOM     32  H11 UNL     1     -11.635  11.184   2.203  1.00  0.00     0.189 HD
BRANCH  30  33
HETATM   33  O1  UNL     1     -11.690   9.887  -0.647  1.00  0.00    -0.255 OA
BRANCH  33  34
HETATM   34  C11 UNL     1     -10.881  10.266  -1.763  1.00  0.00     0.212 C 
BRANCH  34  35
HETATM   35  C12 UNL     1      -9.478  10.581  -1.331  1.00  0.00     0.201 C 
BRANCH  35  36
HETATM   36  O2  UNL     1      -9.441  11.826  -0.708  1.00  0.00    -0.398 OA
ATOM     37  H2  UNL     1      -8.879  11.789   0.057  1.00  0.00     0.209 HD
ENDBRANCH  35  36
ENDBRANCH  34  35
BRANCH  34  38
HETATM   38  C13 UNL     1     -11.011   9.161  -2.754  1.00  0.00     0.271 C 
BRANCH  38  39
HETATM   39  N13 UNL     1     -10.214   8.046  -2.229  1.00  0.00    -0.068 N 
ATOM     40 3H13 UNL     1     -10.592   7.645  -1.371  1.00  0.00     0.275 HD
ATOM     41 2H13 UNL     1     -10.272   7.201  -2.798  1.00  0.00     0.275 HD
ATOM     42 1H13 UNL     1      -9.262   8.402  -2.126  1.00  0.00     0.275 HD
ENDBRANCH  38  39
BRANCH  38  43
HETATM   43  C14 UNL     1     -12.381   8.731  -3.122  1.00  0.00     0.287 C 
BRANCH  43  44
HETATM   44  O3  UNL     1     -12.979   7.821  -2.282  1.00  0.00    -0.369 OA
ATOM     45  H3  UNL     1     -13.925   7.872  -2.213  1.00  0.00     0.212 HD
ENDBRANCH  43  44
BRANCH  43  46
HETATM   46  O4  UNL     1     -13.221   9.793  -3.502  1.00  0.00    -0.369 OA
ATOM     47  H4  UNL     1     -13.910   9.537  -4.104  1.00  0.00     0.212 HD
ENDBRANCH  43  46
ENDBRANCH  38  43
ENDBRANCH  34  38
ENDBRANCH  33  34
ENDBRANCH  30  33
ENDBRANCH   9  29
BRANCH   4  48
HETATM   48  N8  UNL     1     -16.013  14.648   0.273  1.00  0.00    -0.234 N 
ATOM     49  H82 UNL     1     -16.751  14.793   0.961  1.00  0.00     0.174 HD
ATOM     50  H81 UNL     1     -16.051  15.212  -0.577  1.00  0.00     0.174 HD
ENDBRANCH   4  48
TORSDOF 15
ENDMDL
MODEL 5
REMARK VINA RESULT: -6.746859425      2.433      6.308
REMARK  15 active torsions:
REMARK  status: ('A' for Active; 'I' for Inactive)
REMARK    1  A    between atoms: C2_2  and  N1_5 
REMARK    2  A    between atoms: C5_12  and  C6_13 
REMARK    3  A    between atoms: C6_13  and  N6_17 
REMARK    4  A    between atoms: N6_17  and  C7_18 
REMARK    5  A    between atoms: C8_21  and  N8_22 
REMARK    6  A    between atoms: C10_29  and  N11_30 
REMARK    7  A    between atoms: N12_32  and  O1_34 
REMARK    8  A    between atoms: O1_34  and  C11_35 
REMARK    9  A    between atoms: C11_35  and  C12_36 
REMARK   10  A    between atoms: C11_35  and  C13_39 
REMARK   11  A    between atoms: C12_36  and  O2_37 
REMARK   12  A    between atoms: C13_39  and  N13_40 
REMARK   13  A    between atoms: C13_39  and  C14_44 
REMARK   14  A    between atoms: C14_44  and  O3_45 
REMARK   15  A    between atoms: C14_44  and  O4_47 
ROOT
HETATM    1  C7  UNL     1     -14.997   8.801   2.405  1.00  0.00     0.227 A 
HETATM    2  N7  UNL     1     -15.882   8.911   3.445  1.00  0.00    -0.162 N 
ATOM      3  H7  UNL     1     -15.698   9.638   4.137  1.00  0.00     0.187 HD
HETATM    4  C8  UNL     1     -16.949   8.162   3.634  1.00  0.00     0.679 A 
HETATM    5  N9  UNL     1     -17.195   7.202   2.726  1.00  0.00    -0.177 N 
ATOM      6  H9  UNL     1     -18.015   6.608   2.848  1.00  0.00     0.185 HD
HETATM    7  C9  UNL     1     -16.396   6.997   1.661  1.00  0.00     0.165 A 
HETATM    8  N10 UNL     1     -16.684   5.968   0.706  1.00  0.00    -0.079 NA
HETATM    9  C10 UNL     1     -15.280   7.777   1.458  1.00  0.00     0.150 A 
ENDROOT
BRANCH   1  10
HETATM   10  N6  UNL     1     -14.058   9.478   2.264  1.00  0.00    -0.364 NA
BRANCH  10  11
HETATM   11  C6  UNL     1     -13.005  10.229   2.103  1.00  0.00     0.209 C 
HETATM   12  N5  UNL     1     -12.762  11.320   2.843  1.00  0.00    -0.372 N 
ATOM     13  H52 UNL     1     -11.938  11.908   2.718  1.00  0.00     0.158 HD
ATOM     14  H51 UNL     1     -13.496  11.481   3.533  1.00  0.00     0.158 HD
BRANCH  11  15
HETATM   15  C5  UNL     1     -11.944   9.995   1.106  1.00  0.00     0.177 A 
HETATM   16  N4  UNL     1     -10.864   9.205   1.357  1.00  0.00    -0.276 N 
HETATM   17  N3  UNL     1      -9.944   9.049   0.451  1.00  0.00    -0.227 N 
ATOM     18  H4  UNL     1     -10.776   8.735   2.258  1.00  0.00     0.189 HD
HETATM   19  N2  UNL     1      -9.988   9.623  -0.743  1.00  0.00    -0.222 N 
ATOM     20  H3  UNL     1      -9.147   8.452   0.670  1.00  0.00     0.210 HD
HETATM   21  N1  UNL     1     -10.993  10.396  -1.063  1.00  0.00    -0.231 N 
ATOM     22  H2  UNL     1      -9.235   9.463  -1.413  1.00  0.00     0.210 HD
HETATM   23  C15 UNL     1     -11.979  10.583  -0.130  1.00  0.00     0.297 A 
HETATM   24  O5  UNL     1     -12.953  11.327  -0.427  1.00  0.00    -0.264 OA
BRANCH  21  25
HETATM   25  C2  UNL     1     -11.151  11.070  -2.339  1.00  0.00     0.048 C 
HETATM   26  C1  UNL     1     -12.136  10.294  -3.163  1.00  0.00     0.040 C 
HETATM   27  C3  UNL     1      -9.784  11.020  -3.039  1.00  0.00     0.040 C 
HETATM   28  C4  UNL     1     -11.542  12.512  -2.201  1.00  0.00     0.040 C 
ENDBRANCH  21  25
ENDBRANCH  11  15
ENDBRANCH  10  11
ENDBRANCH   1  10
BRANCH   9  29
HETATM   29  N11 UNL     1     -14.449   7.588   0.361  1.00  0.00    -0.274 N 
HETATM   30  N12 UNL     1     -13.473   6.933   0.076  1.00  0.00    -0.206 N 
ATOM     31  H12 UNL     1     -13.074   7.018  -0.858  1.00  0.00     0.216 HD
ATOM     32  H11 UNL     1     -14.744   8.164  -0.427  1.00  0.00     0.189 HD
BRANCH  30  33
HETATM   33  O1  UNL     1     -12.885   6.074   0.982  1.00  0.00    -0.255 OA
BRANCH  33  34
HETATM   34  C11 UNL     1     -11.952   5.056   0.614  1.00  0.00     0.212 C 
BRANCH  34  35
HETATM   35  C12 UNL     1     -10.559   5.419   1.042  1.00  0.00     0.201 C 
BRANCH  35  36
HETATM   36  O2  UNL     1     -10.604   6.446   1.983  1.00  0.00    -0.398 OA
ATOM     37  H2  UNL     1      -9.922   6.319   2.633  1.00  0.00     0.209 HD
ENDBRANCH  35  36
ENDBRANCH  34  35
BRANCH  34  38
HETATM   38  C13 UNL     1     -12.486   3.788   1.188  1.00  0.00     0.271 C 
BRANCH  38  39
HETATM   39  N13 UNL     1     -11.728   3.549   2.423  1.00  0.00    -0.068 N 
ATOM     40 3H13 UNL     1     -11.864   4.270   3.130  1.00  0.00     0.275 HD
ATOM     41 2H13 UNL     1     -12.084   2.767   2.973  1.00  0.00     0.275 HD
ATOM     42 1H13 UNL     1     -10.754   3.436   2.140  1.00  0.00     0.275 HD
ENDBRANCH  38  39
BRANCH  38  43
HETATM   43  C14 UNL     1     -13.948   3.704   1.416  1.00  0.00     0.287 C 
BRANCH  43  44
HETATM   44  O3  UNL     1     -14.422   4.316   2.552  1.00  0.00    -0.369 OA
ATOM     45  H3  UNL     1     -13.924   4.169   3.347  1.00  0.00     0.212 HD
ENDBRANCH  43  44
BRANCH  43  46
HETATM   46  O4  UNL     1     -14.712   3.968   0.265  1.00  0.00    -0.369 OA
ATOM     47  H4  UNL     1     -14.334   4.633  -0.298  1.00  0.00     0.212 HD
ENDBRANCH  43  46
ENDBRANCH  38  43
ENDBRANCH  34  38
ENDBRANCH  33  34
ENDBRANCH  30  33
ENDBRANCH   9  29
BRANCH   4  48
HETATM   48  N8  UNL     1     -17.767   8.297   4.647  1.00  0.00    -0.234 N 
ATOM     49  H82 UNL     1     -17.492   7.919   5.554  1.00  0.00     0.174 HD
ATOM     50  H81 UNL     1     -18.671   8.765   4.591  1.00  0.00     0.174 HD
ENDBRANCH   4  48
TORSDOF 15
ENDMDL
