MODEL 1
REMARK VINA RESULT: -8.225863804      0.000      0.000
REMARK  3 active torsions:
REMARK  status: ('A' for Active; 'I' for Inactive)
REMARK    1  A    between atoms: C6_7  and  O1_8 
REMARK    2  A    between atoms: C6_7  and  C7_10 
REMARK    3  A    between atoms: C10_13  and  C11_14 
ROOT
HETATM    1  C7  UNL     1       5.173   7.143  17.865  1.00  0.00     0.010 A 
HETATM    2  C8  UNL     1       4.291   6.273  18.454  1.00  0.00     0.013 A 
HETATM    3  C9  UNL     1       4.026   6.298  19.811  1.00  0.00     0.011 A 
HETATM    4  C10 UNL     1       4.667   7.222  20.586  1.00  0.00    -0.015 A 
HETATM    5  C17 UNL     1       5.557   8.104  20.014  1.00  0.00     0.123 A 
HETATM    6  F1  UNL     1       6.233   9.047  20.752  1.00  0.00    -0.206 F 
HETATM    7  C18 UNL     1       5.811   8.066  18.657  1.00  0.00     0.055 A 
ENDROOT
BRANCH   1   8
HETATM    8  C6  UNL     1       5.450   7.121  16.419  1.00  0.00     0.286 C 
HETATM    9  N1  UNL     1       5.023   8.285  15.705  1.00  0.00     0.124 N 
HETATM   10  C1  UNL     1       3.668   8.664  15.980  1.00  0.00     0.314 C 
HETATM   11  C2  UNL     1       5.081   7.978  14.273  1.00  0.00     0.276 C 
HETATM   12  C3  UNL     1       6.475   7.593  13.909  1.00  0.00     0.030 C 
HETATM   13  C4  UNL     1       7.400   7.813  15.105  1.00  0.00     0.007 C 
HETATM   14  C5  UNL     1       6.943   6.904  16.221  1.00  0.00     0.077 C 
BRANCH   8  15
HETATM   15  O1  UNL     1       4.815   6.019  15.848  1.00  0.00    -0.359 OA
ATOM     16  H1  UNL     1       5.063   5.987  14.931  1.00  0.00     0.213 HD
ENDBRANCH   8  15
ENDBRANCH   1   8
BRANCH   4  17
HETATM   17  C11 UNL     1       4.439   7.346  22.052  1.00  0.00     0.022 C 
HETATM   18  C12 UNL     1       5.611   6.906  22.864  1.00  0.00     0.009 C 
HETATM   19  C13 UNL     1       5.303   7.070  24.318  1.00  0.00     0.001 C 
HETATM   20  C14 UNL     1       4.018   6.451  24.767  1.00  0.00     0.000 C 
HETATM   21  C15 UNL     1       2.875   6.860  23.849  1.00  0.00     0.001 C 
HETATM   22  C16 UNL     1       3.275   6.427  22.456  1.00  0.00     0.009 C 
ENDBRANCH   4  17
TORSDOF 3
ENDMDL
MODEL 2
REMARK VINA RESULT: -7.765904804      1.115      1.786
REMARK  3 active torsions:
REMARK  status: ('A' for Active; 'I' for Inactive)
REMARK    1  A    between atoms: C6_7  and  O1_8 
REMARK    2  A    between atoms: C6_7  and  C7_10 
REMARK    3  A    between atoms: C10_13  and  C11_14 
ROOT
HETATM    1  C7  UNL     1       5.285   8.140  17.842  1.00  0.00     0.010 A 
HETATM    2  C8  UNL     1       4.630   7.033  18.318  1.00  0.00     0.013 A 
HETATM    3  C9  UNL     1       4.385   6.845  19.666  1.00  0.00     0.011 A 
HETATM    4  C10 UNL     1       4.812   7.795  20.548  1.00  0.00    -0.015 A 
HETATM    5  C17 UNL     1       5.472   8.914  20.091  1.00  0.00     0.123 A 
HETATM    6  F1  UNL     1       5.928   9.896  20.939  1.00  0.00    -0.206 F 
HETATM    7  C18 UNL     1       5.709   9.088  18.741  1.00  0.00     0.055 A 
ENDROOT
BRANCH   1   8
HETATM    8  C6  UNL     1       5.539   8.345  16.407  1.00  0.00     0.286 C 
HETATM    9  N1  UNL     1       6.188   7.255  15.746  1.00  0.00     0.124 N 
HETATM   10  C1  UNL     1       7.357   6.781  16.430  1.00  0.00     0.314 C 
HETATM   11  C2  UNL     1       6.643   7.730  14.437  1.00  0.00     0.276 C 
HETATM   12  C3  UNL     1       5.470   8.221  13.658  1.00  0.00     0.030 C 
HETATM   13  C4  UNL     1       4.181   7.907  14.414  1.00  0.00     0.007 C 
HETATM   14  C5  UNL     1       4.214   8.655  15.726  1.00  0.00     0.077 C 
BRANCH   8  15
HETATM   15  O1  UNL     1       6.339   9.475  16.240  1.00  0.00    -0.359 OA
ATOM     16  H1  UNL     1       5.806  10.237  16.437  1.00  0.00     0.213 HD
ENDBRANCH   8  15
ENDBRANCH   1   8
BRANCH   4  17
HETATM   17  C11 UNL     1       4.582   7.699  22.016  1.00  0.00     0.022 C 
HETATM   18  C12 UNL     1       5.780   7.217  22.764  1.00  0.00     0.009 C 
HETATM   19  C13 UNL     1       5.469   7.156  24.225  1.00  0.00     0.001 C 
HETATM   20  C14 UNL     1       4.224   6.406  24.576  1.00  0.00     0.000 C 
HETATM   21  C15 UNL     1       3.055   6.874  23.720  1.00  0.00     0.001 C 
HETATM   22  C16 UNL     1       3.475   6.665  22.281  1.00  0.00     0.009 C 
ENDBRANCH   4  17
TORSDOF 3
ENDMDL
MODEL 3
REMARK VINA RESULT: -7.727321696      1.866      2.646
REMARK  3 active torsions:
REMARK  status: ('A' for Active; 'I' for Inactive)
REMARK    1  A    between atoms: C6_7  and  O1_8 
REMARK    2  A    between atoms: C6_7  and  C7_10 
REMARK    3  A    between atoms: C10_13  and  C11_14 
ROOT
HETATM    1  C7  UNL     1       5.059   8.725  17.596  1.00  0.00     0.010 A 
HETATM    2  C8  UNL     1       4.080   8.893  18.541  1.00  0.00     0.013 A 
HETATM    3  C9  UNL     1       4.220   8.434  19.838  1.00  0.00     0.011 A 
HETATM    4  C10 UNL     1       5.374   7.791  20.184  1.00  0.00    -0.015 A 
HETATM    5  C17 UNL     1       6.369   7.610  19.249  1.00  0.00     0.123 A 
HETATM    6  F1  UNL     1       7.546   6.963  19.545  1.00  0.00    -0.206 F 
HETATM    7  C18 UNL     1       6.214   8.075  17.958  1.00  0.00     0.055 A 
ENDROOT
BRANCH   1   8
HETATM    8  C6  UNL     1       4.914   9.221  16.218  1.00  0.00     0.286 C 
HETATM    9  N1  UNL     1       3.861   8.612  15.464  1.00  0.00     0.124 N 
HETATM   10  C1  UNL     1       3.873   7.178  15.514  1.00  0.00     0.314 C 
HETATM   11  C2  UNL     1       4.049   8.975  14.057  1.00  0.00     0.276 C 
HETATM   12  C3  UNL     1       4.026  10.460  13.926  1.00  0.00     0.030 C 
HETATM   13  C4  UNL     1       3.647  11.090  15.264  1.00  0.00     0.007 C 
HETATM   14  C5  UNL     1       4.714  10.728  16.270  1.00  0.00     0.077 C 
BRANCH   8  15
HETATM   15  O1  UNL     1       6.106   9.007  15.526  1.00  0.00    -0.359 OA
ATOM     16  H1  UNL     1       6.809   9.384  16.042  1.00  0.00     0.213 HD
ENDBRANCH   8  15
ENDBRANCH   1   8
BRANCH   4  17
HETATM   17  C11 UNL     1       5.633   7.275  21.555  1.00  0.00     0.022 C 
HETATM   18  C12 UNL     1       4.421   7.295  22.426  1.00  0.00     0.009 C 
HETATM   19  C13 UNL     1       4.764   6.756  23.778  1.00  0.00     0.001 C 
HETATM   20  C14 UNL     1       5.956   7.385  24.426  1.00  0.00     0.000 C 
HETATM   21  C15 UNL     1       7.134   7.422  23.463  1.00  0.00     0.001 C 
HETATM   22  C16 UNL     1       6.663   8.185  22.245  1.00  0.00     0.009 C 
ENDBRANCH   4  17
TORSDOF 3
ENDMDL
MODEL 4
REMARK VINA RESULT: -7.720785570      1.897      2.694
REMARK  3 active torsions:
REMARK  status: ('A' for Active; 'I' for Inactive)
REMARK    1  A    between atoms: C6_7  and  O1_8 
REMARK    2  A    between atoms: C6_7  and  C7_10 
REMARK    3  A    between atoms: C10_13  and  C11_14 
ROOT
HETATM    1  C7  UNL     1       4.382   8.678  17.787  1.00  0.00     0.010 A 
HETATM    2  C8  UNL     1       3.655   8.993  18.907  1.00  0.00     0.013 A 
HETATM    3  C9  UNL     1       4.046   8.598  20.173  1.00  0.00     0.011 A 
HETATM    4  C10 UNL     1       5.193   7.870  20.308  1.00  0.00    -0.015 A 
HETATM    5  C17 UNL     1       5.937   7.542  19.195  1.00  0.00     0.123 A 
HETATM    6  F1  UNL     1       7.095   6.806  19.277  1.00  0.00    -0.206 F 
HETATM    7  C18 UNL     1       5.533   7.945  17.937  1.00  0.00     0.055 A 
ENDROOT
BRANCH   1   8
HETATM    8  C6  UNL     1       3.970   9.105  16.439  1.00  0.00     0.286 C 
HETATM    9  N1  UNL     1       4.751  10.163  15.876  1.00  0.00     0.124 N 
HETATM   10  C1  UNL     1       4.924  11.282  16.757  1.00  0.00     0.314 C 
HETATM   11  C2  UNL     1       4.036  10.672  14.703  1.00  0.00     0.276 C 
HETATM   12  C3  UNL     1       3.838   9.561  13.728  1.00  0.00     0.030 C 
HETATM   13  C4  UNL     1       4.591   8.319  14.202  1.00  0.00     0.007 C 
HETATM   14  C5  UNL     1       3.999   7.890  15.524  1.00  0.00     0.077 C 
BRANCH   8  15
HETATM   15  O1  UNL     1       2.644   9.534  16.479  1.00  0.00    -0.359 OA
ATOM     16  H1  UNL     1       2.091   8.762  16.449  1.00  0.00     0.213 HD
ENDBRANCH   8  15
ENDBRANCH   1   8
BRANCH   4  17
HETATM   17  C11 UNL     1       5.712   7.413  21.626  1.00  0.00     0.022 C 
HETATM   18  C12 UNL     1       4.689   7.478  22.711  1.00  0.00     0.009 C 
HETATM   19  C13 UNL     1       5.286   6.997  23.994  1.00  0.00     0.001 C 
HETATM   20  C14 UNL     1       6.578   7.646  24.373  1.00  0.00     0.000 C 
HETATM   21  C15 UNL     1       7.551   7.633  23.202  1.00  0.00     0.001 C 
HETATM   22  C16 UNL     1       6.853   8.346  22.064  1.00  0.00     0.009 C 
ENDBRANCH   4  17
TORSDOF 3
ENDMDL
MODEL 5
REMARK VINA RESULT: -7.713417737      2.837      7.017
REMARK  3 active torsions:
REMARK  status: ('A' for Active; 'I' for Inactive)
REMARK    1  A    between atoms: C6_7  and  O1_8 
REMARK    2  A    between atoms: C6_7  and  C7_10 
REMARK    3  A    between atoms: C10_13  and  C11_14 
ROOT
HETATM    1  C7  UNL     1       4.821   8.291  20.414  1.00  0.00     0.010 A 
HETATM    2  C8  UNL     1       5.363   7.499  19.435  1.00  0.00     0.013 A 
HETATM    3  C9  UNL     1       5.058   7.668  18.098  1.00  0.00     0.011 A 
HETATM    4  C10 UNL     1       4.186   8.657  17.744  1.00  0.00    -0.015 A 
HETATM    5  C17 UNL     1       3.629   9.464  18.713  1.00  0.00     0.123 A 
HETATM    6  F1  UNL     1       2.741  10.469  18.409  1.00  0.00    -0.206 F 
HETATM    7  C18 UNL     1       3.945   9.282  20.045  1.00  0.00     0.055 A 
ENDROOT
BRANCH   1   8
HETATM    8  C6  UNL     1       5.151   8.117  21.838  1.00  0.00     0.286 C 
HETATM    9  N1  UNL     1       4.761   6.861  22.400  1.00  0.00     0.124 N 
HETATM   10  C1  UNL     1       3.400   6.504  22.124  1.00  0.00     0.314 C 
HETATM   11  C2  UNL     1       4.870   6.968  23.858  1.00  0.00     0.276 C 
HETATM   12  C3  UNL     1       6.274   7.317  24.221  1.00  0.00     0.030 C 
HETATM   13  C4  UNL     1       7.155   7.276  22.974  1.00  0.00     0.007 C 
HETATM   14  C5  UNL     1       6.649   8.324  22.011  1.00  0.00     0.077 C 
BRANCH   8  15
HETATM   15  O1  UNL     1       4.529   9.122  22.580  1.00  0.00    -0.359 OA
ATOM     16  H1  UNL     1       4.675   9.945  22.128  1.00  0.00     0.213 HD
ENDBRANCH   8  15
ENDBRANCH   1   8
BRANCH   4  17
HETATM   17  C11 UNL     1       3.806   8.935  16.333  1.00  0.00     0.022 C 
HETATM   18  C12 UNL     1       4.267   7.879  15.385  1.00  0.00     0.009 C 
HETATM   19  C13 UNL     1       3.840   8.229  13.995  1.00  0.00     0.001 C 
HETATM   20  C14 UNL     1       4.204   9.609  13.550  1.00  0.00     0.000 C 
HETATM   21  C15 UNL     1       3.793  10.637  14.596  1.00  0.00     0.001 C 
HETATM   22  C16 UNL     1       4.487  10.237  15.879  1.00  0.00     0.009 C 
ENDBRANCH   4  17
TORSDOF 3
ENDMDL
