MODEL 1
REMARK VINA RESULT: -8.195869016      0.000      0.000
REMARK  3 active torsions:
REMARK  status: ('A' for Active; 'I' for Inactive)
REMARK    1  A    between atoms: C2_2  and  C3_4 
REMARK    2  A    between atoms: C10_11  and  C12_13 
REMARK    3  A    between atoms: N1_15  and  O1_17 
ROOT
HETATM    1  C3  UNL     1       4.890   7.431  22.841  1.00  0.00    -0.032 C 
HETATM    2  C4  UNL     1       6.220   7.193  23.223  1.00  0.00    -0.017 C 
HETATM    3  C5  UNL     1       7.135   7.732  22.221  1.00  0.00     0.034 C 
HETATM    4  C6  UNL     1       6.301   7.678  21.000  1.00  0.00     0.006 C 
HETATM    5  C7  UNL     1       6.671   8.684  19.948  1.00  0.00    -0.004 C 
HETATM    6  C8  UNL     1       7.996   8.422  19.319  1.00  0.00     0.007 C 
HETATM    7  C9  UNL     1       7.778   8.876  17.900  1.00  0.00     0.018 C 
HETATM    8  C10 UNL     1       6.369   8.378  17.583  1.00  0.00     0.032 C 
HETATM    9  C11 UNL     1       5.831   9.290  16.495  1.00  0.00     0.025 C 
HETATM   10  C13 UNL     1       5.623   8.569  18.858  1.00  0.00     0.006 C 
HETATM   11  C14 UNL     1       4.610   7.521  19.147  1.00  0.00     0.007 C 
HETATM   12  C15 UNL     1       3.965   7.715  20.508  1.00  0.00     0.015 C 
HETATM   13  C16 UNL     1       4.960   8.118  21.568  1.00  0.00    -0.011 C 
HETATM   14  C17 UNL     1       4.943   9.610  21.824  1.00  0.00     0.021 C 
ENDROOT
BRANCH   8  15
HETATM   15  C12 UNL     1       6.487   7.007  17.096  1.00  0.00     0.193 C 
HETATM   16  F1  UNL     1       7.103   6.031  17.794  1.00  0.00    -0.189 F 
HETATM   17  N1  UNL     1       5.987   6.708  15.956  1.00  0.00    -0.246 N 
ATOM     18  H1  UNL     1       5.514   7.422  15.402  1.00  0.00     0.196 HD
BRANCH  17  19
HETATM   19  O1  UNL     1       6.087   5.429  15.481  1.00  0.00    -0.288 OA
ATOM     20  H1  UNL     1       6.086   5.270  14.545  1.00  0.00     0.244 HD
ENDBRANCH  17  19
ENDBRANCH   8  15
BRANCH   1  21
HETATM   21  C2  UNL     1       3.925   6.954  23.737  1.00  0.00     0.031 C 
HETATM   22  C1  UNL     1       3.078   6.534  24.525  1.00  0.00     0.037 C 
HETATM   23 CL1  UNL     1       3.382   5.332  22.439  1.00  0.00    -0.085 Cl
ENDBRANCH   1  21
TORSDOF 3
ENDMDL
MODEL 2
REMARK VINA RESULT: -8.078873965      3.153      3.786
REMARK  3 active torsions:
REMARK  status: ('A' for Active; 'I' for Inactive)
REMARK    1  A    between atoms: C2_2  and  C3_4 
REMARK    2  A    between atoms: C10_11  and  C12_13 
REMARK    3  A    between atoms: N1_15  and  O1_17 
ROOT
HETATM    1  C3  UNL     1       4.047   7.106  21.903  1.00  0.00    -0.032 C 
HETATM    2  C4  UNL     1       3.479   6.235  20.959  1.00  0.00    -0.017 C 
HETATM    3  C5  UNL     1       3.936   6.581  19.617  1.00  0.00     0.034 C 
HETATM    4  C6  UNL     1       4.227   8.024  19.766  1.00  0.00     0.006 C 
HETATM    5  C7  UNL     1       5.261   8.553  18.814  1.00  0.00    -0.004 C 
HETATM    6  C8  UNL     1       4.806   8.569  17.395  1.00  0.00     0.007 C 
HETATM    7  C9  UNL     1       5.482   9.798  16.850  1.00  0.00     0.018 C 
HETATM    8  C10 UNL     1       5.346  10.809  17.988  1.00  0.00     0.032 C 
HETATM    9  C11 UNL     1       6.490  11.793  17.819  1.00  0.00     0.025 C 
HETATM   10  C13 UNL     1       5.522   9.991  19.220  1.00  0.00     0.006 C 
HETATM   11  C14 UNL     1       4.689  10.419  20.373  1.00  0.00     0.007 C 
HETATM   12  C15 UNL     1       4.834   9.481  21.558  1.00  0.00     0.015 C 
HETATM   13  C16 UNL     1       4.866   8.030  21.146  1.00  0.00    -0.011 C 
HETATM   14  C17 UNL     1       6.280   7.488  21.092  1.00  0.00     0.021 C 
ENDROOT
BRANCH   8  15
HETATM   15  C12 UNL     1       4.060  11.480  17.829  1.00  0.00     0.193 C 
HETATM   16  F1  UNL     1       2.880  10.863  18.041  1.00  0.00    -0.189 F 
HETATM   17  N1  UNL     1       4.041  12.709  17.471  1.00  0.00    -0.246 N 
ATOM     18  H1  UNL     1       4.916  13.206  17.303  1.00  0.00     0.196 HD
BRANCH  17  19
HETATM   19  O1  UNL     1       2.846  13.356  17.316  1.00  0.00    -0.288 OA
ATOM     20  H1  UNL     1       2.237  13.406  18.043  1.00  0.00     0.244 HD
ENDBRANCH  17  19
ENDBRANCH   8  15
BRANCH   1  21
HETATM   21  C2  UNL     1       3.674   6.860  23.230  1.00  0.00     0.031 C 
HETATM   22  C1  UNL     1       3.346   6.645  24.397  1.00  0.00     0.037 C 
HETATM   23 CL1  UNL     1       5.697   7.025  23.930  1.00  0.00    -0.085 Cl
ENDBRANCH   1  21
TORSDOF 3
ENDMDL
MODEL 3
REMARK VINA RESULT: -7.956534870      2.763      3.381
REMARK  3 active torsions:
REMARK  status: ('A' for Active; 'I' for Inactive)
REMARK    1  A    between atoms: C2_2  and  C3_4 
REMARK    2  A    between atoms: C10_11  and  C12_13 
REMARK    3  A    between atoms: N1_15  and  O1_17 
ROOT
HETATM    1  C3  UNL     1       7.133   8.280  21.759  1.00  0.00    -0.032 C 
HETATM    2  C4  UNL     1       7.785   7.360  20.921  1.00  0.00    -0.017 C 
HETATM    3  C5  UNL     1       7.647   7.767  19.526  1.00  0.00     0.034 C 
HETATM    4  C6  UNL     1       6.385   8.537  19.565  1.00  0.00     0.006 C 
HETATM    5  C7  UNL     1       6.261   9.586  18.497  1.00  0.00    -0.004 C 
HETATM    6  C8  UNL     1       6.128   9.020  17.125  1.00  0.00     0.007 C 
HETATM    7  C9  UNL     1       5.214  10.008  16.452  1.00  0.00     0.018 C 
HETATM    8  C10 UNL     1       4.188  10.335  17.536  1.00  0.00     0.032 C 
HETATM    9  C11 UNL     1       3.654  11.718  17.211  1.00  0.00     0.025 C 
HETATM   10  C13 UNL     1       4.986  10.352  18.794  1.00  0.00     0.006 C 
HETATM   11  C14 UNL     1       4.272   9.832  19.988  1.00  0.00     0.007 C 
HETATM   12  C15 UNL     1       5.174   9.775  21.209  1.00  0.00     0.015 C 
HETATM   13  C16 UNL     1       6.560   9.279  20.882  1.00  0.00    -0.011 C 
HETATM   14  C17 UNL     1       7.549  10.416  20.736  1.00  0.00     0.021 C 
ENDROOT
BRANCH   8  15
HETATM   15  C12 UNL     1       3.126   9.338  17.451  1.00  0.00     0.193 C 
HETATM   16  F1  UNL     1       3.343   8.068  17.052  1.00  0.00    -0.189 F 
HETATM   17  N1  UNL     1       1.932   9.674  17.767  1.00  0.00    -0.246 N 
ATOM     18  H1  UNL     1       1.734  10.627  18.073  1.00  0.00     0.196 HD
BRANCH  17  19
HETATM   19  O1  UNL     1       0.922   8.755  17.694  1.00  0.00    -0.288 OA
ATOM     20  H1  UNL     1       0.574   8.499  16.847  1.00  0.00     0.244 HD
ENDBRANCH  17  19
ENDBRANCH   8  15
BRANCH   1  21
HETATM   21  C2  UNL     1       7.205   7.983  23.126  1.00  0.00     0.031 C 
HETATM   22  C1  UNL     1       7.267   7.722  24.328  1.00  0.00     0.037 C 
HETATM   23 CL1  UNL     1       5.438   6.765  23.052  1.00  0.00    -0.085 Cl
ENDBRANCH   1  21
TORSDOF 3
ENDMDL
MODEL 4
REMARK VINA RESULT: -7.922513336      3.723      4.867
REMARK  3 active torsions:
REMARK  status: ('A' for Active; 'I' for Inactive)
REMARK    1  A    between atoms: C2_2  and  C3_4 
REMARK    2  A    between atoms: C10_11  and  C12_13 
REMARK    3  A    between atoms: N1_15  and  O1_17 
ROOT
HETATM    1  C3  UNL     1       1.833   6.285  18.737  1.00  0.00    -0.032 C 
HETATM    2  C4  UNL     1       0.811   7.245  18.655  1.00  0.00    -0.017 C 
HETATM    3  C5  UNL     1       1.324   8.474  18.058  1.00  0.00     0.034 C 
HETATM    4  C6  UNL     1       2.757   8.403  18.417  1.00  0.00     0.006 C 
HETATM    5  C7  UNL     1       3.671   9.141  17.481  1.00  0.00    -0.004 C 
HETATM    6  C8  UNL     1       3.506  10.620  17.538  1.00  0.00     0.007 C 
HETATM    7  C9  UNL     1       4.908  11.113  17.299  1.00  0.00     0.018 C 
HETATM    8  C10 UNL     1       5.767  10.139  18.106  1.00  0.00     0.032 C 
HETATM    9  C11 UNL     1       7.135  10.137  17.450  1.00  0.00     0.025 C 
HETATM   10  C13 UNL     1       5.086   8.826  17.928  1.00  0.00     0.006 C 
HETATM   11  C14 UNL     1       5.126   7.941  19.120  1.00  0.00     0.007 C 
HETATM   12  C15 UNL     1       4.323   6.669  18.910  1.00  0.00     0.015 C 
HETATM   13  C16 UNL     1       3.018   6.920  18.197  1.00  0.00    -0.011 C 
HETATM   14  C17 UNL     1       3.107   6.598  16.720  1.00  0.00     0.021 C 
ENDROOT
BRANCH   8  15
HETATM   15  C12 UNL     1       5.849  10.652  19.470  1.00  0.00     0.193 C 
HETATM   16  F1  UNL     1       4.764  10.837  20.250  1.00  0.00    -0.189 F 
HETATM   17  N1  UNL     1       6.997  10.942  19.956  1.00  0.00    -0.246 N 
ATOM     18  H1  UNL     1       7.837  10.814  19.392  1.00  0.00     0.196 HD
BRANCH  17  19
HETATM   19  O1  UNL     1       7.095  11.424  21.232  1.00  0.00    -0.288 OA
ATOM     20  H1  UNL     1       6.575  12.174  21.497  1.00  0.00     0.244 HD
ENDBRANCH  17  19
ENDBRANCH   8  15
BRANCH   1  21
HETATM   21  C2  UNL     1       1.447   5.060  19.296  1.00  0.00     0.031 C 
HETATM   22  C1  UNL     1       1.108   3.984  19.788  1.00  0.00     0.037 C 
HETATM   23 CL1  UNL     1       2.381   5.515  21.175  1.00  0.00    -0.085 Cl
ENDBRANCH   1  21
TORSDOF 3
ENDMDL
MODEL 5
REMARK VINA RESULT: -7.897560682      3.478      4.634
REMARK  3 active torsions:
REMARK  status: ('A' for Active; 'I' for Inactive)
REMARK    1  A    between atoms: C2_2  and  C3_4 
REMARK    2  A    between atoms: C10_11  and  C12_13 
REMARK    3  A    between atoms: N1_15  and  O1_17 
ROOT
HETATM    1  C3  UNL     1       1.860   6.496  18.352  1.00  0.00    -0.032 C 
HETATM    2  C4  UNL     1       1.179   7.725  18.352  1.00  0.00    -0.017 C 
HETATM    3  C5  UNL     1       2.074   8.794  17.917  1.00  0.00     0.034 C 
HETATM    4  C6  UNL     1       3.394   8.253  18.308  1.00  0.00     0.006 C 
HETATM    5  C7  UNL     1       4.545   8.768  17.492  1.00  0.00    -0.004 C 
HETATM    6  C8  UNL     1       4.828  10.213  17.715  1.00  0.00     0.007 C 
HETATM    7  C9  UNL     1       6.326  10.277  17.578  1.00  0.00     0.018 C 
HETATM    8  C10 UNL     1       6.799   9.011  18.291  1.00  0.00     0.032 C 
HETATM    9  C11 UNL     1       8.143   8.658  17.680  1.00  0.00     0.025 C 
HETATM   10  C13 UNL     1       5.769   7.993  17.941  1.00  0.00     0.006 C 
HETATM   11  C14 UNL     1       5.466   7.022  19.023  1.00  0.00     0.007 C 
HETATM   12  C15 UNL     1       4.334   6.083  18.643  1.00  0.00     0.015 C 
HETATM   13  C16 UNL     1       3.212   6.791  17.926  1.00  0.00    -0.011 C 
HETATM   14  C17 UNL     1       3.294   6.609  16.424  1.00  0.00     0.021 C 
ENDROOT
BRANCH   8  15
HETATM   15  C12 UNL     1       6.944   9.333  19.707  1.00  0.00     0.193 C 
HETATM   16  F1  UNL     1       5.915   9.747  20.474  1.00  0.00    -0.189 F 
HETATM   17  N1  UNL     1       8.096   9.220  20.255  1.00  0.00    -0.246 N 
ATOM     18  H1  UNL     1       8.895   8.909  19.703  1.00  0.00     0.196 HD
BRANCH  17  19
HETATM   19  O1  UNL     1       8.252   9.517  21.581  1.00  0.00    -0.288 OA
ATOM     20  H1  UNL     1       7.604  10.049  22.027  1.00  0.00     0.244 HD
ENDBRANCH  17  19
ENDBRANCH   8  15
BRANCH   1  21
HETATM   21  C2  UNL     1       1.090   5.397  18.753  1.00  0.00     0.031 C 
HETATM   22  C1  UNL     1       0.412   4.432  19.107  1.00  0.00     0.037 C 
HETATM   23 CL1  UNL     1       1.999   5.348  20.698  1.00  0.00    -0.085 Cl
ENDBRANCH   1  21
TORSDOF 3
ENDMDL
