MODEL 1
REMARK VINA RESULT: -9.078136486      0.000      0.000
REMARK  4 active torsions:
REMARK  status: ('A' for Active; 'I' for Inactive)
REMARK    1  A    between atoms: O1_1  and  C1_3 
REMARK    2  A    between atoms: C1_3  and  C2_4 
REMARK    3  A    between atoms: C1_3  and  C10_15 
REMARK    4  A    between atoms: C2_4  and  C3_5 
ROOT
HETATM    1  C1  UNL     1       3.623  10.366  17.295  1.00  0.00     0.150 C 
ENDROOT
BRANCH   1   2
HETATM    2  O1  UNL     1       3.402  11.130  16.175  1.00  0.00    -0.391 OA
ATOM      3  H1  UNL     1       2.777  11.840  16.270  1.00  0.00     0.210 HD
ENDBRANCH   1   2
BRANCH   1   4
HETATM    4  C2  UNL     1       2.724   9.209  17.481  1.00  0.00     0.074 C 
BRANCH   4   5
HETATM    5  C3  UNL     1       3.360   7.867  17.520  1.00  0.00     0.200 C 
HETATM    6  O2  UNL     1       2.971   7.038  16.470  1.00  0.00    -0.232 OA
HETATM    7  O3  UNL     1       1.704   6.778  16.783  1.00  0.00    -0.226 OA
HETATM    8  C4  UNL     1       1.870   6.125  18.016  1.00  0.00     0.129 C 
HETATM    9  C5  UNL     1       2.432   4.766  17.777  1.00  0.00     0.044 C 
HETATM   10  C8  UNL     1       0.570   5.978  18.750  1.00  0.00     0.044 C 
HETATM   11  C9  UNL     1       2.836   7.063  18.713  1.00  0.00     0.239 C 
HETATM   12  C6  UNL     1       1.575   3.863  18.606  1.00  0.00     0.003 C 
HETATM   13  C7  UNL     1       0.210   4.509  18.515  1.00  0.00     0.003 C 
HETATM   14  F1  UNL     1       3.854   6.306  19.243  1.00  0.00    -0.243 F 
ENDBRANCH   4   5
ENDBRANCH   1   4
BRANCH   1  15
HETATM   15  C10 UNL     1       5.073  10.105  17.417  1.00  0.00    -0.047 C 
HETATM   16  C11 UNL     1       5.938   9.486  16.627  1.00  0.00    -0.020 C 
HETATM   17  C12 UNL     1       7.269   9.525  17.256  1.00  0.00     0.033 C 
HETATM   18  C13 UNL     1       6.903   9.584  18.762  1.00  0.00     0.001 C 
HETATM   19  C14 UNL     1       8.092  10.154  19.465  1.00  0.00     0.009 C 
HETATM   20  C22 UNL     1       5.799  10.573  18.669  1.00  0.00     0.043 C 
HETATM   21  C15 UNL     1       8.274   9.582  20.856  1.00  0.00     0.027 C 
HETATM   22  C16 UNL     1       7.995   8.140  20.937  1.00  0.00    -0.031 C 
HETATM   23  C17 UNL     1       6.907   7.595  21.452  1.00  0.00    -0.030 C 
HETATM   24  C18 UNL     1       5.797   8.387  22.032  1.00  0.00     0.030 C 
HETATM   25  C19 UNL     1       4.680   8.633  21.049  1.00  0.00     0.030 C 
HETATM   26  C20 UNL     1       4.477  10.075  20.758  1.00  0.00    -0.030 C 
HETATM   27  C21 UNL     1       4.937  10.813  19.804  1.00  0.00    -0.021 C 
ENDBRANCH   1  15
TORSDOF 4
ENDMDL
MODEL 2
REMARK VINA RESULT: -8.974615655      2.977      5.502
REMARK  4 active torsions:
REMARK  status: ('A' for Active; 'I' for Inactive)
REMARK    1  A    between atoms: O1_1  and  C1_3 
REMARK    2  A    between atoms: C1_3  and  C2_4 
REMARK    3  A    between atoms: C1_3  and  C10_15 
REMARK    4  A    between atoms: C2_4  and  C3_5 
ROOT
HETATM    1  C1  UNL     1       7.307   9.476  20.337  1.00  0.00     0.150 C 
ENDROOT
BRANCH   1   2
HETATM    2  O1  UNL     1       7.969  10.545  20.890  1.00  0.00    -0.391 OA
ATOM      3  H1  UNL     1       8.380  10.392  21.733  1.00  0.00     0.210 HD
ENDBRANCH   1   2
BRANCH   1   4
HETATM    4  C2  UNL     1       7.972   8.820  19.193  1.00  0.00     0.074 C 
BRANCH   4   5
HETATM    5  C3  UNL     1       7.527   9.228  17.836  1.00  0.00     0.200 C 
HETATM    6  O2  UNL     1       6.241   8.795  17.520  1.00  0.00    -0.232 OA
HETATM    7  O3  UNL     1       6.418   7.481  17.395  1.00  0.00    -0.226 OA
HETATM    8  C4  UNL     1       7.329   7.444  16.327  1.00  0.00     0.129 C 
HETATM    9  C5  UNL     1       6.618   7.798  15.066  1.00  0.00     0.044 C 
HETATM   10  C8  UNL     1       7.939   6.083  16.160  1.00  0.00     0.044 C 
HETATM   11  C9  UNL     1       8.335   8.489  16.765  1.00  0.00     0.239 C 
HETATM   12  C6  UNL     1       7.047   6.746  14.093  1.00  0.00     0.003 C 
HETATM   13  C7  UNL     1       7.178   5.513  14.961  1.00  0.00     0.003 C 
HETATM   14  F1  UNL     1       8.567   9.328  15.701  1.00  0.00    -0.243 F 
ENDBRANCH   4   5
ENDBRANCH   1   4
BRANCH   1  15
HETATM   15  C10 UNL     1       6.833   8.593  21.424  1.00  0.00    -0.047 C 
HETATM   16  C11 UNL     1       7.450   7.697  22.179  1.00  0.00    -0.020 C 
HETATM   17  C12 UNL     1       6.474   7.110  23.113  1.00  0.00     0.033 C 
HETATM   18  C13 UNL     1       5.152   7.249  22.315  1.00  0.00     0.001 C 
HETATM   19  C14 UNL     1       4.044   7.196  23.317  1.00  0.00     0.009 C 
HETATM   20  C22 UNL     1       5.360   8.627  21.805  1.00  0.00     0.043 C 
HETATM   21  C15 UNL     1       2.798   6.533  22.770  1.00  0.00     0.027 C 
HETATM   22  C16 UNL     1       3.079   5.361  21.925  1.00  0.00    -0.031 C 
HETATM   23  C17 UNL     1       3.009   5.330  20.607  1.00  0.00    -0.030 C 
HETATM   24  C18 UNL     1       2.625   6.501  19.784  1.00  0.00     0.030 C 
HETATM   25  C19 UNL     1       3.817   7.267  19.266  1.00  0.00     0.030 C 
HETATM   26  C20 UNL     1       3.869   8.661  19.772  1.00  0.00    -0.030 C 
HETATM   27  C21 UNL     1       4.492   9.167  20.784  1.00  0.00    -0.021 C 
ENDBRANCH   1  15
TORSDOF 4
ENDMDL
MODEL 3
REMARK VINA RESULT: -8.965712762      0.887      1.014
REMARK  4 active torsions:
REMARK  status: ('A' for Active; 'I' for Inactive)
REMARK    1  A    between atoms: O1_1  and  C1_3 
REMARK    2  A    between atoms: C1_3  and  C2_4 
REMARK    3  A    between atoms: C1_3  and  C10_15 
REMARK    4  A    between atoms: C2_4  and  C3_5 
ROOT
HETATM    1  C1  UNL     1       4.848   9.759  16.661  1.00  0.00     0.150 C 
ENDROOT
BRANCH   1   2
HETATM    2  O1  UNL     1       5.117  10.226  15.398  1.00  0.00    -0.391 OA
ATOM      3  H1  UNL     1       6.028  10.199  15.127  1.00  0.00     0.210 HD
ENDBRANCH   1   2
BRANCH   1   4
HETATM    4  C2  UNL     1       3.680   8.864  16.788  1.00  0.00     0.074 C 
BRANCH   4   5
HETATM    5  C3  UNL     1       3.962   7.415  16.950  1.00  0.00     0.200 C 
HETATM    6  O2  UNL     1       3.240   6.607  16.074  1.00  0.00    -0.232 OA
HETATM    7  O3  UNL     1       2.002   6.726  16.551  1.00  0.00    -0.226 OA
HETATM    8  C4  UNL     1       2.168   6.193  17.839  1.00  0.00     0.129 C 
HETATM    9  C5  UNL     1       2.337   4.716  17.739  1.00  0.00     0.044 C 
HETATM   10  C8  UNL     1       0.986   6.475  18.718  1.00  0.00     0.044 C 
HETATM   11  C9  UNL     1       3.423   6.913  18.293  1.00  0.00     0.239 C 
HETATM   12  C6  UNL     1       1.405   4.168  18.772  1.00  0.00     0.003 C 
HETATM   13  C7  UNL     1       0.244   5.137  18.732  1.00  0.00     0.003 C 
HETATM   14  F1  UNL     1       4.284   5.978  18.816  1.00  0.00    -0.243 F 
ENDBRANCH   4   5
ENDBRANCH   1   4
BRANCH   1  15
HETATM   15  C10 UNL     1       6.109   9.294  17.277  1.00  0.00    -0.047 C 
HETATM   16  C11 UNL     1       7.010   8.399  16.900  1.00  0.00    -0.020 C 
HETATM   17  C12 UNL     1       8.078   8.345  17.913  1.00  0.00     0.033 C 
HETATM   18  C13 UNL     1       7.314   8.759  19.197  1.00  0.00     0.001 C 
HETATM   19  C14 UNL     1       8.344   9.255  20.161  1.00  0.00     0.009 C 
HETATM   20  C22 UNL     1       6.526   9.876  18.620  1.00  0.00     0.043 C 
HETATM   21  C15 UNL     1       7.989   8.947  21.600  1.00  0.00     0.027 C 
HETATM   22  C16 UNL     1       7.393   7.614  21.785  1.00  0.00    -0.031 C 
HETATM   23  C17 UNL     1       6.112   7.366  21.992  1.00  0.00    -0.030 C 
HETATM   24  C18 UNL     1       5.080   8.427  22.069  1.00  0.00     0.030 C 
HETATM   25  C19 UNL     1       4.375   8.653  20.755  1.00  0.00     0.030 C 
HETATM   26  C20 UNL     1       4.582  10.022  20.219  1.00  0.00    -0.030 C 
HETATM   27  C21 UNL     1       5.447  10.473  19.372  1.00  0.00    -0.021 C 
ENDBRANCH   1  15
TORSDOF 4
ENDMDL
MODEL 4
REMARK VINA RESULT: -8.911720485      2.820      5.277
REMARK  4 active torsions:
REMARK  status: ('A' for Active; 'I' for Inactive)
REMARK    1  A    between atoms: O1_1  and  C1_3 
REMARK    2  A    between atoms: C1_3  and  C2_4 
REMARK    3  A    between atoms: C1_3  and  C10_15 
REMARK    4  A    between atoms: C2_4  and  C3_5 
ROOT
HETATM    1  C1  UNL     1       7.004  10.140  20.246  1.00  0.00     0.150 C 
ENDROOT
BRANCH   1   2
HETATM    2  O1  UNL     1       7.953  10.865  20.925  1.00  0.00    -0.391 OA
ATOM      3  H1  UNL     1       8.523  10.370  21.502  1.00  0.00     0.210 HD
ENDBRANCH   1   2
BRANCH   1   4
HETATM    4  C2  UNL     1       7.288   9.868  18.823  1.00  0.00     0.074 C 
BRANCH   4   5
HETATM    5  C3  UNL     1       7.767   8.503  18.486  1.00  0.00     0.200 C 
HETATM    6  O2  UNL     1       8.780   8.489  17.529  1.00  0.00    -0.232 OA
HETATM    7  O3  UNL     1       8.123   8.856  16.431  1.00  0.00    -0.226 OA
HETATM    8  C4  UNL     1       7.197   7.806  16.319  1.00  0.00     0.129 C 
HETATM    9  C5  UNL     1       7.908   6.574  15.877  1.00  0.00     0.044 C 
HETATM   10  C8  UNL     1       6.119   8.115  15.323  1.00  0.00     0.044 C 
HETATM   11  C9  UNL     1       6.677   7.725  17.741  1.00  0.00     0.239 C 
HETATM   12  C6  UNL     1       7.061   6.040  14.766  1.00  0.00     0.003 C 
HETATM   13  C7  UNL     1       6.540   7.295  14.101  1.00  0.00     0.003 C 
HETATM   14  F1  UNL     1       6.705   6.406  18.128  1.00  0.00    -0.243 F 
ENDBRANCH   4   5
ENDBRANCH   1   4
BRANCH   1  15
HETATM   15  C10 UNL     1       6.603   8.983  21.075  1.00  0.00    -0.047 C 
HETATM   16  C11 UNL     1       7.293   7.986  21.609  1.00  0.00    -0.020 C 
HETATM   17  C12 UNL     1       6.368   7.109  22.346  1.00  0.00     0.033 C 
HETATM   18  C13 UNL     1       5.044   7.324  21.568  1.00  0.00     0.001 C 
HETATM   19  C14 UNL     1       3.938   6.936  22.497  1.00  0.00     0.009 C 
HETATM   20  C22 UNL     1       5.131   8.798  21.411  1.00  0.00     0.043 C 
HETATM   21  C15 UNL     1       2.760   6.321  21.771  1.00  0.00     0.027 C 
HETATM   22  C16 UNL     1       3.150   5.418  20.677  1.00  0.00    -0.031 C 
HETATM   23  C17 UNL     1       3.092   5.701  19.389  1.00  0.00    -0.030 C 
HETATM   24  C18 UNL     1       2.610   7.000  18.862  1.00  0.00     0.030 C 
HETATM   25  C19 UNL     1       3.733   7.967  18.577  1.00  0.00     0.030 C 
HETATM   26  C20 UNL     1       3.656   9.197  19.406  1.00  0.00    -0.030 C 
HETATM   27  C21 UNL     1       4.225   9.493  20.527  1.00  0.00    -0.021 C 
ENDBRANCH   1  15
TORSDOF 4
ENDMDL
MODEL 5
REMARK VINA RESULT: -8.894573334      2.119      5.882
REMARK  4 active torsions:
REMARK  status: ('A' for Active; 'I' for Inactive)
REMARK    1  A    between atoms: O1_1  and  C1_3 
REMARK    2  A    between atoms: C1_3  and  C2_4 
REMARK    3  A    between atoms: C1_3  and  C10_15 
REMARK    4  A    between atoms: C2_4  and  C3_5 
ROOT
HETATM    1  C1  UNL     1       4.711   8.751  17.415  1.00  0.00     0.150 C 
ENDROOT
BRANCH   1   2
HETATM    2  O1  UNL     1       5.033   9.130  16.134  1.00  0.00    -0.391 OA
ATOM      3  H1  UNL     1       4.975   8.452  15.471  1.00  0.00     0.210 HD
ENDBRANCH   1   2
BRANCH   1   4
HETATM    4  C2  UNL     1       5.321   9.544  18.501  1.00  0.00     0.074 C 
BRANCH   4   5
HETATM    5  C3  UNL     1       6.502   8.952  19.179  1.00  0.00     0.200 C 
HETATM    6  O2  UNL     1       6.443   7.564  19.287  1.00  0.00    -0.232 OA
HETATM    7  O3  UNL     1       5.470   7.400  20.181  1.00  0.00    -0.226 OA
HETATM    8  C4  UNL     1       6.029   8.051  21.293  1.00  0.00     0.129 C 
HETATM    9  C5  UNL     1       7.127   7.212  21.849  1.00  0.00     0.044 C 
HETATM   10  C8  UNL     1       5.014   8.280  22.374  1.00  0.00     0.044 C 
HETATM   11  C9  UNL     1       6.516   9.340  20.661  1.00  0.00     0.239 C 
HETATM   12  C6  UNL     1       6.860   7.184  23.320  1.00  0.00     0.003 C 
HETATM   13  C7  UNL     1       5.349   7.188  23.392  1.00  0.00     0.003 C 
HETATM   14  F1  UNL     1       7.811   9.550  21.071  1.00  0.00    -0.243 F 
ENDBRANCH   4   5
ENDBRANCH   1   4
BRANCH   1  15
HETATM   15  C10 UNL     1       3.251   8.531  17.495  1.00  0.00    -0.047 C 
HETATM   16  C11 UNL     1       2.263   9.266  17.982  1.00  0.00    -0.020 C 
HETATM   17  C12 UNL     1       0.993   8.543  17.790  1.00  0.00     0.033 C 
HETATM   18  C13 UNL     1       1.467   7.067  17.810  1.00  0.00     0.001 C 
HETATM   19  C14 UNL     1       0.410   6.274  17.110  1.00  0.00     0.009 C 
HETATM   20  C22 UNL     1       2.678   7.224  16.966  1.00  0.00     0.043 C 
HETATM   21  C15 UNL     1       0.253   4.882  17.685  1.00  0.00     0.027 C 
HETATM   22  C16 UNL     1       0.352   4.838  19.152  1.00  0.00    -0.031 C 
HETATM   23  C17 UNL     1       1.394   4.409  19.840  1.00  0.00    -0.030 C 
HETATM   24  C18 UNL     1       2.633   3.898  19.207  1.00  0.00     0.030 C 
HETATM   25  C19 UNL     1       3.702   4.955  19.082  1.00  0.00     0.030 C 
HETATM   26  C20 UNL     1       4.065   5.241  17.671  1.00  0.00    -0.030 C 
HETATM   27  C21 UNL     1       3.638   6.151  16.860  1.00  0.00    -0.021 C 
ENDBRANCH   1  15
TORSDOF 4
ENDMDL
