MODEL 1
REMARK VINA RESULT: -7.319841235      0.000      0.000
REMARK  4 active torsions:
REMARK  status: ('A' for Active; 'I' for Inactive)
REMARK    1  A    between atoms: C2_2  and  C3_3 
REMARK    2  A    between atoms: C9_9  and  O1_10 
REMARK    3  A    between atoms: C12_14  and  O2_15 
REMARK    4  A    between atoms: C14_17  and  O3_18 
ROOT
HETATM    1  C3  UNL     1       4.166  12.384  15.872  1.00  0.00    -0.006 C 
HETATM    2  C4  UNL     1       5.551  12.816  15.522  1.00  0.00     0.006 C 
HETATM    3  C5  UNL     1       6.498  12.125  16.517  1.00  0.00     0.006 C 
HETATM    4  C6  UNL     1       5.558  11.592  17.520  1.00  0.00     0.002 C 
HETATM    5  C7  UNL     1       6.032  10.526  18.416  1.00  0.00     0.038 C 
HETATM    6  C8  UNL     1       7.303  10.857  19.120  1.00  0.00     0.045 C 
HETATM    7  C9  UNL     1       7.305  10.623  20.590  1.00  0.00     0.152 C 
HETATM    8  C10 UNL     1       6.512   9.423  20.999  1.00  0.00    -0.017 A 
HETATM    9  C11 UNL     1       6.945   8.516  21.931  1.00  0.00     0.050 A 
HETATM   10  C12 UNL     1       6.158   7.444  22.248  1.00  0.00     0.102 A 
HETATM   11  C14 UNL     1       4.924   7.266  21.637  1.00  0.00     0.102 A 
HETATM   12  C16 UNL     1       4.497   8.180  20.703  1.00  0.00     0.050 A 
HETATM   13  C17 UNL     1       5.289   9.262  20.381  1.00  0.00    -0.007 A 
HETATM   14  C18 UNL     1       4.876  10.258  19.396  1.00  0.00     0.135 C 
HETATM   15  F1  UNL     1       4.614  11.485  20.016  1.00  0.00    -0.237 F 
HETATM   16  C19 UNL     1       3.665   9.821  18.654  1.00  0.00     0.050 C 
HETATM   17  C20 UNL     1       3.283  10.686  17.501  1.00  0.00     0.013 C 
HETATM   18  C21 UNL     1       4.419  11.091  16.630  1.00  0.00    -0.036 C 
HETATM   19  C22 UNL     1       4.858  10.071  15.643  1.00  0.00     0.016 C 
ENDROOT
BRANCH   1  20
HETATM   20  C2  UNL     1       3.274  12.169  14.682  1.00  0.00     0.001 C 
HETATM   21  C1  UNL     1       2.288  13.265  14.471  1.00  0.00     0.005 C 
ENDBRANCH   1  20
BRANCH   7  22
HETATM   22  O1  UNL     1       8.635  10.358  20.990  1.00  0.00    -0.391 OA
ATOM     23  H1  UNL     1       8.606   9.871  21.805  1.00  0.00     0.210 HD
ENDBRANCH   7  22
BRANCH  11  24
HETATM   24  O3  UNL     1       4.154   6.156  21.994  1.00  0.00    -0.353 OA
HETATM   25  C15 UNL     1       3.030   5.850  21.192  1.00  0.00     0.210 C 
ENDBRANCH  11  24
BRANCH  10  26
HETATM   26  O2  UNL     1       6.568   6.499  23.193  1.00  0.00    -0.353 OA
HETATM   27  C13 UNL     1       7.555   6.876  24.135  1.00  0.00     0.210 C 
ENDBRANCH  10  26
TORSDOF 4
ENDMDL
MODEL 2
REMARK VINA RESULT: -6.599145900      3.256      3.860
REMARK  4 active torsions:
REMARK  status: ('A' for Active; 'I' for Inactive)
REMARK    1  A    between atoms: C2_2  and  C3_3 
REMARK    2  A    between atoms: C9_9  and  O1_10 
REMARK    3  A    between atoms: C12_14  and  O2_15 
REMARK    4  A    between atoms: C14_17  and  O3_18 
ROOT
HETATM    1  C3  UNL     1       7.334   8.300  15.341  1.00  0.00    -0.006 C 
HETATM    2  C4  UNL     1       8.586   8.757  16.014  1.00  0.00     0.006 C 
HETATM    3  C5  UNL     1       8.349   8.627  17.528  1.00  0.00     0.006 C 
HETATM    4  C6  UNL     1       6.897   8.384  17.596  1.00  0.00     0.002 C 
HETATM    5  C7  UNL     1       6.348   7.808  18.833  1.00  0.00     0.038 C 
HETATM    6  C8  UNL     1       6.739   8.550  20.064  1.00  0.00     0.045 C 
HETATM    7  C9  UNL     1       5.625   8.887  20.994  1.00  0.00     0.152 C 
HETATM    8  C10 UNL     1       4.570   7.830  21.059  1.00  0.00    -0.017 A 
HETATM    9  C11 UNL     1       3.999   7.408  22.231  1.00  0.00     0.050 A 
HETATM   10  C12 UNL     1       3.038   6.435  22.204  1.00  0.00     0.102 A 
HETATM   11  C14 UNL     1       2.635   5.873  21.001  1.00  0.00     0.102 A 
HETATM   12  C16 UNL     1       3.213   6.302  19.829  1.00  0.00     0.050 A 
HETATM   13  C17 UNL     1       4.181   7.282  19.854  1.00  0.00    -0.007 A 
HETATM   14  C18 UNL     1       4.822   7.770  18.635  1.00  0.00     0.135 C 
HETATM   15  F1  UNL     1       4.441   9.090  18.372  1.00  0.00    -0.237 F 
HETATM   16  C19 UNL     1       4.478   6.923  17.463  1.00  0.00     0.050 C 
HETATM   17  C20 UNL     1       5.234   7.231  16.216  1.00  0.00     0.013 C 
HETATM   18  C21 UNL     1       6.695   7.434  16.414  1.00  0.00    -0.036 C 
HETATM   19  C22 UNL     1       7.500   6.190  16.524  1.00  0.00     0.016 C 
ENDROOT
BRANCH   1  20
HETATM   20  C2  UNL     1       7.569   7.534  14.070  1.00  0.00     0.001 C 
HETATM   21  C1  UNL     1       6.439   7.622  13.104  1.00  0.00     0.005 C 
ENDBRANCH   1  20
BRANCH   7  22
HETATM   22  O1  UNL     1       6.158   8.978  22.301  1.00  0.00    -0.391 OA
ATOM     23  H1  UNL     1       5.984   8.159  22.748  1.00  0.00     0.210 HD
ENDBRANCH   7  22
BRANCH  11  24
HETATM   24  O3  UNL     1       1.650   4.882  21.022  1.00  0.00    -0.353 OA
HETATM   25  C15 UNL     1       1.273   4.303  19.788  1.00  0.00     0.210 C 
ENDBRANCH  11  24
BRANCH  10  26
HETATM   26  O2  UNL     1       2.435   5.980  23.380  1.00  0.00    -0.353 OA
HETATM   27  C13 UNL     1       3.141   6.128  24.598  1.00  0.00     0.210 C 
ENDBRANCH  10  26
TORSDOF 4
ENDMDL
MODEL 3
REMARK VINA RESULT: -6.303229624      3.038      7.149
REMARK  4 active torsions:
REMARK  status: ('A' for Active; 'I' for Inactive)
REMARK    1  A    between atoms: C2_2  and  C3_3 
REMARK    2  A    between atoms: C9_9  and  O1_10 
REMARK    3  A    between atoms: C12_14  and  O2_15 
REMARK    4  A    between atoms: C14_17  and  O3_18 
ROOT
HETATM    1  C3  UNL     1       6.460   7.575  22.016  1.00  0.00    -0.006 C 
HETATM    2  C4  UNL     1       7.614   6.934  21.320  1.00  0.00     0.006 C 
HETATM    3  C5  UNL     1       7.618   7.469  19.878  1.00  0.00     0.006 C 
HETATM    4  C6  UNL     1       6.308   8.140  19.793  1.00  0.00     0.002 C 
HETATM    5  C7  UNL     1       6.099   9.118  18.715  1.00  0.00     0.038 C 
HETATM    6  C8  UNL     1       6.426   8.594  17.359  1.00  0.00     0.045 C 
HETATM    7  C9  UNL     1       5.391   8.822  16.313  1.00  0.00     0.152 C 
HETATM    8  C10 UNL     1       4.681  10.129  16.460  1.00  0.00    -0.017 A 
HETATM    9  C11 UNL     1       4.401  10.957  15.404  1.00  0.00     0.050 A 
HETATM   10  C12 UNL     1       3.747  12.137  15.624  1.00  0.00     0.102 A 
HETATM   11  C14 UNL     1       3.363  12.505  16.906  1.00  0.00     0.102 A 
HETATM   12  C16 UNL     1       3.647  11.669  17.960  1.00  0.00     0.050 A 
HETATM   13  C17 UNL     1       4.306  10.479  17.741  1.00  0.00    -0.007 A 
HETATM   14  C18 UNL     1       4.629   9.560  18.830  1.00  0.00     0.135 C 
HETATM   15  F1  UNL     1       3.872   8.387  18.726  1.00  0.00    -0.237 F 
HETATM   16  C19 UNL     1       4.382  10.180  20.157  1.00  0.00     0.050 C 
HETATM   17  C20 UNL     1       4.860   9.387  21.325  1.00  0.00     0.013 C 
HETATM   18  C21 UNL     1       6.223   8.812  21.164  1.00  0.00    -0.036 C 
HETATM   19  C22 UNL     1       7.344   9.753  21.420  1.00  0.00     0.016 C 
ENDROOT
BRANCH   1  20
HETATM   20  C2  UNL     1       6.730   7.928  23.451  1.00  0.00     0.001 C 
HETATM   21  C1  UNL     1       7.831   7.131  24.063  1.00  0.00     0.005 C 
ENDBRANCH   1  20
BRANCH   7  22
HETATM   22  O1  UNL     1       6.041   8.877  15.058  1.00  0.00    -0.391 OA
ATOM     23  H1  UNL     1       6.919   9.212  15.196  1.00  0.00     0.210 HD
ENDBRANCH   7  22
BRANCH  11  24
HETATM   24  O3  UNL     1       2.696  13.720  17.082  1.00  0.00    -0.353 OA
HETATM   25  C15 UNL     1       2.250  14.043  18.385  1.00  0.00     0.210 C 
ENDBRANCH  11  24
BRANCH  10  26
HETATM   26  O2  UNL     1       3.446  13.006  14.570  1.00  0.00    -0.353 OA
HETATM   27  C13 UNL     1       2.215  12.836  13.891  1.00  0.00     0.210 C 
ENDBRANCH  10  26
TORSDOF 4
ENDMDL
MODEL 4
REMARK VINA RESULT: -6.213473451      1.843      3.708
REMARK  4 active torsions:
REMARK  status: ('A' for Active; 'I' for Inactive)
REMARK    1  A    between atoms: C2_2  and  C3_3 
REMARK    2  A    between atoms: C9_9  and  O1_10 
REMARK    3  A    between atoms: C12_14  and  O2_15 
REMARK    4  A    between atoms: C14_17  and  O3_18 
ROOT
HETATM    1  C3  UNL     1       5.264  11.011  16.236  1.00  0.00    -0.006 C 
HETATM    2  C4  UNL     1       3.867  10.874  15.729  1.00  0.00     0.006 C 
HETATM    3  C5  UNL     1       3.111   9.996  16.739  1.00  0.00     0.006 C 
HETATM    4  C6  UNL     1       4.205   9.474  17.577  1.00  0.00     0.002 C 
HETATM    5  C7  UNL     1       3.865   8.921  18.897  1.00  0.00     0.038 C 
HETATM    6  C8  UNL     1       2.796   7.883  18.854  1.00  0.00     0.045 C 
HETATM    7  C9  UNL     1       3.092   6.623  19.589  1.00  0.00     0.152 C 
HETATM    8  C10 UNL     1       3.875   6.841  20.844  1.00  0.00    -0.017 A 
HETATM    9  C11 UNL     1       3.592   6.209  22.027  1.00  0.00     0.050 A 
HETATM   10  C12 UNL     1       4.358   6.465  23.130  1.00  0.00     0.102 A 
HETATM   11  C14 UNL     1       5.419   7.357  23.064  1.00  0.00     0.102 A 
HETATM   12  C16 UNL     1       5.696   7.986  21.874  1.00  0.00     0.050 A 
HETATM   13  C17 UNL     1       4.926   7.731  20.760  1.00  0.00    -0.007 A 
HETATM   14  C18 UNL     1       5.183   8.376  19.475  1.00  0.00     0.135 C 
HETATM   15  F1  UNL     1       5.650   7.445  18.541  1.00  0.00    -0.237 F 
HETATM   16  C19 UNL     1       6.178   9.472  19.606  1.00  0.00     0.050 C 
HETATM   17  C20 UNL     1       6.362  10.309  18.386  1.00  0.00     0.013 C 
HETATM   18  C21 UNL     1       5.094  10.711  17.717  1.00  0.00    -0.036 C 
HETATM   19  C22 UNL     1       4.391  11.867  18.331  1.00  0.00     0.016 C 
ENDROOT
BRANCH   1  20
HETATM   20  C2  UNL     1       5.867  12.368  16.006  1.00  0.00     0.001 C 
HETATM   21  C1  UNL     1       5.045  13.244  15.125  1.00  0.00     0.005 C 
ENDBRANCH   1  20
BRANCH   7  22
HETATM   22  O1  UNL     1       1.863   6.055  19.997  1.00  0.00    -0.391 OA
ATOM     23  H1  UNL     1       1.970   5.112  20.025  1.00  0.00     0.210 HD
ENDBRANCH   7  22
BRANCH  11  24
HETATM   24  O3  UNL     1       6.174   7.586  24.218  1.00  0.00    -0.353 OA
HETATM   25  C15 UNL     1       7.583   7.540  24.101  1.00  0.00     0.210 C 
ENDBRANCH  11  24
BRANCH  10  26
HETATM   26  O2  UNL     1       4.098   5.839  24.353  1.00  0.00    -0.353 OA
HETATM   27  C13 UNL     1       2.773   5.865  24.853  1.00  0.00     0.210 C 
ENDBRANCH  10  26
TORSDOF 4
ENDMDL
MODEL 5
REMARK VINA RESULT: -6.212884044      2.926      6.876
REMARK  4 active torsions:
REMARK  status: ('A' for Active; 'I' for Inactive)
REMARK    1  A    between atoms: C2_2  and  C3_3 
REMARK    2  A    between atoms: C9_9  and  O1_10 
REMARK    3  A    between atoms: C12_14  and  O2_15 
REMARK    4  A    between atoms: C14_17  and  O3_18 
ROOT
HETATM    1  C3  UNL     1       2.626   4.582  19.855  1.00  0.00    -0.006 C 
HETATM    2  C4  UNL     1       2.715   5.032  21.275  1.00  0.00     0.006 C 
HETATM    3  C5  UNL     1       3.303   6.452  21.256  1.00  0.00     0.006 C 
HETATM    4  C6  UNL     1       3.764   6.579  19.862  1.00  0.00     0.002 C 
HETATM    5  C7  UNL     1       4.018   7.929  19.336  1.00  0.00     0.038 C 
HETATM    6  C8  UNL     1       4.931   8.742  20.188  1.00  0.00     0.045 C 
HETATM    7  C9  UNL     1       6.051   9.414  19.473  1.00  0.00     0.152 C 
HETATM    8  C10 UNL     1       5.678   9.891  18.107  1.00  0.00    -0.017 A 
HETATM    9  C11 UNL     1       6.041  11.117  17.613  1.00  0.00     0.050 A 
HETATM   10  C12 UNL     1       5.659  11.478  16.351  1.00  0.00     0.102 A 
HETATM   11  C14 UNL     1       4.908  10.614  15.564  1.00  0.00     0.102 A 
HETATM   12  C16 UNL     1       4.549   9.387  16.067  1.00  0.00     0.050 A 
HETATM   13  C17 UNL     1       4.933   9.021  17.340  1.00  0.00    -0.007 A 
HETATM   14  C18 UNL     1       4.574   7.727  17.915  1.00  0.00     0.135 C 
HETATM   15  F1  UNL     1       5.708   6.921  18.063  1.00  0.00    -0.237 F 
HETATM   16  C19 UNL     1       3.579   7.013  17.072  1.00  0.00     0.050 C 
HETATM   17  C20 UNL     1       3.013   5.772  17.675  1.00  0.00     0.013 C 
HETATM   18  C21 UNL     1       2.620   5.904  19.104  1.00  0.00    -0.036 C 
HETATM   19  C22 UNL     1       1.303   6.549  19.343  1.00  0.00     0.016 C 
ENDROOT
BRANCH   1  20
HETATM   20  C2  UNL     1       1.406   3.760  19.549  1.00  0.00     0.001 C 
HETATM   21  C1  UNL     1       1.610   2.777  18.449  1.00  0.00     0.005 C 
ENDBRANCH   1  20
BRANCH   7  22
HETATM   22  O1  UNL     1       6.403  10.573  20.203  1.00  0.00    -0.391 OA
ATOM     23  H1  UNL     1       6.485  10.332  21.118  1.00  0.00     0.210 HD
ENDBRANCH   7  22
BRANCH  11  24
HETATM   24  O3  UNL     1       4.542  11.027  14.280  1.00  0.00    -0.353 OA
HETATM   25  C15 UNL     1       3.238  11.545  14.104  1.00  0.00     0.210 C 
ENDBRANCH  11  24
BRANCH  10  26
HETATM   26  O2  UNL     1       6.011  12.721  15.815  1.00  0.00    -0.353 OA
HETATM   27  C13 UNL     1       5.068  13.775  15.888  1.00  0.00     0.210 C 
ENDBRANCH  10  26
TORSDOF 4
ENDMDL
