MODEL 1
REMARK VINA RESULT: -7.114928253      0.000      0.000
REMARK  4 active torsions:
REMARK  status: ('A' for Active; 'I' for Inactive)
REMARK    1  A    between atoms: C2_4  and  C3_5 
REMARK    2  A    between atoms: C4_6  and  C5_7 
REMARK    3  A    between atoms: N3_13  and  C9_14 
REMARK    4  A    between atoms: C9_14  and  C10_15 
ROOT
HETATM    1  C3  UNL     1       6.255   9.042  17.245  1.00  0.00     0.043 A 
HETATM    2  C4  UNL     1       6.535   7.723  16.958  1.00  0.00     0.048 A 
HETATM    3  N2  UNL     1       7.027   7.213  18.099  1.00  0.00    -0.300 N 
ATOM      4  H2  UNL     1       7.333   6.247  18.218  1.00  0.00     0.187 HD
HETATM    5  N3  UNL     1       7.060   8.152  19.062  1.00  0.00    -0.276 N 
HETATM    6  C16 UNL     1       6.588   9.305  18.571  1.00  0.00     0.131 A 
HETATM    7  S1  UNL     1       6.424  10.739  19.321  1.00  0.00    -0.058 SA
ENDROOT
BRANCH   5   8
HETATM    8  C9  UNL     1       7.538   7.922  20.429  1.00  0.00     0.188 C 
BRANCH   8   9
HETATM    9  C10 UNL     1       6.469   7.566  21.366  1.00  0.00    -0.038 A 
HETATM   10  C11 UNL     1       5.194   7.344  20.838  1.00  0.00     0.010 A 
HETATM   11  C12 UNL     1       4.124   6.996  21.667  1.00  0.00     0.019 A 
HETATM   12  C13 UNL     1       4.316   6.866  23.024  1.00  0.00     0.011 A 
HETATM   13 BR1  UNL     1       2.877   6.394  24.168  1.00  0.00    -0.051 Br
HETATM   14  C14 UNL     1       5.556   7.076  23.577  1.00  0.00     0.019 A 
HETATM   15  C15 UNL     1       6.609   7.424  22.724  1.00  0.00     0.010 A 
ENDBRANCH   8   9
ENDBRANCH   5   8
BRANCH   2  16
HETATM   16  C5  UNL     1       6.333   7.022  15.659  1.00  0.00    -0.006 C 
HETATM   17  C6  UNL     1       7.045   5.668  15.744  1.00  0.00     0.021 C 
HETATM   18  C7  UNL     1       4.883   6.815  15.382  1.00  0.00     0.021 C 
HETATM   19  C8  UNL     1       7.019   7.784  14.521  1.00  0.00     0.021 C 
ENDBRANCH   2  16
BRANCH   1  20
HETATM   20  C2  UNL     1       5.701  10.041  16.345  1.00  0.00     0.099 C 
HETATM   21  N1  UNL     1       4.428  10.257  16.253  1.00  0.00    -0.402 N 
HETATM   22  C1  UNL     1       3.919  11.259  15.345  1.00  0.00     0.145 C 
ATOM     23  H1  UNL     1       3.780   9.716  16.826  1.00  0.00     0.158 HD
ENDBRANCH   1  20
TORSDOF 4
ENDMDL
MODEL 2
REMARK VINA RESULT: -7.092240938      0.135      1.043
REMARK  4 active torsions:
REMARK  status: ('A' for Active; 'I' for Inactive)
REMARK    1  A    between atoms: C2_4  and  C3_5 
REMARK    2  A    between atoms: C4_6  and  C5_7 
REMARK    3  A    between atoms: N3_13  and  C9_14 
REMARK    4  A    between atoms: C9_14  and  C10_15 
ROOT
HETATM    1  C3  UNL     1       6.297   9.055  17.178  1.00  0.00     0.043 A 
HETATM    2  C4  UNL     1       6.586   7.740  16.880  1.00  0.00     0.048 A 
HETATM    3  N2  UNL     1       7.025   7.207  18.032  1.00  0.00    -0.300 N 
ATOM      4  H2  UNL     1       7.322   6.238  18.147  1.00  0.00     0.187 HD
HETATM    5  N3  UNL     1       7.019   8.129  19.013  1.00  0.00    -0.276 N 
HETATM    6  C16 UNL     1       6.573   9.292  18.522  1.00  0.00     0.131 A 
HETATM    7  S1  UNL     1       6.380  10.713  19.291  1.00  0.00    -0.058 SA
ENDROOT
BRANCH   5   8
HETATM    8  C9  UNL     1       7.435   7.872  20.395  1.00  0.00     0.188 C 
BRANCH   8   9
HETATM    9  C10 UNL     1       6.323   7.507  21.278  1.00  0.00    -0.038 A 
HETATM   10  C11 UNL     1       6.583   7.441  22.650  1.00  0.00     0.010 A 
HETATM   11  C12 UNL     1       5.573   7.104  23.556  1.00  0.00     0.019 A 
HETATM   12  C13 UNL     1       4.302   6.834  23.103  1.00  0.00     0.011 A 
HETATM   13 BR1  UNL     1       2.915   6.376  24.317  1.00  0.00    -0.051 Br
HETATM   14  C14 UNL     1       4.011   6.891  21.762  1.00  0.00     0.019 A 
HETATM   15  C15 UNL     1       5.041   7.229  20.877  1.00  0.00     0.010 A 
ENDBRANCH   8   9
ENDBRANCH   5   8
BRANCH   2  16
HETATM   16  C5  UNL     1       6.439   7.063  15.561  1.00  0.00    -0.006 C 
HETATM   17  C6  UNL     1       7.147   5.707  15.651  1.00  0.00     0.021 C 
HETATM   18  C7  UNL     1       5.002   6.862  15.219  1.00  0.00     0.021 C 
HETATM   19  C8  UNL     1       7.172   7.846  14.468  1.00  0.00     0.021 C 
ENDBRANCH   2  16
BRANCH   1  20
HETATM   20  C2  UNL     1       5.787  10.072  16.273  1.00  0.00     0.099 C 
HETATM   21  N1  UNL     1       4.520  10.291  16.125  1.00  0.00    -0.402 N 
HETATM   22  C1  UNL     1       4.055  11.311  15.214  1.00  0.00     0.145 C 
ATOM     23  H1  UNL     1       3.845   9.739  16.655  1.00  0.00     0.158 HD
ENDBRANCH   1  20
TORSDOF 4
ENDMDL
MODEL 3
REMARK VINA RESULT: -7.056589762      1.827      2.300
REMARK  4 active torsions:
REMARK  status: ('A' for Active; 'I' for Inactive)
REMARK    1  A    between atoms: C2_4  and  C3_5 
REMARK    2  A    between atoms: C4_6  and  C5_7 
REMARK    3  A    between atoms: N3_13  and  C9_14 
REMARK    4  A    between atoms: C9_14  and  C10_15 
ROOT
HETATM    1  C3  UNL     1       4.828   8.991  16.584  1.00  0.00     0.043 A 
HETATM    2  C4  UNL     1       5.533   7.824  16.382  1.00  0.00     0.048 A 
HETATM    3  N2  UNL     1       5.166   7.013  17.388  1.00  0.00    -0.300 N 
ATOM      4  H2  UNL     1       5.514   6.064  17.525  1.00  0.00     0.187 HD
HETATM    5  N3  UNL     1       4.276   7.626  18.190  1.00  0.00    -0.276 N 
HETATM    6  C16 UNL     1       4.038   8.859  17.724  1.00  0.00     0.131 A 
HETATM    7  S1  UNL     1       3.050  10.002  18.328  1.00  0.00    -0.058 SA
ENDROOT
BRANCH   5   8
HETATM    8  C9  UNL     1       3.670   7.015  19.377  1.00  0.00     0.188 C 
BRANCH   8   9
HETATM    9  C10 UNL     1       4.526   7.082  20.565  1.00  0.00    -0.038 A 
HETATM   10  C11 UNL     1       5.824   7.573  20.400  1.00  0.00     0.010 A 
HETATM   11  C12 UNL     1       6.698   7.672  21.486  1.00  0.00     0.019 A 
HETATM   12  C13 UNL     1       6.286   7.284  22.741  1.00  0.00     0.011 A 
HETATM   13 BR1  UNL     1       7.456   7.410  24.231  1.00  0.00    -0.051 Br
HETATM   14  C14 UNL     1       5.016   6.798  22.940  1.00  0.00     0.019 A 
HETATM   15  C15 UNL     1       4.163   6.709  21.835  1.00  0.00     0.010 A 
ENDBRANCH   8   9
ENDBRANCH   5   8
BRANCH   2  16
HETATM   16  C5  UNL     1       6.494   7.534  15.282  1.00  0.00    -0.006 C 
HETATM   17  C6  UNL     1       6.911   6.063  15.402  1.00  0.00     0.021 C 
HETATM   18  C7  UNL     1       5.873   7.776  13.949  1.00  0.00     0.021 C 
HETATM   19  C8  UNL     1       7.780   8.347  15.459  1.00  0.00     0.021 C 
ENDBRANCH   2  16
BRANCH   1  20
HETATM   20  C2  UNL     1       4.865  10.196  15.771  1.00  0.00     0.099 C 
HETATM   21  N1  UNL     1       3.832  10.617  15.114  1.00  0.00    -0.402 N 
HETATM   22  C1  UNL     1       3.912  11.819  14.317  1.00  0.00     0.145 C 
ATOM     23  H1  UNL     1       2.955  10.097  15.161  1.00  0.00     0.158 HD
ENDBRANCH   1  20
TORSDOF 4
ENDMDL
MODEL 4
REMARK VINA RESULT: -6.875723538      2.100      2.700
REMARK  4 active torsions:
REMARK  status: ('A' for Active; 'I' for Inactive)
REMARK    1  A    between atoms: C2_4  and  C3_5 
REMARK    2  A    between atoms: C4_6  and  C5_7 
REMARK    3  A    between atoms: N3_13  and  C9_14 
REMARK    4  A    between atoms: C9_14  and  C10_15 
ROOT
HETATM    1  C3  UNL     1       4.778   8.464  16.285  1.00  0.00     0.043 A 
HETATM    2  C4  UNL     1       5.595   7.383  16.032  1.00  0.00     0.048 A 
HETATM    3  N2  UNL     1       5.039   6.359  16.700  1.00  0.00    -0.300 N 
ATOM      4  H2  UNL     1       5.407   5.408  16.716  1.00  0.00     0.187 HD
HETATM    5  N3  UNL     1       3.928   6.762  17.345  1.00  0.00    -0.276 N 
HETATM    6  C16 UNL     1       3.732   8.066  17.113  1.00  0.00     0.131 A 
HETATM    7  S1  UNL     1       2.541   9.029  17.662  1.00  0.00    -0.058 SA
ENDROOT
BRANCH   5   8
HETATM    8  C9  UNL     1       3.081   5.888  18.163  1.00  0.00     0.188 C 
BRANCH   8   9
HETATM    9  C10 UNL     1       3.273   6.076  19.604  1.00  0.00    -0.038 A 
HETATM   10  C11 UNL     1       2.320   5.518  20.461  1.00  0.00     0.010 A 
HETATM   11  C12 UNL     1       2.436   5.651  21.848  1.00  0.00     0.019 A 
HETATM   12  C13 UNL     1       3.500   6.337  22.388  1.00  0.00     0.011 A 
HETATM   13 BR1  UNL     1       3.679   6.529  24.269  1.00  0.00    -0.051 Br
HETATM   14  C14 UNL     1       4.456   6.897  21.575  1.00  0.00     0.019 A 
HETATM   15  C15 UNL     1       4.314   6.750  20.191  1.00  0.00     0.010 A 
ENDBRANCH   8   9
ENDBRANCH   5   8
BRANCH   2  16
HETATM   16  C5  UNL     1       6.827   7.362  15.196  1.00  0.00    -0.006 C 
HETATM   17  C6  UNL     1       7.400   5.941  15.243  1.00  0.00     0.021 C 
HETATM   18  C7  UNL     1       6.525   7.739  13.785  1.00  0.00     0.021 C 
HETATM   19  C8  UNL     1       7.905   8.267  15.800  1.00  0.00     0.021 C 
ENDBRANCH   2  16
BRANCH   1  20
HETATM   20  C2  UNL     1       4.939   9.823  15.794  1.00  0.00     0.099 C 
HETATM   21  N1  UNL     1       4.073  10.380  15.008  1.00  0.00    -0.402 N 
HETATM   22  C1  UNL     1       4.271  11.733  14.543  1.00  0.00     0.145 C 
ATOM     23  H1  UNL     1       3.246   9.859  14.716  1.00  0.00     0.158 HD
ENDBRANCH   1  20
TORSDOF 4
ENDMDL
MODEL 5
REMARK VINA RESULT: -6.840055035      3.540      6.368
REMARK  4 active torsions:
REMARK  status: ('A' for Active; 'I' for Inactive)
REMARK    1  A    between atoms: C2_4  and  C3_5 
REMARK    2  A    between atoms: C4_6  and  C5_7 
REMARK    3  A    between atoms: N3_13  and  C9_14 
REMARK    4  A    between atoms: C9_14  and  C10_15 
ROOT
HETATM    1  C3  UNL     1       4.091   6.671  20.539  1.00  0.00     0.043 A 
HETATM    2  C4  UNL     1       3.475   6.357  19.347  1.00  0.00     0.048 A 
HETATM    3  N2  UNL     1       4.152   7.042  18.411  1.00  0.00    -0.300 N 
ATOM      4  H2  UNL     1       3.943   7.024  17.413  1.00  0.00     0.187 HD
HETATM    5  N3  UNL     1       5.146   7.755  18.973  1.00  0.00    -0.276 N 
HETATM    6  C16 UNL     1       5.141   7.552  20.296  1.00  0.00     0.131 A 
HETATM    7  S1  UNL     1       6.129   8.181  21.425  1.00  0.00    -0.058 SA
ENDROOT
BRANCH   5   8
HETATM    8  C9  UNL     1       6.078   8.608  18.229  1.00  0.00     0.188 C 
BRANCH   8   9
HETATM    9  C10 UNL     1       5.410   9.627  17.414  1.00  0.00    -0.038 A 
HETATM   10  C11 UNL     1       4.930  10.765  18.068  1.00  0.00     0.010 A 
HETATM   11  C12 UNL     1       4.285  11.782  17.359  1.00  0.00     0.019 A 
HETATM   12  C13 UNL     1       4.115  11.673  15.997  1.00  0.00     0.011 A 
HETATM   13 BR1  UNL     1       3.243  13.043  15.013  1.00  0.00    -0.051 Br
HETATM   14  C14 UNL     1       4.575  10.568  15.322  1.00  0.00     0.019 A 
HETATM   15  C15 UNL     1       5.215   9.565  16.057  1.00  0.00     0.010 A 
ENDBRANCH   8   9
ENDBRANCH   5   8
BRANCH   2  16
HETATM   16  C5  UNL     1       2.310   5.451  19.147  1.00  0.00    -0.006 C 
HETATM   17  C6  UNL     1       2.164   5.203  17.641  1.00  0.00     0.021 C 
HETATM   18  C7  UNL     1       2.509   4.155  19.857  1.00  0.00     0.021 C 
HETATM   19  C8  UNL     1       1.011   6.137  19.584  1.00  0.00     0.021 C 
ENDBRANCH   2  16
BRANCH   1  20
HETATM   20  C2  UNL     1       3.739   6.190  21.866  1.00  0.00     0.099 C 
HETATM   21  N1  UNL     1       3.044   6.899  22.695  1.00  0.00    -0.402 N 
HETATM   22  C1  UNL     1       2.717   6.383  24.004  1.00  0.00     0.145 C 
ATOM     23  H1  UNL     1       2.724   7.829  22.423  1.00  0.00     0.158 HD
ENDBRANCH   1  20
TORSDOF 4
ENDMDL
