MODEL 1
REMARK VINA RESULT: -9.557602303      0.000      0.000
REMARK  3 active torsions:
REMARK  status: ('A' for Active; 'I' for Inactive)
REMARK    1  A    between atoms: C2_2  and  C3_3 
REMARK    2  A    between atoms: C3_3  and  C4_4 
REMARK    3  A    between atoms: N4_15  and  C10_17 
ROOT
HETATM    1  C4  UNL     1       4.682  10.695  16.629  1.00  0.00    -0.063 C 
HETATM    2  C5  UNL     1       3.487  10.079  16.451  1.00  0.00     0.097 C 
HETATM    3  N1  UNL     1       3.567   8.728  16.864  1.00  0.00    -0.322 N 
HETATM    4  C6  UNL     1       2.765   8.183  17.900  1.00  0.00     0.102 C 
HETATM    5  N2  UNL     1       1.541   8.263  17.816  1.00  0.00    -0.387 N 
ATOM      6  H21 UNL     1       0.965   7.871  18.561  1.00  0.00     0.157 HD
ATOM      7  H22 UNL     1       0.970   8.627  17.053  1.00  0.00     0.157 HD
HETATM    8  C7  UNL     1       3.628   7.634  19.052  1.00  0.00     0.206 C 
HETATM    9  C8  UNL     1       3.383   6.285  19.343  1.00  0.00     0.077 C 
HETATM   10  N3  UNL     1       3.171   5.188  19.556  1.00  0.00    -0.196 NA
HETATM   11  C9  UNL     1       5.047   8.045  18.778  1.00  0.00     0.020 C 
HETATM   12  N4  UNL     1       5.834   8.017  19.791  1.00  0.00    -0.361 N 
ATOM     13  H4  UNL     1       6.794   8.299  19.592  1.00  0.00     0.165 HD
HETATM   14  C18 UNL     1       5.656   8.482  17.496  1.00  0.00     0.081 C 
HETATM   15  C19 UNL     1       5.794   9.939  17.272  1.00  0.00     0.049 C 
HETATM   16  C20 UNL     1       4.683   7.973  16.346  1.00  0.00     0.120 C 
HETATM   17  C21 UNL     1       4.590   6.521  16.280  1.00  0.00     0.058 C 
HETATM   18 CL1  UNL     1       5.370   8.671  14.863  1.00  0.00    -0.095 Cl
ENDROOT
BRANCH  12  19
HETATM   19  C10 UNL     1       5.597   7.669  21.108  1.00  0.00     0.033 A 
HETATM   20  C11 UNL     1       4.365   7.397  21.670  1.00  0.00     0.036 A 
HETATM   21  C12 UNL     1       4.210   7.066  22.996  1.00  0.00    -0.059 A 
HETATM   22  C13 UNL     1       2.847   6.788  23.516  1.00  0.00     0.048 C 
HETATM   23  C14 UNL     1       5.299   6.989  23.834  1.00  0.00     0.013 A 
HETATM   24  C15 UNL     1       6.564   7.257  23.306  1.00  0.00    -0.059 A 
HETATM   25  C16 UNL     1       7.723   7.168  24.229  1.00  0.00     0.048 C 
HETATM   26  C17 UNL     1       6.696   7.588  21.974  1.00  0.00     0.036 A 
ENDBRANCH  12  19
BRANCH   1  27
HETATM   27  C3  UNL     1       4.763  12.095  16.239  1.00  0.00     0.035 C 
BRANCH  27  28
HETATM   28  C2  UNL     1       4.233  12.346  14.845  1.00  0.00    -0.000 C 
HETATM   29  C1  UNL     1       3.100  13.324  14.919  1.00  0.00     0.005 C 
ENDBRANCH  27  28
ENDBRANCH   1  27
TORSDOF 3
ENDMDL
MODEL 2
REMARK VINA RESULT: -9.337418788      3.157      4.599
REMARK  3 active torsions:
REMARK  status: ('A' for Active; 'I' for Inactive)
REMARK    1  A    between atoms: C2_2  and  C3_3 
REMARK    2  A    between atoms: C3_3  and  C4_4 
REMARK    3  A    between atoms: N4_15  and  C10_17 
ROOT
HETATM    1  C4  UNL     1       6.143  10.288  18.219  1.00  0.00    -0.063 C 
HETATM    2  C5  UNL     1       6.216  10.036  16.887  1.00  0.00     0.097 C 
HETATM    3  N1  UNL     1       6.237   8.640  16.655  1.00  0.00    -0.322 N 
HETATM    4  C6  UNL     1       5.248   7.963  15.896  1.00  0.00     0.102 C 
HETATM    5  N2  UNL     1       5.027   8.325  14.741  1.00  0.00    -0.387 N 
ATOM      6  H21 UNL     1       4.315   7.838  14.196  1.00  0.00     0.157 HD
ATOM      7  H22 UNL     1       5.504   9.035  14.186  1.00  0.00     0.157 HD
HETATM    8  C7  UNL     1       4.527   6.891  16.734  1.00  0.00     0.206 C 
HETATM    9  C8  UNL     1       4.588   5.607  16.175  1.00  0.00     0.077 C 
HETATM   10  N3  UNL     1       4.656   4.573  15.706  1.00  0.00    -0.196 NA
HETATM   11  C9  UNL     1       4.985   7.058  18.156  1.00  0.00     0.020 C 
HETATM   12  N4  UNL     1       4.227   6.527  19.045  1.00  0.00    -0.361 N 
ATOM     13  H4  UNL     1       4.548   6.648  20.006  1.00  0.00     0.165 HD
HETATM   14  C18 UNL     1       6.190   7.759  18.666  1.00  0.00     0.081 C 
HETATM   15  C19 UNL     1       6.013   9.143  19.163  1.00  0.00     0.049 C 
HETATM   16  C20 UNL     1       7.188   7.883  17.434  1.00  0.00     0.120 C 
HETATM   17  C21 UNL     1       7.644   6.591  16.940  1.00  0.00     0.058 C 
HETATM   18 CL1  UNL     1       8.523   8.873  18.061  1.00  0.00    -0.095 Cl
ENDROOT
BRANCH  12  19
HETATM   19  C10 UNL     1       3.048   5.818  18.917  1.00  0.00     0.033 A 
HETATM   20  C11 UNL     1       2.927   4.445  18.825  1.00  0.00     0.036 A 
HETATM   21  C12 UNL     1       1.713   3.813  18.690  1.00  0.00    -0.059 A 
HETATM   22  C13 UNL     1       1.676   2.331  18.598  1.00  0.00     0.048 C 
HETATM   23  C14 UNL     1       0.544   4.538  18.641  1.00  0.00     0.013 A 
HETATM   24  C15 UNL     1       0.621   5.929  18.731  1.00  0.00    -0.059 A 
HETATM   25  C16 UNL     1      -0.653   6.690  18.677  1.00  0.00     0.048 C 
HETATM   26  C17 UNL     1       1.849   6.542  18.866  1.00  0.00     0.036 A 
ENDBRANCH  12  19
BRANCH   1  27
HETATM   27  C3  UNL     1       6.124  11.686  18.621  1.00  0.00     0.035 C 
BRANCH  27  28
HETATM   28  C2  UNL     1       4.991  12.006  19.572  1.00  0.00    -0.000 C 
HETATM   29  C1  UNL     1       3.691  11.932  18.830  1.00  0.00     0.005 C 
ENDBRANCH  27  28
ENDBRANCH   1  27
TORSDOF 3
ENDMDL
MODEL 3
REMARK VINA RESULT: -9.193671767      2.102      3.154
REMARK  3 active torsions:
REMARK  status: ('A' for Active; 'I' for Inactive)
REMARK    1  A    between atoms: C2_2  and  C3_3 
REMARK    2  A    between atoms: C3_3  and  C4_4 
REMARK    3  A    between atoms: N4_15  and  C10_17 
ROOT
HETATM    1  C4  UNL     1       4.311  10.803  15.798  1.00  0.00    -0.063 C 
HETATM    2  C5  UNL     1       5.427  10.113  15.454  1.00  0.00     0.097 C 
HETATM    3  N1  UNL     1       6.166   9.770  16.611  1.00  0.00    -0.322 N 
HETATM    4  C6  UNL     1       6.447   8.431  16.986  1.00  0.00     0.102 C 
HETATM    5  N2  UNL     1       7.026   7.694  16.189  1.00  0.00    -0.387 N 
ATOM      6  H21 UNL     1       7.228   6.732  16.459  1.00  0.00     0.157 HD
ATOM      7  H22 UNL     1       7.413   7.916  15.272  1.00  0.00     0.157 HD
HETATM    8  C7  UNL     1       5.862   8.096  18.371  1.00  0.00     0.206 C 
HETATM    9  C8  UNL     1       6.817   7.632  19.285  1.00  0.00     0.077 C 
HETATM   10  N3  UNL     1       7.611   7.263  20.012  1.00  0.00    -0.196 NA
HETATM   11  C9  UNL     1       5.006   9.260  18.783  1.00  0.00     0.020 C 
HETATM   12  N4  UNL     1       4.148   9.014  19.706  1.00  0.00    -0.361 N 
ATOM     13  H4  UNL     1       3.573   9.812  19.976  1.00  0.00     0.165 HD
HETATM   14  C18 UNL     1       5.016  10.651  18.263  1.00  0.00     0.081 C 
HETATM   15  C19 UNL     1       4.003  11.003  17.242  1.00  0.00     0.049 C 
HETATM   16  C20 UNL     1       6.420  10.844  17.541  1.00  0.00     0.120 C 
HETATM   17  C21 UNL     1       7.549  10.741  18.456  1.00  0.00     0.058 C 
HETATM   18 CL1  UNL     1       6.302  12.454  16.798  1.00  0.00    -0.095 Cl
ENDROOT
BRANCH  12  19
HETATM   19  C10 UNL     1       3.874   7.847  20.394  1.00  0.00     0.033 A 
HETATM   20  C11 UNL     1       3.257   6.723  19.880  1.00  0.00     0.036 A 
HETATM   21  C12 UNL     1       3.011   5.600  20.634  1.00  0.00    -0.059 A 
HETATM   22  C13 UNL     1       2.343   4.436  19.999  1.00  0.00     0.048 C 
HETATM   23  C14 UNL     1       3.378   5.548  21.960  1.00  0.00     0.013 A 
HETATM   24  C15 UNL     1       4.004   6.664  22.519  1.00  0.00    -0.059 A 
HETATM   25  C16 UNL     1       4.390   6.585  23.951  1.00  0.00     0.048 C 
HETATM   26  C17 UNL     1       4.241   7.780  21.744  1.00  0.00     0.036 A 
ENDBRANCH  12  19
BRANCH   1  27
HETATM   27  C3  UNL     1       3.448  11.238  14.710  1.00  0.00     0.035 C 
BRANCH  27  28
HETATM   28  C2  UNL     1       3.649  12.694  14.349  1.00  0.00    -0.000 C 
HETATM   29  C1  UNL     1       2.664  13.529  15.112  1.00  0.00     0.005 C 
ENDBRANCH  27  28
ENDBRANCH   1  27
TORSDOF 3
ENDMDL
MODEL 4
REMARK VINA RESULT: -9.149968510      3.179      4.499
REMARK  3 active torsions:
REMARK  status: ('A' for Active; 'I' for Inactive)
REMARK    1  A    between atoms: C2_2  and  C3_3 
REMARK    2  A    between atoms: C3_3  and  C4_4 
REMARK    3  A    between atoms: N4_15  and  C10_17 
ROOT
HETATM    1  C4  UNL     1       6.297  10.218  18.212  1.00  0.00    -0.063 C 
HETATM    2  C5  UNL     1       6.359   9.960  16.882  1.00  0.00     0.097 C 
HETATM    3  N1  UNL     1       6.305   8.565  16.652  1.00  0.00    -0.322 N 
HETATM    4  C6  UNL     1       5.282   7.941  15.891  1.00  0.00     0.102 C 
HETATM    5  N2  UNL     1       5.083   8.312  14.736  1.00  0.00    -0.387 N 
ATOM      6  H21 UNL     1       4.348   7.864  14.189  1.00  0.00     0.157 HD
ATOM      7  H22 UNL     1       5.600   8.994  14.181  1.00  0.00     0.157 HD
HETATM    8  C7  UNL     1       4.502   6.911  16.730  1.00  0.00     0.206 C 
HETATM    9  C8  UNL     1       4.494   5.625  16.173  1.00  0.00     0.077 C 
HETATM   10  N3  UNL     1       4.507   4.588  15.706  1.00  0.00    -0.196 NA
HETATM   11  C9  UNL     1       4.964   7.056  18.152  1.00  0.00     0.020 C 
HETATM   12  N4  UNL     1       4.177   6.568  19.041  1.00  0.00    -0.361 N 
ATOM     13  H4  UNL     1       4.502   6.674  20.002  1.00  0.00     0.165 HD
HETATM   14  C18 UNL     1       6.205   7.691  18.665  1.00  0.00     0.081 C 
HETATM   15  C19 UNL     1       6.102   9.084  19.159  1.00  0.00     0.049 C 
HETATM   16  C20 UNL     1       7.211   7.758  17.435  1.00  0.00     0.120 C 
HETATM   17  C21 UNL     1       7.597   6.443  16.944  1.00  0.00     0.058 C 
HETATM   18 CL1  UNL     1       8.596   8.676  18.064  1.00  0.00    -0.095 Cl
ENDROOT
BRANCH  12  19
HETATM   19  C10 UNL     1       2.961   5.925  18.911  1.00  0.00     0.033 A 
HETATM   20  C11 UNL     1       1.720   6.529  18.853  1.00  0.00     0.036 A 
HETATM   21  C12 UNL     1       0.551   5.815  18.732  1.00  0.00    -0.059 A 
HETATM   22  C13 UNL     1      -0.740   6.547  18.677  1.00  0.00     0.048 C 
HETATM   23  C14 UNL     1       0.570   4.441  18.661  1.00  0.00     0.013 A 
HETATM   24  C15 UNL     1       1.804   3.789  18.716  1.00  0.00    -0.059 A 
HETATM   25  C16 UNL     1       1.799   2.307  18.637  1.00  0.00     0.048 C 
HETATM   26  C17 UNL     1       2.963   4.525  18.838  1.00  0.00     0.036 A 
ENDBRANCH  12  19
BRANCH   1  27
HETATM   27  C3  UNL     1       6.352  11.616  18.612  1.00  0.00     0.035 C 
BRANCH  27  28
HETATM   28  C2  UNL     1       5.273  11.984  19.606  1.00  0.00    -0.000 C 
HETATM   29  C1  UNL     1       3.933  11.863  18.945  1.00  0.00     0.005 C 
ENDBRANCH  27  28
ENDBRANCH   1  27
TORSDOF 3
ENDMDL
MODEL 5
REMARK VINA RESULT: -9.106694583      3.115      4.594
REMARK  3 active torsions:
REMARK  status: ('A' for Active; 'I' for Inactive)
REMARK    1  A    between atoms: C2_2  and  C3_3 
REMARK    2  A    between atoms: C3_3  and  C4_4 
REMARK    3  A    between atoms: N4_15  and  C10_17 
ROOT
HETATM    1  C4  UNL     1       4.798  11.596  16.467  1.00  0.00    -0.063 C 
HETATM    2  C5  UNL     1       5.450  10.836  15.551  1.00  0.00     0.097 C 
HETATM    3  N1  UNL     1       5.727   9.556  16.087  1.00  0.00    -0.322 N 
HETATM    4  C6  UNL     1       5.232   8.353  15.521  1.00  0.00     0.102 C 
HETATM    5  N2  UNL     1       5.474   8.100  14.342  1.00  0.00    -0.387 N 
ATOM      6  H21 UNL     1       5.117   7.235  13.936  1.00  0.00     0.157 HD
ATOM      7  H22 UNL     1       6.054   8.614  13.680  1.00  0.00     0.157 HD
HETATM    8  C7  UNL     1       4.355   7.577  16.522  1.00  0.00     0.206 C 
HETATM    9  C8  UNL     1       4.791   6.265  16.751  1.00  0.00     0.077 C 
HETATM   10  N3  UNL     1       5.169   5.206  16.926  1.00  0.00    -0.196 NA
HETATM   11  C9  UNL     1       4.153   8.466  17.717  1.00  0.00     0.020 C 
HETATM   12  N4  UNL     1       3.159   8.161  18.470  1.00  0.00    -0.361 N 
ATOM     13  H4  UNL     1       3.033   8.772  19.276  1.00  0.00     0.165 HD
HETATM   14  C18 UNL     1       4.944   9.650  18.137  1.00  0.00     0.081 C 
HETATM   15  C19 UNL     1       4.417  10.985  17.771  1.00  0.00     0.049 C 
HETATM   16  C20 UNL     1       6.344   9.536  17.391  1.00  0.00     0.120 C 
HETATM   17  C21 UNL     1       7.111   8.366  17.797  1.00  0.00     0.058 C 
HETATM   18 CL1  UNL     1       7.171  11.056  17.796  1.00  0.00    -0.095 Cl
ENDROOT
BRANCH  12  19
HETATM   19  C10 UNL     1       2.232   7.141  18.369  1.00  0.00     0.033 A 
HETATM   20  C11 UNL     1       2.220   5.973  19.106  1.00  0.00     0.036 A 
HETATM   21  C12 UNL     1       1.264   4.999  18.940  1.00  0.00    -0.059 A 
HETATM   22  C13 UNL     1       1.327   3.774  19.777  1.00  0.00     0.048 C 
HETATM   23  C14 UNL     1       0.258   5.151  18.013  1.00  0.00     0.013 A 
HETATM   24  C15 UNL     1       0.233   6.317  17.245  1.00  0.00    -0.059 A 
HETATM   25  C16 UNL     1      -0.861   6.459  16.252  1.00  0.00     0.048 C 
HETATM   26  C17 UNL     1       1.202   7.281  17.429  1.00  0.00     0.036 A 
ENDBRANCH  12  19
BRANCH   1  27
HETATM   27  C3  UNL     1       4.451  12.951  16.066  1.00  0.00     0.035 C 
BRANCH  27  28
HETATM   28  C2  UNL     1       3.782  13.008  14.710  1.00  0.00    -0.000 C 
HETATM   29  C1  UNL     1       2.361  13.454  14.882  1.00  0.00     0.005 C 
ENDBRANCH  27  28
ENDBRANCH   1  27
TORSDOF 3
ENDMDL
