MODEL 1
REMARK VINA RESULT: -7.289710316      0.000      0.000
REMARK  4 active torsions:
REMARK  status: ('A' for Active; 'I' for Inactive)
REMARK    1  A    between atoms: C2_2  and  C4_4 
REMARK    2  A    between atoms: C4_4  and  C5_5 
REMARK    3  A    between atoms: C8_8  and  C9_9 
REMARK    4  A    between atoms: C12_14  and  O1_16 
ROOT
HETATM    1  C9  UNL     1       5.634   7.896  19.405  1.00  0.00     0.051 C 
HETATM    2  C10 UNL     1       5.425   8.341  20.801  1.00  0.00     0.165 C 
HETATM    3  C11 UNL     1       6.674   8.273  21.597  1.00  0.00     0.075 C 
HETATM    4  N1  UNL     1       7.644   8.213  22.231  1.00  0.00    -0.196 NA
HETATM    5  S1  UNL     1       4.810  10.019  20.953  1.00  0.00    -0.111 SA
HETATM    6  C12 UNL     1       5.782  11.024  19.752  1.00  0.00     0.108 C 
HETATM    7  C13 UNL     1       4.932  12.221  19.493  1.00  0.00     0.058 C 
HETATM    8  C14 UNL     1       6.253  10.219  18.643  1.00  0.00     0.039 C 
HETATM    9  C15 UNL     1       6.442  10.900  17.308  1.00  0.00    -0.010 C 
HETATM   10  C16 UNL     1       7.340  12.083  17.326  1.00  0.00     0.010 C 
HETATM   11  C17 UNL     1       5.162  11.162  16.583  1.00  0.00     0.005 C 
HETATM   12  C18 UNL     1       4.187  10.061  16.596  1.00  0.00     0.001 C 
HETATM   13  C19 UNL     1       4.150   9.152  17.771  1.00  0.00     0.006 C 
HETATM   14  C20 UNL     1       5.506   8.937  18.333  1.00  0.00     0.004 C 
ENDROOT
BRANCH   1  15
HETATM   15  C8  UNL     1       4.686   6.798  19.108  1.00  0.00    -0.049 A 
HETATM   16  C7  UNL     1       4.690   6.037  17.964  1.00  0.00     0.008 A 
HETATM   17  C6  UNL     1       3.784   5.019  17.766  1.00  0.00     0.011 A 
HETATM   18  C5  UNL     1       2.824   4.713  18.709  1.00  0.00    -0.019 A 
HETATM   19  C22 UNL     1       2.818   5.485  19.867  1.00  0.00     0.123 A 
HETATM   20  C21 UNL     1       3.731   6.501  20.055  1.00  0.00     0.050 A 
HETATM   21  F1  UNL     1       1.873   5.194  20.813  1.00  0.00    -0.206 F 
BRANCH  18  22
HETATM   22  C4  UNL     1       1.829   3.640  18.602  1.00  0.00     0.045 C 
BRANCH  22  23
HETATM   23  C2  UNL     1       0.508   4.023  18.032  1.00  0.00    -0.018 C 
HETATM   24  C1  UNL     1      -0.485   3.963  19.210  1.00  0.00     0.010 C 
HETATM   25  C3  UNL     1       0.459   5.485  17.590  1.00  0.00     0.010 C 
ENDBRANCH  22  23
ENDBRANCH  18  22
ENDBRANCH   1  15
BRANCH   6  26
HETATM   26  O1  UNL     1       6.884  11.499  20.511  1.00  0.00    -0.379 OA
ATOM     27  H1  UNL     1       7.169  12.276  20.044  1.00  0.00     0.211 HD
ENDBRANCH   6  26
TORSDOF 4
ENDMDL
MODEL 2
REMARK VINA RESULT: -7.232105831      0.920      1.297
REMARK  4 active torsions:
REMARK  status: ('A' for Active; 'I' for Inactive)
REMARK    1  A    between atoms: C2_2  and  C4_4 
REMARK    2  A    between atoms: C4_4  and  C5_5 
REMARK    3  A    between atoms: C8_8  and  C9_9 
REMARK    4  A    between atoms: C12_14  and  O1_16 
ROOT
HETATM    1  C9  UNL     1       5.566   7.882  19.553  1.00  0.00     0.051 C 
HETATM    2  C10 UNL     1       5.424   8.398  20.934  1.00  0.00     0.165 C 
HETATM    3  C11 UNL     1       6.704   8.346  21.679  1.00  0.00     0.075 C 
HETATM    4  N1  UNL     1       7.699   8.300  22.274  1.00  0.00    -0.196 NA
HETATM    5  S1  UNL     1       4.841  10.091  21.029  1.00  0.00    -0.111 SA
HETATM    6  C12 UNL     1       5.777  11.020  19.741  1.00  0.00     0.108 C 
HETATM    7  C13 UNL     1       4.935  12.218  19.459  1.00  0.00     0.058 C 
HETATM    8  C14 UNL     1       6.188  10.155  18.654  1.00  0.00     0.039 C 
HETATM    9  C15 UNL     1       6.330  10.767  17.281  1.00  0.00    -0.010 C 
HETATM   10  C16 UNL     1       7.246  11.933  17.202  1.00  0.00     0.010 C 
HETATM   11  C17 UNL     1       5.024  11.016  16.597  1.00  0.00     0.005 C 
HETATM   12  C18 UNL     1       4.033   9.934  16.705  1.00  0.00     0.001 C 
HETATM   13  C19 UNL     1       4.033   9.084  17.923  1.00  0.00     0.006 C 
HETATM   14  C20 UNL     1       5.408   8.872  18.438  1.00  0.00     0.004 C 
ENDROOT
BRANCH   1  15
HETATM   15  C8  UNL     1       4.589   6.788  19.350  1.00  0.00    -0.049 A 
HETATM   16  C7  UNL     1       3.743   6.294  20.313  1.00  0.00     0.008 A 
HETATM   17  C6  UNL     1       2.847   5.283  20.044  1.00  0.00     0.011 A 
HETATM   18  C5  UNL     1       2.754   4.715  18.790  1.00  0.00    -0.019 A 
HETATM   19  C22 UNL     1       3.612   5.215  17.814  1.00  0.00     0.123 A 
HETATM   20  C21 UNL     1       4.504   6.228  18.095  1.00  0.00     0.050 A 
HETATM   21  F1  UNL     1       3.532   4.664  16.563  1.00  0.00    -0.206 F 
BRANCH  18  22
HETATM   22  C4  UNL     1       1.824   3.652  18.397  1.00  0.00     0.045 C 
BRANCH  22  23
HETATM   23  C2  UNL     1       0.445   4.083  18.041  1.00  0.00    -0.018 C 
HETATM   24  C1  UNL     1      -0.324   4.157  19.376  1.00  0.00     0.010 C 
HETATM   25  C3  UNL     1       0.394   5.516  17.513  1.00  0.00     0.010 C 
ENDBRANCH  22  23
ENDBRANCH  18  22
ENDBRANCH   1  15
BRANCH   6  26
HETATM   26  O1  UNL     1       6.917  11.512  20.429  1.00  0.00    -0.379 OA
ATOM     27  H1  UNL     1       7.507  11.783  19.735  1.00  0.00     0.211 HD
ENDBRANCH   6  26
TORSDOF 4
ENDMDL
MODEL 3
REMARK VINA RESULT: -7.125792926      2.588      3.140
REMARK  4 active torsions:
REMARK  status: ('A' for Active; 'I' for Inactive)
REMARK    1  A    between atoms: C2_2  and  C4_4 
REMARK    2  A    between atoms: C4_4  and  C5_5 
REMARK    3  A    between atoms: C8_8  and  C9_9 
REMARK    4  A    between atoms: C12_14  and  O1_16 
ROOT
HETATM    1  C9  UNL     1       5.113   8.298  16.457  1.00  0.00     0.051 C 
HETATM    2  C10 UNL     1       6.542   8.180  16.825  1.00  0.00     0.165 C 
HETATM    3  C11 UNL     1       7.427   8.247  15.637  1.00  0.00     0.075 C 
HETATM    4  N1  UNL     1       8.128   8.288  14.713  1.00  0.00    -0.196 NA
HETATM    5  S1  UNL     1       7.114   9.441  17.964  1.00  0.00    -0.111 SA
HETATM    6  C12 UNL     1       6.398  11.028  17.360  1.00  0.00     0.108 C 
HETATM    7  C13 UNL     1       6.407  11.921  18.554  1.00  0.00     0.058 C 
HETATM    8  C14 UNL     1       5.165  10.813  16.631  1.00  0.00     0.039 C 
HETATM    9  C15 UNL     1       4.129  11.912  16.656  1.00  0.00    -0.010 C 
HETATM   10  C16 UNL     1       4.610  13.242  16.201  1.00  0.00     0.010 C 
HETATM   11  C17 UNL     1       3.365  11.985  17.938  1.00  0.00     0.005 C 
HETATM   12  C18 UNL     1       2.928  10.696  18.493  1.00  0.00     0.001 C 
HETATM   13  C19 UNL     1       3.763   9.492  18.246  1.00  0.00     0.006 C 
HETATM   14  C20 UNL     1       4.395   9.535  16.905  1.00  0.00     0.004 C 
ENDROOT
BRANCH   1  15
HETATM   15  C8  UNL     1       4.387   7.119  16.982  1.00  0.00    -0.049 A 
HETATM   16  C7  UNL     1       4.923   6.165  17.812  1.00  0.00     0.008 A 
HETATM   17  C6  UNL     1       4.178   5.102  18.275  1.00  0.00     0.011 A 
HETATM   18  C5  UNL     1       2.853   4.944  17.927  1.00  0.00    -0.019 A 
HETATM   19  C22 UNL     1       2.309   5.910  17.085  1.00  0.00     0.123 A 
HETATM   20  C21 UNL     1       3.064   6.970  16.629  1.00  0.00     0.050 A 
HETATM   21  F1  UNL     1       0.994   5.769  16.731  1.00  0.00    -0.206 F 
BRANCH  18  22
HETATM   22  C4  UNL     1       1.971   3.863  18.379  1.00  0.00     0.045 C 
BRANCH  22  23
HETATM   23  C2  UNL     1       1.128   4.157  19.570  1.00  0.00    -0.018 C 
HETATM   24  C1  UNL     1       1.863   5.278  20.333  1.00  0.00     0.010 C 
HETATM   25  C3  UNL     1      -0.213   4.790  19.200  1.00  0.00     0.010 C 
ENDBRANCH  22  23
ENDBRANCH  18  22
ENDBRANCH   1  15
BRANCH   6  26
HETATM   26  O1  UNL     1       7.393  11.548  16.492  1.00  0.00    -0.379 OA
ATOM     27  H1  UNL     1       7.393  12.482  16.671  1.00  0.00     0.211 HD
ENDBRANCH   6  26
TORSDOF 4
ENDMDL
MODEL 4
REMARK VINA RESULT: -6.842258216      2.667      3.814
REMARK  4 active torsions:
REMARK  status: ('A' for Active; 'I' for Inactive)
REMARK    1  A    between atoms: C2_2  and  C4_4 
REMARK    2  A    between atoms: C4_4  and  C5_5 
REMARK    3  A    between atoms: C8_8  and  C9_9 
REMARK    4  A    between atoms: C12_14  and  O1_16 
ROOT
HETATM    1  C9  UNL     1       4.157   9.033  17.373  1.00  0.00     0.051 C 
HETATM    2  C10 UNL     1       4.740   9.092  16.013  1.00  0.00     0.165 C 
HETATM    3  C11 UNL     1       4.599  10.438  15.409  1.00  0.00     0.075 C 
HETATM    4  N1  UNL     1       4.484  11.486  14.922  1.00  0.00    -0.196 NA
HETATM    5  S1  UNL     1       6.483   8.677  15.943  1.00  0.00    -0.111 SA
HETATM    6  C12 UNL     1       7.266   9.542  17.370  1.00  0.00     0.108 C 
HETATM    7  C13 UNL     1       8.525   8.784  17.622  1.00  0.00     0.058 C 
HETATM    8  C14 UNL     1       6.322   9.750  18.450  1.00  0.00     0.039 C 
HETATM    9  C15 UNL     1       6.860   9.791  19.860  1.00  0.00    -0.010 C 
HETATM   10  C16 UNL     1       7.931  10.793  20.096  1.00  0.00     0.010 C 
HETATM   11  C17 UNL     1       7.203   8.445  20.410  1.00  0.00     0.005 C 
HETATM   12  C18 UNL     1       6.224   7.380  20.142  1.00  0.00     0.001 C 
HETATM   13  C19 UNL     1       5.429   7.440  18.888  1.00  0.00     0.006 C 
HETATM   14  C20 UNL     1       5.110   8.839  18.514  1.00  0.00     0.004 C 
ENDROOT
BRANCH   1  15
HETATM   15  C8  UNL     1       3.152   7.945  17.413  1.00  0.00    -0.049 A 
HETATM   16  C7  UNL     1       3.281   6.726  16.793  1.00  0.00     0.008 A 
HETATM   17  C6  UNL     1       2.308   5.756  16.891  1.00  0.00     0.011 A 
HETATM   18  C5  UNL     1       1.153   5.961  17.617  1.00  0.00    -0.019 A 
HETATM   19  C22 UNL     1       1.022   7.197  18.244  1.00  0.00     0.123 A 
HETATM   20  C21 UNL     1       2.002   8.160  18.140  1.00  0.00     0.050 A 
HETATM   21  F1  UNL     1      -0.117   7.417  18.970  1.00  0.00    -0.206 F 
BRANCH  18  22
HETATM   22  C4  UNL     1       0.070   4.989  17.797  1.00  0.00     0.045 C 
BRANCH  22  23
HETATM   23  C2  UNL     1       0.273   3.967  18.860  1.00  0.00    -0.018 C 
HETATM   24  C1  UNL     1       1.231   2.922  18.253  1.00  0.00     0.010 C 
HETATM   25  C3  UNL     1       1.045   4.513  20.061  1.00  0.00     0.010 C 
ENDBRANCH  22  23
ENDBRANCH  18  22
ENDBRANCH   1  15
BRANCH   6  26
HETATM   26  O1  UNL     1       7.676  10.791  16.836  1.00  0.00    -0.379 OA
ATOM     27  H1  UNL     1       7.048  11.411  17.187  1.00  0.00     0.211 HD
ENDBRANCH   6  26
TORSDOF 4
ENDMDL
MODEL 5
REMARK VINA RESULT: -6.720738862      3.118      4.525
REMARK  4 active torsions:
REMARK  status: ('A' for Active; 'I' for Inactive)
REMARK    1  A    between atoms: C2_2  and  C4_4 
REMARK    2  A    between atoms: C4_4  and  C5_5 
REMARK    3  A    between atoms: C8_8  and  C9_9 
REMARK    4  A    between atoms: C12_14  and  O1_16 
ROOT
HETATM    1  C9  UNL     1       3.940   8.760  17.082  1.00  0.00     0.051 C 
HETATM    2  C10 UNL     1       5.250   8.510  16.439  1.00  0.00     0.165 C 
HETATM    3  C11 UNL     1       5.098   7.932  15.082  1.00  0.00     0.075 C 
HETATM    4  N1  UNL     1       4.991   7.470  14.023  1.00  0.00    -0.196 NA
HETATM    5  S1  UNL     1       6.274   9.971  16.264  1.00  0.00    -0.111 SA
HETATM    6  C12 UNL     1       5.149  11.309  15.679  1.00  0.00     0.108 C 
HETATM    7  C13 UNL     1       5.842  12.573  16.058  1.00  0.00     0.058 C 
HETATM    8  C14 UNL     1       3.783  11.080  16.105  1.00  0.00     0.039 C 
HETATM    9  C15 UNL     1       2.903  12.286  16.333  1.00  0.00    -0.010 C 
HETATM   10  C16 UNL     1       2.788  13.210  15.175  1.00  0.00     0.010 C 
HETATM   11  C17 UNL     1       3.189  13.003  17.613  1.00  0.00     0.005 C 
HETATM   12  C18 UNL     1       3.398  12.146  18.789  1.00  0.00     0.001 C 
HETATM   13  C19 UNL     1       3.995  10.799  18.595  1.00  0.00     0.006 C 
HETATM   14  C20 UNL     1       3.559  10.192  17.314  1.00  0.00     0.004 C 
ENDROOT
BRANCH   1  15
HETATM   15  C8  UNL     1       3.904   8.050  18.381  1.00  0.00    -0.049 A 
HETATM   16  C7  UNL     1       4.938   7.998  19.283  1.00  0.00     0.008 A 
HETATM   17  C6  UNL     1       4.823   7.329  20.482  1.00  0.00     0.011 A 
HETATM   18  C5  UNL     1       3.661   6.676  20.836  1.00  0.00    -0.019 A 
HETATM   19  C22 UNL     1       2.613   6.728  19.922  1.00  0.00     0.123 A 
HETATM   20  C21 UNL     1       2.739   7.401  18.725  1.00  0.00     0.050 A 
HETATM   21  F1  UNL     1       1.451   6.086  20.258  1.00  0.00    -0.206 F 
BRANCH  18  22
HETATM   22  C4  UNL     1       3.432   5.954  22.092  1.00  0.00     0.045 C 
BRANCH  22  23
HETATM   23  C2  UNL     1       3.510   6.763  23.340  1.00  0.00    -0.018 C 
HETATM   24  C1  UNL     1       2.698   5.981  24.392  1.00  0.00     0.010 C 
HETATM   25  C3  UNL     1       4.921   6.803  23.926  1.00  0.00     0.010 C 
ENDBRANCH  22  23
ENDBRANCH  18  22
ENDBRANCH   1  15
BRANCH   6  26
HETATM   26  O1  UNL     1       5.235  11.240  14.264  1.00  0.00    -0.379 OA
ATOM     27  H1  UNL     1       4.353  11.433  13.968  1.00  0.00     0.211 HD
ENDBRANCH   6  26
TORSDOF 4
ENDMDL
