MODEL 1
REMARK VINA RESULT: -7.495112054      0.000      0.000
REMARK  14 active torsions:
REMARK  status: ('A' for Active; 'I' for Inactive)
REMARK    1  A    between atoms: C5_10  and  N4_11 
REMARK    2  A    between atoms: N4_11  and  C6_13 
REMARK    3  A    between atoms: C7_14  and  C8_15 
REMARK       I    between atoms: C8_15  and  N5_17 
REMARK    4  A    between atoms: N5_17  and  N6_19 
REMARK    5  A    between atoms: C9_24  and  O2_25 
REMARK    6  A    between atoms: N8_27  and  C10_28 
REMARK    7  A    between atoms: C10_28  and  C11_29 
REMARK    8  A    between atoms: C11_29  and  C12_31 
REMARK    9  A    between atoms: C12_31  and  N9_32 
REMARK   10  A    between atoms: N9_32  and  C13_35 
REMARK   11  A    between atoms: C13_35  and  N10_36 
REMARK   12  A    between atoms: C13_35  and  C14_40 
REMARK   13  A    between atoms: C14_40  and  O4_41 
REMARK   14  A    between atoms: N11_43  and  O5_45 
ROOT
HETATM    1  C6  UNL     1      15.886  -5.470  -0.908  1.00  0.00     0.145 A 
HETATM    2  C7  UNL     1      17.269  -5.736  -0.892  1.00  0.00     0.150 A 
HETATM    3  N7  UNL     1      17.522  -6.379  -2.063  1.00  0.00    -0.314 N 
ATOM      4  H7  UNL     1      18.443  -6.709  -2.353  1.00  0.00     0.170 HD
HETATM    5  C9  UNL     1      16.430  -6.522  -2.767  1.00  0.00     0.226 A 
HETATM    6  N8  UNL     1      15.419  -5.958  -2.044  1.00  0.00    -0.290 N 
ENDROOT
BRANCH   6   7
HETATM    7  C10 UNL     1      14.057  -6.013  -2.509  1.00  0.00     0.214 C 
BRANCH   7   8
HETATM    8  C11 UNL     1      13.221  -6.851  -1.591  1.00  0.00     0.170 C 
HETATM    9  O3  UNL     1      12.436  -6.291  -0.849  1.00  0.00    -0.294 OA
BRANCH   8  10
HETATM   10  C12 UNL     1      13.327  -8.329  -1.566  1.00  0.00     0.315 C 
BRANCH  10  11
HETATM   11  N9  UNL     1      14.164  -8.776  -0.450  1.00  0.00    -0.032 N 
ATOM     12  H92 UNL     1      15.086  -8.340  -0.438  1.00  0.00     0.280 HD
ATOM     13  H91 UNL     1      13.847  -8.430   0.455  1.00  0.00     0.280 HD
BRANCH  11  14
HETATM   14  C13 UNL     1      14.215 -10.224  -0.523  1.00  0.00     0.455 C 
BRANCH  14  15
HETATM   15  N10 UNL     1      14.417 -10.754   0.790  1.00  0.00    -0.042 N 
ATOM     16 3H10 UNL     1      14.448 -10.024   1.502  1.00  0.00     0.277 HD
ATOM     17 2H10 UNL     1      13.598 -11.257   1.135  1.00  0.00     0.277 HD
ATOM     18 1H10 UNL     1      15.256 -11.335   0.794  1.00  0.00     0.277 HD
ENDBRANCH  14  15
BRANCH  14  19
HETATM   19  C14 UNL     1      15.287 -10.686  -1.438  1.00  0.00     0.194 C 
HETATM   20  N11 UNL     1      16.468 -10.214  -1.473  1.00  0.00    -0.248 N 
ATOM     21  H11 UNL     1      17.105 -10.625  -2.155  1.00  0.00     0.196 HD
BRANCH  19  22
HETATM   22  O4  UNL     1      14.979 -11.714  -2.328  1.00  0.00    -0.345 OA
ATOM     23  H4  UNL     1      15.701 -12.156  -2.759  1.00  0.00     0.219 HD
ENDBRANCH  19  22
BRANCH  20  24
HETATM   24  O5  UNL     1      16.966  -9.219  -0.697  1.00  0.00    -0.288 OA
ATOM     25  H5  UNL     1      16.924  -8.287  -0.874  1.00  0.00     0.244 HD
ENDBRANCH  20  24
ENDBRANCH  14  19
ENDBRANCH  11  14
ENDBRANCH  10  11
ENDBRANCH   8  10
ENDBRANCH   7   8
ENDBRANCH   6   7
BRANCH   1  26
HETATM   26  N4  UNL     1      15.247  -4.795   0.169  1.00  0.00    -0.328 N 
ATOM     27  H4  UNL     1      15.000  -3.831  -0.051  1.00  0.00     0.169 HD
BRANCH  26  28
HETATM   28  C5  UNL     1      14.891  -5.171   1.452  1.00  0.00     0.113 C 
HETATM   29  N3  UNL     1      14.022  -6.165   1.521  1.00  0.00    -0.318 N 
HETATM   30  C4  UNL     1      13.458  -6.777   2.687  1.00  0.00     0.191 C 
ATOM     31  H3  UNL     1      13.712  -6.545   0.626  1.00  0.00     0.170 HD
HETATM   32  N1  UNL     1      13.208  -6.069   3.737  1.00  0.00    -0.339 N 
HETATM   33  N2  UNL     1      13.193  -8.153   2.630  1.00  0.00    -0.063 NA
HETATM   34  C2  UNL     1      13.363  -4.686   4.088  1.00  0.00     0.095 C 
ATOM     35  H1  UNL     1      12.807  -6.623   4.495  1.00  0.00     0.164 HD
HETATM   36  C1  UNL     1      13.551  -4.651   5.604  1.00  0.00     0.062 C 
HETATM   37  C3  UNL     1      11.960  -4.074   3.861  1.00  0.00     0.062 C 
HETATM   38  N12 UNL     1      14.245  -3.876   3.385  1.00  0.00    -0.382 N 
HETATM   39  C15 UNL     1      15.364  -4.467   2.682  1.00  0.00     0.079 C 
ATOM     40  H12 UNL     1      14.106  -2.865   3.365  1.00  0.00     0.157 HD
HETATM   41  C16 UNL     1      16.143  -5.390   3.558  1.00  0.00     0.046 C 
HETATM   42  C17 UNL     1      16.255  -3.323   2.263  1.00  0.00     0.046 C 
ENDBRANCH  26  28
ENDBRANCH   1  26
BRANCH   5  43
HETATM   43  O2  UNL     1      16.252  -7.126  -4.033  1.00  0.00    -0.332 OA
ATOM     44  H2  UNL     1      15.750  -6.823  -4.780  1.00  0.00     0.221 HD
ENDBRANCH   5  43
BRANCH   2  45
HETATM   45  C8  UNL     1      18.303  -5.444   0.059  1.00  0.00     0.290 C 
HETATM   46  O1  UNL     1      18.938  -4.377   0.065  1.00  0.00    -0.264 OA
HETATM   47  N5  UNL     1      18.683  -6.377   1.083  1.00  0.00    -0.271 N 
ATOM     48  H5  UNL     1      18.194  -7.270   1.124  1.00  0.00     0.189 HD
BRANCH  47  49
HETATM   49  N6  UNL     1      19.671  -6.133   2.015  1.00  0.00    -0.342 N 
ATOM     50  H62 UNL     1      19.844  -5.159   2.263  1.00  0.00     0.176 HD
ATOM     51  H61 UNL     1      20.226  -6.865   2.458  1.00  0.00     0.176 HD
ENDBRANCH  47  49
ENDBRANCH   2  45
TORSDOF 14
ENDMDL
MODEL 2
REMARK VINA RESULT: -7.377305407      1.774      2.226
REMARK  14 active torsions:
REMARK  status: ('A' for Active; 'I' for Inactive)
REMARK    1  A    between atoms: C5_10  and  N4_11 
REMARK    2  A    between atoms: N4_11  and  C6_13 
REMARK    3  A    between atoms: C7_14  and  C8_15 
REMARK       I    between atoms: C8_15  and  N5_17 
REMARK    4  A    between atoms: N5_17  and  N6_19 
REMARK    5  A    between atoms: C9_24  and  O2_25 
REMARK    6  A    between atoms: N8_27  and  C10_28 
REMARK    7  A    between atoms: C10_28  and  C11_29 
REMARK    8  A    between atoms: C11_29  and  C12_31 
REMARK    9  A    between atoms: C12_31  and  N9_32 
REMARK   10  A    between atoms: N9_32  and  C13_35 
REMARK   11  A    between atoms: C13_35  and  N10_36 
REMARK   12  A    between atoms: C13_35  and  C14_40 
REMARK   13  A    between atoms: C14_40  and  O4_41 
REMARK   14  A    between atoms: N11_43  and  O5_45 
ROOT
HETATM    1  C6  UNL     1      17.143  -6.130   0.272  1.00  0.00     0.145 A 
HETATM    2  C7  UNL     1      18.500  -6.418   0.032  1.00  0.00     0.150 A 
HETATM    3  N7  UNL     1      18.594  -6.597  -1.313  1.00  0.00    -0.314 N 
ATOM      4  H7  UNL     1      19.458  -6.821  -1.806  1.00  0.00     0.170 HD
HETATM    5  C9  UNL     1      17.432  -6.445  -1.891  1.00  0.00     0.226 A 
HETATM    6  N8  UNL     1      16.535  -6.158  -0.902  1.00  0.00    -0.290 N 
ENDROOT
BRANCH   6   7
HETATM    7  C10 UNL     1      15.133  -6.005  -1.194  1.00  0.00     0.214 C 
BRANCH   7   8
HETATM    8  C11 UNL     1      14.396  -7.280  -0.920  1.00  0.00     0.170 C 
HETATM    9  O3  UNL     1      13.976  -7.475   0.204  1.00  0.00    -0.294 OA
BRANCH   8  10
HETATM   10  C12 UNL     1      14.170  -8.296  -1.975  1.00  0.00     0.315 C 
BRANCH  10  11
HETATM   11  N9  UNL     1      15.400  -9.039  -2.258  1.00  0.00    -0.032 N 
ATOM     12  H92 UNL     1      15.314  -9.672  -3.054  1.00  0.00     0.280 HD
ATOM     13  H91 UNL     1      16.145  -8.456  -2.639  1.00  0.00     0.280 HD
BRANCH  11  14
HETATM   14  C13 UNL     1      15.772  -9.712  -1.029  1.00  0.00     0.455 C 
BRANCH  14  15
HETATM   15  N10 UNL     1      17.165 -10.037  -1.072  1.00  0.00    -0.042 N 
ATOM     16 3H10 UNL     1      17.408 -10.587  -1.896  1.00  0.00     0.277 HD
ATOM     17 2H10 UNL     1      17.747  -9.222  -1.266  1.00  0.00     0.277 HD
ATOM     18 1H10 UNL     1      17.428 -10.503  -0.204  1.00  0.00     0.277 HD
ENDBRANCH  14  15
BRANCH  14  19
HETATM   19  C14 UNL     1      14.962 -10.935  -0.809  1.00  0.00     0.194 C 
HETATM   20  N11 UNL     1      14.286 -11.181   0.241  1.00  0.00    -0.248 N 
ATOM     21  H11 UNL     1      13.775 -12.063   0.259  1.00  0.00     0.196 HD
BRANCH  19  22
HETATM   22  O4  UNL     1      14.940 -11.887  -1.827  1.00  0.00    -0.345 OA
ATOM     23  H4  UNL     1      15.649 -11.874  -2.458  1.00  0.00     0.219 HD
ENDBRANCH  19  22
BRANCH  20  24
HETATM   24  O5  UNL     1      14.176 -10.390   1.337  1.00  0.00    -0.288 OA
ATOM     25  H5  UNL     1      13.415  -9.883   1.595  1.00  0.00     0.244 HD
ENDBRANCH  20  24
ENDBRANCH  14  19
ENDBRANCH  11  14
ENDBRANCH  10  11
ENDBRANCH   8  10
ENDBRANCH   7   8
ENDBRANCH   6   7
BRANCH   1  26
HETATM   26  N4  UNL     1      16.659  -5.877   1.585  1.00  0.00    -0.328 N 
ATOM     27  H4  UNL     1      17.179  -6.373   2.308  1.00  0.00     0.169 HD
BRANCH  26  28
HETATM   28  C5  UNL     1      15.629  -5.101   2.088  1.00  0.00     0.113 C 
HETATM   29  N3  UNL     1      14.585  -5.779   2.532  1.00  0.00    -0.318 N 
HETATM   30  C4  UNL     1      13.372  -5.275   3.103  1.00  0.00     0.191 C 
ATOM     31  H3  UNL     1      14.652  -6.794   2.457  1.00  0.00     0.170 HD
HETATM   32  N1  UNL     1      12.868  -4.164   2.682  1.00  0.00    -0.339 N 
HETATM   33  N2  UNL     1      12.770  -6.036   4.116  1.00  0.00    -0.063 NA
HETATM   34  C2  UNL     1      13.238  -3.192   1.692  1.00  0.00     0.095 C 
ATOM     35  H1  UNL     1      12.004  -3.918   3.167  1.00  0.00     0.164 HD
HETATM   36  C1  UNL     1      12.665  -1.859   2.171  1.00  0.00     0.062 C 
HETATM   37  C3  UNL     1      12.381  -3.558   0.457  1.00  0.00     0.062 C 
HETATM   38  N12 UNL     1      14.547  -3.119   1.233  1.00  0.00    -0.382 N 
HETATM   39  C15 UNL     1      15.630  -3.607   2.060  1.00  0.00     0.079 C 
ATOM     40  H12 UNL     1      14.744  -2.721   0.315  1.00  0.00     0.157 HD
HETATM   41  C16 UNL     1      15.567  -3.048   3.442  1.00  0.00     0.046 C 
HETATM   42  C17 UNL     1      16.908  -3.144   1.404  1.00  0.00     0.046 C 
ENDBRANCH  26  28
ENDBRANCH   1  26
BRANCH   5  43
HETATM   43  O2  UNL     1      17.091  -6.542  -3.259  1.00  0.00    -0.332 OA
ATOM     44  H2  UNL     1      17.627  -6.809  -3.997  1.00  0.00     0.221 HD
ENDBRANCH   5  43
BRANCH   2  45
HETATM   45  C8  UNL     1      19.640  -6.520   0.897  1.00  0.00     0.290 C 
HETATM   46  O1  UNL     1      19.548  -6.632   2.130  1.00  0.00    -0.264 OA
HETATM   47  N5  UNL     1      20.985  -6.500   0.393  1.00  0.00    -0.271 N 
ATOM     48  H5  UNL     1      21.119  -6.410  -0.613  1.00  0.00     0.189 HD
BRANCH  47  49
HETATM   49  N6  UNL     1      22.105  -6.596   1.193  1.00  0.00    -0.342 N 
ATOM     50  H62 UNL     1      22.974  -6.884   0.742  1.00  0.00     0.176 HD
ATOM     51  H61 UNL     1      22.107  -6.398   2.193  1.00  0.00     0.176 HD
ENDBRANCH  47  49
ENDBRANCH   2  45
TORSDOF 14
ENDMDL
MODEL 3
REMARK VINA RESULT: -7.293542333      1.320      1.617
REMARK  14 active torsions:
REMARK  status: ('A' for Active; 'I' for Inactive)
REMARK    1  A    between atoms: C5_10  and  N4_11 
REMARK    2  A    between atoms: N4_11  and  C6_13 
REMARK    3  A    between atoms: C7_14  and  C8_15 
REMARK       I    between atoms: C8_15  and  N5_17 
REMARK    4  A    between atoms: N5_17  and  N6_19 
REMARK    5  A    between atoms: C9_24  and  O2_25 
REMARK    6  A    between atoms: N8_27  and  C10_28 
REMARK    7  A    between atoms: C10_28  and  C11_29 
REMARK    8  A    between atoms: C11_29  and  C12_31 
REMARK    9  A    between atoms: C12_31  and  N9_32 
REMARK   10  A    between atoms: N9_32  and  C13_35 
REMARK   11  A    between atoms: C13_35  and  N10_36 
REMARK   12  A    between atoms: C13_35  and  C14_40 
REMARK   13  A    between atoms: C14_40  and  O4_41 
REMARK   14  A    between atoms: N11_43  and  O5_45 
ROOT
HETATM    1  C6  UNL     1      16.280  -5.334  -0.464  1.00  0.00     0.145 A 
HETATM    2  C7  UNL     1      17.591  -5.807  -0.670  1.00  0.00     0.150 A 
HETATM    3  N7  UNL     1      17.498  -6.666  -1.720  1.00  0.00    -0.314 N 
ATOM      4  H7  UNL     1      18.286  -7.178  -2.117  1.00  0.00     0.170 HD
HETATM    5  C9  UNL     1      16.269  -6.750  -2.154  1.00  0.00     0.226 A 
HETATM    6  N8  UNL     1      15.517  -5.923  -1.369  1.00  0.00    -0.290 N 
ENDROOT
BRANCH   6   7
HETATM    7  C10 UNL     1      14.089  -5.839  -1.536  1.00  0.00     0.214 C 
BRANCH   7   8
HETATM    8  C11 UNL     1      13.387  -6.583  -0.441  1.00  0.00     0.170 C 
HETATM    9  O3  UNL     1      12.594  -5.977   0.254  1.00  0.00    -0.294 OA
BRANCH   8  10
HETATM   10  C12 UNL     1      13.633  -8.023  -0.190  1.00  0.00     0.315 C 
BRANCH  10  11
HETATM   11  N9  UNL     1      13.623  -8.782  -1.443  1.00  0.00    -0.032 N 
ATOM     12  H92 UNL     1      12.734  -8.725  -1.941  1.00  0.00     0.280 HD
ATOM     13  H91 UNL     1      14.205  -8.368  -2.171  1.00  0.00     0.280 HD
BRANCH  11  14
HETATM   14  C13 UNL     1      14.005 -10.140  -1.108  1.00  0.00     0.455 C 
BRANCH  14  15
HETATM   15  N10 UNL     1      14.368 -10.200   0.275  1.00  0.00    -0.042 N 
ATOM     16 3H10 UNL     1      15.337  -9.927   0.432  1.00  0.00     0.277 HD
ATOM     17 2H10 UNL     1      13.920  -9.468   0.825  1.00  0.00     0.277 HD
ATOM     18 1H10 UNL     1      14.165 -11.133   0.635  1.00  0.00     0.277 HD
ENDBRANCH  14  15
BRANCH  14  19
HETATM   19  C14 UNL     1      15.124 -10.617  -1.958  1.00  0.00     0.194 C 
HETATM   20  N11 UNL     1      16.345 -10.299  -1.798  1.00  0.00    -0.248 N 
ATOM     21  H11 UNL     1      17.012 -10.699  -2.458  1.00  0.00     0.196 HD
BRANCH  19  22
HETATM   22  O4  UNL     1      14.815 -11.477  -3.010  1.00  0.00    -0.345 OA
ATOM     23  H4  UNL     1      14.653 -11.090  -3.862  1.00  0.00     0.219 HD
ENDBRANCH  19  22
BRANCH  20  24
HETATM   24  O5  UNL     1      16.851  -9.481  -0.842  1.00  0.00    -0.288 OA
ATOM     25  H5  UNL     1      17.595  -8.898  -0.930  1.00  0.00     0.244 HD
ENDBRANCH  20  24
ENDBRANCH  14  19
ENDBRANCH  11  14
ENDBRANCH  10  11
ENDBRANCH   8  10
ENDBRANCH   7   8
ENDBRANCH   6   7
BRANCH   1  26
HETATM   26  N4  UNL     1      15.981  -4.400   0.566  1.00  0.00    -0.328 N 
ATOM     27  H4  UNL     1      16.118  -3.430   0.282  1.00  0.00     0.169 HD
BRANCH  26  28
HETATM   28  C5  UNL     1      15.544  -4.529   1.873  1.00  0.00     0.113 C 
HETATM   29  N3  UNL     1      16.170  -5.454   2.580  1.00  0.00    -0.318 N 
HETATM   30  C4  UNL     1      15.953  -5.831   3.946  1.00  0.00     0.191 C 
ATOM     31  H3  UNL     1      16.903  -5.966   2.090  1.00  0.00     0.170 HD
HETATM   32  N1  UNL     1      14.763  -5.805   4.446  1.00  0.00    -0.339 N 
HETATM   33  N2  UNL     1      17.072  -6.225   4.693  1.00  0.00    -0.063 NA
HETATM   34  C2  UNL     1      13.461  -5.461   3.949  1.00  0.00     0.095 C 
ATOM     35  H1  UNL     1      14.744  -6.098   5.423  1.00  0.00     0.164 HD
HETATM   36  C1  UNL     1      12.660  -4.977   5.157  1.00  0.00     0.062 C 
HETATM   37  C3  UNL     1      12.819  -6.820   3.582  1.00  0.00     0.062 C 
HETATM   38  N12 UNL     1      13.326  -4.664   2.819  1.00  0.00    -0.382 N 
HETATM   39  C15 UNL     1      14.394  -3.763   2.440  1.00  0.00     0.079 C 
ATOM     40  H12 UNL     1      12.476  -4.714   2.257  1.00  0.00     0.157 HD
HETATM   41  C16 UNL     1      14.833  -2.914   3.585  1.00  0.00     0.046 C 
HETATM   42  C17 UNL     1      13.835  -2.873   1.358  1.00  0.00     0.046 C 
ENDBRANCH  26  28
ENDBRANCH   1  26
BRANCH   5  43
HETATM   43  O2  UNL     1      15.743  -7.518  -3.218  1.00  0.00    -0.332 OA
ATOM     44  H2  UNL     1      14.850  -7.805  -3.371  1.00  0.00     0.221 HD
ENDBRANCH   5  43
BRANCH   2  45
HETATM   45  C8  UNL     1      18.837  -5.529  -0.017  1.00  0.00     0.290 C 
HETATM   46  O1  UNL     1      19.134  -4.411   0.432  1.00  0.00    -0.264 OA
HETATM   47  N5  UNL     1      19.844  -6.537   0.166  1.00  0.00    -0.271 N 
ATOM     48  H5  UNL     1      19.653  -7.476  -0.184  1.00  0.00     0.189 HD
BRANCH  47  49
HETATM   49  N6  UNL     1      21.054  -6.309   0.789  1.00  0.00    -0.342 N 
ATOM     50  H62 UNL     1      21.275  -5.344   1.034  1.00  0.00     0.176 HD
ATOM     51  H61 UNL     1      21.725  -7.044   1.010  1.00  0.00     0.176 HD
ENDBRANCH  47  49
ENDBRANCH   2  45
TORSDOF 14
ENDMDL
MODEL 4
REMARK VINA RESULT: -7.275531620      1.762      2.173
REMARK  14 active torsions:
REMARK  status: ('A' for Active; 'I' for Inactive)
REMARK    1  A    between atoms: C5_10  and  N4_11 
REMARK    2  A    between atoms: N4_11  and  C6_13 
REMARK    3  A    between atoms: C7_14  and  C8_15 
REMARK       I    between atoms: C8_15  and  N5_17 
REMARK    4  A    between atoms: N5_17  and  N6_19 
REMARK    5  A    between atoms: C9_24  and  O2_25 
REMARK    6  A    between atoms: N8_27  and  C10_28 
REMARK    7  A    between atoms: C10_28  and  C11_29 
REMARK    8  A    between atoms: C11_29  and  C12_31 
REMARK    9  A    between atoms: C12_31  and  N9_32 
REMARK   10  A    between atoms: N9_32  and  C13_35 
REMARK   11  A    between atoms: C13_35  and  N10_36 
REMARK   12  A    between atoms: C13_35  and  C14_40 
REMARK   13  A    between atoms: C14_40  and  O4_41 
REMARK   14  A    between atoms: N11_43  and  O5_45 
ROOT
HETATM    1  C6  UNL     1      17.042  -6.146   0.231  1.00  0.00     0.145 A 
HETATM    2  C7  UNL     1      18.394  -6.450  -0.019  1.00  0.00     0.150 A 
HETATM    3  N7  UNL     1      18.470  -6.662  -1.360  1.00  0.00    -0.314 N 
ATOM      4  H7  UNL     1      19.326  -6.904  -1.859  1.00  0.00     0.170 HD
HETATM    5  C9  UNL     1      17.302  -6.514  -1.927  1.00  0.00     0.226 A 
HETATM    6  N8  UNL     1      16.419  -6.197  -0.935  1.00  0.00    -0.290 N 
ENDROOT
BRANCH   6   7
HETATM    7  C10 UNL     1      15.015  -6.040  -1.214  1.00  0.00     0.214 C 
BRANCH   7   8
HETATM    8  C11 UNL     1      14.281  -7.320  -0.957  1.00  0.00     0.170 C 
HETATM    9  O3  UNL     1      13.954  -7.581   0.184  1.00  0.00    -0.294 OA
BRANCH   8  10
HETATM   10  C12 UNL     1      13.950  -8.264  -2.051  1.00  0.00     0.315 C 
BRANCH  10  11
HETATM   11  N9  UNL     1      14.251  -9.644  -1.662  1.00  0.00    -0.032 N 
ATOM     12  H92 UNL     1      13.874  -9.896  -0.747  1.00  0.00     0.280 HD
ATOM     13  H91 UNL     1      13.739 -10.338  -2.207  1.00  0.00     0.280 HD
BRANCH  11  14
HETATM   14  C13 UNL     1      15.690  -9.795  -1.750  1.00  0.00     0.455 C 
BRANCH  14  15
HETATM   15  N10 UNL     1      16.026 -10.376  -3.013  1.00  0.00    -0.042 N 
ATOM     16 3H10 UNL     1      15.451 -11.189  -3.231  1.00  0.00     0.277 HD
ATOM     17 2H10 UNL     1      15.745  -9.787  -3.797  1.00  0.00     0.277 HD
ATOM     18 1H10 UNL     1      17.023 -10.592  -3.030  1.00  0.00     0.277 HD
ENDBRANCH  14  15
BRANCH  14  19
HETATM   19  C14 UNL     1      16.220 -10.627  -0.641  1.00  0.00     0.194 C 
HETATM   20  N11 UNL     1      17.412 -10.575  -0.198  1.00  0.00    -0.248 N 
ATOM     21  H11 UNL     1      17.643 -11.206   0.568  1.00  0.00     0.196 HD
BRANCH  19  22
HETATM   22  O4  UNL     1      15.349 -11.535  -0.040  1.00  0.00    -0.345 OA
ATOM     23  H4  UNL     1      14.418 -11.399  -0.163  1.00  0.00     0.219 HD
ENDBRANCH  19  22
BRANCH  20  24
HETATM   24  O5  UNL     1      18.406  -9.767  -0.643  1.00  0.00    -0.288 OA
ATOM     25  H5  UNL     1      19.310 -10.013  -0.800  1.00  0.00     0.244 HD
ENDBRANCH  20  24
ENDBRANCH  14  19
ENDBRANCH  11  14
ENDBRANCH  10  11
ENDBRANCH   8  10
ENDBRANCH   7   8
ENDBRANCH   6   7
BRANCH   1  26
HETATM   26  N4  UNL     1      16.576  -5.858   1.544  1.00  0.00    -0.328 N 
ATOM     27  H4  UNL     1      17.105  -6.337   2.272  1.00  0.00     0.169 HD
BRANCH  26  28
HETATM   28  C5  UNL     1      15.555  -5.066   2.040  1.00  0.00     0.113 C 
HETATM   29  N3  UNL     1      14.489  -5.727   2.455  1.00  0.00    -0.318 N 
HETATM   30  C4  UNL     1      13.277  -5.203   3.012  1.00  0.00     0.191 C 
ATOM     31  H3  UNL     1      14.534  -6.742   2.366  1.00  0.00     0.170 HD
HETATM   32  N1  UNL     1      12.806  -4.074   2.600  1.00  0.00    -0.339 N 
HETATM   33  N2  UNL     1      12.640  -5.965   4.002  1.00  0.00    -0.063 NA
HETATM   34  C2  UNL     1      13.216  -3.097   1.631  1.00  0.00     0.095 C 
ATOM     35  H1  UNL     1      11.939  -3.816   3.073  1.00  0.00     0.164 HD
HETATM   36  C1  UNL     1      12.665  -1.758   2.120  1.00  0.00     0.062 C 
HETATM   37  C3  UNL     1      12.373  -3.424   0.376  1.00  0.00     0.062 C 
HETATM   38  N12 UNL     1      14.534  -3.047   1.197  1.00  0.00    -0.382 N 
HETATM   39  C15 UNL     1      15.591  -3.573   2.035  1.00  0.00     0.079 C 
ATOM     40  H12 UNL     1      14.757  -2.640   0.288  1.00  0.00     0.157 HD
HETATM   41  C16 UNL     1      15.515  -3.033   3.424  1.00  0.00     0.046 C 
HETATM   42  C17 UNL     1      16.890  -3.129   1.409  1.00  0.00     0.046 C 
ENDBRANCH  26  28
ENDBRANCH   1  26
BRANCH   5  43
HETATM   43  O2  UNL     1      16.943  -6.641  -3.289  1.00  0.00    -0.332 OA
ATOM     44  H2  UNL     1      17.416  -7.055  -4.001  1.00  0.00     0.221 HD
ENDBRANCH   5  43
BRANCH   2  45
HETATM   45  C8  UNL     1      19.544  -6.540   0.835  1.00  0.00     0.290 C 
HETATM   46  O1  UNL     1      19.465  -6.631   2.070  1.00  0.00    -0.264 OA
HETATM   47  N5  UNL     1      20.882  -6.532   0.315  1.00  0.00    -0.271 N 
ATOM     48  H5  UNL     1      21.006  -6.460  -0.695  1.00  0.00     0.189 HD
BRANCH  47  49
HETATM   49  N6  UNL     1      22.012  -6.618   1.103  1.00  0.00    -0.342 N 
ATOM     50  H62 UNL     1      22.908  -6.695   0.622  1.00  0.00     0.176 HD
ATOM     51  H61 UNL     1      21.995  -6.608   2.122  1.00  0.00     0.176 HD
ENDBRANCH  47  49
ENDBRANCH   2  45
TORSDOF 14
ENDMDL
MODEL 5
REMARK VINA RESULT: -7.130777323      1.085      1.397
REMARK  14 active torsions:
REMARK  status: ('A' for Active; 'I' for Inactive)
REMARK    1  A    between atoms: C5_10  and  N4_11 
REMARK    2  A    between atoms: N4_11  and  C6_13 
REMARK    3  A    between atoms: C7_14  and  C8_15 
REMARK       I    between atoms: C8_15  and  N5_17 
REMARK    4  A    between atoms: N5_17  and  N6_19 
REMARK    5  A    between atoms: C9_24  and  O2_25 
REMARK    6  A    between atoms: N8_27  and  C10_28 
REMARK    7  A    between atoms: C10_28  and  C11_29 
REMARK    8  A    between atoms: C11_29  and  C12_31 
REMARK    9  A    between atoms: C12_31  and  N9_32 
REMARK   10  A    between atoms: N9_32  and  C13_35 
REMARK   11  A    between atoms: C13_35  and  N10_36 
REMARK   12  A    between atoms: C13_35  and  C14_40 
REMARK   13  A    between atoms: C14_40  and  O4_41 
REMARK   14  A    between atoms: N11_43  and  O5_45 
ROOT
HETATM    1  C6  UNL     1      15.922  -5.494  -0.830  1.00  0.00     0.145 A 
HETATM    2  C7  UNL     1      17.300  -5.788  -0.834  1.00  0.00     0.150 A 
HETATM    3  N7  UNL     1      17.515  -6.465  -1.994  1.00  0.00    -0.314 N 
ATOM      4  H7  UNL     1      18.423  -6.821  -2.294  1.00  0.00     0.170 HD
HETATM    5  C9  UNL     1      16.407  -6.601  -2.673  1.00  0.00     0.226 A 
HETATM    6  N8  UNL     1      15.422  -5.998  -1.945  1.00  0.00    -0.290 N 
ENDROOT
BRANCH   6   7
HETATM    7  C10 UNL     1      14.050  -6.034  -2.380  1.00  0.00     0.214 C 
BRANCH   7   8
HETATM    8  C11 UNL     1      13.269  -7.030  -1.579  1.00  0.00     0.170 C 
HETATM    9  O3  UNL     1      12.355  -6.625  -0.886  1.00  0.00    -0.294 OA
BRANCH   8  10
HETATM   10  C12 UNL     1      13.581  -8.478  -1.610  1.00  0.00     0.315 C 
BRANCH  10  11
HETATM   11  N9  UNL     1      13.922  -8.970  -0.273  1.00  0.00    -0.032 N 
ATOM     12  H92 UNL     1      14.895  -9.264  -0.188  1.00  0.00     0.280 HD
ATOM     13  H91 UNL     1      13.948  -8.235   0.433  1.00  0.00     0.280 HD
BRANCH  11  14
HETATM   14  C13 UNL     1      12.976 -10.026   0.034  1.00  0.00     0.455 C 
BRANCH  14  15
HETATM   15  N10 UNL     1      11.875  -9.474   0.762  1.00  0.00    -0.042 N 
ATOM     16 3H10 UNL     1      11.316 -10.193   1.221  1.00  0.00     0.277 HD
ATOM     17 2H10 UNL     1      12.176  -8.970   1.597  1.00  0.00     0.277 HD
ATOM     18 1H10 UNL     1      11.318  -8.890   0.139  1.00  0.00     0.277 HD
ENDBRANCH  14  15
BRANCH  14  19
HETATM   19  C14 UNL     1      13.611 -11.120   0.808  1.00  0.00     0.194 C 
HETATM   20  N11 UNL     1      14.393 -11.997   0.320  1.00  0.00    -0.248 N 
ATOM     21  H11 UNL     1      14.758 -12.695   0.967  1.00  0.00     0.196 HD
BRANCH  19  22
HETATM   22  O4  UNL     1      13.330 -11.195   2.171  1.00  0.00    -0.345 OA
ATOM     23  H4  UNL     1      14.065 -11.198   2.773  1.00  0.00     0.219 HD
ENDBRANCH  19  22
BRANCH  20  24
HETATM   24  O5  UNL     1      14.790 -12.099  -0.973  1.00  0.00    -0.288 OA
ATOM     25  H5  UNL     1      14.393 -12.636  -1.647  1.00  0.00     0.244 HD
ENDBRANCH  20  24
ENDBRANCH  14  19
ENDBRANCH  11  14
ENDBRANCH  10  11
ENDBRANCH   8  10
ENDBRANCH   7   8
ENDBRANCH   6   7
BRANCH   1  26
HETATM   26  N4  UNL     1      15.320  -4.779   0.243  1.00  0.00    -0.328 N 
ATOM     27  H4  UNL     1      15.077  -3.819   0.001  1.00  0.00     0.169 HD
BRANCH  26  28
HETATM   28  C5  UNL     1      14.995  -5.113   1.546  1.00  0.00     0.113 C 
HETATM   29  N3  UNL     1      14.105  -6.082   1.667  1.00  0.00    -0.318 N 
HETATM   30  C4  UNL     1      13.562  -6.650   2.866  1.00  0.00     0.191 C 
ATOM     31  H3  UNL     1      13.758  -6.477   0.793  1.00  0.00     0.170 HD
HETATM   32  N1  UNL     1      13.362  -5.908   3.904  1.00  0.00    -0.339 N 
HETATM   33  N2  UNL     1      13.262  -8.019   2.854  1.00  0.00    -0.063 NA
HETATM   34  C2  UNL     1      13.561  -4.521   4.213  1.00  0.00     0.095 C 
ATOM     35  H1  UNL     1      12.971  -6.432   4.688  1.00  0.00     0.164 HD
HETATM   36  C1  UNL     1      13.797  -4.452   5.721  1.00  0.00     0.062 C 
HETATM   37  C3  UNL     1      12.168  -3.880   4.012  1.00  0.00     0.062 C 
HETATM   38  N12 UNL     1      14.441  -3.752   3.463  1.00  0.00    -0.382 N 
HETATM   39  C15 UNL     1      15.523  -4.389   2.741  1.00  0.00     0.079 C 
ATOM     40  H12 UNL     1      14.326  -2.739   3.420  1.00  0.00     0.157 HD
HETATM   41  C16 UNL     1      16.305  -5.308   3.618  1.00  0.00     0.046 C 
HETATM   42  C17 UNL     1      16.428  -3.280   2.265  1.00  0.00     0.046 C 
ENDBRANCH  26  28
ENDBRANCH   1  26
BRANCH   5  43
HETATM   43  O2  UNL     1      16.190  -7.231  -3.920  1.00  0.00    -0.332 OA
ATOM     44  H2  UNL     1      15.708  -8.025  -4.119  1.00  0.00     0.221 HD
ENDBRANCH   5  43
BRANCH   2  45
HETATM   45  C8  UNL     1      18.359  -5.497   0.088  1.00  0.00     0.290 C 
HETATM   46  O1  UNL     1      19.002  -4.435   0.070  1.00  0.00    -0.264 OA
HETATM   47  N5  UNL     1      18.756  -6.424   1.111  1.00  0.00    -0.271 N 
ATOM     48  H5  UNL     1      18.261  -7.313   1.172  1.00  0.00     0.189 HD
BRANCH  47  49
HETATM   49  N6  UNL     1      19.768  -6.180   2.017  1.00  0.00    -0.342 N 
ATOM     50  H62 UNL     1      19.876  -5.220   2.344  1.00  0.00     0.176 HD
ATOM     51  H61 UNL     1      20.401  -6.898   2.367  1.00  0.00     0.176 HD
ENDBRANCH  47  49
ENDBRANCH   2  45
TORSDOF 14
ENDMDL
