MODEL 1
REMARK VINA RESULT: -7.833821317      0.000      0.000
REMARK  16 active torsions:
REMARK  status: ('A' for Active; 'I' for Inactive)
REMARK       I    between atoms: C2_2  and  N1_4 
REMARK    1  A    between atoms: N1_4  and  C3_6 
REMARK    2  A    between atoms: C3_6  and  C4_7 
REMARK    3  A    between atoms: C3_6  and  C5_10 
REMARK    4  A    between atoms: C3_6  and  C10_30 
REMARK    5  A    between atoms: C4_7  and  O2_8 
REMARK    6  A    between atoms: C5_10  and  N2_11 
REMARK    7  A    between atoms: C7_17  and  N5_18 
REMARK    8  A    between atoms: C8_23  and  N7_24 
REMARK    9  A    between atoms: C10_30  and  O3_31 
REMARK   10  A    between atoms: C10_30  and  C11_33 
REMARK   11  A    between atoms: C12_36  and  C13_37 
REMARK   12  A    between atoms: C13_37  and  O4_39 
REMARK   13  A    between atoms: C13_37  and  C15_41 
REMARK   14  A    between atoms: C15_41  and  O5_42 
REMARK   15  A    between atoms: N10_44  and  C16_45 
REMARK   16  A    between atoms: N11_46  and  O6_48 
ROOT
HETATM    1  C3  UNL     1      13.754  -7.710  -1.628  1.00  0.00     0.104 C 
ENDROOT
BRANCH   1   2
HETATM    2  N1  UNL     1      14.155  -8.974  -2.202  1.00  0.00    -0.345 N 
HETATM    3  C2  UNL     1      15.240  -9.747  -1.730  1.00  0.00     0.214 C 
HETATM    4  C1  UNL     1      15.550 -11.068  -2.424  1.00  0.00     0.117 C 
HETATM    5  O1  UNL     1      15.990  -9.475  -0.792  1.00  0.00    -0.274 OA
ATOM      6  H1  UNL     1      13.623  -9.330  -2.997  1.00  0.00     0.163 HD
ENDBRANCH   1   2
BRANCH   1   7
HETATM    7  C4  UNL     1      13.914  -7.744  -0.162  1.00  0.00     0.200 C 
BRANCH   7   8
HETATM    8  O2  UNL     1      13.178  -8.752   0.496  1.00  0.00    -0.398 OA
ATOM      9  H2  UNL     1      12.756  -8.480   1.303  1.00  0.00     0.209 HD
ENDBRANCH   7   8
ENDBRANCH   1   7
BRANCH   1  10
HETATM   10  C5  UNL     1      12.339  -7.513  -2.156  1.00  0.00     0.188 C 
BRANCH  10  11
HETATM   11  N2  UNL     1      12.163  -7.499  -3.558  1.00  0.00    -0.257 N 
HETATM   12  N3  UNL     1      12.364  -8.595  -4.331  1.00  0.00    -0.238 N 
HETATM   13  N4  UNL     1      12.143  -8.268  -5.578  1.00  0.00    -0.279 N 
ATOM     14  H3  UNL     1      12.640  -9.518  -3.996  1.00  0.00     0.208 HD
HETATM   15  C6  UNL     1      11.801  -6.983  -5.643  1.00  0.00     0.140 A 
ATOM     16  H4  UNL     1      12.221  -8.899  -6.376  1.00  0.00     0.189 HD
HETATM   17  C7  UNL     1      11.454  -6.156  -6.690  1.00  0.00     0.147 A 
HETATM   18  C9  UNL     1      11.812  -6.488  -4.360  1.00  0.00     0.171 A 
HETATM   19  N6  UNL     1      11.130  -4.871  -6.451  1.00  0.00    -0.175 N 
HETATM   20  C8  UNL     1      11.136  -4.365  -5.191  1.00  0.00     0.679 A 
ATOM     21  H6  UNL     1      10.875  -4.266  -7.231  1.00  0.00     0.186 HD
HETATM   22  N8  UNL     1      11.477  -5.195  -4.201  1.00  0.00    -0.173 N 
ATOM     23  H8  UNL     1      11.483  -4.819  -3.253  1.00  0.00     0.186 HD
BRANCH  17  24
HETATM   24  N5  UNL     1      11.451  -6.688  -7.876  1.00  0.00    -0.383 N 
ATOM     25  H52 UNL     1      10.820  -7.439  -8.154  1.00  0.00     0.157 HD
ATOM     26  H51 UNL     1      12.132  -6.322  -8.542  1.00  0.00     0.157 HD
ENDBRANCH  17  24
BRANCH  20  27
HETATM   27  N7  UNL     1      10.818  -3.115  -4.997  1.00  0.00    -0.234 N 
ATOM     28  H72 UNL     1      10.613  -2.467  -5.757  1.00  0.00     0.174 HD
ATOM     29  H71 UNL     1      10.766  -2.751  -4.045  1.00  0.00     0.174 HD
ENDBRANCH  20  27
ENDBRANCH  10  11
ENDBRANCH   1  10
BRANCH   1  30
HETATM   30  C10 UNL     1      14.633  -6.613  -2.185  1.00  0.00     0.218 C 
BRANCH  30  31
HETATM   31  O3  UNL     1      15.240  -7.034  -3.381  1.00  0.00    -0.385 OA
ATOM     32  H3  UNL     1      15.533  -7.934  -3.304  1.00  0.00     0.210 HD
ENDBRANCH  30  31
BRANCH  30  33
HETATM   33  C11 UNL     1      15.742  -6.169  -1.311  1.00  0.00     0.130 A 
HETATM   34  N9  UNL     1      16.981  -6.632  -1.108  1.00  0.00    -0.328 N 
HETATM   35  C12 UNL     1      17.627  -5.923  -0.129  1.00  0.00     0.142 A 
ATOM     36  H9  UNL     1      17.392  -7.414  -1.617  1.00  0.00     0.168 HD
HETATM   37  N10 UNL     1      16.746  -4.998   0.272  1.00  0.00    -0.233 N 
HETATM   38  N12 UNL     1      15.644  -5.136  -0.416  1.00  0.00    -0.278 N 
ATOM     39  H12 UNL     1      14.815  -4.551  -0.301  1.00  0.00     0.189 HD
BRANCH  35  40
HETATM   40  C13 UNL     1      19.008  -6.162   0.364  1.00  0.00     0.135 C 
HETATM   41  C14 UNL     1      19.001  -6.505   1.834  1.00  0.00     0.057 C 
BRANCH  40  42
HETATM   42  O4  UNL     1      19.748  -5.008   0.153  1.00  0.00    -0.380 OA
ATOM     43  H4  UNL     1      20.188  -4.786   0.965  1.00  0.00     0.211 HD
ENDBRANCH  40  42
BRANCH  40  44
HETATM   44  C15 UNL     1      19.645  -7.338  -0.394  1.00  0.00     0.209 C 
BRANCH  44  45
HETATM   45  O5  UNL     1      18.901  -8.496  -0.185  1.00  0.00    -0.397 OA
ATOM     46  H5  UNL     1      19.248  -9.204  -0.715  1.00  0.00     0.209 HD
ENDBRANCH  44  45
ENDBRANCH  40  44
ENDBRANCH  35  40
BRANCH  37  47
HETATM   47  C16 UNL     1      16.855  -4.001   1.280  1.00  0.00     0.231 C 
HETATM   48  N11 UNL     1      17.537  -2.929   0.996  1.00  0.00    -0.263 N 
ATOM     49  H11 UNL     1      17.635  -2.195   1.696  1.00  0.00     0.195 HD
BRANCH  48  50
HETATM   50  O6  UNL     1      18.125  -2.774  -0.237  1.00  0.00    -0.289 OA
ATOM     51  H6  UNL     1      18.854  -2.178  -0.358  1.00  0.00     0.244 HD
ENDBRANCH  48  50
ENDBRANCH  37  47
ENDBRANCH  30  33
ENDBRANCH   1  30
TORSDOF 16
ENDMDL
MODEL 2
REMARK VINA RESULT: -7.737344481      0.904      2.147
REMARK  16 active torsions:
REMARK  status: ('A' for Active; 'I' for Inactive)
REMARK       I    between atoms: C2_2  and  N1_4 
REMARK    1  A    between atoms: N1_4  and  C3_6 
REMARK    2  A    between atoms: C3_6  and  C4_7 
REMARK    3  A    between atoms: C3_6  and  C5_10 
REMARK    4  A    between atoms: C3_6  and  C10_30 
REMARK    5  A    between atoms: C4_7  and  O2_8 
REMARK    6  A    between atoms: C5_10  and  N2_11 
REMARK    7  A    between atoms: C7_17  and  N5_18 
REMARK    8  A    between atoms: C8_23  and  N7_24 
REMARK    9  A    between atoms: C10_30  and  O3_31 
REMARK   10  A    between atoms: C10_30  and  C11_33 
REMARK   11  A    between atoms: C12_36  and  C13_37 
REMARK   12  A    between atoms: C13_37  and  O4_39 
REMARK   13  A    between atoms: C13_37  and  C15_41 
REMARK   14  A    between atoms: C15_41  and  O5_42 
REMARK   15  A    between atoms: N10_44  and  C16_45 
REMARK   16  A    between atoms: N11_46  and  O6_48 
ROOT
HETATM    1  C3  UNL     1      13.557  -7.535  -1.713  1.00  0.00     0.104 C 
ENDROOT
BRANCH   1   2
HETATM    2  N1  UNL     1      13.937  -8.807  -2.283  1.00  0.00    -0.345 N 
HETATM    3  C2  UNL     1      14.859  -9.696  -1.685  1.00  0.00     0.214 C 
HETATM    4  C1  UNL     1      15.164 -11.013  -2.390  1.00  0.00     0.117 C 
HETATM    5  O1  UNL     1      15.466  -9.532  -0.626  1.00  0.00    -0.274 OA
ATOM      6  H1  UNL     1      13.514  -9.081  -3.170  1.00  0.00     0.163 HD
ENDBRANCH   1   2
BRANCH   1   7
HETATM    7  C4  UNL     1      13.627  -7.595  -0.241  1.00  0.00     0.200 C 
BRANCH   7   8
HETATM    8  O2  UNL     1      12.645  -8.403   0.370  1.00  0.00    -0.398 OA
ATOM      9  H2  UNL     1      12.247  -8.031   1.150  1.00  0.00     0.209 HD
ENDBRANCH   7   8
ENDBRANCH   1   7
BRANCH   1  10
HETATM   10  C5  UNL     1      12.187  -7.268  -2.322  1.00  0.00     0.188 C 
BRANCH  10  11
HETATM   11  N2  UNL     1      12.074  -7.336  -3.728  1.00  0.00    -0.257 N 
HETATM   12  N3  UNL     1      12.306  -8.476  -4.426  1.00  0.00    -0.238 N 
HETATM   13  N4  UNL     1      12.142  -8.222  -5.699  1.00  0.00    -0.279 N 
ATOM     14  H3  UNL     1      12.563  -9.378  -4.025  1.00  0.00     0.208 HD
HETATM   15  C6  UNL     1      11.809  -6.943  -5.854  1.00  0.00     0.140 A 
ATOM     16  H4  UNL     1      12.254  -8.900  -6.454  1.00  0.00     0.189 HD
HETATM   17  C7  UNL     1      11.512  -6.178  -6.963  1.00  0.00     0.147 A 
HETATM   18  C9  UNL     1      11.763  -6.374  -4.603  1.00  0.00     0.171 A 
HETATM   19  N6  UNL     1      11.182  -4.881  -6.814  1.00  0.00    -0.175 N 
HETATM   20  C8  UNL     1      11.134  -4.303  -5.587  1.00  0.00     0.679 A 
ATOM     21  H6  UNL     1      10.965  -4.323  -7.639  1.00  0.00     0.186 HD
HETATM   22  N8  UNL     1      11.426  -5.073  -4.536  1.00  0.00    -0.173 N 
ATOM     23  H8  UNL     1      11.391  -4.642  -3.612  1.00  0.00     0.186 HD
BRANCH  17  24
HETATM   24  N5  UNL     1      11.560  -6.779  -8.114  1.00  0.00    -0.383 N 
ATOM     25  H52 UNL     1      12.183  -7.562  -8.316  1.00  0.00     0.157 HD
ATOM     26  H51 UNL     1      10.939  -6.424  -8.841  1.00  0.00     0.157 HD
ENDBRANCH  17  24
BRANCH  20  27
HETATM   27  N7  UNL     1      10.811  -3.043  -5.481  1.00  0.00    -0.234 N 
ATOM     28  H72 UNL     1      10.467  -2.488  -6.264  1.00  0.00     0.174 HD
ATOM     29  H71 UNL     1      10.902  -2.574  -4.579  1.00  0.00     0.174 HD
ENDBRANCH  20  27
ENDBRANCH  10  11
ENDBRANCH   1  10
BRANCH   1  30
HETATM   30  C10 UNL     1      14.515  -6.471  -2.199  1.00  0.00     0.218 C 
BRANCH  30  31
HETATM   31  O3  UNL     1      15.077  -6.846  -3.432  1.00  0.00    -0.385 OA
ATOM     32  H3  UNL     1      14.515  -6.574  -4.148  1.00  0.00     0.210 HD
ENDBRANCH  30  31
BRANCH  30  33
HETATM   33  C11 UNL     1      15.663  -6.181  -1.311  1.00  0.00     0.130 A 
HETATM   34  N9  UNL     1      15.856  -5.286  -0.336  1.00  0.00    -0.328 N 
HETATM   35  C12 UNL     1      17.133  -5.349   0.158  1.00  0.00     0.142 A 
ATOM     36  H9  UNL     1      15.143  -4.637  -0.003  1.00  0.00     0.168 HD
HETATM   37  N10 UNL     1      17.732  -6.319  -0.545  1.00  0.00    -0.233 N 
HETATM   38  N12 UNL     1      16.878  -6.809  -1.403  1.00  0.00    -0.278 N 
ATOM     39  H12 UNL     1      17.088  -7.563  -2.058  1.00  0.00     0.189 HD
BRANCH  35  40
HETATM   40  C13 UNL     1      17.702  -4.500   1.237  1.00  0.00     0.135 C 
HETATM   41  C14 UNL     1      16.793  -3.333   1.537  1.00  0.00     0.057 C 
BRANCH  40  42
HETATM   42  O4  UNL     1      18.940  -4.038   0.816  1.00  0.00    -0.380 OA
ATOM     43  H4  UNL     1      19.085  -3.185   1.206  1.00  0.00     0.211 HD
ENDBRANCH  40  42
BRANCH  40  44
HETATM   44  C15 UNL     1      17.861  -5.321   2.527  1.00  0.00     0.209 C 
BRANCH  44  45
HETATM   45  O5  UNL     1      19.210  -5.521   2.800  1.00  0.00    -0.397 OA
ATOM     46  H5  UNL     1      19.487  -4.949   3.507  1.00  0.00     0.209 HD
ENDBRANCH  44  45
ENDBRANCH  40  44
ENDBRANCH  35  40
BRANCH  37  47
HETATM   47  C16 UNL     1      19.067  -6.806  -0.484  1.00  0.00     0.231 C 
HETATM   48  N11 UNL     1      19.234  -8.091  -0.365  1.00  0.00    -0.263 N 
ATOM     49  H11 UNL     1      20.178  -8.473  -0.318  1.00  0.00     0.195 HD
BRANCH  48  50
HETATM   50  O6  UNL     1      18.154  -8.939  -0.301  1.00  0.00    -0.289 OA
ATOM     51  H6  UNL     1      17.934  -9.388   0.507  1.00  0.00     0.244 HD
ENDBRANCH  48  50
ENDBRANCH  37  47
ENDBRANCH  30  33
ENDBRANCH   1  30
TORSDOF 16
ENDMDL
MODEL 3
REMARK VINA RESULT: -7.731046212      0.721      1.747
REMARK  16 active torsions:
REMARK  status: ('A' for Active; 'I' for Inactive)
REMARK       I    between atoms: C2_2  and  N1_4 
REMARK    1  A    between atoms: N1_4  and  C3_6 
REMARK    2  A    between atoms: C3_6  and  C4_7 
REMARK    3  A    between atoms: C3_6  and  C5_10 
REMARK    4  A    between atoms: C3_6  and  C10_30 
REMARK    5  A    between atoms: C4_7  and  O2_8 
REMARK    6  A    between atoms: C5_10  and  N2_11 
REMARK    7  A    between atoms: C7_17  and  N5_18 
REMARK    8  A    between atoms: C8_23  and  N7_24 
REMARK    9  A    between atoms: C10_30  and  O3_31 
REMARK   10  A    between atoms: C10_30  and  C11_33 
REMARK   11  A    between atoms: C12_36  and  C13_37 
REMARK   12  A    between atoms: C13_37  and  O4_39 
REMARK   13  A    between atoms: C13_37  and  C15_41 
REMARK   14  A    between atoms: C15_41  and  O5_42 
REMARK   15  A    between atoms: N10_44  and  C16_45 
REMARK   16  A    between atoms: N11_46  and  O6_48 
ROOT
HETATM    1  C3  UNL     1      13.963  -7.903  -2.025  1.00  0.00     0.104 C 
ENDROOT
BRANCH   1   2
HETATM    2  N1  UNL     1      14.636  -9.105  -2.460  1.00  0.00    -0.345 N 
HETATM    3  C2  UNL     1      15.624  -9.775  -1.703  1.00  0.00     0.214 C 
HETATM    4  C1  UNL     1      16.248 -11.041  -2.279  1.00  0.00     0.117 C 
HETATM    5  O1  UNL     1      16.056  -9.450  -0.597  1.00  0.00    -0.274 OA
ATOM      6  H1  UNL     1      14.382  -9.495  -3.369  1.00  0.00     0.163 HD
ENDBRANCH   1   2
BRANCH   1   7
HETATM    7  C4  UNL     1      13.862  -7.881  -0.553  1.00  0.00     0.200 C 
BRANCH   7   8
HETATM    8  O2  UNL     1      12.973  -6.918  -0.030  1.00  0.00    -0.398 OA
ATOM      9  H2  UNL     1      13.298  -6.025  -0.037  1.00  0.00     0.209 HD
ENDBRANCH   7   8
ENDBRANCH   1   7
BRANCH   1  10
HETATM   10  C5  UNL     1      12.652  -7.929  -2.799  1.00  0.00     0.188 C 
BRANCH  10  11
HETATM   11  N2  UNL     1      12.163  -6.700  -3.295  1.00  0.00    -0.257 N 
HETATM   12  N3  UNL     1      11.857  -5.656  -2.485  1.00  0.00    -0.238 N 
HETATM   13  N4  UNL     1      11.414  -4.673  -3.227  1.00  0.00    -0.279 N 
ATOM     14  H3  UNL     1      11.955  -5.639  -1.470  1.00  0.00     0.208 HD
HETATM   15  C6  UNL     1      11.423  -5.047  -4.505  1.00  0.00     0.140 A 
ATOM     16  H4  UNL     1      11.109  -3.763  -2.880  1.00  0.00     0.189 HD
HETATM   17  C7  UNL     1      11.080  -4.402  -5.674  1.00  0.00     0.147 A 
HETATM   18  C9  UNL     1      11.900  -6.336  -4.554  1.00  0.00     0.171 A 
HETATM   19  N6  UNL     1      11.212  -5.036  -6.855  1.00  0.00    -0.175 N 
HETATM   20  C8  UNL     1      11.680  -6.309  -6.922  1.00  0.00     0.679 A 
ATOM     21  H6  UNL     1      10.957  -4.551  -7.714  1.00  0.00     0.186 HD
HETATM   22  N8  UNL     1      12.002  -6.903  -5.770  1.00  0.00    -0.173 N 
ATOM     23  H8  UNL     1      12.354  -7.860  -5.815  1.00  0.00     0.186 HD
BRANCH  17  24
HETATM   24  N5  UNL     1      10.649  -3.181  -5.560  1.00  0.00    -0.383 N 
ATOM     25  H52 UNL     1       9.668  -2.941  -5.414  1.00  0.00     0.157 HD
ATOM     26  H51 UNL     1      11.348  -2.442  -5.634  1.00  0.00     0.157 HD
ENDBRANCH  17  24
BRANCH  20  27
HETATM   27  N7  UNL     1      11.794  -6.893  -8.082  1.00  0.00    -0.234 N 
ATOM     28  H72 UNL     1      10.992  -7.181  -8.643  1.00  0.00     0.174 HD
ATOM     29  H71 UNL     1      12.722  -7.077  -8.465  1.00  0.00     0.174 HD
ENDBRANCH  20  27
ENDBRANCH  10  11
ENDBRANCH   1  10
BRANCH   1  30
HETATM   30  C10 UNL     1      14.763  -6.700  -2.472  1.00  0.00     0.218 C 
BRANCH  30  31
HETATM   31  O3  UNL     1      15.429  -6.977  -3.679  1.00  0.00    -0.385 OA
ATOM     32  H3  UNL     1      16.370  -6.953  -3.550  1.00  0.00     0.210 HD
ENDBRANCH  30  31
BRANCH  30  33
HETATM   33  C11 UNL     1      15.813  -6.238  -1.536  1.00  0.00     0.130 A 
HETATM   34  N9  UNL     1      17.057  -6.659  -1.287  1.00  0.00    -0.328 N 
HETATM   35  C12 UNL     1      17.630  -5.953  -0.261  1.00  0.00     0.142 A 
ATOM     36  H9  UNL     1      17.522  -7.411  -1.796  1.00  0.00     0.168 HD
HETATM   37  N10 UNL     1      16.695  -5.074   0.123  1.00  0.00    -0.233 N 
HETATM   38  N12 UNL     1      15.632  -5.235  -0.620  1.00  0.00    -0.278 N 
ATOM     39  H12 UNL     1      14.778  -4.685  -0.529  1.00  0.00     0.189 HD
BRANCH  35  40
HETATM   40  C13 UNL     1      18.995  -6.153   0.291  1.00  0.00     0.135 C 
HETATM   41  C14 UNL     1      18.937  -6.462   1.767  1.00  0.00     0.057 C 
BRANCH  40  42
HETATM   42  O4  UNL     1      19.721  -4.991   0.080  1.00  0.00    -0.380 OA
ATOM     43  H4  UNL     1      20.619  -5.234  -0.112  1.00  0.00     0.211 HD
ENDBRANCH  40  42
BRANCH  40  44
HETATM   44  C15 UNL     1      19.682  -7.335  -0.414  1.00  0.00     0.209 C 
BRANCH  44  45
HETATM   45  O5  UNL     1      18.949  -8.500  -0.212  1.00  0.00    -0.397 OA
ATOM     46  H5  UNL     1      18.799  -8.937  -1.042  1.00  0.00     0.209 HD
ENDBRANCH  44  45
ENDBRANCH  40  44
ENDBRANCH  35  40
BRANCH  37  47
HETATM   47  C16 UNL     1      16.720  -4.101   1.160  1.00  0.00     0.231 C 
HETATM   48  N11 UNL     1      17.399  -3.012   0.948  1.00  0.00    -0.263 N 
ATOM     49  H11 UNL     1      17.437  -2.295   1.672  1.00  0.00     0.195 HD
BRANCH  48  50
HETATM   50  O6  UNL     1      18.066  -2.816  -0.238  1.00  0.00    -0.289 OA
ATOM     51  H6  UNL     1      18.732  -2.143  -0.317  1.00  0.00     0.244 HD
ENDBRANCH  48  50
ENDBRANCH  37  47
ENDBRANCH  30  33
ENDBRANCH   1  30
TORSDOF 16
ENDMDL
MODEL 4
REMARK VINA RESULT: -7.634368475      2.359      4.790
REMARK  16 active torsions:
REMARK  status: ('A' for Active; 'I' for Inactive)
REMARK       I    between atoms: C2_2  and  N1_4 
REMARK    1  A    between atoms: N1_4  and  C3_6 
REMARK    2  A    between atoms: C3_6  and  C4_7 
REMARK    3  A    between atoms: C3_6  and  C5_10 
REMARK    4  A    between atoms: C3_6  and  C10_30 
REMARK    5  A    between atoms: C4_7  and  O2_8 
REMARK    6  A    between atoms: C5_10  and  N2_11 
REMARK    7  A    between atoms: C7_17  and  N5_18 
REMARK    8  A    between atoms: C8_23  and  N7_24 
REMARK    9  A    between atoms: C10_30  and  O3_31 
REMARK   10  A    between atoms: C10_30  and  C11_33 
REMARK   11  A    between atoms: C12_36  and  C13_37 
REMARK   12  A    between atoms: C13_37  and  O4_39 
REMARK   13  A    between atoms: C13_37  and  C15_41 
REMARK   14  A    between atoms: C15_41  and  O5_42 
REMARK   15  A    between atoms: N10_44  and  C16_45 
REMARK   16  A    between atoms: N11_46  and  O6_48 
ROOT
HETATM    1  C3  UNL     1      14.147  -7.377  -2.481  1.00  0.00     0.104 C 
ENDROOT
BRANCH   1   2
HETATM    2  N1  UNL     1      13.393  -7.749  -3.657  1.00  0.00    -0.345 N 
HETATM    3  C2  UNL     1      12.636  -6.840  -4.430  1.00  0.00     0.214 C 
HETATM    4  C1  UNL     1      11.894  -7.367  -5.654  1.00  0.00     0.117 C 
HETATM    5  O1  UNL     1      12.499  -5.633  -4.230  1.00  0.00    -0.274 OA
ATOM      6  H1  UNL     1      13.409  -8.728  -3.947  1.00  0.00     0.163 HD
ENDBRANCH   1   2
BRANCH   1   7
HETATM    7  C4  UNL     1      14.590  -8.584  -1.759  1.00  0.00     0.200 C 
BRANCH   7   8
HETATM    8  O2  UNL     1      15.139  -9.598  -2.571  1.00  0.00    -0.398 OA
ATOM      9  H2  UNL     1      14.923 -10.485  -2.307  1.00  0.00     0.209 HD
ENDBRANCH   7   8
ENDBRANCH   1   7
BRANCH   1  10
HETATM   10  C5  UNL     1      13.203  -6.443  -1.736  1.00  0.00     0.188 C 
BRANCH  10  11
HETATM   11  N2  UNL     1      12.395  -7.004  -0.723  1.00  0.00    -0.257 N 
HETATM   12  N3  UNL     1      11.217  -7.623  -0.986  1.00  0.00    -0.238 N 
HETATM   13  N4  UNL     1      10.695  -8.018   0.147  1.00  0.00    -0.279 N 
ATOM     14  H3  UNL     1      10.807  -7.757  -1.910  1.00  0.00     0.208 HD
HETATM   15  C6  UNL     1      11.503  -7.675   1.148  1.00  0.00     0.140 A 
ATOM     16  H4  UNL     1       9.808  -8.512   0.247  1.00  0.00     0.189 HD
HETATM   17  C7  UNL     1      11.439  -7.862   2.512  1.00  0.00     0.147 A 
HETATM   18  C9  UNL     1      12.587  -7.030   0.600  1.00  0.00     0.171 A 
HETATM   19  N6  UNL     1      12.435  -7.413   3.299  1.00  0.00    -0.175 N 
HETATM   20  C8  UNL     1      13.512  -6.773   2.776  1.00  0.00     0.679 A 
ATOM     21  H6  UNL     1      12.379  -7.555   4.307  1.00  0.00     0.186 HD
HETATM   22  N8  UNL     1      13.541  -6.609   1.451  1.00  0.00    -0.173 N 
ATOM     23  H8  UNL     1      14.348  -6.128   1.053  1.00  0.00     0.186 HD
BRANCH  17  24
HETATM   24  N5  UNL     1      10.395  -8.491   2.965  1.00  0.00    -0.383 N 
ATOM     25  H52 UNL     1      10.378  -9.494   3.151  1.00  0.00     0.157 HD
ATOM     26  H51 UNL     1       9.559  -7.929   3.126  1.00  0.00     0.157 HD
ENDBRANCH  17  24
BRANCH  20  27
HETATM   27  N7  UNL     1      14.457  -6.349   3.568  1.00  0.00    -0.234 N 
ATOM     28  H72 UNL     1      14.285  -6.030   4.521  1.00  0.00     0.174 HD
ATOM     29  H71 UNL     1      15.422  -6.330   3.236  1.00  0.00     0.174 HD
ENDBRANCH  20  27
ENDBRANCH  10  11
ENDBRANCH   1  10
BRANCH   1  30
HETATM   30  C10 UNL     1      15.367  -6.592  -2.905  1.00  0.00     0.218 C 
BRANCH  30  31
HETATM   31  O3  UNL     1      16.159  -7.354  -3.782  1.00  0.00    -0.385 OA
ATOM     32  H3  UNL     1      16.872  -6.829  -4.124  1.00  0.00     0.210 HD
ENDBRANCH  30  31
BRANCH  30  33
HETATM   33  C11 UNL     1      16.275  -6.171  -1.814  1.00  0.00     0.130 A 
HETATM   34  N9  UNL     1      17.522  -6.523  -1.482  1.00  0.00    -0.328 N 
HETATM   35  C12 UNL     1      17.926  -5.909  -0.326  1.00  0.00     0.142 A 
ATOM     36  H9  UNL     1      18.099  -7.169  -2.021  1.00  0.00     0.168 HD
HETATM   37  N10 UNL     1      16.884  -5.157   0.053  1.00  0.00    -0.233 N 
HETATM   38  N12 UNL     1      15.918  -5.305  -0.813  1.00  0.00    -0.278 N 
ATOM     39  H12 UNL     1      15.013  -4.838  -0.753  1.00  0.00     0.189 HD
BRANCH  35  40
HETATM   40  C13 UNL     1      19.243  -6.071   0.343  1.00  0.00     0.135 C 
HETATM   41  C14 UNL     1      19.065  -6.423   1.800  1.00  0.00     0.057 C 
BRANCH  40  42
HETATM   42  O4  UNL     1      19.937  -4.876   0.227  1.00  0.00    -0.380 OA
ATOM     43  H4  UNL     1      20.861  -5.078   0.139  1.00  0.00     0.211 HD
ENDBRANCH  40  42
BRANCH  40  44
HETATM   44  C15 UNL     1      20.039  -7.205  -0.324  1.00  0.00     0.209 C 
BRANCH  44  45
HETATM   45  O5  UNL     1      19.333  -8.401  -0.229  1.00  0.00    -0.397 OA
ATOM     46  H5  UNL     1      19.755  -9.070  -0.755  1.00  0.00     0.209 HD
ENDBRANCH  44  45
ENDBRANCH  40  44
ENDBRANCH  35  40
BRANCH  37  47
HETATM   47  C16 UNL     1      16.721  -4.322   1.192  1.00  0.00     0.231 C 
HETATM   48  N11 UNL     1      17.285  -3.150   1.165  1.00  0.00    -0.263 N 
ATOM     49  H11 UNL     1      17.187  -2.526   1.966  1.00  0.00     0.195 HD
BRANCH  48  50
HETATM   50  O6  UNL     1      18.010  -2.741   0.071  1.00  0.00    -0.289 OA
ATOM     51  H6  UNL     1      17.899  -1.870  -0.290  1.00  0.00     0.244 HD
ENDBRANCH  48  50
ENDBRANCH  37  47
ENDBRANCH  30  33
ENDBRANCH   1  30
TORSDOF 16
ENDMDL
MODEL 5
REMARK VINA RESULT: -7.632768722      2.403      4.592
REMARK  16 active torsions:
REMARK  status: ('A' for Active; 'I' for Inactive)
REMARK       I    between atoms: C2_2  and  N1_4 
REMARK    1  A    between atoms: N1_4  and  C3_6 
REMARK    2  A    between atoms: C3_6  and  C4_7 
REMARK    3  A    between atoms: C3_6  and  C5_10 
REMARK    4  A    between atoms: C3_6  and  C10_30 
REMARK    5  A    between atoms: C4_7  and  O2_8 
REMARK    6  A    between atoms: C5_10  and  N2_11 
REMARK    7  A    between atoms: C7_17  and  N5_18 
REMARK    8  A    between atoms: C8_23  and  N7_24 
REMARK    9  A    between atoms: C10_30  and  O3_31 
REMARK   10  A    between atoms: C10_30  and  C11_33 
REMARK   11  A    between atoms: C12_36  and  C13_37 
REMARK   12  A    between atoms: C13_37  and  O4_39 
REMARK   13  A    between atoms: C13_37  and  C15_41 
REMARK   14  A    between atoms: C15_41  and  O5_42 
REMARK   15  A    between atoms: N10_44  and  C16_45 
REMARK   16  A    between atoms: N11_46  and  O6_48 
ROOT
HETATM    1  C3  UNL     1      14.266  -7.595  -2.482  1.00  0.00     0.104 C 
ENDROOT
BRANCH   1   2
HETATM    2  N1  UNL     1      13.390  -7.825  -3.608  1.00  0.00    -0.345 N 
HETATM    3  C2  UNL     1      12.580  -6.827  -4.195  1.00  0.00     0.214 C 
HETATM    4  C1  UNL     1      11.708  -7.204  -5.387  1.00  0.00     0.117 C 
HETATM    5  O1  UNL     1      12.491  -5.648  -3.851  1.00  0.00    -0.274 OA
ATOM      6  H1  UNL     1      13.355  -8.765  -4.004  1.00  0.00     0.163 HD
ENDBRANCH   1   2
BRANCH   1   7
HETATM    7  C4  UNL     1      14.812  -8.875  -1.993  1.00  0.00     0.200 C 
BRANCH   7   8
HETATM    8  O2  UNL     1      14.109 -10.024  -2.414  1.00  0.00    -0.398 OA
ATOM      9  H2  UNL     1      13.699  -9.954  -3.269  1.00  0.00     0.209 HD
ENDBRANCH   7   8
ENDBRANCH   1   7
BRANCH   1  10
HETATM   10  C5  UNL     1      13.396  -6.808  -1.511  1.00  0.00     0.188 C 
BRANCH  10  11
HETATM   11  N2  UNL     1      12.972  -7.466  -0.335  1.00  0.00    -0.257 N 
HETATM   12  N3  UNL     1      13.643  -7.369   0.839  1.00  0.00    -0.238 N 
HETATM   13  N4  UNL     1      13.024  -8.098   1.731  1.00  0.00    -0.279 N 
ATOM     14  H3  UNL     1      14.488  -6.820   0.999  1.00  0.00     0.208 HD
HETATM   15  C6  UNL     1      11.961  -8.672   1.171  1.00  0.00     0.140 A 
ATOM     16  H4  UNL     1      13.311  -8.210   2.704  1.00  0.00     0.189 HD
HETATM   17  C7  UNL     1      10.979  -9.507   1.659  1.00  0.00     0.147 A 
HETATM   18  C9  UNL     1      11.923  -8.273  -0.144  1.00  0.00     0.171 A 
HETATM   19  N6  UNL     1       9.991  -9.928   0.847  1.00  0.00    -0.175 N 
HETATM   20  C8  UNL     1       9.938  -9.544  -0.455  1.00  0.00     0.679 A 
ATOM     21  H6  UNL     1       9.268 -10.545   1.216  1.00  0.00     0.186 HD
HETATM   22  N8  UNL     1      10.905  -8.735  -0.893  1.00  0.00    -0.173 N 
ATOM     23  H8  UNL     1      10.870  -8.445  -1.871  1.00  0.00     0.186 HD
BRANCH  17  24
HETATM   24  N5  UNL     1      11.065  -9.837   2.913  1.00  0.00    -0.383 N 
ATOM     25  H52 UNL     1      11.729  -9.413   3.563  1.00  0.00     0.157 HD
ATOM     26  H51 UNL     1      10.431 -10.566   3.238  1.00  0.00     0.157 HD
ENDBRANCH  17  24
BRANCH  20  27
HETATM   27  N7  UNL     1       8.966  -9.972  -1.213  1.00  0.00    -0.234 N 
ATOM     28  H72 UNL     1       8.736 -10.960  -1.321  1.00  0.00     0.174 HD
ATOM     29  H71 UNL     1       8.398  -9.301  -1.730  1.00  0.00     0.174 HD
ENDBRANCH  20  27
ENDBRANCH  10  11
ENDBRANCH   1  10
BRANCH   1  30
HETATM   30  C10 UNL     1      15.415  -6.716  -2.921  1.00  0.00     0.218 C 
BRANCH  30  31
HETATM   31  O3  UNL     1      16.235  -7.404  -3.833  1.00  0.00    -0.385 OA
ATOM     32  H3  UNL     1      16.622  -6.796  -4.452  1.00  0.00     0.210 HD
ENDBRANCH  30  31
BRANCH  30  33
HETATM   33  C11 UNL     1      16.320  -6.251  -1.846  1.00  0.00     0.130 A 
HETATM   34  N9  UNL     1      17.547  -6.624  -1.466  1.00  0.00    -0.328 N 
HETATM   35  C12 UNL     1      17.954  -5.942  -0.348  1.00  0.00     0.142 A 
ATOM     36  H9  UNL     1      18.108  -7.326  -1.946  1.00  0.00     0.168 HD
HETATM   37  N10 UNL     1      16.935  -5.129  -0.044  1.00  0.00    -0.233 N 
HETATM   38  N12 UNL     1      15.979  -5.304  -0.916  1.00  0.00    -0.278 N 
ATOM     39  H12 UNL     1      15.091  -4.800  -0.906  1.00  0.00     0.189 HD
BRANCH  35  40
HETATM   40  C13 UNL     1      19.253  -6.104   0.356  1.00  0.00     0.135 C 
HETATM   41  C14 UNL     1      19.036  -6.390   1.822  1.00  0.00     0.057 C 
BRANCH  40  42
HETATM   42  O4  UNL     1      19.975  -4.930   0.206  1.00  0.00    -0.380 OA
ATOM     43  H4  UNL     1      19.544  -4.251   0.712  1.00  0.00     0.211 HD
ENDBRANCH  40  42
BRANCH  40  44
HETATM   44  C15 UNL     1      20.038  -7.281  -0.245  1.00  0.00     0.209 C 
BRANCH  44  45
HETATM   45  O5  UNL     1      19.266  -8.438  -0.203  1.00  0.00    -0.397 OA
ATOM     46  H5  UNL     1      19.792  -9.168   0.102  1.00  0.00     0.209 HD
ENDBRANCH  44  45
ENDBRANCH  40  44
ENDBRANCH  35  40
BRANCH  37  47
HETATM   47  C16 UNL     1      16.784  -4.208   1.029  1.00  0.00     0.231 C 
HETATM   48  N11 UNL     1      17.393  -3.062   0.931  1.00  0.00    -0.263 N 
ATOM     49  H11 UNL     1      17.306  -2.380   1.683  1.00  0.00     0.195 HD
BRANCH  48  50
HETATM   50  O6  UNL     1      18.153  -2.761  -0.175  1.00  0.00    -0.289 OA
ATOM     51  H6  UNL     1      19.088  -2.926  -0.184  1.00  0.00     0.244 HD
ENDBRANCH  48  50
ENDBRANCH  37  47
ENDBRANCH  30  33
ENDBRANCH   1  30
TORSDOF 16
ENDMDL
