MODEL 1
REMARK VINA RESULT: -8.725179864      0.000      0.000
REMARK  10 active torsions:
REMARK  status: ('A' for Active; 'I' for Inactive)
REMARK    1  A    between atoms: C3_5  and  N2_6 
REMARK    2  A    between atoms: C4_11  and  N4_12 
REMARK    3  A    between atoms: C5_15  and  N5_16 
REMARK    4  A    between atoms: C6_19  and  C7_20 
REMARK       I    between atoms: C7_20  and  N7_22 
REMARK    5  A    between atoms: N7_22  and  C8_23 
REMARK       I    between atoms: N8_24  and  C9_26 
REMARK    6  A    between atoms: C9_26  and  C10_28 
REMARK    7  A    between atoms: C10_28  and  O3_29 
REMARK    8  A    between atoms: C10_28  and  N9_31 
REMARK    9  A    between atoms: C11_33  and  C13_35 
REMARK   10  A    between atoms: C15_43  and  N13_44 
ROOT
HETATM    1  N5  UNL     1      12.817  -9.092  -1.928  1.00  0.00    -0.164 N 
HETATM    2  N6  UNL     1      11.958  -8.945  -0.835  1.00  0.00    -0.253 N 
ATOM      3  H6  UNL     1      11.061  -8.460  -0.829  1.00  0.00     0.191 HD
HETATM    4  C6  UNL     1      12.504  -9.527   0.145  1.00  0.00     0.247 A 
HETATM    5  N10 UNL     1      13.655 -10.057  -0.219  1.00  0.00    -0.145 N 
HETATM    6  N11 UNL     1      14.728 -10.639   0.371  1.00  0.00    -0.260 N 
ATOM      7  H11 UNL     1      14.817 -10.914   1.349  1.00  0.00     0.190 HD
HETATM    8  C14 UNL     1      15.613 -10.775  -0.557  1.00  0.00     0.180 A 
HETATM    9  N12 UNL     1      17.008 -11.091  -0.234  1.00  0.00    -0.077 NA
HETATM   10  C15 UNL     1      15.137 -10.288  -1.798  1.00  0.00     0.186 A 
HETATM   11  N14 UNL     1      13.911  -9.823  -1.533  1.00  0.00    -0.131 N 
ENDROOT
BRANCH   4  12
HETATM   12  C7  UNL     1      12.154  -9.833   1.685  1.00  0.00     0.366 C 
HETATM   13  O1  UNL     1      12.309 -11.016   1.771  1.00  0.00    -0.247 OA
HETATM   14  N7  UNL     1      11.899  -8.711   2.076  1.00  0.00    -0.359 NA
BRANCH  14  15
HETATM   15  C8  UNL     1      11.598  -7.424   2.559  1.00  0.00     0.282 C 
HETATM   16  N8  UNL     1      12.462  -6.492   2.193  1.00  0.00    -0.305 N 
HETATM   17  C9  UNL     1      13.786  -6.337   2.615  1.00  0.00     0.298 C 
ATOM     18  H8  UNL     1      12.121  -5.803   1.522  1.00  0.00     0.171 HD
HETATM   19  O2  UNL     1      14.349  -7.046   3.534  1.00  0.00    -0.263 OA
BRANCH  17  20
HETATM   20  C10 UNL     1      14.567  -5.273   1.895  1.00  0.00     0.210 C 
BRANCH  20  21
HETATM   21  O3  UNL     1      14.312  -4.052   2.477  1.00  0.00    -0.342 OA
ATOM     22  H3  UNL     1      15.121  -3.556   2.534  1.00  0.00     0.219 HD
ENDBRANCH  20  21
BRANCH  20  23
HETATM   23  N9  UNL     1      15.849  -5.479   1.429  1.00  0.00    -0.331 N 
HETATM   24  C11 UNL     1      16.962  -4.803   1.836  1.00  0.00     0.084 C 
HETATM   25  C12 UNL     1      17.455  -4.844   3.228  1.00  0.00     0.076 C 
ATOM     26  H9  UNL     1      15.975  -6.199   0.718  1.00  0.00     0.168 HD
BRANCH  24  27
HETATM   27  C13 UNL     1      17.040  -3.407   1.209  1.00  0.00     0.222 C 
HETATM   28  O4  UNL     1      17.829  -3.344   0.184  1.00  0.00    -0.643 OA
HETATM   29  O5  UNL     1      16.298  -2.398   1.712  1.00  0.00    -0.643 OA
ENDBRANCH  24  27
ENDBRANCH  20  23
ENDBRANCH  17  20
ENDBRANCH  14  15
ENDBRANCH   4  12
BRANCH   1  30
HETATM   30  C5  UNL     1      12.793  -8.262  -3.019  1.00  0.00     0.143 A 
HETATM   31  C2  UNL     1      13.332  -7.012  -3.175  1.00  0.00     0.057 A 
HETATM   32  C1  UNL     1      14.200  -6.387  -2.130  1.00  0.00     0.071 C 
HETATM   33  N1  UNL     1      13.199  -6.408  -4.336  1.00  0.00    -0.194 N 
HETATM   34  C3  UNL     1      12.517  -6.966  -5.461  1.00  0.00     0.677 A 
ATOM     35  H1  UNL     1      13.610  -5.480  -4.441  1.00  0.00     0.184 HD
HETATM   36  N3  UNL     1      12.033  -8.159  -5.290  1.00  0.00    -0.175 N 
HETATM   37  C4  UNL     1      12.155  -8.794  -4.185  1.00  0.00     0.147 A 
ATOM     38  H3  UNL     1      11.539  -8.606  -6.063  1.00  0.00     0.186 HD
BRANCH  34  39
HETATM   39  N2  UNL     1      12.211  -6.152  -6.313  1.00  0.00    -0.234 N 
ATOM     40  H22 UNL     1      11.949  -5.175  -6.178  1.00  0.00     0.174 HD
ATOM     41  H21 UNL     1      12.503  -6.405  -7.257  1.00  0.00     0.174 HD
ENDBRANCH  34  39
BRANCH  37  42
HETATM   42  N4  UNL     1      11.860 -10.103  -3.959  1.00  0.00    -0.383 N 
ATOM     43  H42 UNL     1      10.846 -10.202  -3.905  1.00  0.00     0.157 HD
ATOM     44  H41 UNL     1      12.522 -10.852  -3.757  1.00  0.00     0.157 HD
ENDBRANCH  37  42
ENDBRANCH   1  30
BRANCH  10  45
HETATM   45  N13 UNL     1      15.783 -10.091  -2.844  1.00  0.00    -0.380 N 
ATOM     46 2H13 UNL     1      16.784  -9.908  -2.902  1.00  0.00     0.158 HD
ATOM     47 1H13 UNL     1      15.496 -10.278  -3.804  1.00  0.00     0.158 HD
ENDBRANCH  10  45
TORSDOF 10
ENDMDL
MODEL 2
REMARK VINA RESULT: -8.656367830      1.243      1.538
REMARK  10 active torsions:
REMARK  status: ('A' for Active; 'I' for Inactive)
REMARK    1  A    between atoms: C3_5  and  N2_6 
REMARK    2  A    between atoms: C4_11  and  N4_12 
REMARK    3  A    between atoms: C5_15  and  N5_16 
REMARK    4  A    between atoms: C6_19  and  C7_20 
REMARK       I    between atoms: C7_20  and  N7_22 
REMARK    5  A    between atoms: N7_22  and  C8_23 
REMARK       I    between atoms: N8_24  and  C9_26 
REMARK    6  A    between atoms: C9_26  and  C10_28 
REMARK    7  A    between atoms: C10_28  and  O3_29 
REMARK    8  A    between atoms: C10_28  and  N9_31 
REMARK    9  A    between atoms: C11_33  and  C13_35 
REMARK   10  A    between atoms: C15_43  and  N13_44 
ROOT
HETATM    1  N5  UNL     1      12.850  -8.843  -1.865  1.00  0.00    -0.164 N 
HETATM    2  N6  UNL     1      12.133  -8.428  -0.738  1.00  0.00    -0.253 N 
ATOM      3  H6  UNL     1      11.312  -7.822  -0.731  1.00  0.00     0.191 HD
HETATM    4  C6  UNL     1      12.694  -8.946   0.269  1.00  0.00     0.247 A 
HETATM    5  N10 UNL     1      13.723  -9.680  -0.106  1.00  0.00    -0.145 N 
HETATM    6  N11 UNL     1      14.764 -10.327   0.473  1.00  0.00    -0.260 N 
ATOM      7  H11 UNL     1      14.915 -10.477   1.471  1.00  0.00     0.190 HD
HETATM    8  C14 UNL     1      15.525 -10.712  -0.493  1.00  0.00     0.180 A 
HETATM    9  N12 UNL     1      16.892 -11.181  -0.242  1.00  0.00    -0.077 NA
HETATM   10  C15 UNL     1      14.993 -10.334  -1.749  1.00  0.00     0.186 A 
HETATM   11  N14 UNL     1      13.872  -9.665  -1.457  1.00  0.00    -0.131 N 
ENDROOT
BRANCH   4  12
HETATM   12  C7  UNL     1      12.464  -8.988   1.860  1.00  0.00     0.366 C 
HETATM   13  O1  UNL     1      12.492 -10.158   2.110  1.00  0.00    -0.247 OA
HETATM   14  N7  UNL     1      12.380  -7.799   2.098  1.00  0.00    -0.359 NA
BRANCH  14  15
HETATM   15  C8  UNL     1      12.277  -6.430   2.406  1.00  0.00     0.282 C 
HETATM   16  N8  UNL     1      13.233  -5.683   1.880  1.00  0.00    -0.305 N 
HETATM   17  C9  UNL     1      14.588  -5.656   2.225  1.00  0.00     0.298 C 
ATOM     18  H8  UNL     1      12.947  -5.051   1.132  1.00  0.00     0.171 HD
HETATM   19  O2  UNL     1      15.104  -6.305   3.212  1.00  0.00    -0.263 OA
BRANCH  17  20
HETATM   20  C10 UNL     1      15.459  -4.815   1.332  1.00  0.00     0.210 C 
BRANCH  20  21
HETATM   21  O3  UNL     1      14.663  -4.052   0.509  1.00  0.00    -0.342 OA
ATOM     22  H3  UNL     1      15.048  -3.189   0.412  1.00  0.00     0.219 HD
ENDBRANCH  20  21
BRANCH  20  23
HETATM   23  N9  UNL     1      16.630  -4.233   1.772  1.00  0.00    -0.331 N 
HETATM   24  C11 UNL     1      17.868  -4.428   1.230  1.00  0.00     0.084 C 
HETATM   25  C12 UNL     1      18.196  -4.056  -0.161  1.00  0.00     0.076 C 
ATOM     26  H9  UNL     1      16.566  -3.603   2.571  1.00  0.00     0.168 HD
BRANCH  24  27
HETATM   27  C13 UNL     1      18.466  -5.774   1.652  1.00  0.00     0.222 C 
HETATM   28  O4  UNL     1      18.530  -5.931   2.936  1.00  0.00    -0.643 OA
HETATM   29  O5  UNL     1      18.835  -6.673   0.716  1.00  0.00    -0.643 OA
ENDBRANCH  24  27
ENDBRANCH  20  23
ENDBRANCH  17  20
ENDBRANCH  14  15
ENDBRANCH   4  12
BRANCH   1  30
HETATM   30  C5  UNL     1      12.824  -8.173  -3.060  1.00  0.00     0.143 A 
HETATM   31  C2  UNL     1      13.519  -7.057  -3.448  1.00  0.00     0.057 A 
HETATM   32  C1  UNL     1      14.579  -6.446  -2.591  1.00  0.00     0.071 C 
HETATM   33  N1  UNL     1      13.345  -6.600  -4.670  1.00  0.00    -0.194 N 
HETATM   34  C3  UNL     1      12.468  -7.186  -5.633  1.00  0.00     0.677 A 
ATOM     35  H1  UNL     1      13.872  -5.772  -4.948  1.00  0.00     0.184 HD
HETATM   36  N3  UNL     1      11.837  -8.254  -5.243  1.00  0.00    -0.175 N 
HETATM   37  C4  UNL     1      11.989  -8.747  -4.071  1.00  0.00     0.147 A 
ATOM     38  H3  UNL     1      11.200  -8.714  -5.893  1.00  0.00     0.186 HD
BRANCH  34  39
HETATM   39  N2  UNL     1      12.189  -6.454  -6.565  1.00  0.00    -0.234 N 
ATOM     40  H22 UNL     1      12.235  -6.666  -7.562  1.00  0.00     0.174 HD
ATOM     41  H21 UNL     1      11.609  -5.655  -6.310  1.00  0.00     0.174 HD
ENDBRANCH  34  39
BRANCH  37  42
HETATM   42  N4  UNL     1      11.534  -9.949  -3.627  1.00  0.00    -0.383 N 
ATOM     43  H42 UNL     1      12.336 -10.547  -3.428  1.00  0.00     0.157 HD
ATOM     44  H41 UNL     1      10.564 -10.264  -3.602  1.00  0.00     0.157 HD
ENDBRANCH  37  42
ENDBRANCH   1  30
BRANCH  10  45
HETATM   45  N13 UNL     1      15.550 -10.375  -2.862  1.00  0.00    -0.380 N 
ATOM     46 2H13 UNL     1      16.462  -9.979  -3.090  1.00  0.00     0.158 HD
ATOM     47 1H13 UNL     1      15.316 -10.965  -3.661  1.00  0.00     0.158 HD
ENDBRANCH  10  45
TORSDOF 10
ENDMDL
MODEL 3
REMARK VINA RESULT: -8.536733822      2.750      6.525
REMARK  10 active torsions:
REMARK  status: ('A' for Active; 'I' for Inactive)
REMARK    1  A    between atoms: C3_5  and  N2_6 
REMARK    2  A    between atoms: C4_11  and  N4_12 
REMARK    3  A    between atoms: C5_15  and  N5_16 
REMARK    4  A    between atoms: C6_19  and  C7_20 
REMARK       I    between atoms: C7_20  and  N7_22 
REMARK    5  A    between atoms: N7_22  and  C8_23 
REMARK       I    between atoms: N8_24  and  C9_26 
REMARK    6  A    between atoms: C9_26  and  C10_28 
REMARK    7  A    between atoms: C10_28  and  O3_29 
REMARK    8  A    between atoms: C10_28  and  N9_31 
REMARK    9  A    between atoms: C11_33  and  C13_35 
REMARK   10  A    between atoms: C15_43  and  N13_44 
ROOT
HETATM    1  N5  UNL     1      15.225  -7.427  -0.726  1.00  0.00    -0.164 N 
HETATM    2  N6  UNL     1      15.905  -8.646  -0.652  1.00  0.00    -0.253 N 
ATOM      3  H6  UNL     1      16.758  -8.834  -0.126  1.00  0.00     0.191 HD
HETATM    4  C6  UNL     1      15.262  -9.471  -1.362  1.00  0.00     0.247 A 
HETATM    5  N10 UNL     1      14.203  -8.893  -1.892  1.00  0.00    -0.145 N 
HETATM    6  N11 UNL     1      13.257  -9.180  -2.820  1.00  0.00    -0.260 N 
ATOM      7  H11 UNL     1      13.100 -10.076  -3.281  1.00  0.00     0.190 HD
HETATM    8  C14 UNL     1      12.594  -8.088  -3.001  1.00  0.00     0.180 A 
HETATM    9  N12 UNL     1      11.689  -7.931  -4.144  1.00  0.00    -0.077 NA
HETATM   10  C15 UNL     1      13.087  -7.046  -2.181  1.00  0.00     0.186 A 
HETATM   11  N14 UNL     1      14.114  -7.590  -1.519  1.00  0.00    -0.131 N 
ENDROOT
BRANCH   4  12
HETATM   12  C7  UNL     1      15.363 -11.029  -1.748  1.00  0.00     0.366 C 
HETATM   13  O1  UNL     1      16.001 -11.020  -2.760  1.00  0.00    -0.247 OA
HETATM   14  N7  UNL     1      14.751 -11.522  -0.821  1.00  0.00    -0.359 NA
BRANCH  14  15
HETATM   15  C8  UNL     1      14.047 -12.123   0.239  1.00  0.00     0.282 C 
HETATM   16  N8  UNL     1      12.914 -11.517   0.551  1.00  0.00    -0.305 N 
HETATM   17  C9  UNL     1      12.748 -10.267   1.154  1.00  0.00     0.298 C 
ATOM     18  H8  UNL     1      12.058 -12.023   0.322  1.00  0.00     0.171 HD
HETATM   19  O2  UNL     1      13.712  -9.539   1.605  1.00  0.00    -0.263 OA
BRANCH  17  20
HETATM   20  C10 UNL     1      11.328  -9.777   1.233  1.00  0.00     0.210 C 
BRANCH  20  21
HETATM   21  O3  UNL     1      11.159  -9.063   2.397  1.00  0.00    -0.342 OA
ATOM     22  H3  UNL     1      11.188  -9.658   3.137  1.00  0.00     0.219 HD
ENDBRANCH  20  21
BRANCH  20  23
HETATM   23  N9  UNL     1      10.634  -9.331   0.128  1.00  0.00    -0.331 N 
HETATM   24  C11 UNL     1       9.536  -9.931  -0.417  1.00  0.00     0.084 C 
HETATM   25  C12 UNL     1       8.268 -10.095   0.322  1.00  0.00     0.076 C 
ATOM     26  H9  UNL     1      10.971  -8.479  -0.321  1.00  0.00     0.168 HD
BRANCH  24  27
HETATM   27  C13 UNL     1       9.915 -11.163  -1.246  1.00  0.00     0.222 C 
HETATM   28  O4  UNL     1      10.928 -10.968  -2.029  1.00  0.00    -0.643 OA
HETATM   29  O5  UNL     1       9.232 -12.317  -1.092  1.00  0.00    -0.643 OA
ENDBRANCH  24  27
ENDBRANCH  20  23
ENDBRANCH  17  20
ENDBRANCH  14  15
ENDBRANCH   4  12
BRANCH   1  30
HETATM   30  C5  UNL     1      15.816  -6.220  -0.460  1.00  0.00     0.143 A 
HETATM   31  C2  UNL     1      16.679  -5.484  -1.230  1.00  0.00     0.057 A 
HETATM   32  C1  UNL     1      17.019  -5.873  -2.632  1.00  0.00     0.071 C 
HETATM   33  N1  UNL     1      17.106  -4.327  -0.770  1.00  0.00    -0.194 N 
HETATM   34  C3  UNL     1      16.735  -3.777   0.496  1.00  0.00     0.677 A 
ATOM     35  H1  UNL     1      17.743  -3.787  -1.355  1.00  0.00     0.184 HD
HETATM   36  N3  UNL     1      15.901  -4.488   1.195  1.00  0.00    -0.175 N 
HETATM   37  C4  UNL     1      15.444  -5.609   0.780  1.00  0.00     0.147 A 
ATOM     38  H3  UNL     1      15.601  -4.140   2.106  1.00  0.00     0.186 HD
BRANCH  34  39
HETATM   39  N2  UNL     1      17.468  -2.888   0.888  1.00  0.00    -0.234 N 
ATOM     40  H22 UNL     1      18.298  -2.514   0.427  1.00  0.00     0.174 HD
ATOM     41  H21 UNL     1      17.056  -2.294   1.607  1.00  0.00     0.174 HD
ENDBRANCH  34  39
BRANCH  37  42
HETATM   42  N4  UNL     1      14.435  -6.334   1.334  1.00  0.00    -0.383 N 
ATOM     43  H42 UNL     1      14.788  -7.264   1.557  1.00  0.00     0.157 HD
ATOM     44  H41 UNL     1      13.456  -6.057   1.415  1.00  0.00     0.157 HD
ENDBRANCH  37  42
ENDBRANCH   1  30
BRANCH  10  45
HETATM   45  N13 UNL     1      12.813  -5.832  -2.235  1.00  0.00    -0.380 N 
ATOM     46 2H13 UNL     1      12.847  -5.248  -3.070  1.00  0.00     0.158 HD
ATOM     47 1H13 UNL     1      12.322  -5.267  -1.542  1.00  0.00     0.158 HD
ENDBRANCH  10  45
TORSDOF 10
ENDMDL
MODEL 4
REMARK VINA RESULT: -8.205014503      2.932      6.005
REMARK  10 active torsions:
REMARK  status: ('A' for Active; 'I' for Inactive)
REMARK    1  A    between atoms: C3_5  and  N2_6 
REMARK    2  A    between atoms: C4_11  and  N4_12 
REMARK    3  A    between atoms: C5_15  and  N5_16 
REMARK    4  A    between atoms: C6_19  and  C7_20 
REMARK       I    between atoms: C7_20  and  N7_22 
REMARK    5  A    between atoms: N7_22  and  C8_23 
REMARK       I    between atoms: N8_24  and  C9_26 
REMARK    6  A    between atoms: C9_26  and  C10_28 
REMARK    7  A    between atoms: C10_28  and  O3_29 
REMARK    8  A    between atoms: C10_28  and  N9_31 
REMARK    9  A    between atoms: C11_33  and  C13_35 
REMARK   10  A    between atoms: C15_43  and  N13_44 
ROOT
HETATM    1  N5  UNL     1      14.890  -6.841  -1.981  1.00  0.00    -0.164 N 
HETATM    2  N6  UNL     1      13.642  -6.547  -2.537  1.00  0.00    -0.253 N 
ATOM      3  H6  UNL     1      13.261  -5.618  -2.718  1.00  0.00     0.191 HD
HETATM    4  C6  UNL     1      13.073  -7.651  -2.773  1.00  0.00     0.247 A 
HETATM    5  N10 UNL     1      13.855  -8.653  -2.425  1.00  0.00    -0.145 N 
HETATM    6  N11 UNL     1      13.766  -9.999  -2.285  1.00  0.00    -0.260 N 
ATOM      7  H11 UNL     1      12.988 -10.596  -2.565  1.00  0.00     0.190 HD
HETATM    8  C14 UNL     1      14.866 -10.371  -1.725  1.00  0.00     0.180 A 
HETATM    9  N12 UNL     1      15.008 -11.712  -1.147  1.00  0.00    -0.077 NA
HETATM   10  C15 UNL     1      15.721  -9.269  -1.487  1.00  0.00     0.186 A 
HETATM   11  N14 UNL     1      15.034  -8.205  -1.919  1.00  0.00    -0.131 N 
ENDROOT
BRANCH   4  12
HETATM   12  C7  UNL     1      11.690  -8.155  -3.421  1.00  0.00     0.366 C 
HETATM   13  O1  UNL     1      11.950  -8.246  -4.585  1.00  0.00    -0.247 OA
HETATM   14  N7  UNL     1      10.999  -8.230  -2.424  1.00  0.00    -0.359 NA
BRANCH  14  15
HETATM   15  C8  UNL     1      10.173  -8.329  -1.289  1.00  0.00     0.282 C 
HETATM   16  N8  UNL     1      10.808  -8.690  -0.186  1.00  0.00    -0.305 N 
HETATM   17  C9  UNL     1      11.363  -9.937   0.114  1.00  0.00     0.298 C 
ATOM     18  H8  UNL     1      10.905  -7.971   0.531  1.00  0.00     0.171 HD
HETATM   19  O2  UNL     1      11.245 -10.987  -0.625  1.00  0.00    -0.263 OA
BRANCH  17  20
HETATM   20  C10 UNL     1      12.165  -9.993   1.385  1.00  0.00     0.210 C 
BRANCH  20  21
HETATM   21  O3  UNL     1      13.500  -9.839   1.087  1.00  0.00    -0.342 OA
ATOM     22  H3  UNL     1      13.821 -10.630   0.670  1.00  0.00     0.219 HD
ENDBRANCH  20  21
BRANCH  20  23
HETATM   23  N9  UNL     1      11.726  -9.429   2.565  1.00  0.00    -0.331 N 
HETATM   24  C11 UNL     1      10.825  -9.987   3.426  1.00  0.00     0.084 C 
HETATM   25  C12 UNL     1      11.072 -11.265   4.121  1.00  0.00     0.076 C 
ATOM     26  H9  UNL     1      12.107  -8.517   2.816  1.00  0.00     0.168 HD
BRANCH  24  27
HETATM   27  C13 UNL     1       9.388  -9.847   2.912  1.00  0.00     0.222 C 
HETATM   28  O4  UNL     1       8.687 -10.929   3.037  1.00  0.00    -0.643 OA
HETATM   29  O5  UNL     1       8.957  -8.665   2.424  1.00  0.00    -0.643 OA
ENDBRANCH  24  27
ENDBRANCH  20  23
ENDBRANCH  17  20
ENDBRANCH  14  15
ENDBRANCH   4  12
BRANCH   1  30
HETATM   30  C5  UNL     1      15.599  -5.952  -1.216  1.00  0.00     0.143 A 
HETATM   31  C2  UNL     1      15.324  -5.465   0.035  1.00  0.00     0.057 A 
HETATM   32  C1  UNL     1      14.183  -5.979   0.852  1.00  0.00     0.071 C 
HETATM   33  N1  UNL     1      16.174  -4.625   0.587  1.00  0.00    -0.194 N 
HETATM   34  C3  UNL     1      17.378  -4.172  -0.036  1.00  0.00     0.677 A 
ATOM     35  H1  UNL     1      15.959  -4.275   1.521  1.00  0.00     0.184 HD
HETATM   36  N3  UNL     1      17.622  -4.665  -1.213  1.00  0.00    -0.175 N 
HETATM   37  C4  UNL     1      16.835  -5.500  -1.781  1.00  0.00     0.147 A 
ATOM     38  H3  UNL     1      18.470  -4.377  -1.701  1.00  0.00     0.186 HD
BRANCH  34  39
HETATM   39  N2  UNL     1      17.852  -3.170   0.467  1.00  0.00    -0.234 N 
ATOM     40  H22 UNL     1      18.394  -3.099   1.328  1.00  0.00     0.174 HD
ATOM     41  H21 UNL     1      17.935  -2.381  -0.175  1.00  0.00     0.174 HD
ENDBRANCH  34  39
BRANCH  37  42
HETATM   42  N4  UNL     1      17.082  -6.215  -2.911  1.00  0.00    -0.383 N 
ATOM     43  H42 UNL     1      18.006  -6.641  -2.830  1.00  0.00     0.157 HD
ATOM     44  H41 UNL     1      16.511  -6.240  -3.756  1.00  0.00     0.157 HD
ENDBRANCH  37  42
ENDBRANCH   1  30
BRANCH  10  45
HETATM   45  N13 UNL     1      16.761  -9.237  -0.803  1.00  0.00    -0.380 N 
ATOM     46 2H13 UNL     1      17.032  -9.920  -0.095  1.00  0.00     0.158 HD
ATOM     47 1H13 UNL     1      17.599  -8.677  -0.958  1.00  0.00     0.158 HD
ENDBRANCH  10  45
TORSDOF 10
ENDMDL
MODEL 5
REMARK VINA RESULT: -8.121504611      3.120      7.195
REMARK  10 active torsions:
REMARK  status: ('A' for Active; 'I' for Inactive)
REMARK    1  A    between atoms: C3_5  and  N2_6 
REMARK    2  A    between atoms: C4_11  and  N4_12 
REMARK    3  A    between atoms: C5_15  and  N5_16 
REMARK    4  A    between atoms: C6_19  and  C7_20 
REMARK       I    between atoms: C7_20  and  N7_22 
REMARK    5  A    between atoms: N7_22  and  C8_23 
REMARK       I    between atoms: N8_24  and  C9_26 
REMARK    6  A    between atoms: C9_26  and  C10_28 
REMARK    7  A    between atoms: C10_28  and  O3_29 
REMARK    8  A    between atoms: C10_28  and  N9_31 
REMARK    9  A    between atoms: C11_33  and  C13_35 
REMARK   10  A    between atoms: C15_43  and  N13_44 
ROOT
HETATM    1  N5  UNL     1      16.205  -5.247   2.189  1.00  0.00    -0.164 N 
HETATM    2  N6  UNL     1      15.199  -6.104   2.647  1.00  0.00    -0.253 N 
ATOM      3  H6  UNL     1      15.267  -7.115   2.756  1.00  0.00     0.191 HD
HETATM    4  C6  UNL     1      14.189  -5.387   2.899  1.00  0.00     0.247 A 
HETATM    5  N10 UNL     1      14.453  -4.119   2.653  1.00  0.00    -0.145 N 
HETATM    6  N11 UNL     1      13.778  -2.946   2.574  1.00  0.00    -0.260 N 
ATOM      7  H11 UNL     1      12.806  -2.778   2.832  1.00  0.00     0.190 HD
HETATM    8  C14 UNL     1      14.616  -2.085   2.107  1.00  0.00     0.180 A 
HETATM    9  N12 UNL     1      14.165  -0.782   1.606  1.00  0.00    -0.077 NA
HETATM   10  C15 UNL     1      15.881  -2.673   1.871  1.00  0.00     0.186 A 
HETATM   11  N14 UNL     1      15.726  -3.959   2.205  1.00  0.00    -0.131 N 
ENDROOT
BRANCH   4  12
HETATM   12  C7  UNL     1      12.704  -5.598   3.479  1.00  0.00     0.366 C 
HETATM   13  O1  UNL     1      12.478  -4.563   4.036  1.00  0.00    -0.247 OA
HETATM   14  N7  UNL     1      12.471  -6.720   3.075  1.00  0.00    -0.359 NA
BRANCH  14  15
HETATM   15  C8  UNL     1      12.170  -8.018   2.621  1.00  0.00     0.282 C 
HETATM   16  N8  UNL     1      12.819  -8.372   1.525  1.00  0.00    -0.305 N 
HETATM   17  C9  UNL     1      12.643  -7.882   0.227  1.00  0.00     0.298 C 
ATOM     18  H8  UNL     1      13.535  -9.090   1.640  1.00  0.00     0.171 HD
HETATM   19  O2  UNL     1      11.717  -7.054  -0.122  1.00  0.00    -0.263 OA
BRANCH  17  20
HETATM   20  C10 UNL     1      13.645  -8.367  -0.783  1.00  0.00     0.210 C 
BRANCH  20  21
HETATM   21  O3  UNL     1      13.653  -7.511  -1.861  1.00  0.00    -0.342 OA
ATOM     22  H3  UNL     1      14.310  -6.839  -1.723  1.00  0.00     0.219 HD
ENDBRANCH  20  21
BRANCH  20  23
HETATM   23  N9  UNL     1      14.857  -8.917  -0.422  1.00  0.00    -0.331 N 
HETATM   24  C11 UNL     1      15.281 -10.179  -0.727  1.00  0.00     0.084 C 
HETATM   25  C12 UNL     1      15.478 -10.639  -2.116  1.00  0.00     0.076 C 
ATOM     26  H9  UNL     1      15.492  -8.331   0.120  1.00  0.00     0.168 HD
BRANCH  24  27
HETATM   27  C13 UNL     1      14.621 -11.231   0.170  1.00  0.00     0.222 C 
HETATM   28  O4  UNL     1      14.552 -12.405  -0.374  1.00  0.00    -0.643 OA
HETATM   29  O5  UNL     1      14.209 -10.899   1.412  1.00  0.00    -0.643 OA
ENDBRANCH  24  27
ENDBRANCH  20  23
ENDBRANCH  17  20
ENDBRANCH  14  15
ENDBRANCH   4  12
BRANCH   1  30
HETATM   30  C5  UNL     1      17.263  -5.671   1.429  1.00  0.00     0.143 A 
HETATM   31  C2  UNL     1      17.346  -5.852   0.073  1.00  0.00     0.057 A 
HETATM   32  C1  UNL     1      16.237  -5.458  -0.847  1.00  0.00     0.071 C 
HETATM   33  N1  UNL     1      18.490  -6.251  -0.442  1.00  0.00    -0.194 N 
HETATM   34  C3  UNL     1      19.667  -6.518   0.322  1.00  0.00     0.677 A 
ATOM     35  H1  UNL     1      18.539  -6.377  -1.453  1.00  0.00     0.184 HD
HETATM   36  N3  UNL     1      19.565  -6.319   1.602  1.00  0.00    -0.175 N 
HETATM   37  C4  UNL     1      18.479  -5.913   2.145  1.00  0.00     0.147 A 
ATOM     38  H3  UNL     1      20.378  -6.493   2.194  1.00  0.00     0.186 HD
BRANCH  34  39
HETATM   39  N2  UNL     1      20.502  -7.181  -0.265  1.00  0.00    -0.234 N 
ATOM     40  H22 UNL     1      20.352  -8.013  -0.837  1.00  0.00     0.174 HD
ATOM     41  H21 UNL     1      21.391  -6.701  -0.409  1.00  0.00     0.174 HD
ENDBRANCH  34  39
BRANCH  37  42
HETATM   42  N4  UNL     1      18.317  -5.494   3.430  1.00  0.00    -0.383 N 
ATOM     43  H42 UNL     1      18.334  -4.475   3.443  1.00  0.00     0.157 HD
ATOM     44  H41 UNL     1      18.298  -6.079   4.265  1.00  0.00     0.157 HD
ENDBRANCH  37  42
ENDBRANCH   1  30
BRANCH  10  45
HETATM   45  N13 UNL     1      16.850  -2.190   1.256  1.00  0.00    -0.380 N 
ATOM     46 2H13 UNL     1      16.996  -2.227   0.247  1.00  0.00     0.158 HD
ATOM     47 1H13 UNL     1      17.536  -1.515   1.594  1.00  0.00     0.158 HD
ENDBRANCH  10  45
TORSDOF 10
ENDMDL
