MODEL 1
REMARK VINA RESULT: -7.756932363      0.000      0.000
REMARK  15 active torsions:
REMARK  status: ('A' for Active; 'I' for Inactive)
REMARK    1  A    between atoms: N1_2  and  N2_3 
REMARK    2  A    between atoms: N1_2  and  C2_6 
REMARK    3  A    between atoms: C2_6  and  C3_7 
REMARK    4  A    between atoms: C3_7  and  C4_8 
REMARK    5  A    between atoms: C4_8  and  O1_9 
REMARK    6  A    between atoms: C4_8  and  C5_11 
REMARK    7  A    between atoms: C5_11  and  O2_12 
REMARK    8  A    between atoms: C5_11  and  C6_14 
REMARK    9  A    between atoms: C6_14  and  C7_15 
REMARK   10  A    between atoms: C9_19  and  C10_20 
REMARK   11  A    between atoms: C13_27  and  N6_28 
REMARK   12  A    between atoms: C14_33  and  N8_34 
REMARK   13  A    between atoms: N10_40  and  C16_41 
REMARK   14  A    between atoms: N12_44  and  N13_45 
REMARK   15  A    between atoms: C17_48  and  N14_49 
ROOT
HETATM    1  C7  UNL     1      12.345  -6.736  -1.365  1.00  0.00     0.054 A 
HETATM    2  C8  UNL     1      12.271  -5.408  -1.047  1.00  0.00     0.116 A 
HETATM    3  N3  UNL     1      13.492  -4.963  -0.676  1.00  0.00    -0.348 N 
ATOM      4  H3  UNL     1      13.727  -4.013  -0.386  1.00  0.00     0.167 HD
HETATM    5  C9  UNL     1      14.340  -6.000  -0.758  1.00  0.00     0.157 A 
HETATM    6  N10 UNL     1      13.664  -7.076  -1.172  1.00  0.00    -0.131 N 
ENDROOT
BRANCH   5   7
HETATM    7  C10 UNL     1      15.760  -5.893  -0.440  1.00  0.00     0.094 A 
HETATM    8  C11 UNL     1      16.328  -4.669  -0.126  1.00  0.00     0.123 A 
HETATM    9  N4  UNL     1      17.632  -4.518   0.167  1.00  0.00    -0.348 N 
HETATM   10  C12 UNL     1      18.412  -5.612   0.150  1.00  0.00     0.151 A 
ATOM     11  H4  UNL     1      18.018  -3.601   0.394  1.00  0.00     0.167 HD
HETATM   12  N5  UNL     1      19.721  -5.472   0.441  1.00  0.00    -0.174 N 
HETATM   13  C15 UNL     1      17.896  -6.848  -0.156  1.00  0.00     0.122 A 
HETATM   14  C13 UNL     1      20.576  -6.507   0.448  1.00  0.00     0.679 A 
ATOM     15  H5  UNL     1      20.076  -4.542   0.665  1.00  0.00     0.186 HD
HETATM   16  N7  UNL     1      20.077  -7.719   0.149  1.00  0.00    -0.175 N 
HETATM   17  C14 UNL     1      18.770  -7.926  -0.151  1.00  0.00     0.145 A 
ATOM     18  H7  UNL     1      20.710  -8.520   0.149  1.00  0.00     0.186 HD
HETATM   19  N9  UNL     1      16.583  -6.973  -0.446  1.00  0.00    -0.346 N 
ATOM     20  H9  UNL     1      16.205  -7.892  -0.673  1.00  0.00     0.166 HD
BRANCH  14  21
HETATM   21  N6  UNL     1      21.848  -6.362   0.731  1.00  0.00    -0.234 N 
ATOM     22  H62 UNL     1      22.502  -6.032   0.022  1.00  0.00     0.174 HD
ATOM     23  H61 UNL     1      22.227  -6.572   1.655  1.00  0.00     0.174 HD
ENDBRANCH  14  21
BRANCH  17  24
HETATM   24  N8  UNL     1      18.345  -9.103  -0.430  1.00  0.00    -0.383 N 
ATOM     25  H82 UNL     1      18.642  -9.903   0.130  1.00  0.00     0.157 HD
ATOM     26  H81 UNL     1      17.706  -9.252  -1.211  1.00  0.00     0.157 HD
ENDBRANCH  17  24
ENDBRANCH   5   7
BRANCH   6  27
HETATM   27  C16 UNL     1      14.217  -8.369  -1.386  1.00  0.00     0.722 A 
HETATM   28  N11 UNL     1      14.749  -8.927  -2.469  1.00  0.00    -0.095 N 
HETATM   29  N12 UNL     1      15.143 -10.167  -2.187  1.00  0.00    -0.012 N 
ATOM     30  H11 UNL     1      14.841  -8.473  -3.379  1.00  0.00     0.208 HD
HETATM   31  C17 UNL     1      14.858 -10.426  -0.878  1.00  0.00     0.727 A 
HETATM   32  N15 UNL     1      14.289  -9.305  -0.407  1.00  0.00    -0.018 N 
ATOM     33  H15 UNL     1      13.959  -9.176   0.550  1.00  0.00     0.203 HD
BRANCH  29  34
HETATM   34  N13 UNL     1      15.747 -11.104  -3.010  1.00  0.00    -0.309 N 
ATOM     35 2H13 UNL     1      16.602 -10.901  -3.527  1.00  0.00     0.179 HD
ATOM     36 1H13 UNL     1      15.462 -12.062  -3.216  1.00  0.00     0.179 HD
ENDBRANCH  29  34
BRANCH  31  37
HETATM   37  N14 UNL     1      15.102 -11.535  -0.255  1.00  0.00    -0.231 N 
ATOM     38 2H14 UNL     1      15.947 -12.106  -0.275  1.00  0.00     0.174 HD
ATOM     39 1H14 UNL     1      14.459 -12.021   0.370  1.00  0.00     0.174 HD
ENDBRANCH  31  37
ENDBRANCH   6  27
BRANCH   1  40
HETATM   40  C6  UNL     1      11.372  -7.725  -1.801  1.00  0.00     0.094 C 
BRANCH  40  41
HETATM   41  C5  UNL     1      10.973  -7.775  -3.208  1.00  0.00     0.152 C 
BRANCH  41  42
HETATM   42  C4  UNL     1      11.979  -7.505  -4.267  1.00  0.00     0.148 C 
BRANCH  42  43
HETATM   43  C3  UNL     1      11.665  -6.078  -4.784  1.00  0.00     0.050 C 
BRANCH  43  44
HETATM   44  C2  UNL     1      12.074  -5.890  -6.204  1.00  0.00     0.115 C 
BRANCH  44  45
HETATM   45  N1  UNL     1      11.001  -6.284  -7.095  1.00  0.00    -0.242 NA
HETATM   46  C1  UNL     1      10.176  -5.181  -7.487  1.00  0.00     0.135 C 
BRANCH  45  47
HETATM   47  N2  UNL     1      11.421  -7.041  -8.167  1.00  0.00    -0.364 NA
ATOM     48  H22 UNL     1      12.092  -6.562  -8.768  1.00  0.00     0.171 HD
ATOM     49  H21 UNL     1      10.645  -7.447  -8.690  1.00  0.00     0.171 HD
ENDBRANCH  45  47
ENDBRANCH  44  45
ENDBRANCH  43  44
ENDBRANCH  42  43
BRANCH  42  50
HETATM   50  O1  UNL     1      12.098  -8.381  -5.290  1.00  0.00    -0.393 OA
ATOM     51  H1  UNL     1      12.238  -7.930  -6.115  1.00  0.00     0.210 HD
ENDBRANCH  42  50
ENDBRANCH  41  42
BRANCH  41  52
HETATM   52  O2  UNL     1       9.957  -6.789  -3.388  1.00  0.00    -0.393 OA
ATOM     53  H2  UNL     1       9.762  -6.793  -4.318  1.00  0.00     0.210 HD
ENDBRANCH  41  52
ENDBRANCH  40  41
ENDBRANCH   1  40
TORSDOF 15
ENDMDL
MODEL 2
REMARK VINA RESULT: -7.471540576      2.372      3.862
REMARK  15 active torsions:
REMARK  status: ('A' for Active; 'I' for Inactive)
REMARK    1  A    between atoms: N1_2  and  N2_3 
REMARK    2  A    between atoms: N1_2  and  C2_6 
REMARK    3  A    between atoms: C2_6  and  C3_7 
REMARK    4  A    between atoms: C3_7  and  C4_8 
REMARK    5  A    between atoms: C4_8  and  O1_9 
REMARK    6  A    between atoms: C4_8  and  C5_11 
REMARK    7  A    between atoms: C5_11  and  O2_12 
REMARK    8  A    between atoms: C5_11  and  C6_14 
REMARK    9  A    between atoms: C6_14  and  C7_15 
REMARK   10  A    between atoms: C9_19  and  C10_20 
REMARK   11  A    between atoms: C13_27  and  N6_28 
REMARK   12  A    between atoms: C14_33  and  N8_34 
REMARK   13  A    between atoms: N10_40  and  C16_41 
REMARK   14  A    between atoms: N12_44  and  N13_45 
REMARK   15  A    between atoms: C17_48  and  N14_49 
ROOT
HETATM    1  C7  UNL     1      12.383  -6.898  -1.563  1.00  0.00     0.054 A 
HETATM    2  C8  UNL     1      12.263  -5.577  -1.230  1.00  0.00     0.116 A 
HETATM    3  N3  UNL     1      13.463  -5.100  -0.831  1.00  0.00    -0.348 N 
ATOM      4  H3  UNL     1      13.663  -4.148  -0.525  1.00  0.00     0.167 HD
HETATM    5  C9  UNL     1      14.343  -6.111  -0.910  1.00  0.00     0.157 A 
HETATM    6  N10 UNL     1      13.708  -7.201  -1.350  1.00  0.00    -0.131 N 
ENDROOT
BRANCH   5   7
HETATM    7  C10 UNL     1      15.753  -5.966  -0.563  1.00  0.00     0.094 A 
HETATM    8  C11 UNL     1      16.287  -4.723  -0.261  1.00  0.00     0.123 A 
HETATM    9  N4  UNL     1      17.580  -4.537   0.056  1.00  0.00    -0.348 N 
HETATM   10  C12 UNL     1      18.384  -5.613   0.078  1.00  0.00     0.151 A 
ATOM     11  H4  UNL     1      17.940  -3.608   0.274  1.00  0.00     0.167 HD
HETATM   12  N5  UNL     1      19.684  -5.437   0.394  1.00  0.00    -0.174 N 
HETATM   13  C15 UNL     1      17.903  -6.866  -0.215  1.00  0.00     0.122 A 
HETATM   14  C13 UNL     1      20.561  -6.453   0.439  1.00  0.00     0.679 A 
ATOM     15  H5  UNL     1      20.013  -4.496   0.607  1.00  0.00     0.186 HD
HETATM   16  N7  UNL     1      20.096  -7.681   0.154  1.00  0.00    -0.175 N 
HETATM   17  C14 UNL     1      18.801  -7.924  -0.171  1.00  0.00     0.145 A 
ATOM     18  H7  UNL     1      20.746  -8.467   0.182  1.00  0.00     0.186 HD
HETATM   19  N9  UNL     1      16.600  -7.026  -0.531  1.00  0.00    -0.346 N 
ATOM     20  H9  UNL     1      16.247  -7.958  -0.748  1.00  0.00     0.166 HD
BRANCH  14  21
HETATM   21  N6  UNL     1      21.823  -6.274   0.747  1.00  0.00    -0.234 N 
ATOM     22  H62 UNL     1      22.363  -7.026   1.174  1.00  0.00     0.174 HD
ATOM     23  H61 UNL     1      22.305  -5.392   0.575  1.00  0.00     0.174 HD
ENDBRANCH  14  21
BRANCH  17  24
HETATM   24  N8  UNL     1      18.408  -9.115  -0.435  1.00  0.00    -0.383 N 
ATOM     25  H82 UNL     1      18.790  -9.908   0.080  1.00  0.00     0.157 HD
ATOM     26  H81 UNL     1      17.710  -9.281  -1.161  1.00  0.00     0.157 HD
ENDBRANCH  17  24
ENDBRANCH   5   7
BRANCH   6  27
HETATM   27  C16 UNL     1      14.304  -8.473  -1.569  1.00  0.00     0.722 A 
HETATM   28  N11 UNL     1      14.947  -8.971  -2.622  1.00  0.00    -0.095 N 
HETATM   29  N12 UNL     1      15.336 -10.218  -2.361  1.00  0.00    -0.012 N 
ATOM     30  H11 UNL     1      15.116  -8.473  -3.496  1.00  0.00     0.208 HD
HETATM   31  C17 UNL     1      14.933 -10.543  -1.099  1.00  0.00     0.727 A 
HETATM   32  N15 UNL     1      14.300  -9.454  -0.633  1.00  0.00    -0.018 N 
ATOM     33  H15 UNL     1      13.878  -9.377   0.292  1.00  0.00     0.203 HD
BRANCH  29  34
HETATM   34  N13 UNL     1      16.034 -11.104  -3.164  1.00  0.00    -0.309 N 
ATOM     35 2H13 UNL     1      15.597 -11.582  -3.953  1.00  0.00     0.179 HD
ATOM     36 1H13 UNL     1      17.009 -11.400  -3.105  1.00  0.00     0.179 HD
ENDBRANCH  29  34
BRANCH  31  37
HETATM   37  N14 UNL     1      15.138 -11.677  -0.507  1.00  0.00    -0.231 N 
ATOM     38 2H14 UNL     1      14.885 -12.615  -0.821  1.00  0.00     0.174 HD
ATOM     39 1H14 UNL     1      15.598 -11.805   0.394  1.00  0.00     0.174 HD
ENDBRANCH  31  37
ENDBRANCH   6  27
BRANCH   1  40
HETATM   40  C6  UNL     1      11.448  -7.910  -2.030  1.00  0.00     0.094 C 
BRANCH  40  41
HETATM   41  C5  UNL     1      10.285  -8.253  -1.211  1.00  0.00     0.152 C 
BRANCH  41  42
HETATM   42  C4  UNL     1      10.285  -9.516  -0.427  1.00  0.00     0.148 C 
BRANCH  42  43
HETATM   43  C3  UNL     1      10.164  -9.083   1.056  1.00  0.00     0.050 C 
BRANCH  43  44
HETATM   44  C2  UNL     1      11.105  -9.827   1.939  1.00  0.00     0.115 C 
BRANCH  44  45
HETATM   45  N1  UNL     1      12.464  -9.366   1.729  1.00  0.00    -0.242 NA
HETATM   46  C1  UNL     1      12.734  -8.125   2.389  1.00  0.00     0.135 C 
BRANCH  45  47
HETATM   47  N2  UNL     1      13.419 -10.325   1.989  1.00  0.00    -0.364 NA
ATOM     48  H22 UNL     1      14.362  -9.947   2.086  1.00  0.00     0.171 HD
ATOM     49  H21 UNL     1      13.375 -11.110   1.340  1.00  0.00     0.171 HD
ENDBRANCH  45  47
ENDBRANCH  44  45
ENDBRANCH  43  44
ENDBRANCH  42  43
BRANCH  42  50
HETATM   50  O1  UNL     1      11.302 -10.390  -0.601  1.00  0.00    -0.393 OA
ATOM     51  H1  UNL     1      11.885 -10.104  -1.294  1.00  0.00     0.210 HD
ENDBRANCH  42  50
ENDBRANCH  41  42
BRANCH  41  52
HETATM   52  O2  UNL     1       9.169  -8.354  -2.095  1.00  0.00    -0.393 OA
ATOM     53  H2  UNL     1       8.780  -7.487  -2.111  1.00  0.00     0.210 HD
ENDBRANCH  41  52
ENDBRANCH  40  41
ENDBRANCH   1  40
TORSDOF 15
ENDMDL
MODEL 3
REMARK VINA RESULT: -7.447963714      2.388      3.297
REMARK  15 active torsions:
REMARK  status: ('A' for Active; 'I' for Inactive)
REMARK    1  A    between atoms: N1_2  and  N2_3 
REMARK    2  A    between atoms: N1_2  and  C2_6 
REMARK    3  A    between atoms: C2_6  and  C3_7 
REMARK    4  A    between atoms: C3_7  and  C4_8 
REMARK    5  A    between atoms: C4_8  and  O1_9 
REMARK    6  A    between atoms: C4_8  and  C5_11 
REMARK    7  A    between atoms: C5_11  and  O2_12 
REMARK    8  A    between atoms: C5_11  and  C6_14 
REMARK    9  A    between atoms: C6_14  and  C7_15 
REMARK   10  A    between atoms: C9_19  and  C10_20 
REMARK   11  A    between atoms: C13_27  and  N6_28 
REMARK   12  A    between atoms: C14_33  and  N8_34 
REMARK   13  A    between atoms: N10_40  and  C16_41 
REMARK   14  A    between atoms: N12_44  and  N13_45 
REMARK   15  A    between atoms: C17_48  and  N14_49 
ROOT
HETATM    1  C7  UNL     1      13.328  -6.283  -1.157  1.00  0.00     0.054 A 
HETATM    2  C8  UNL     1      13.451  -4.995  -0.715  1.00  0.00     0.116 A 
HETATM    3  N3  UNL     1      14.703  -4.795  -0.245  1.00  0.00    -0.348 N 
ATOM      4  H3  UNL     1      15.070  -3.928   0.146  1.00  0.00     0.167 HD
HETATM    5  C9  UNL     1      15.374  -5.949  -0.388  1.00  0.00     0.157 A 
HETATM    6  N10 UNL     1      14.559  -6.855  -0.936  1.00  0.00    -0.131 N 
ENDROOT
BRANCH   5   7
HETATM    7  C10 UNL     1      16.770  -6.111   0.007  1.00  0.00     0.094 A 
HETATM    8  C11 UNL     1      17.751  -6.365  -0.938  1.00  0.00     0.123 A 
HETATM    9  N4  UNL     1      19.048  -6.530  -0.624  1.00  0.00    -0.348 N 
HETATM   10  C12 UNL     1      19.398  -6.442   0.671  1.00  0.00     0.151 A 
ATOM     11  H4  UNL     1      19.745  -6.716  -1.345  1.00  0.00     0.167 HD
HETATM   12  N5  UNL     1      20.696  -6.607   0.997  1.00  0.00    -0.174 N 
HETATM   13  C15 UNL     1      18.462  -6.193   1.645  1.00  0.00     0.122 A 
HETATM   14  C13 UNL     1      21.138  -6.538   2.263  1.00  0.00     0.679 A 
ATOM     15  H5  UNL     1      21.369  -6.791   0.253  1.00  0.00     0.186 HD
HETATM   16  N7  UNL     1      20.227  -6.294   3.221  1.00  0.00    -0.175 N 
HETATM   17  C14 UNL     1      18.907  -6.119   2.958  1.00  0.00     0.145 A 
ATOM     18  H7  UNL     1      20.541  -6.238   4.190  1.00  0.00     0.186 HD
HETATM   19  N9  UNL     1      17.166  -6.031   1.303  1.00  0.00    -0.346 N 
ATOM     20  H9  UNL     1      16.474  -5.846   2.029  1.00  0.00     0.166 HD
BRANCH  14  21
HETATM   21  N6  UNL     1      22.402  -6.700   2.573  1.00  0.00    -0.234 N 
ATOM     22  H62 UNL     1      23.001  -7.299   2.005  1.00  0.00     0.174 HD
ATOM     23  H61 UNL     1      22.827  -6.242   3.379  1.00  0.00     0.174 HD
ENDBRANCH  14  21
BRANCH  17  24
HETATM   24  N8  UNL     1      18.079  -5.889   3.908  1.00  0.00    -0.383 N 
ATOM     25  H82 UNL     1      17.840  -6.627   4.571  1.00  0.00     0.157 HD
ATOM     26  H81 UNL     1      17.651  -4.968   4.012  1.00  0.00     0.157 HD
ENDBRANCH  17  24
ENDBRANCH   5   7
BRANCH   6  27
HETATM   27  C16 UNL     1      14.907  -8.199  -1.247  1.00  0.00     0.722 A 
HETATM   28  N11 UNL     1      15.445  -8.734  -2.340  1.00  0.00    -0.095 N 
HETATM   29  N12 UNL     1      15.595 -10.047  -2.168  1.00  0.00    -0.012 N 
ATOM     30  H11 UNL     1      15.702  -8.218  -3.182  1.00  0.00     0.208 HD
HETATM   31  C17 UNL     1      15.141 -10.376  -0.925  1.00  0.00     0.727 A 
HETATM   32  N15 UNL     1      14.723  -9.223  -0.378  1.00  0.00    -0.018 N 
ATOM     33  H15 UNL     1      14.323  -9.132   0.556  1.00  0.00     0.203 HD
BRANCH  29  34
HETATM   34  N13 UNL     1      16.114 -10.991  -3.038  1.00  0.00    -0.309 N 
ATOM     35 2H13 UNL     1      16.089 -10.868  -4.051  1.00  0.00     0.179 HD
ATOM     36 1H13 UNL     1      16.564 -11.883  -2.830  1.00  0.00     0.179 HD
ENDBRANCH  29  34
BRANCH  31  37
HETATM   37  N14 UNL     1      15.131 -11.566  -0.413  1.00  0.00    -0.231 N 
ATOM     38 2H14 UNL     1      15.688 -12.379  -0.677  1.00  0.00     0.174 HD
ATOM     39 1H14 UNL     1      14.542 -11.879   0.359  1.00  0.00     0.174 HD
ENDBRANCH  31  37
ENDBRANCH   6  27
BRANCH   1  40
HETATM   40  C6  UNL     1      12.236  -7.053  -1.733  1.00  0.00     0.094 C 
BRANCH  40  41
HETATM   41  C5  UNL     1      12.050  -7.070  -3.184  1.00  0.00     0.152 C 
BRANCH  41  42
HETATM   42  C4  UNL     1      11.594  -8.316  -3.853  1.00  0.00     0.148 C 
BRANCH  42  43
HETATM   43  C3  UNL     1      11.834  -9.450  -2.825  1.00  0.00     0.050 C 
BRANCH  43  44
HETATM   44  C2  UNL     1      10.593 -10.219  -2.533  1.00  0.00     0.115 C 
BRANCH  44  45
HETATM   45  N1  UNL     1      10.705 -10.888  -1.251  1.00  0.00    -0.242 NA
HETATM   46  C1  UNL     1      10.214 -10.092  -0.168  1.00  0.00     0.135 C 
BRANCH  45  47
HETATM   47  N2  UNL     1      10.188 -12.166  -1.248  1.00  0.00    -0.364 NA
ATOM     48  H22 UNL     1       9.960 -12.513  -0.316  1.00  0.00     0.171 HD
ATOM     49  H21 UNL     1      10.757 -12.822  -1.783  1.00  0.00     0.171 HD
ENDBRANCH  45  47
ENDBRANCH  44  45
ENDBRANCH  43  44
ENDBRANCH  42  43
BRANCH  42  50
HETATM   50  O1  UNL     1      12.112  -8.633  -5.061  1.00  0.00    -0.393 OA
ATOM     51  H1  UNL     1      12.400  -7.856  -5.526  1.00  0.00     0.210 HD
ENDBRANCH  42  50
ENDBRANCH  41  42
BRANCH  41  52
HETATM   52  O2  UNL     1      13.316  -6.766  -3.769  1.00  0.00    -0.393 OA
ATOM     53  H2  UNL     1      13.674  -6.059  -3.245  1.00  0.00     0.210 HD
ENDBRANCH  41  52
ENDBRANCH  40  41
ENDBRANCH   1  40
TORSDOF 15
ENDMDL
MODEL 4
REMARK VINA RESULT: -7.394895947      1.144      1.478
REMARK  15 active torsions:
REMARK  status: ('A' for Active; 'I' for Inactive)
REMARK    1  A    between atoms: N1_2  and  N2_3 
REMARK    2  A    between atoms: N1_2  and  C2_6 
REMARK    3  A    between atoms: C2_6  and  C3_7 
REMARK    4  A    between atoms: C3_7  and  C4_8 
REMARK    5  A    between atoms: C4_8  and  O1_9 
REMARK    6  A    between atoms: C4_8  and  C5_11 
REMARK    7  A    between atoms: C5_11  and  O2_12 
REMARK    8  A    between atoms: C5_11  and  C6_14 
REMARK    9  A    between atoms: C6_14  and  C7_15 
REMARK   10  A    between atoms: C9_19  and  C10_20 
REMARK   11  A    between atoms: C13_27  and  N6_28 
REMARK   12  A    between atoms: C14_33  and  N8_34 
REMARK   13  A    between atoms: N10_40  and  C16_41 
REMARK   14  A    between atoms: N12_44  and  N13_45 
REMARK   15  A    between atoms: C17_48  and  N14_49 
ROOT
HETATM    1  C7  UNL     1      12.696  -6.483  -0.967  1.00  0.00     0.054 A 
HETATM    2  C8  UNL     1      12.878  -5.173  -0.617  1.00  0.00     0.116 A 
HETATM    3  N3  UNL     1      14.184  -4.953  -0.349  1.00  0.00    -0.348 N 
ATOM      4  H3  UNL     1      14.601  -4.068  -0.062  1.00  0.00     0.167 HD
HETATM    5  C9  UNL     1      14.832  -6.115  -0.528  1.00  0.00     0.157 A 
HETATM    6  N10 UNL     1      13.950  -7.047  -0.901  1.00  0.00    -0.131 N 
ENDROOT
BRANCH   5   7
HETATM    7  C10 UNL     1      16.272  -6.260  -0.336  1.00  0.00     0.094 A 
HETATM    8  C11 UNL     1      17.101  -6.585  -1.397  1.00  0.00     0.123 A 
HETATM    9  N4  UNL     1      18.431  -6.738  -1.270  1.00  0.00    -0.348 N 
HETATM   10  C12 UNL     1      18.970  -6.566  -0.051  1.00  0.00     0.151 A 
ATOM     11  H4  UNL     1      19.013  -6.977  -2.072  1.00  0.00     0.167 HD
HETATM   12  N5  UNL     1      20.303  -6.718   0.089  1.00  0.00    -0.174 N 
HETATM   13  C15 UNL     1      18.190  -6.244   1.033  1.00  0.00     0.122 A 
HETATM   14  C13 UNL     1      20.929  -6.568   1.267  1.00  0.00     0.679 A 
ATOM     15  H5  UNL     1      20.858  -6.956  -0.733  1.00  0.00     0.186 HD
HETATM   16  N7  UNL     1      20.171  -6.252   2.331  1.00  0.00    -0.175 N 
HETATM   17  C14 UNL     1      18.826  -6.085   2.256  1.00  0.00     0.145 A 
ATOM     18  H7  UNL     1      20.626  -6.134   3.236  1.00  0.00     0.186 HD
HETATM   19  N9  UNL     1      16.857  -6.096   0.878  1.00  0.00    -0.346 N 
ATOM     20  H9  UNL     1      16.281  -5.858   1.685  1.00  0.00     0.166 HD
BRANCH  14  21
HETATM   21  N6  UNL     1      22.226  -6.717   1.395  1.00  0.00    -0.234 N 
ATOM     22  H62 UNL     1      22.849  -5.914   1.316  1.00  0.00     0.174 HD
ATOM     23  H61 UNL     1      22.653  -7.626   1.574  1.00  0.00     0.174 HD
ENDBRANCH  14  21
BRANCH  17  24
HETATM   24  N8  UNL     1      18.148  -5.786   3.302  1.00  0.00    -0.383 N 
ATOM     25  H82 UNL     1      18.610  -5.705   4.208  1.00  0.00     0.157 HD
ATOM     26  H81 UNL     1      17.142  -5.625   3.239  1.00  0.00     0.157 HD
ENDBRANCH  17  24
ENDBRANCH   5   7
BRANCH   6  27
HETATM   27  C16 UNL     1      14.254  -8.406  -1.189  1.00  0.00     0.722 A 
HETATM   28  N11 UNL     1      14.497  -9.024  -2.341  1.00  0.00    -0.095 N 
HETATM   29  N12 UNL     1      14.741 -10.314  -2.114  1.00  0.00    -0.012 N 
ATOM     30  H11 UNL     1      14.497  -8.579  -3.259  1.00  0.00     0.208 HD
HETATM   31  C17 UNL     1      14.653 -10.543  -0.772  1.00  0.00     0.727 A 
HETATM   32  N15 UNL     1      14.352  -9.354  -0.225  1.00  0.00    -0.018 N 
ATOM     33  H15 UNL     1      14.217  -9.189   0.773  1.00  0.00     0.203 HD
BRANCH  29  34
HETATM   34  N13 UNL     1      15.042 -11.321  -3.016  1.00  0.00    -0.309 N 
ATOM     35 2H13 UNL     1      14.322 -11.913  -3.431  1.00  0.00     0.179 HD
ATOM     36 1H13 UNL     1      15.950 -11.612  -3.380  1.00  0.00     0.179 HD
ENDBRANCH  29  34
BRANCH  31  37
HETATM   37  N14 UNL     1      14.829 -11.684  -0.185  1.00  0.00    -0.231 N 
ATOM     38 2H14 UNL     1      14.203 -12.179   0.450  1.00  0.00     0.174 HD
ATOM     39 1H14 UNL     1      15.652 -12.280  -0.275  1.00  0.00     0.174 HD
ENDBRANCH  31  37
ENDBRANCH   6  27
BRANCH   1  40
HETATM   40  C6  UNL     1      11.535  -7.279  -1.334  1.00  0.00     0.094 C 
BRANCH  40  41
HETATM   41  C5  UNL     1      11.187  -7.441  -2.746  1.00  0.00     0.152 C 
BRANCH  41  42
HETATM   42  C4  UNL     1      11.985  -6.740  -3.786  1.00  0.00     0.148 C 
BRANCH  42  43
HETATM   43  C3  UNL     1      10.967  -5.895  -4.592  1.00  0.00     0.050 C 
BRANCH  43  44
HETATM   44  C2  UNL     1      11.550  -5.361  -5.854  1.00  0.00     0.115 C 
BRANCH  44  45
HETATM   45  N1  UNL     1      11.289  -6.269  -6.953  1.00  0.00    -0.242 NA
HETATM   46  C1  UNL     1      10.352  -5.737  -7.897  1.00  0.00     0.135 C 
BRANCH  45  47
HETATM   47  N2  UNL     1      12.430  -6.754  -7.553  1.00  0.00    -0.364 NA
ATOM     48  H22 UNL     1      12.247  -7.359  -8.353  1.00  0.00     0.171 HD
ATOM     49  H21 UNL     1      13.079  -7.171  -6.885  1.00  0.00     0.171 HD
ENDBRANCH  45  47
ENDBRANCH  44  45
ENDBRANCH  43  44
ENDBRANCH  42  43
BRANCH  42  50
HETATM   50  O1  UNL     1      12.771  -7.473  -4.606  1.00  0.00    -0.393 OA
ATOM     51  H1  UNL     1      12.510  -8.386  -4.607  1.00  0.00     0.210 HD
ENDBRANCH  42  50
ENDBRANCH  41  42
BRANCH  41  52
HETATM   52  O2  UNL     1       9.852  -6.960  -2.903  1.00  0.00    -0.393 OA
ATOM     53  H2  UNL     1       9.308  -7.737  -2.962  1.00  0.00     0.210 HD
ENDBRANCH  41  52
ENDBRANCH  40  41
ENDBRANCH   1  40
TORSDOF 15
ENDMDL
MODEL 5
REMARK VINA RESULT: -7.279405014      2.255      3.350
REMARK  15 active torsions:
REMARK  status: ('A' for Active; 'I' for Inactive)
REMARK    1  A    between atoms: N1_2  and  N2_3 
REMARK    2  A    between atoms: N1_2  and  C2_6 
REMARK    3  A    between atoms: C2_6  and  C3_7 
REMARK    4  A    between atoms: C3_7  and  C4_8 
REMARK    5  A    between atoms: C4_8  and  O1_9 
REMARK    6  A    between atoms: C4_8  and  C5_11 
REMARK    7  A    between atoms: C5_11  and  O2_12 
REMARK    8  A    between atoms: C5_11  and  C6_14 
REMARK    9  A    between atoms: C6_14  and  C7_15 
REMARK   10  A    between atoms: C9_19  and  C10_20 
REMARK   11  A    between atoms: C13_27  and  N6_28 
REMARK   12  A    between atoms: C14_33  and  N8_34 
REMARK   13  A    between atoms: N10_40  and  C16_41 
REMARK   14  A    between atoms: N12_44  and  N13_45 
REMARK   15  A    between atoms: C17_48  and  N14_49 
ROOT
HETATM    1  C7  UNL     1      12.351  -6.496  -0.930  1.00  0.00     0.054 A 
HETATM    2  C8  UNL     1      12.332  -5.147  -0.703  1.00  0.00     0.116 A 
HETATM    3  N3  UNL     1      13.582  -4.717  -0.424  1.00  0.00    -0.348 N 
ATOM      4  H3  UNL     1      13.858  -3.758  -0.213  1.00  0.00     0.167 HD
HETATM    5  C9  UNL     1      14.395  -5.784  -0.475  1.00  0.00     0.157 A 
HETATM    6  N10 UNL     1      13.668  -6.864  -0.779  1.00  0.00    -0.131 N 
ENDROOT
BRANCH   5   7
HETATM    7  C10 UNL     1      15.832  -5.701  -0.234  1.00  0.00     0.094 A 
HETATM    8  C11 UNL     1      16.433  -4.490   0.068  1.00  0.00     0.123 A 
HETATM    9  N4  UNL     1      17.753  -4.361   0.290  1.00  0.00    -0.348 N 
HETATM   10  C12 UNL     1      18.515  -5.465   0.213  1.00  0.00     0.151 A 
ATOM     11  H4  UNL     1      18.164  -3.453   0.509  1.00  0.00     0.167 HD
HETATM   12  N5  UNL     1      19.841  -5.346   0.432  1.00  0.00    -0.174 N 
HETATM   13  C15 UNL     1      17.967  -6.689  -0.084  1.00  0.00     0.122 A 
HETATM   14  C13 UNL     1      20.680  -6.392   0.375  1.00  0.00     0.679 A 
ATOM     15  H5  UNL     1      20.221  -4.425   0.651  1.00  0.00     0.186 HD
HETATM   16  N7  UNL     1      20.149  -7.593   0.086  1.00  0.00    -0.175 N 
HETATM   17  C14 UNL     1      18.824  -7.778  -0.145  1.00  0.00     0.145 A 
ATOM     18  H7  UNL     1      20.769  -8.402   0.037  1.00  0.00     0.186 HD
HETATM   19  N9  UNL     1      16.638  -6.792  -0.303  1.00  0.00    -0.346 N 
ATOM     20  H9  UNL     1      16.235  -7.702  -0.523  1.00  0.00     0.166 HD
BRANCH  14  21
HETATM   21  N6  UNL     1      21.968  -6.269   0.590  1.00  0.00    -0.234 N 
ATOM     22  H62 UNL     1      22.444  -5.391   0.387  1.00  0.00     0.174 HD
ATOM     23  H61 UNL     1      22.534  -7.033   0.960  1.00  0.00     0.174 HD
ENDBRANCH  14  21
BRANCH  17  24
HETATM   24  N8  UNL     1      18.368  -8.944  -0.418  1.00  0.00    -0.383 N 
ATOM     25  H82 UNL     1      18.642  -9.414  -1.282  1.00  0.00     0.157 HD
ATOM     26  H81 UNL     1      17.730  -9.414   0.224  1.00  0.00     0.157 HD
ENDBRANCH  17  24
ENDBRANCH   5   7
BRANCH   6  27
HETATM   27  C16 UNL     1      14.173  -8.185  -0.928  1.00  0.00     0.722 A 
HETATM   28  N11 UNL     1      14.167  -9.225  -0.099  1.00  0.00    -0.095 N 
HETATM   29  N12 UNL     1      14.756 -10.267  -0.683  1.00  0.00    -0.012 N 
ATOM     30  H11 UNL     1      13.770  -9.224   0.841  1.00  0.00     0.208 HD
HETATM   31  C17 UNL     1      15.161  -9.893  -1.930  1.00  0.00     0.727 A 
HETATM   32  N15 UNL     1      14.791  -8.609  -2.058  1.00  0.00    -0.018 N 
ATOM     33  H15 UNL     1      14.953  -8.036  -2.886  1.00  0.00     0.203 HD
BRANCH  29  34
HETATM   34  N13 UNL     1      14.967 -11.544  -0.189  1.00  0.00    -0.309 N 
ATOM     35 2H13 UNL     1      15.419 -12.272  -0.742  1.00  0.00     0.179 HD
ATOM     36 1H13 UNL     1      14.725 -11.932   0.723  1.00  0.00     0.179 HD
ENDBRANCH  29  34
BRANCH  31  37
HETATM   37  N14 UNL     1      15.772 -10.650  -2.786  1.00  0.00    -0.231 N 
ATOM     38 2H14 UNL     1      16.769 -10.699  -2.997  1.00  0.00     0.174 HD
ATOM     39 1H14 UNL     1      15.330 -11.335  -3.399  1.00  0.00     0.174 HD
ENDBRANCH  31  37
ENDBRANCH   6  27
BRANCH   1  40
HETATM   40  C6  UNL     1      11.329  -7.481  -1.248  1.00  0.00     0.094 C 
BRANCH  40  41
HETATM   41  C5  UNL     1      11.116  -7.877  -2.641  1.00  0.00     0.152 C 
BRANCH  41  42
HETATM   42  C4  UNL     1      10.961  -9.315  -2.981  1.00  0.00     0.148 C 
BRANCH  42  43
HETATM   43  C3  UNL     1       9.792  -9.827  -2.103  1.00  0.00     0.050 C 
BRANCH  43  44
HETATM   44  C2  UNL     1      10.185 -10.990  -1.260  1.00  0.00     0.115 C 
BRANCH  44  45
HETATM   45  N1  UNL     1      11.064 -10.562  -0.190  1.00  0.00    -0.242 NA
HETATM   46  C1  UNL     1      10.354  -9.987   0.913  1.00  0.00     0.135 C 
BRANCH  45  47
HETATM   47  N2  UNL     1      11.965 -11.527   0.205  1.00  0.00    -0.364 NA
ATOM     48  H22 UNL     1      12.797 -11.149   0.659  1.00  0.00     0.171 HD
ATOM     49  H21 UNL     1      12.190 -12.184  -0.543  1.00  0.00     0.171 HD
ENDBRANCH  45  47
ENDBRANCH  44  45
ENDBRANCH  43  44
ENDBRANCH  42  43
BRANCH  42  50
HETATM   50  O1  UNL     1      12.039 -10.126  -2.881  1.00  0.00    -0.393 OA
ATOM     51  H1  UNL     1      12.841  -9.657  -3.074  1.00  0.00     0.210 HD
ENDBRANCH  42  50
ENDBRANCH  41  42
BRANCH  41  52
HETATM   52  O2  UNL     1      12.253  -7.432  -3.379  1.00  0.00    -0.393 OA
ATOM     53  H2  UNL     1      11.914  -7.148  -4.220  1.00  0.00     0.210 HD
ENDBRANCH  41  52
ENDBRANCH  40  41
ENDBRANCH   1  40
TORSDOF 15
ENDMDL
