MODEL 1
REMARK VINA RESULT: -8.741144538      0.000      0.000
REMARK  6 active torsions:
REMARK  status: ('A' for Active; 'I' for Inactive)
REMARK    1  A    between atoms: C1_2  and  O2_3 
REMARK    2  A    between atoms: C1_2  and  C7_13 
REMARK    3  A    between atoms: O2_3  and  N1_4 
REMARK       I    between atoms: N1_4  and  C2_6 
REMARK    4  A    between atoms: C2_6  and  C3_8 
REMARK    5  A    between atoms: C10_16  and  C11_17 
REMARK    6  A    between atoms: N2_18  and  O5_20 
ROOT
HETATM    1  O1  UNL     1      11.140  19.540  57.760  1.00  0.00    -0.257 OA
HETATM    2  C1  UNL     1      10.491  18.573  58.237  1.00  0.00     0.315 C 
ENDROOT
BRANCH   2   3
HETATM    3  O2  UNL     1      10.760  17.320  57.736  1.00  0.00    -0.192 OA
BRANCH   3   4
HETATM    4  N1  UNL     1      10.812  16.994  56.403  1.00  0.00    -0.220 N 
HETATM    5  C2  UNL     1      12.001  16.397  55.910  1.00  0.00     0.299 C 
HETATM    6  O3  UNL     1      12.973  16.178  56.680  1.00  0.00    -0.263 OA
ATOM      7  H1  UNL     1      10.021  17.176  55.786  1.00  0.00     0.198 HD
BRANCH   5   8
HETATM    8  C3  UNL     1      12.142  16.016  54.497  1.00  0.00     0.144 A 
HETATM    9  C4  UNL     1      11.110  15.784  53.609  1.00  0.00     0.045 A 
HETATM   10  C5  UNL     1      11.669  15.449  52.374  1.00  0.00     0.027 A 
HETATM   11  C6  UNL     1      13.030  15.499  52.593  1.00  0.00     0.143 A 
HETATM   12  O4  UNL     1      13.245  15.833  53.842  1.00  0.00    -0.317 OA
ENDBRANCH   5   8
ENDBRANCH   3   4
ENDBRANCH   2   3
BRANCH   2  13
HETATM   13  C7  UNL     1       9.489  18.794  59.284  1.00  0.00     0.041 A 
HETATM   14  C8  UNL     1       8.509  19.742  59.134  1.00  0.00     0.018 A 
HETATM   15  C9  UNL     1       7.546  19.974  60.117  1.00  0.00     0.014 A 
HETATM   16  C10 UNL     1       7.551  19.247  61.283  1.00  0.00    -0.019 A 
HETATM   17  C12 UNL     1       8.538  18.297  61.428  1.00  0.00     0.014 A 
HETATM   18  C13 UNL     1       9.492  18.067  60.456  1.00  0.00     0.018 A 
BRANCH  16  19
HETATM   19  C11 UNL     1       6.548  19.463  62.351  1.00  0.00     0.125 C 
HETATM   20  N2  UNL     1       6.102  18.488  63.034  1.00  0.00    -0.280 N 
ATOM     21  H2  UNL     1       6.434  17.542  62.851  1.00  0.00     0.193 HD
BRANCH  20  22
HETATM   22  O5  UNL     1       5.174  18.712  64.016  1.00  0.00    -0.290 OA
ATOM     23  H5  UNL     1       4.326  19.076  63.791  1.00  0.00     0.244 HD
ENDBRANCH  20  22
ENDBRANCH  16  19
ENDBRANCH   2  13
TORSDOF 6
ENDMDL
MODEL 2
REMARK VINA RESULT: -8.714374035      0.061      1.052
REMARK  6 active torsions:
REMARK  status: ('A' for Active; 'I' for Inactive)
REMARK    1  A    between atoms: C1_2  and  O2_3 
REMARK    2  A    between atoms: C1_2  and  C7_13 
REMARK    3  A    between atoms: O2_3  and  N1_4 
REMARK       I    between atoms: N1_4  and  C2_6 
REMARK    4  A    between atoms: C2_6  and  C3_8 
REMARK    5  A    between atoms: C10_16  and  C11_17 
REMARK    6  A    between atoms: N2_18  and  O5_20 
ROOT
HETATM    1  O1  UNL     1      11.091  19.571  57.758  1.00  0.00    -0.257 OA
HETATM    2  C1  UNL     1      10.464  18.599  58.252  1.00  0.00     0.315 C 
ENDROOT
BRANCH   2   3
HETATM    3  O2  UNL     1      10.752  17.344  57.767  1.00  0.00    -0.192 OA
BRANCH   3   4
HETATM    4  N1  UNL     1      10.798  17.000  56.438  1.00  0.00    -0.220 N 
HETATM    5  C2  UNL     1      11.988  16.405  55.946  1.00  0.00     0.299 C 
HETATM    6  O3  UNL     1      12.966  16.203  56.713  1.00  0.00    -0.263 OA
ATOM      7  H1  UNL     1      10.001  17.167  55.824  1.00  0.00     0.198 HD
BRANCH   5   8
HETATM    8  C3  UNL     1      12.123  16.005  54.538  1.00  0.00     0.144 A 
HETATM    9  C4  UNL     1      11.088  15.784  53.650  1.00  0.00     0.045 A 
HETATM   10  C5  UNL     1      11.641  15.424  52.420  1.00  0.00     0.027 A 
HETATM   11  C6  UNL     1      13.003  15.449  52.640  1.00  0.00     0.143 A 
HETATM   12  O4  UNL     1      13.223  15.793  53.886  1.00  0.00    -0.317 OA
ENDBRANCH   5   8
ENDBRANCH   3   4
ENDBRANCH   2   3
BRANCH   2  13
HETATM   13  C7  UNL     1       9.465  18.816  59.304  1.00  0.00     0.041 A 
HETATM   14  C8  UNL     1       9.491  18.083  60.463  1.00  0.00     0.018 A 
HETATM   15  C9  UNL     1       8.550  18.268  61.477  1.00  0.00     0.014 A 
HETATM   16  C10 UNL     1       7.555  19.206  61.343  1.00  0.00    -0.019 A 
HETATM   17  C12 UNL     1       7.534  19.937  60.176  1.00  0.00     0.014 A 
HETATM   18  C13 UNL     1       8.464  19.755  59.171  1.00  0.00     0.018 A 
BRANCH  16  19
HETATM   19  C11 UNL     1       6.537  19.432  62.394  1.00  0.00     0.125 C 
HETATM   20  N2  UNL     1       6.153  18.482  63.145  1.00  0.00    -0.280 N 
ATOM     21  H2  UNL     1       6.546  17.548  63.030  1.00  0.00     0.193 HD
BRANCH  20  22
HETATM   22  O5  UNL     1       5.210  18.715  64.111  1.00  0.00    -0.290 OA
ATOM     23  H5  UNL     1       5.473  19.066  64.954  1.00  0.00     0.244 HD
ENDBRANCH  20  22
ENDBRANCH  16  19
ENDBRANCH   2  13
TORSDOF 6
ENDMDL
MODEL 3
REMARK VINA RESULT: -8.654334995      1.650      1.915
REMARK  6 active torsions:
REMARK  status: ('A' for Active; 'I' for Inactive)
REMARK    1  A    between atoms: C1_2  and  O2_3 
REMARK    2  A    between atoms: C1_2  and  C7_13 
REMARK    3  A    between atoms: O2_3  and  N1_4 
REMARK       I    between atoms: N1_4  and  C2_6 
REMARK    4  A    between atoms: C2_6  and  C3_8 
REMARK    5  A    between atoms: C10_16  and  C11_17 
REMARK    6  A    between atoms: N2_18  and  O5_20 
ROOT
HETATM    1  O1  UNL     1      11.044  19.783  57.541  1.00  0.00    -0.257 OA
HETATM    2  C1  UNL     1      10.606  18.766  58.140  1.00  0.00     0.315 C 
ENDROOT
BRANCH   2   3
HETATM    3  O2  UNL     1      11.107  17.542  57.762  1.00  0.00    -0.192 OA
BRANCH   3   4
HETATM    4  N1  UNL     1      10.396  16.559  57.118  1.00  0.00    -0.220 N 
HETATM    5  C2  UNL     1      10.504  16.477  55.705  1.00  0.00     0.299 C 
HETATM    6  O3  UNL     1      11.233  17.285  55.072  1.00  0.00    -0.263 OA
ATOM      7  H1  UNL     1       9.808  15.909  57.638  1.00  0.00     0.198 HD
BRANCH   5   8
HETATM    8  C3  UNL     1       9.777  15.456  54.937  1.00  0.00     0.144 A 
HETATM    9  C4  UNL     1       8.802  14.609  55.425  1.00  0.00     0.045 A 
HETATM   10  C5  UNL     1       8.369  13.797  54.375  1.00  0.00     0.027 A 
HETATM   11  C6  UNL     1       9.121  14.209  53.295  1.00  0.00     0.143 A 
HETATM   12  O4  UNL     1       9.920  15.173  53.680  1.00  0.00    -0.317 OA
ENDBRANCH   5   8
ENDBRANCH   3   4
ENDBRANCH   2   3
BRANCH   2  13
HETATM   13  C7  UNL     1       9.599  18.902  59.197  1.00  0.00     0.041 A 
HETATM   14  C8  UNL     1       8.571  19.803  59.079  1.00  0.00     0.018 A 
HETATM   15  C9  UNL     1       7.602  19.954  60.072  1.00  0.00     0.014 A 
HETATM   16  C10 UNL     1       7.649  19.192  61.215  1.00  0.00    -0.019 A 
HETATM   17  C12 UNL     1       8.684  18.290  61.326  1.00  0.00     0.014 A 
HETATM   18  C13 UNL     1       9.644  18.140  60.345  1.00  0.00     0.018 A 
BRANCH  16  19
HETATM   19  C11 UNL     1       6.641  19.322  62.292  1.00  0.00     0.125 C 
HETATM   20  N2  UNL     1       6.164  18.295  62.867  1.00  0.00    -0.280 N 
ATOM     21  H2  UNL     1       6.475  17.364  62.590  1.00  0.00     0.193 HD
BRANCH  20  22
HETATM   22  O5  UNL     1       5.233  18.440  63.860  1.00  0.00    -0.290 OA
ATOM     23  H5  UNL     1       4.361  18.752  63.648  1.00  0.00     0.244 HD
ENDBRANCH  20  22
ENDBRANCH  16  19
ENDBRANCH   2  13
TORSDOF 6
ENDMDL
MODEL 4
REMARK VINA RESULT: -8.639933603      1.653      2.189
REMARK  6 active torsions:
REMARK  status: ('A' for Active; 'I' for Inactive)
REMARK    1  A    between atoms: C1_2  and  O2_3 
REMARK    2  A    between atoms: C1_2  and  C7_13 
REMARK    3  A    between atoms: O2_3  and  N1_4 
REMARK       I    between atoms: N1_4  and  C2_6 
REMARK    4  A    between atoms: C2_6  and  C3_8 
REMARK    5  A    between atoms: C10_16  and  C11_17 
REMARK    6  A    between atoms: N2_18  and  O5_20 
ROOT
HETATM    1  O1  UNL     1      10.956  19.762  57.661  1.00  0.00    -0.257 OA
HETATM    2  C1  UNL     1      10.495  18.760  58.267  1.00  0.00     0.315 C 
ENDROOT
BRANCH   2   3
HETATM    3  O2  UNL     1      10.978  17.523  57.907  1.00  0.00    -0.192 OA
BRANCH   3   4
HETATM    4  N1  UNL     1      10.266  16.560  57.233  1.00  0.00    -0.220 N 
HETATM    5  C2  UNL     1      10.463  16.448  55.832  1.00  0.00     0.299 C 
HETATM    6  O3  UNL     1      11.267  17.211  55.236  1.00  0.00    -0.263 OA
ATOM      7  H1  UNL     1       9.617  15.946  57.724  1.00  0.00     0.198 HD
BRANCH   5   8
HETATM    8  C3  UNL     1       9.743  15.445  55.033  1.00  0.00     0.144 A 
HETATM    9  C4  UNL     1       8.709  14.642  55.473  1.00  0.00     0.045 A 
HETATM   10  C5  UNL     1       8.306  13.834  54.408  1.00  0.00     0.027 A 
HETATM   11  C6  UNL     1       9.135  14.203  53.369  1.00  0.00     0.143 A 
HETATM   12  O4  UNL     1       9.947  15.141  53.790  1.00  0.00    -0.317 OA
ENDBRANCH   5   8
ENDBRANCH   3   4
ENDBRANCH   2   3
BRANCH   2  13
HETATM   13  C7  UNL     1       9.482  18.925  59.314  1.00  0.00     0.041 A 
HETATM   14  C8  UNL     1       9.521  18.172  60.460  1.00  0.00     0.018 A 
HETATM   15  C9  UNL     1       8.567  18.308  61.469  1.00  0.00     0.014 A 
HETATM   16  C10 UNL     1       7.543  19.215  61.343  1.00  0.00    -0.019 A 
HETATM   17  C12 UNL     1       7.509  19.967  60.190  1.00  0.00     0.014 A 
HETATM   18  C13 UNL     1       8.452  19.834  59.190  1.00  0.00     0.018 A 
BRANCH  16  19
HETATM   19  C11 UNL     1       6.510  19.389  62.390  1.00  0.00     0.125 C 
HETATM   20  N2  UNL     1       6.213  18.437  63.177  1.00  0.00    -0.280 N 
ATOM     21  H2  UNL     1       6.687  17.538  63.094  1.00  0.00     0.193 HD
BRANCH  20  22
HETATM   22  O5  UNL     1       5.254  18.621  64.137  1.00  0.00    -0.290 OA
ATOM     23  H5  UNL     1       4.482  18.066  64.147  1.00  0.00     0.244 HD
ENDBRANCH  20  22
ENDBRANCH  16  19
ENDBRANCH   2  13
TORSDOF 6
ENDMDL
MODEL 5
REMARK VINA RESULT: -8.446923164      1.837      2.328
REMARK  6 active torsions:
REMARK  status: ('A' for Active; 'I' for Inactive)
REMARK    1  A    between atoms: C1_2  and  O2_3 
REMARK    2  A    between atoms: C1_2  and  C7_13 
REMARK    3  A    between atoms: O2_3  and  N1_4 
REMARK       I    between atoms: N1_4  and  C2_6 
REMARK    4  A    between atoms: C2_6  and  C3_8 
REMARK    5  A    between atoms: C10_16  and  C11_17 
REMARK    6  A    between atoms: N2_18  and  O5_20 
ROOT
HETATM    1  O1  UNL     1      11.043  20.621  56.934  1.00  0.00    -0.257 OA
HETATM    2  C1  UNL     1      10.748  19.475  57.362  1.00  0.00     0.315 C 
ENDROOT
BRANCH   2   3
HETATM    3  O2  UNL     1      11.292  18.394  56.710  1.00  0.00    -0.192 OA
BRANCH   3   4
HETATM    4  N1  UNL     1      10.632  17.600  55.803  1.00  0.00    -0.220 N 
HETATM    5  C2  UNL     1      10.446  16.232  56.129  1.00  0.00     0.299 C 
HETATM    6  O3  UNL     1      10.877  15.770  57.218  1.00  0.00    -0.263 OA
ATOM      7  H1  UNL     1      10.286  17.983  54.924  1.00  0.00     0.198 HD
BRANCH   5   8
HETATM    8  C3  UNL     1       9.750  15.313  55.218  1.00  0.00     0.144 A 
HETATM    9  C4  UNL     1       8.552  14.670  55.466  1.00  0.00     0.045 A 
HETATM   10  C5  UNL     1       8.239  13.892  54.349  1.00  0.00     0.027 A 
HETATM   11  C6  UNL     1       9.285  14.114  53.477  1.00  0.00     0.143 A 
HETATM   12  O4  UNL     1      10.130  14.946  54.034  1.00  0.00    -0.317 OA
ENDBRANCH   5   8
ENDBRANCH   3   4
ENDBRANCH   2   3
BRANCH   2  13
HETATM   13  C7  UNL     1       9.854  19.319  58.514  1.00  0.00     0.041 A 
HETATM   14  C8  UNL     1      10.165  18.460  59.538  1.00  0.00     0.018 A 
HETATM   15  C9  UNL     1       9.329  18.292  60.643  1.00  0.00     0.014 A 
HETATM   16  C10 UNL     1       8.152  18.993  60.740  1.00  0.00    -0.019 A 
HETATM   17  C12 UNL     1       7.845  19.853  59.709  1.00  0.00     0.014 A 
HETATM   18  C13 UNL     1       8.671  20.021  58.615  1.00  0.00     0.018 A 
BRANCH  16  19
HETATM   19  C11 UNL     1       7.237  18.842  61.895  1.00  0.00     0.125 C 
HETATM   20  N2  UNL     1       6.208  19.577  62.013  1.00  0.00    -0.280 N 
ATOM     21  H2  UNL     1       6.001  20.284  61.307  1.00  0.00     0.193 HD
BRANCH  20  22
HETATM   22  O5  UNL     1       5.377  19.420  63.090  1.00  0.00    -0.290 OA
ATOM     23  H5  UNL     1       5.576  18.764  63.749  1.00  0.00     0.244 HD
ENDBRANCH  20  22
ENDBRANCH  16  19
ENDBRANCH   2  13
TORSDOF 6
ENDMDL
