MODEL 1
REMARK VINA RESULT: -8.517043924      0.000      0.000
REMARK  5 active torsions:
REMARK  status: ('A' for Active; 'I' for Inactive)
REMARK    1  A    between atoms: O1_1  and  N1_3 
REMARK    2  A    between atoms: N1_3  and  C1_5 
REMARK    3  A    between atoms: N3_12  and  N4_14 
REMARK    4  A    between atoms: C6_16  and  C7_17 
REMARK    5  A    between atoms: C11_21  and  N5_22 
ROOT
HETATM    1  C1  UNL     1       8.557  19.695  59.595  1.00  0.00     0.099 A 
HETATM    2  C2  UNL     1       7.372  20.115  60.187  1.00  0.00     0.037 A 
HETATM    3  C3  UNL     1       7.007  19.474  61.355  1.00  0.00     0.019 A 
HETATM    4  C4  UNL     1       7.828  18.468  61.860  1.00  0.00     0.090 A 
HETATM    5  N2  UNL     1       8.960  18.085  61.269  1.00  0.00    -0.349 N 
ATOM      6  H2  UNL     1       9.531  17.343  61.675  1.00  0.00     0.167 HD
HETATM    7  C5  UNL     1       9.342  18.696  60.124  1.00  0.00     0.148 A 
HETATM    8  N3  UNL     1      10.442  18.329  59.544  1.00  0.00    -0.284 N 
ATOM      9  H3  UNL     1      10.971  17.583  59.995  1.00  0.00     0.188 HD
ENDROOT
BRANCH   8  10
HETATM   10  N4  UNL     1      10.957  18.832  58.408  1.00  0.00    -0.309 N 
HETATM   11  C6  UNL     1      10.988  18.416  57.218  1.00  0.00     0.118 C 
ATOM     12  H4  UNL     1      11.415  19.735  58.534  1.00  0.00     0.186 HD
BRANCH  11  13
HETATM   13  C7  UNL     1      10.457  17.202  56.642  1.00  0.00    -0.017 A 
HETATM   14  C8  UNL     1      11.229  16.238  56.053  1.00  0.00     0.013 A 
HETATM   15  C9  UNL     1      10.670  15.077  55.510  1.00  0.00     0.003 A 
HETATM   16  C10 UNL     1       9.310  14.882  55.559  1.00  0.00     0.036 A 
HETATM   17  C11 UNL     1       8.544  15.861  56.155  1.00  0.00     0.103 A 
HETATM   18  C12 UNL     1       9.075  17.000  56.691  1.00  0.00     0.048 A 
BRANCH  17  19
HETATM   19  N5  UNL     1       7.139  15.645  56.198  1.00  0.00    -0.116 N 
HETATM   20  O2  UNL     1       6.712  14.460  56.211  1.00  0.00    -0.532 OA
HETATM   21  O3  UNL     1       6.249  16.688  56.225  1.00  0.00    -0.532 OA
ENDBRANCH  17  19
ENDBRANCH  11  13
ENDBRANCH   8  10
BRANCH   1  22
HETATM   22  N1  UNL     1       8.984  20.317  58.392  1.00  0.00    -0.266 N 
ATOM     23  H1  UNL     1       9.894  20.776  58.377  1.00  0.00     0.194 HD
BRANCH  22  24
HETATM   24  O1  UNL     1       8.294  20.327  57.353  1.00  0.00    -0.289 OA
ATOM     25  H1  UNL     1       8.551  20.795  56.568  1.00  0.00     0.244 HD
ENDBRANCH  22  24
ENDBRANCH   1  22
TORSDOF 5
ENDMDL
MODEL 2
REMARK VINA RESULT: -8.073912926      3.081      6.038
REMARK  5 active torsions:
REMARK  status: ('A' for Active; 'I' for Inactive)
REMARK    1  A    between atoms: O1_1  and  N1_3 
REMARK    2  A    between atoms: N1_3  and  C1_5 
REMARK    3  A    between atoms: N3_12  and  N4_14 
REMARK    4  A    between atoms: C6_16  and  C7_17 
REMARK    5  A    between atoms: C11_21  and  N5_22 
ROOT
HETATM    1  C1  UNL     1       8.574  18.312  54.069  1.00  0.00     0.099 A 
HETATM    2  C2  UNL     1       8.985  17.720  52.881  1.00  0.00     0.037 A 
HETATM    3  C3  UNL     1       8.622  16.400  52.693  1.00  0.00     0.019 A 
HETATM    4  C4  UNL     1       7.883  15.755  53.683  1.00  0.00     0.090 A 
HETATM    5  N2  UNL     1       7.503  16.350  54.814  1.00  0.00    -0.349 N 
ATOM      6  H2  UNL     1       6.962  15.838  55.511  1.00  0.00     0.167 HD
HETATM    7  C5  UNL     1       7.845  17.642  55.023  1.00  0.00     0.148 A 
HETATM    8  N3  UNL     1       7.479  18.226  56.121  1.00  0.00    -0.284 N 
ATOM      9  H3  UNL     1       6.940  17.665  56.780  1.00  0.00     0.188 HD
ENDROOT
BRANCH   8  10
HETATM   10  N4  UNL     1       7.738  19.497  56.479  1.00  0.00    -0.309 N 
HETATM   11  C6  UNL     1       8.141  20.025  57.551  1.00  0.00     0.118 C 
ATOM     12  H4  UNL     1       7.575  20.170  55.730  1.00  0.00     0.186 HD
BRANCH  11  13
HETATM   13  C7  UNL     1       8.477  19.418  58.818  1.00  0.00    -0.017 A 
HETATM   14  C8  UNL     1       9.667  18.791  59.068  1.00  0.00     0.013 A 
HETATM   15  C9  UNL     1       9.950  18.218  60.312  1.00  0.00     0.003 A 
HETATM   16  C10 UNL     1       9.019  18.277  61.322  1.00  0.00     0.036 A 
HETATM   17  C11 UNL     1       7.824  18.911  61.056  1.00  0.00     0.103 A 
HETATM   18  C12 UNL     1       7.534  19.476  59.847  1.00  0.00     0.048 A 
BRANCH  17  19
HETATM   19  N5  UNL     1       6.871  18.964  62.111  1.00  0.00    -0.116 N 
HETATM   20  O2  UNL     1       6.683  20.062  62.698  1.00  0.00    -0.532 OA
HETATM   21  O3  UNL     1       6.162  17.856  62.498  1.00  0.00    -0.532 OA
ENDBRANCH  17  19
ENDBRANCH  11  13
ENDBRANCH   8  10
BRANCH   1  22
HETATM   22  N1  UNL     1       8.919  19.668  54.317  1.00  0.00    -0.266 N 
ATOM     23  H1  UNL     1       9.752  19.866  54.870  1.00  0.00     0.194 HD
BRANCH  22  24
HETATM   24  O1  UNL     1       8.246  20.627  53.888  1.00  0.00    -0.289 OA
ATOM     25  H1  UNL     1       7.428  20.900  54.284  1.00  0.00     0.244 HD
ENDBRANCH  22  24
ENDBRANCH   1  22
TORSDOF 5
ENDMDL
MODEL 3
REMARK VINA RESULT: -7.972150562      3.210      5.954
REMARK  5 active torsions:
REMARK  status: ('A' for Active; 'I' for Inactive)
REMARK    1  A    between atoms: O1_1  and  N1_3 
REMARK    2  A    between atoms: N1_3  and  C1_5 
REMARK    3  A    between atoms: N3_12  and  N4_14 
REMARK    4  A    between atoms: C6_16  and  C7_17 
REMARK    5  A    between atoms: C11_21  and  N5_22 
ROOT
HETATM    1  C1  UNL     1      10.944  19.657  54.864  1.00  0.00     0.099 A 
HETATM    2  C2  UNL     1      11.996  19.378  54.001  1.00  0.00     0.037 A 
HETATM    3  C3  UNL     1      12.007  18.119  53.431  1.00  0.00     0.019 A 
HETATM    4  C4  UNL     1      10.988  17.224  53.749  1.00  0.00     0.090 A 
HETATM    5  N2  UNL     1       9.991  17.520  54.582  1.00  0.00    -0.349 N 
ATOM      6  H2  UNL     1       9.265  16.833  54.786  1.00  0.00     0.167 HD
HETATM    7  C5  UNL     1       9.955  18.747  55.154  1.00  0.00     0.148 A 
HETATM    8  N3  UNL     1       8.988  19.041  55.966  1.00  0.00    -0.284 N 
ATOM      9  H3  UNL     1       8.291  18.315  56.131  1.00  0.00     0.188 HD
ENDROOT
BRANCH   8  10
HETATM   10  N4  UNL     1       8.810  20.207  56.612  1.00  0.00    -0.309 N 
HETATM   11  C6  UNL     1       8.744  20.514  57.833  1.00  0.00     0.118 C 
ATOM     12  H4  UNL     1       8.708  21.007  55.986  1.00  0.00     0.186 HD
BRANCH  11  13
HETATM   13  C7  UNL     1       8.841  19.680  59.008  1.00  0.00    -0.017 A 
HETATM   14  C8  UNL     1       9.898  18.850  59.267  1.00  0.00     0.013 A 
HETATM   15  C9  UNL     1       9.950  18.060  60.420  1.00  0.00     0.003 A 
HETATM   16  C10 UNL     1       8.920  18.106  61.329  1.00  0.00     0.036 A 
HETATM   17  C11 UNL     1       7.861  18.946  61.057  1.00  0.00     0.103 A 
HETATM   18  C12 UNL     1       7.796  19.724  59.935  1.00  0.00     0.048 A 
BRANCH  17  19
HETATM   19  N5  UNL     1       6.803  18.982  62.007  1.00  0.00    -0.116 N 
HETATM   20  O2  UNL     1       6.672  20.010  62.723  1.00  0.00    -0.532 OA
HETATM   21  O3  UNL     1       5.934  17.933  62.158  1.00  0.00    -0.532 OA
ENDBRANCH  17  19
ENDBRANCH  11  13
ENDBRANCH   8  10
BRANCH   1  22
HETATM   22  N1  UNL     1      10.880  20.936  55.480  1.00  0.00    -0.266 N 
ATOM     23  H1  UNL     1      10.807  20.985  56.495  1.00  0.00     0.194 HD
BRANCH  22  24
HETATM   24  O1  UNL     1      10.908  22.001  54.832  1.00  0.00    -0.289 OA
ATOM     25  H1  UNL     1      11.616  22.631  54.906  1.00  0.00     0.244 HD
ENDBRANCH  22  24
ENDBRANCH   1  22
TORSDOF 5
ENDMDL
MODEL 4
REMARK VINA RESULT: -7.939416864      2.928      5.973
REMARK  5 active torsions:
REMARK  status: ('A' for Active; 'I' for Inactive)
REMARK    1  A    between atoms: O1_1  and  N1_3 
REMARK    2  A    between atoms: N1_3  and  C1_5 
REMARK    3  A    between atoms: N3_12  and  N4_14 
REMARK    4  A    between atoms: C6_16  and  C7_17 
REMARK    5  A    between atoms: C11_21  and  N5_22 
ROOT
HETATM    1  C1  UNL     1      11.116  15.829  54.440  1.00  0.00     0.099 A 
HETATM    2  C2  UNL     1      10.388  15.445  53.321  1.00  0.00     0.037 A 
HETATM    3  C3  UNL     1       9.334  14.580  53.540  1.00  0.00     0.019 A 
HETATM    4  C4  UNL     1       9.069  14.153  54.840  1.00  0.00     0.090 A 
HETATM    5  N2  UNL     1       9.786  14.538  55.895  1.00  0.00    -0.349 N 
ATOM      6  H2  UNL     1       9.555  14.200  56.830  1.00  0.00     0.167 HD
HETATM    7  C5  UNL     1      10.824  15.386  55.709  1.00  0.00     0.148 A 
HETATM    8  N3  UNL     1      11.526  15.765  56.731  1.00  0.00    -0.284 N 
ATOM      9  H3  UNL     1      11.249  15.395  57.640  1.00  0.00     0.188 HD
ENDROOT
BRANCH   8  10
HETATM   10  N4  UNL     1      12.583  16.597  56.714  1.00  0.00    -0.309 N 
HETATM   11  C6  UNL     1      12.696  17.848  56.828  1.00  0.00     0.118 C 
ATOM     12  H4  UNL     1      13.474  16.118  56.583  1.00  0.00     0.186 HD
BRANCH  11  13
HETATM   13  C7  UNL     1      11.685  18.860  57.026  1.00  0.00    -0.017 A 
HETATM   14  C8  UNL     1      11.497  19.922  56.184  1.00  0.00     0.013 A 
HETATM   15  C9  UNL     1      10.502  20.878  56.415  1.00  0.00     0.003 A 
HETATM   16  C10 UNL     1       9.683  20.764  57.513  1.00  0.00     0.036 A 
HETATM   17  C11 UNL     1       9.883  19.689  58.353  1.00  0.00     0.103 A 
HETATM   18  C12 UNL     1      10.849  18.747  58.140  1.00  0.00     0.048 A 
BRANCH  17  19
HETATM   19  N5  UNL     1       9.027  19.585  59.484  1.00  0.00    -0.116 N 
HETATM   20  O2  UNL     1       8.049  20.373  59.574  1.00  0.00    -0.532 OA
HETATM   21  O3  UNL     1       9.243  18.655  60.468  1.00  0.00    -0.532 OA
ENDBRANCH  17  19
ENDBRANCH  11  13
ENDBRANCH   8  10
BRANCH   1  22
HETATM   22  N1  UNL     1      12.213  16.718  54.276  1.00  0.00    -0.266 N 
ATOM     23  H1  UNL     1      12.189  17.615  54.760  1.00  0.00     0.194 HD
BRANCH  22  24
HETATM   24  O1  UNL     1      13.202  16.449  53.566  1.00  0.00    -0.289 OA
ATOM     25  H1  UNL     1      13.224  16.611  52.630  1.00  0.00     0.244 HD
ENDBRANCH  22  24
ENDBRANCH   1  22
TORSDOF 5
ENDMDL
MODEL 5
REMARK VINA RESULT: -7.894572782      1.538      1.795
REMARK  5 active torsions:
REMARK  status: ('A' for Active; 'I' for Inactive)
REMARK    1  A    between atoms: O1_1  and  N1_3 
REMARK    2  A    between atoms: N1_3  and  C1_5 
REMARK    3  A    between atoms: N3_12  and  N4_14 
REMARK    4  A    between atoms: C6_16  and  C7_17 
REMARK    5  A    between atoms: C11_21  and  N5_22 
ROOT
HETATM    1  C1  UNL     1       9.027  19.747  58.932  1.00  0.00     0.099 A 
HETATM    2  C2  UNL     1       7.918  19.840  59.765  1.00  0.00     0.037 A 
HETATM    3  C3  UNL     1       7.888  18.982  60.847  1.00  0.00     0.019 A 
HETATM    4  C4  UNL     1       8.944  18.093  61.035  1.00  0.00     0.090 A 
HETATM    5  N2  UNL     1       9.995  18.026  60.218  1.00  0.00    -0.349 N 
ATOM      6  H2  UNL     1      10.746  17.358  60.395  1.00  0.00     0.167 HD
HETATM    7  C5  UNL     1      10.051  18.855  59.151  1.00  0.00     0.148 A 
HETATM    8  N3  UNL     1      11.071  18.795  58.352  1.00  0.00    -0.284 N 
ATOM      9  H3  UNL     1      11.791  18.109  58.579  1.00  0.00     0.188 HD
ENDROOT
BRANCH   8  10
HETATM   10  N4  UNL     1      11.275  19.545  57.254  1.00  0.00    -0.309 N 
HETATM   11  C6  UNL     1      11.385  19.266  56.029  1.00  0.00     0.118 C 
ATOM     12  H4  UNL     1      11.357  20.542  57.453  1.00  0.00     0.186 HD
BRANCH  11  13
HETATM   13  C7  UNL     1      11.326  17.989  55.356  1.00  0.00    -0.017 A 
HETATM   14  C8  UNL     1      12.171  17.622  54.345  1.00  0.00     0.013 A 
HETATM   15  C9  UNL     1      12.077  16.373  53.722  1.00  0.00     0.003 A 
HETATM   16  C10 UNL     1      11.114  15.477  54.125  1.00  0.00     0.036 A 
HETATM   17  C11 UNL     1      10.269  15.859  55.145  1.00  0.00     0.103 A 
HETATM   18  C12 UNL     1      10.350  17.075  55.763  1.00  0.00     0.048 A 
BRANCH  17  19
HETATM   19  N5  UNL     1       9.280  14.922  55.550  1.00  0.00    -0.116 N 
HETATM   20  O2  UNL     1       9.091  13.900  54.838  1.00  0.00    -0.532 OA
HETATM   21  O3  UNL     1       8.534  15.105  56.686  1.00  0.00    -0.532 OA
ENDBRANCH  17  19
ENDBRANCH  11  13
ENDBRANCH   8  10
BRANCH   1  22
HETATM   22  N1  UNL     1       9.114  20.605  57.803  1.00  0.00    -0.266 N 
ATOM     23  H1  UNL     1       9.725  21.419  57.856  1.00  0.00     0.194 HD
BRANCH  22  24
HETATM   24  O1  UNL     1       8.475  20.405  56.751  1.00  0.00    -0.289 OA
ATOM     25  H1  UNL     1       8.285  19.535  56.421  1.00  0.00     0.244 HD
ENDBRANCH  22  24
ENDBRANCH   1  22
TORSDOF 5
ENDMDL
