MODEL 1
REMARK VINA RESULT: -7.754707965      0.000      0.000
REMARK  7 active torsions:
REMARK  status: ('A' for Active; 'I' for Inactive)
REMARK    1  A    between atoms: O1_2  and  C2_3 
REMARK    2  A    between atoms: C2_3  and  C3_5 
REMARK    3  A    between atoms: C3_5  and  C5_8 
REMARK    4  A    between atoms: N2_13  and  C10_15 
REMARK    5  A    between atoms: C10_15  and  C11_16 
REMARK    6  A    between atoms: C11_16  and  O3_17 
REMARK    7  A    between atoms: N3_19  and  O4_21 
ROOT
HETATM    1  C3  UNL     1      10.957  16.244  56.625  1.00  0.00     0.201 C 
HETATM    2  C4  UNL     1      11.906  15.985  55.575  1.00  0.00     0.074 C 
HETATM    3  N1  UNL     1      12.686  15.741  54.724  1.00  0.00    -0.196 NA
ENDROOT
BRANCH   1   4
HETATM    4  C2  UNL     1       9.699  15.423  56.438  1.00  0.00     0.277 C 
HETATM    5  O2  UNL     1       9.707  14.384  55.724  1.00  0.00    -0.264 OA
BRANCH   4   6
HETATM    6  O1  UNL     1       8.513  15.787  57.042  1.00  0.00    -0.325 OA
HETATM    7  C1  UNL     1       7.319  15.087  56.696  1.00  0.00     0.213 C 
ENDBRANCH   4   6
ENDBRANCH   1   4
BRANCH   1   8
HETATM    8  C5  UNL     1      10.505  17.655  56.679  1.00  0.00     0.058 C 
HETATM    9  C6  UNL     1      10.824  18.455  55.448  1.00  0.00     0.013 C 
HETATM   10  C7  UNL     1      12.112  19.133  55.736  1.00  0.00     0.006 C 
HETATM   11  C8  UNL     1      12.280  19.113  57.217  1.00  0.00     0.052 C 
HETATM   12  C9  UNL     1      11.051  18.485  57.769  1.00  0.00    -0.012 C 
HETATM   13  N2  UNL     1      10.661  18.721  58.960  1.00  0.00    -0.388 N 
ATOM     14  H2  UNL     1      11.188  19.340  59.576  1.00  0.00     0.159 HD
BRANCH  13  15
HETATM   15  C10 UNL     1       9.463  18.090  59.399  1.00  0.00     0.205 C 
BRANCH  15  16
HETATM   16  C11 UNL     1       8.523  18.997  60.055  1.00  0.00     0.153 C 
HETATM   17  N3  UNL     1       8.046  20.039  59.481  1.00  0.00    -0.250 N 
ATOM     18  H3  UNL     1       8.342  20.233  58.524  1.00  0.00     0.196 HD
BRANCH  16  19
HETATM   19  O3  UNL     1       8.130  18.721  61.350  1.00  0.00    -0.347 OA
ATOM     20  H3  UNL     1       7.272  18.341  61.494  1.00  0.00     0.219 HD
ENDBRANCH  16  19
BRANCH  17  21
HETATM   21  O4  UNL     1       7.171  20.903  60.061  1.00  0.00    -0.288 OA
ATOM     22  H4  UNL     1       7.426  21.665  60.567  1.00  0.00     0.244 HD
ENDBRANCH  17  21
ENDBRANCH  15  16
ENDBRANCH  13  15
ENDBRANCH   1   8
TORSDOF 7
ENDMDL
MODEL 2
REMARK VINA RESULT: -7.719600154      2.510      2.839
REMARK  7 active torsions:
REMARK  status: ('A' for Active; 'I' for Inactive)
REMARK    1  A    between atoms: O1_2  and  C2_3 
REMARK    2  A    between atoms: C2_3  and  C3_5 
REMARK    3  A    between atoms: C3_5  and  C5_8 
REMARK    4  A    between atoms: N2_13  and  C10_15 
REMARK    5  A    between atoms: C10_15  and  C11_16 
REMARK    6  A    between atoms: C11_16  and  O3_17 
REMARK    7  A    between atoms: N3_19  and  O4_21 
ROOT
HETATM    1  C3  UNL     1       9.071  18.650  56.016  1.00  0.00     0.201 C 
HETATM    2  C4  UNL     1       9.331  18.764  54.605  1.00  0.00     0.074 C 
HETATM    3  N1  UNL     1       9.526  18.830  53.443  1.00  0.00    -0.196 NA
ENDROOT
BRANCH   1   4
HETATM    4  C2  UNL     1       7.593  18.794  56.311  1.00  0.00     0.277 C 
HETATM    5  O2  UNL     1       7.107  19.910  56.642  1.00  0.00    -0.264 OA
BRANCH   4   6
HETATM    6  O1  UNL     1       6.740  17.714  56.226  1.00  0.00    -0.325 OA
HETATM    7  C1  UNL     1       7.058  16.523  56.946  1.00  0.00     0.213 C 
ENDBRANCH   4   6
ENDBRANCH   1   4
BRANCH   1   8
HETATM    8  C5  UNL     1       9.741  19.693  56.828  1.00  0.00     0.058 C 
HETATM    9  C6  UNL     1      10.752  20.510  56.073  1.00  0.00     0.013 C 
HETATM   10  C7  UNL     1      12.059  19.852  56.319  1.00  0.00     0.006 C 
HETATM   11  C8  UNL     1      11.884  19.001  57.530  1.00  0.00     0.052 C 
HETATM   12  C9  UNL     1      10.496  19.233  58.007  1.00  0.00    -0.012 C 
HETATM   13  N2  UNL     1      10.171  19.043  59.226  1.00  0.00    -0.388 N 
ATOM     14  H2  UNL     1      10.853  18.714  59.910  1.00  0.00     0.159 HD
BRANCH  13  15
HETATM   15  C10 UNL     1       8.823  19.308  59.598  1.00  0.00     0.205 C 
BRANCH  15  16
HETATM   16  C11 UNL     1       8.439  18.721  60.882  1.00  0.00     0.153 C 
HETATM   17  N3  UNL     1       7.297  18.926  61.426  1.00  0.00    -0.250 N 
ATOM     18  H3  UNL     1       6.635  19.526  60.932  1.00  0.00     0.196 HD
BRANCH  16  19
HETATM   19  O3  UNL     1       9.345  17.911  61.538  1.00  0.00    -0.347 OA
ATOM     20  H3  UNL     1       9.238  17.771  62.471  1.00  0.00     0.219 HD
ENDBRANCH  16  19
BRANCH  17  21
HETATM   21  O4  UNL     1       6.907  18.398  62.616  1.00  0.00    -0.288 OA
ATOM     22  H4  UNL     1       6.018  18.423  62.949  1.00  0.00     0.244 HD
ENDBRANCH  17  21
ENDBRANCH  15  16
ENDBRANCH  13  15
ENDBRANCH   1   8
TORSDOF 7
ENDMDL
MODEL 3
REMARK VINA RESULT: -7.717971429      2.764      5.832
REMARK  7 active torsions:
REMARK  status: ('A' for Active; 'I' for Inactive)
REMARK    1  A    between atoms: O1_2  and  C2_3 
REMARK    2  A    between atoms: C2_3  and  C3_5 
REMARK    3  A    between atoms: C3_5  and  C5_8 
REMARK    4  A    between atoms: N2_13  and  C10_15 
REMARK    5  A    between atoms: C10_15  and  C11_16 
REMARK    6  A    between atoms: C11_16  and  O3_17 
REMARK    7  A    between atoms: N3_19  and  O4_21 
ROOT
HETATM    1  C3  UNL     1       9.129  18.011  57.113  1.00  0.00     0.201 C 
HETATM    2  C4  UNL     1       8.172  19.049  57.394  1.00  0.00     0.074 C 
HETATM    3  N1  UNL     1       7.408  19.912  57.648  1.00  0.00    -0.196 NA
ENDROOT
BRANCH   1   4
HETATM    4  C2  UNL     1      10.435  18.593  56.617  1.00  0.00     0.277 C 
HETATM    5  O2  UNL     1      10.507  19.147  55.486  1.00  0.00    -0.264 OA
BRANCH   4   6
HETATM    6  O1  UNL     1      11.580  18.534  57.385  1.00  0.00    -0.325 OA
HETATM    7  C1  UNL     1      12.672  19.395  57.065  1.00  0.00     0.213 C 
ENDBRANCH   4   6
ENDBRANCH   1   4
BRANCH   1   8
HETATM    8  C5  UNL     1       8.687  17.069  56.057  1.00  0.00     0.058 C 
HETATM    9  C6  UNL     1       7.196  16.952  55.916  1.00  0.00     0.013 C 
HETATM   10  C7  UNL     1       6.808  15.787  56.748  1.00  0.00     0.006 C 
HETATM   11  C8  UNL     1       8.047  14.988  56.963  1.00  0.00     0.052 C 
HETATM   12  C9  UNL     1       9.122  15.667  56.193  1.00  0.00    -0.012 C 
HETATM   13  N2  UNL     1      10.151  15.033  55.785  1.00  0.00    -0.388 N 
ATOM     14  H2  UNL     1      10.274  14.041  55.986  1.00  0.00     0.159 HD
BRANCH  13  15
HETATM   15  C10 UNL     1      11.121  15.760  55.040  1.00  0.00     0.205 C 
BRANCH  15  16
HETATM   16  C11 UNL     1      12.491  15.579  55.518  1.00  0.00     0.153 C 
HETATM   17  N3  UNL     1      12.848  15.838  56.721  1.00  0.00    -0.250 N 
ATOM     18  H3  UNL     1      12.137  16.185  57.364  1.00  0.00     0.196 HD
BRANCH  16  19
HETATM   19  O3  UNL     1      13.443  15.107  54.635  1.00  0.00    -0.347 OA
ATOM     20  H3  UNL     1      13.356  14.222  54.302  1.00  0.00     0.219 HD
ENDBRANCH  16  19
BRANCH  17  21
HETATM   21  O4  UNL     1      14.112  15.681  57.197  1.00  0.00    -0.288 OA
ATOM     22  H4  UNL     1      14.549  14.843  57.293  1.00  0.00     0.244 HD
ENDBRANCH  17  21
ENDBRANCH  15  16
ENDBRANCH  13  15
ENDBRANCH   1   8
TORSDOF 7
ENDMDL
MODEL 4
REMARK VINA RESULT: -7.686318506      3.435      4.876
REMARK  7 active torsions:
REMARK  status: ('A' for Active; 'I' for Inactive)
REMARK    1  A    between atoms: O1_2  and  C2_3 
REMARK    2  A    between atoms: C2_3  and  C3_5 
REMARK    3  A    between atoms: C3_5  and  C5_8 
REMARK    4  A    between atoms: N2_13  and  C10_15 
REMARK    5  A    between atoms: C10_15  and  C11_16 
REMARK    6  A    between atoms: C11_16  and  O3_17 
REMARK    7  A    between atoms: N3_19  and  O4_21 
ROOT
HETATM    1  C3  UNL     1       9.543  19.387  58.007  1.00  0.00     0.201 C 
HETATM    2  C4  UNL     1       9.879  18.830  59.291  1.00  0.00     0.074 C 
HETATM    3  N1  UNL     1      10.132  18.393  60.357  1.00  0.00    -0.196 NA
ENDROOT
BRANCH   1   4
HETATM    4  C2  UNL     1       8.110  19.075  57.636  1.00  0.00     0.277 C 
HETATM    5  O2  UNL     1       7.334  19.985  57.235  1.00  0.00    -0.264 OA
BRANCH   4   6
HETATM    6  O1  UNL     1       7.613  17.791  57.725  1.00  0.00    -0.325 OA
HETATM    7  C1  UNL     1       6.941  17.230  56.598  1.00  0.00     0.213 C 
ENDBRANCH   4   6
ENDBRANCH   1   4
BRANCH   1   8
HETATM    8  C5  UNL     1      10.367  18.853  56.896  1.00  0.00     0.058 C 
HETATM    9  C6  UNL     1      11.766  18.473  57.290  1.00  0.00     0.013 C 
HETATM   10  C7  UNL     1      12.601  19.661  56.986  1.00  0.00     0.006 C 
HETATM   11  C8  UNL     1      11.821  20.494  56.028  1.00  0.00     0.052 C 
HETATM   12  C9  UNL     1      10.574  19.740  55.737  1.00  0.00    -0.012 C 
HETATM   13  N2  UNL     1       9.925  19.919  54.654  1.00  0.00    -0.388 N 
ATOM     14  H2  UNL     1      10.237  20.596  53.957  1.00  0.00     0.159 HD
BRANCH  13  15
HETATM   15  C10 UNL     1       8.751  19.141  54.452  1.00  0.00     0.205 C 
BRANCH  15  16
HETATM   16  C11 UNL     1       7.691  19.847  53.733  1.00  0.00     0.153 C 
HETATM   17  N3  UNL     1       7.699  20.005  52.461  1.00  0.00    -0.250 N 
ATOM     18  H3  UNL     1       8.484  19.616  51.938  1.00  0.00     0.196 HD
BRANCH  16  19
HETATM   19  O3  UNL     1       6.634  20.366  54.455  1.00  0.00    -0.347 OA
ATOM     20  H3  UNL     1       6.798  21.096  55.040  1.00  0.00     0.219 HD
ENDBRANCH  16  19
BRANCH  17  21
HETATM   21  O4  UNL     1       6.731  20.655  51.762  1.00  0.00    -0.288 OA
ATOM     22  H4  UNL     1       6.733  20.766  50.819  1.00  0.00     0.244 HD
ENDBRANCH  17  21
ENDBRANCH  15  16
ENDBRANCH  13  15
ENDBRANCH   1   8
TORSDOF 7
ENDMDL
MODEL 5
REMARK VINA RESULT: -7.386347669      2.872      3.233
REMARK  7 active torsions:
REMARK  status: ('A' for Active; 'I' for Inactive)
REMARK    1  A    between atoms: O1_2  and  C2_3 
REMARK    2  A    between atoms: C2_3  and  C3_5 
REMARK    3  A    between atoms: C3_5  and  C5_8 
REMARK    4  A    between atoms: N2_13  and  C10_15 
REMARK    5  A    between atoms: C10_15  and  C11_16 
REMARK    6  A    between atoms: C11_16  and  O3_17 
REMARK    7  A    between atoms: N3_19  and  O4_21 
ROOT
HETATM    1  C3  UNL     1       9.303  18.892  55.880  1.00  0.00     0.201 C 
HETATM    2  C4  UNL     1       9.976  18.766  54.614  1.00  0.00     0.074 C 
HETATM    3  N1  UNL     1      10.506  18.640  53.567  1.00  0.00    -0.196 NA
ENDROOT
BRANCH   1   4
HETATM    4  C2  UNL     1       7.889  19.402  55.697  1.00  0.00     0.277 C 
HETATM    5  O2  UNL     1       7.267  19.935  56.655  1.00  0.00    -0.264 OA
BRANCH   4   6
HETATM    6  O1  UNL     1       7.245  19.298  54.482  1.00  0.00    -0.325 OA
HETATM    7  C1  UNL     1       6.984  20.485  53.734  1.00  0.00     0.213 C 
ENDBRANCH   4   6
ENDBRANCH   1   4
BRANCH   1   8
HETATM    8  C5  UNL     1       9.954  19.850  56.804  1.00  0.00     0.058 C 
HETATM    9  C6  UNL     1      10.995  20.721  56.159  1.00  0.00     0.013 C 
HETATM   10  C7  UNL     1      12.288  20.031  56.386  1.00  0.00     0.006 C 
HETATM   11  C8  UNL     1      12.068  19.075  57.508  1.00  0.00     0.052 C 
HETATM   12  C9  UNL     1      10.666  19.277  57.961  1.00  0.00    -0.012 C 
HETATM   13  N2  UNL     1      10.300  18.981  59.146  1.00  0.00    -0.388 N 
ATOM     14  H2  UNL     1      10.957  18.584  59.818  1.00  0.00     0.159 HD
BRANCH  13  15
HETATM   15  C10 UNL     1       8.943  19.225  59.498  1.00  0.00     0.205 C 
BRANCH  15  16
HETATM   16  C11 UNL     1       8.574  18.714  60.817  1.00  0.00     0.153 C 
HETATM   17  N3  UNL     1       7.455  18.986  61.380  1.00  0.00    -0.250 N 
ATOM     18  H3  UNL     1       6.802  19.586  60.876  1.00  0.00     0.196 HD
BRANCH  16  19
HETATM   19  O3  UNL     1       9.468  17.902  61.487  1.00  0.00    -0.347 OA
ATOM     20  H3  UNL     1      10.312  17.730  61.088  1.00  0.00     0.219 HD
ENDBRANCH  16  19
BRANCH  17  21
HETATM   21  O4  UNL     1       7.080  18.529  62.604  1.00  0.00    -0.288 OA
ATOM     22  H4  UNL     1       6.180  18.468  62.901  1.00  0.00     0.244 HD
ENDBRANCH  17  21
ENDBRANCH  15  16
ENDBRANCH  13  15
ENDBRANCH   1   8
TORSDOF 7
ENDMDL
