MODEL 1
REMARK VINA RESULT: -8.824124370      0.000      0.000
REMARK  5 active torsions:
REMARK  status: ('A' for Active; 'I' for Inactive)
REMARK    1  A    between atoms: C1_4  and  N2_5 
REMARK    2  A    between atoms: C1_4  and  C9_19 
REMARK    3  A    between atoms: N2_5  and  N3_7 
REMARK    4  A    between atoms: C2_9  and  C3_10 
REMARK    5  A    between atoms: C8_15  and  N4_16 
ROOT
HETATM    1  N2  UNL     1      11.174  15.491  56.991  1.00  0.00    -0.286 N 
ATOM      2  H2  UNL     1      11.281  14.683  57.603  1.00  0.00     0.188 HD
ENDROOT
BRANCH   1   3
HETATM    3  C1  UNL     1      12.323  16.252  56.617  1.00  0.00     0.123 C 
HETATM    4  N1  UNL     1      13.474  15.709  56.766  1.00  0.00    -0.384 N 
ATOM      5  H12 UNL     1      13.570  14.766  57.144  1.00  0.00     0.157 HD
ATOM      6  H11 UNL     1      14.295  16.252  56.500  1.00  0.00     0.157 HD
BRANCH   3   7
HETATM    7  C9  UNL     1      12.187  17.594  56.079  1.00  0.00     0.011 A 
HETATM    8  C10 UNL     1      11.994  17.844  54.738  1.00  0.00     0.032 A 
HETATM    9  C11 UNL     1      11.886  19.153  54.325  1.00  0.00     0.088 A 
HETATM   10  N5  UNL     1      11.962  20.185  55.174  1.00  0.00    -0.375 N 
HETATM   11  C12 UNL     1      12.151  19.958  56.483  1.00  0.00     0.088 A 
ATOM     12  H5  UNL     1      11.877  21.140  54.827  1.00  0.00     0.164 HD
HETATM   13  C13 UNL     1      12.263  18.660  56.934  1.00  0.00     0.032 A 
ENDBRANCH   3   7
ENDBRANCH   1   3
BRANCH   1  14
HETATM   14  N3  UNL     1       9.974  15.824  56.551  1.00  0.00    -0.309 N 
HETATM   15  C2  UNL     1       9.025  16.571  56.743  1.00  0.00     0.121 C 
ATOM     16  H3  UNL     1       9.757  15.236  55.747  1.00  0.00     0.186 HD
BRANCH  15  17
HETATM   17  C3  UNL     1       8.864  17.590  57.775  1.00  0.00     0.014 A 
HETATM   18  C4  UNL     1       9.308  17.339  59.071  1.00  0.00     0.015 A 
HETATM   19  C5  UNL     1       9.212  18.309  60.047  1.00  0.00     0.001 A 
HETATM   20  C6  UNL     1       8.681  19.545  59.794  1.00  0.00     0.002 A 
HETATM   21  C7  UNL     1       8.239  19.812  58.536  1.00  0.00     0.037 A 
HETATM   22  C8  UNL     1       8.330  18.835  57.526  1.00  0.00     0.114 A 
BRANCH  22  23
HETATM   23  N4  UNL     1       7.842  19.209  56.259  1.00  0.00    -0.115 N 
HETATM   24  O1  UNL     1       6.703  19.068  55.800  1.00  0.00    -0.532 OA
HETATM   25  O2  UNL     1       8.733  19.881  55.401  1.00  0.00    -0.532 OA
ENDBRANCH  22  23
ENDBRANCH  15  17
ENDBRANCH   1  14
TORSDOF 5
ENDMDL
MODEL 2
REMARK VINA RESULT: -8.797711030      0.168      1.058
REMARK  5 active torsions:
REMARK  status: ('A' for Active; 'I' for Inactive)
REMARK    1  A    between atoms: C1_4  and  N2_5 
REMARK    2  A    between atoms: C1_4  and  C9_19 
REMARK    3  A    between atoms: N2_5  and  N3_7 
REMARK    4  A    between atoms: C2_9  and  C3_10 
REMARK    5  A    between atoms: C8_15  and  N4_16 
ROOT
HETATM    1  N2  UNL     1      11.148  15.447  56.961  1.00  0.00    -0.286 N 
ATOM      2  H2  UNL     1      11.302  14.718  57.657  1.00  0.00     0.188 HD
ENDROOT
BRANCH   1   3
HETATM    3  C1  UNL     1      12.267  16.136  56.402  1.00  0.00     0.123 C 
HETATM    4  N1  UNL     1      13.347  15.472  56.217  1.00  0.00    -0.384 N 
ATOM      5  H12 UNL     1      13.410  14.485  56.465  1.00  0.00     0.157 HD
ATOM      6  H11 UNL     1      14.147  15.964  55.818  1.00  0.00     0.157 HD
BRANCH   3   7
HETATM    7  C9  UNL     1      12.177  17.542  56.048  1.00  0.00     0.011 A 
HETATM    8  C10 UNL     1      12.263  18.553  56.980  1.00  0.00     0.032 A 
HETATM    9  C11 UNL     1      12.156  19.855  56.546  1.00  0.00     0.088 A 
HETATM   10  N5  UNL     1      11.971  20.172  55.259  1.00  0.00    -0.375 N 
HETATM   11  C12 UNL     1      11.884  19.199  54.339  1.00  0.00     0.088 A 
ATOM     12  H5  UNL     1      11.897  21.150  54.978  1.00  0.00     0.164 HD
HETATM   13  C13 UNL     1      11.987  17.883  54.736  1.00  0.00     0.032 A 
ENDBRANCH   3   7
ENDBRANCH   1   3
BRANCH   1  14
HETATM   14  N3  UNL     1       9.918  15.744  56.585  1.00  0.00    -0.309 N 
HETATM   15  C2  UNL     1       8.970  16.484  56.808  1.00  0.00     0.121 C 
ATOM     16  H3  UNL     1       9.661  15.122  55.819  1.00  0.00     0.186 HD
BRANCH  15  17
HETATM   17  C3  UNL     1       8.855  17.540  57.808  1.00  0.00     0.014 A 
HETATM   18  C4  UNL     1       9.325  17.323  59.101  1.00  0.00     0.015 A 
HETATM   19  C5  UNL     1       9.272  18.326  60.046  1.00  0.00     0.001 A 
HETATM   20  C6  UNL     1       8.763  19.564  59.763  1.00  0.00     0.002 A 
HETATM   21  C7  UNL     1       8.297  19.799  58.508  1.00  0.00     0.037 A 
HETATM   22  C8  UNL     1       8.343  18.788  57.530  1.00  0.00     0.114 A 
BRANCH  22  23
HETATM   23  N4  UNL     1       7.833  19.130  56.262  1.00  0.00    -0.115 N 
HETATM   24  O1  UNL     1       6.681  19.001  55.835  1.00  0.00    -0.532 OA
HETATM   25  O2  UNL     1       8.719  19.753  55.361  1.00  0.00    -0.532 OA
ENDBRANCH  22  23
ENDBRANCH  15  17
ENDBRANCH   1  14
TORSDOF 5
ENDMDL
MODEL 3
REMARK VINA RESULT: -8.777729397      1.977      3.804
REMARK  5 active torsions:
REMARK  status: ('A' for Active; 'I' for Inactive)
REMARK    1  A    between atoms: C1_4  and  N2_5 
REMARK    2  A    between atoms: C1_4  and  C9_19 
REMARK    3  A    between atoms: N2_5  and  N3_7 
REMARK    4  A    between atoms: C2_9  and  C3_10 
REMARK    5  A    between atoms: C8_15  and  N4_16 
ROOT
HETATM    1  N2  UNL     1      10.887  17.583  56.397  1.00  0.00    -0.286 N 
ATOM      2  H2  UNL     1      10.681  18.007  55.493  1.00  0.00     0.188 HD
ENDROOT
BRANCH   1   3
HETATM    3  C1  UNL     1      10.580  16.207  56.620  1.00  0.00     0.123 C 
HETATM    4  N1  UNL     1      11.515  15.450  57.062  1.00  0.00    -0.384 N 
ATOM      5  H12 UNL     1      12.449  15.814  57.245  1.00  0.00     0.157 HD
ATOM      6  H11 UNL     1      11.296  14.466  57.221  1.00  0.00     0.157 HD
BRANCH   3   7
HETATM    7  C9  UNL     1       9.249  15.688  56.359  1.00  0.00     0.011 A 
HETATM    8  C10 UNL     1       8.166  15.979  57.159  1.00  0.00     0.032 A 
HETATM    9  C11 UNL     1       6.945  15.429  56.834  1.00  0.00     0.088 A 
HETATM   10  N5  UNL     1       6.776  14.627  55.775  1.00  0.00    -0.375 N 
HETATM   11  C12 UNL     1       7.822  14.334  54.988  1.00  0.00     0.088 A 
ATOM     12  H5  UNL     1       5.855  14.241  55.568  1.00  0.00     0.164 HD
HETATM   13  C13 UNL     1       9.059  14.866  55.281  1.00  0.00     0.032 A 
ENDBRANCH   3   7
ENDBRANCH   1   3
BRANCH   1  14
HETATM   14  N3  UNL     1      11.436  18.313  57.351  1.00  0.00    -0.309 N 
HETATM   15  C2  UNL     1      11.217  18.866  58.420  1.00  0.00     0.121 C 
ATOM     16  H3  UNL     1      12.412  18.478  57.103  1.00  0.00     0.186 HD
BRANCH  15  17
HETATM   17  C3  UNL     1       9.973  18.916  59.180  1.00  0.00     0.014 A 
HETATM   18  C4  UNL     1       9.886  18.266  60.409  1.00  0.00     0.015 A 
HETATM   19  C5  UNL     1       8.736  18.345  61.166  1.00  0.00     0.001 A 
HETATM   20  C6  UNL     1       7.641  19.053  60.752  1.00  0.00     0.002 A 
HETATM   21  C7  UNL     1       7.701  19.694  59.554  1.00  0.00     0.037 A 
HETATM   22  C8  UNL     1       8.867  19.626  58.768  1.00  0.00     0.114 A 
BRANCH  22  23
HETATM   23  N4  UNL     1       8.828  20.321  57.543  1.00  0.00    -0.115 N 
HETATM   24  O1  UNL     1       9.705  21.022  57.027  1.00  0.00    -0.532 OA
HETATM   25  O2  UNL     1       7.668  20.173  56.758  1.00  0.00    -0.532 OA
ENDBRANCH  22  23
ENDBRANCH  15  17
ENDBRANCH   1  14
TORSDOF 5
ENDMDL
MODEL 4
REMARK VINA RESULT: -8.571089834      1.481      2.133
REMARK  5 active torsions:
REMARK  status: ('A' for Active; 'I' for Inactive)
REMARK    1  A    between atoms: C1_4  and  N2_5 
REMARK    2  A    between atoms: C1_4  and  C9_19 
REMARK    3  A    between atoms: N2_5  and  N3_7 
REMARK    4  A    between atoms: C2_9  and  C3_10 
REMARK    5  A    between atoms: C8_15  and  N4_16 
ROOT
HETATM    1  N2  UNL     1      11.504  15.192  55.616  1.00  0.00    -0.286 N 
ATOM      2  H2  UNL     1      11.738  14.783  54.711  1.00  0.00     0.188 HD
ENDROOT
BRANCH   1   3
HETATM    3  C1  UNL     1      12.380  16.155  56.203  1.00  0.00     0.123 C 
HETATM    4  N1  UNL     1      13.333  15.723  56.942  1.00  0.00    -0.384 N 
ATOM      5  H12 UNL     1      13.462  14.726  57.111  1.00  0.00     0.157 HD
ATOM      6  H11 UNL     1      13.959  16.410  57.362  1.00  0.00     0.157 HD
BRANCH   3   7
HETATM    7  C9  UNL     1      12.196  17.575  55.963  1.00  0.00     0.011 A 
HETATM    8  C10 UNL     1      12.388  18.528  56.939  1.00  0.00     0.032 A 
HETATM    9  C11 UNL     1      12.178  19.850  56.615  1.00  0.00     0.088 A 
HETATM   10  N5  UNL     1      11.798  20.239  55.392  1.00  0.00    -0.375 N 
HETATM   11  C12 UNL     1      11.608  19.323  54.430  1.00  0.00     0.088 A 
ATOM     12  H5  UNL     1      11.655  21.229  55.192  1.00  0.00     0.164 HD
HETATM   13  C13 UNL     1      11.807  17.990  54.717  1.00  0.00     0.032 A 
ENDBRANCH   3   7
ENDBRANCH   1   3
BRANCH   1  14
HETATM   14  N3  UNL     1      10.395  14.827  56.232  1.00  0.00    -0.309 N 
HETATM   15  C2  UNL     1       9.380  15.248  56.768  1.00  0.00     0.121 C 
ATOM     16  H3  UNL     1      10.378  13.808  56.279  1.00  0.00     0.186 HD
BRANCH  15  17
HETATM   17  C3  UNL     1       8.954  16.632  56.949  1.00  0.00     0.014 A 
HETATM   18  C4  UNL     1       9.193  17.277  58.161  1.00  0.00     0.015 A 
HETATM   19  C5  UNL     1       8.844  18.600  58.333  1.00  0.00     0.001 A 
HETATM   20  C6  UNL     1       8.255  19.332  57.338  1.00  0.00     0.002 A 
HETATM   21  C7  UNL     1       8.009  18.723  56.148  1.00  0.00     0.037 A 
HETATM   22  C8  UNL     1       8.359  17.373  55.953  1.00  0.00     0.114 A 
BRANCH  22  23
HETATM   23  N4  UNL     1       8.060  16.834  54.685  1.00  0.00    -0.115 N 
HETATM   24  O1  UNL     1       8.639  17.026  53.611  1.00  0.00    -0.532 OA
HETATM   25  O2  UNL     1       6.999  15.911  54.615  1.00  0.00    -0.532 OA
ENDBRANCH  22  23
ENDBRANCH  15  17
ENDBRANCH   1  14
TORSDOF 5
ENDMDL
MODEL 5
REMARK VINA RESULT: -8.534853088      1.935      3.131
REMARK  5 active torsions:
REMARK  status: ('A' for Active; 'I' for Inactive)
REMARK    1  A    between atoms: C1_4  and  N2_5 
REMARK    2  A    between atoms: C1_4  and  C9_19 
REMARK    3  A    between atoms: N2_5  and  N3_7 
REMARK    4  A    between atoms: C2_9  and  C3_10 
REMARK    5  A    between atoms: C8_15  and  N4_16 
ROOT
HETATM    1  N2  UNL     1      11.564  16.544  57.314  1.00  0.00    -0.286 N 
ATOM      2  H2  UNL     1      12.149  15.936  57.887  1.00  0.00     0.188 HD
ENDROOT
BRANCH   1   3
HETATM    3  C1  UNL     1      10.650  15.969  56.379  1.00  0.00     0.123 C 
HETATM    4  N1  UNL     1      11.046  14.956  55.702  1.00  0.00    -0.384 N 
ATOM      5  H12 UNL     1      11.984  14.573  55.821  1.00  0.00     0.157 HD
ATOM      6  H11 UNL     1      10.394  14.546  55.033  1.00  0.00     0.157 HD
BRANCH   3   7
HETATM    7  C9  UNL     1       9.314  16.514  56.210  1.00  0.00     0.011 A 
HETATM    8  C10 UNL     1       8.964  17.310  55.142  1.00  0.00     0.032 A 
HETATM    9  C11 UNL     1       7.673  17.787  55.076  1.00  0.00     0.088 A 
HETATM   10  N5  UNL     1       6.754  17.506  56.007  1.00  0.00    -0.375 N 
HETATM   11  C12 UNL     1       7.080  16.732  57.053  1.00  0.00     0.088 A 
ATOM     12  H5  UNL     1       5.808  17.878  55.921  1.00  0.00     0.164 HD
HETATM   13  C13 UNL     1       8.362  16.236  57.153  1.00  0.00     0.032 A 
ENDBRANCH   3   7
ENDBRANCH   1   3
BRANCH   1  14
HETATM   14  N3  UNL     1      11.658  17.854  57.445  1.00  0.00    -0.309 N 
HETATM   15  C2  UNL     1      11.165  18.829  57.996  1.00  0.00     0.121 C 
ATOM     16  H3  UNL     1      12.436  18.176  56.869  1.00  0.00     0.186 HD
BRANCH  15  17
HETATM   17  C3  UNL     1      10.032  18.878  58.914  1.00  0.00     0.014 A 
HETATM   18  C4  UNL     1      10.098  18.207  60.132  1.00  0.00     0.015 A 
HETATM   19  C5  UNL     1       9.058  18.285  61.035  1.00  0.00     0.001 A 
HETATM   20  C6  UNL     1       7.928  19.013  60.780  1.00  0.00     0.002 A 
HETATM   21  C7  UNL     1       7.839  19.675  59.596  1.00  0.00     0.037 A 
HETATM   22  C8  UNL     1       8.891  19.608  58.663  1.00  0.00     0.114 A 
BRANCH  22  23
HETATM   23  N4  UNL     1       8.701  20.327  57.466  1.00  0.00    -0.115 N 
HETATM   24  O1  UNL     1       9.536  20.948  56.800  1.00  0.00    -0.532 OA
HETATM   25  O2  UNL     1       7.410  20.306  56.903  1.00  0.00    -0.532 OA
ENDBRANCH  22  23
ENDBRANCH  15  17
ENDBRANCH   1  14
TORSDOF 5
ENDMDL
