MODEL 1
REMARK VINA RESULT: -6.720646188      0.000      0.000
REMARK  11 active torsions:
REMARK  status: ('A' for Active; 'I' for Inactive)
REMARK    1  A    between atoms: O1_1  and  C1_3 
REMARK    2  A    between atoms: C1_3  and  C2_4 
REMARK    3  A    between atoms: C3_5  and  S1_6 
REMARK    4  A    between atoms: S1_6  and  C4_7 
REMARK    5  A    between atoms: C4_7  and  C5_8 
REMARK    6  A    between atoms: C5_8  and  C6_9 
REMARK    7  A    between atoms: C6_9  and  C7_10 
REMARK    8  A    between atoms: C7_10  and  C8_11 
REMARK    9  A    between atoms: C8_11  and  N1_12 
REMARK   10  A    between atoms: N2_15  and  C11_16 
REMARK   11  A    between atoms: C27_34  and  O2_35 
ROOT
HETATM    1  C2  UNL     1     -29.851  -3.348 -34.319  1.00  0.00    -0.034 A 
HETATM    2  C3  UNL     1     -30.581  -4.233 -34.921  1.00  0.00    -0.015 A 
HETATM    3  C19 UNL     1     -29.483  -5.306 -34.837  1.00  0.00     0.061 A 
HETATM    4  C20 UNL     1     -28.667  -4.271 -34.246  1.00  0.00     0.002 A 
HETATM    5  C21 UNL     1     -27.455  -3.777 -34.983  1.00  0.00    -0.000 C 
HETATM    6  C22 UNL     1     -26.735  -4.777 -35.788  1.00  0.00     0.010 C 
HETATM    7  C23 UNL     1     -26.381  -6.069 -35.211  1.00  0.00     0.039 C 
HETATM    8  C24 UNL     1     -26.618  -6.342 -33.804  1.00  0.00    -0.051 A 
HETATM    9  C25 UNL     1     -25.950  -7.509 -33.462  1.00  0.00     0.010 A 
HETATM   10  C26 UNL     1     -25.970  -8.049 -32.198  1.00  0.00     0.037 A 
HETATM   11  C27 UNL     1     -26.679  -7.425 -31.200  1.00  0.00     0.066 A 
HETATM   12  C28 UNL     1     -27.353  -6.258 -31.526  1.00  0.00     0.044 A 
HETATM   13  C29 UNL     1     -27.321  -5.735 -32.792  1.00  0.00    -0.044 A 
HETATM   14  C30 UNL     1     -28.109  -4.503 -32.868  1.00  0.00     0.033 C 
HETATM   15  C31 UNL     1     -27.147  -3.361 -32.626  1.00  0.00     0.011 C 
HETATM   16  C32 UNL     1     -26.612  -3.052 -33.983  1.00  0.00     0.006 C 
ENDROOT
BRANCH   2  17
HETATM   17  S1  UNL     1     -32.195  -4.470 -35.629  1.00  0.00    -0.134 SA
BRANCH  17  18
HETATM   18  C4  UNL     1     -32.757  -3.215 -36.743  1.00  0.00     0.079 C 
BRANCH  18  19
HETATM   19  C5  UNL     1     -31.895  -3.226 -38.044  1.00  0.00     0.010 C 
BRANCH  19  20
HETATM   20  C6  UNL     1     -30.802  -2.229 -37.870  1.00  0.00     0.002 C 
BRANCH  20  21
HETATM   21  C7  UNL     1     -29.410  -2.779 -38.026  1.00  0.00     0.020 C 
BRANCH  21  22
HETATM   22  C8  UNL     1     -29.453  -4.125 -38.680  1.00  0.00     0.122 C 
BRANCH  22  23
HETATM   23  N1  UNL     1     -28.787  -4.201 -39.922  1.00  0.00    -0.390 N 
HETATM   24  C9  UNL     1     -29.297  -3.479 -41.019  1.00  0.00     0.141 C 
HETATM   25  C10 UNL     1     -29.000  -4.235 -42.322  1.00  0.00     0.143 C 
HETATM   26  N2  UNL     1     -27.547  -4.361 -42.417  1.00  0.00    -0.372 N 
HETATM   27  C17 UNL     1     -26.782  -4.157 -41.209  1.00  0.00     0.167 C 
HETATM   28  C18 UNL     1     -27.481  -4.718 -39.978  1.00  0.00     0.078 C 
BRANCH  26  29
HETATM   29  C11 UNL     1     -26.911  -4.672 -43.656  1.00  0.00     0.074 A 
HETATM   30  C12 UNL     1     -26.675  -5.982 -43.984  1.00  0.00     0.062 A 
HETATM   31 CL1  UNL     1     -27.148  -7.255 -42.898  1.00  0.00    -0.082 Cl
HETATM   32  C13 UNL     1     -26.056  -6.345 -45.181  1.00  0.00     0.026 A 
HETATM   33  C14 UNL     1     -25.664  -5.373 -46.078  1.00  0.00     0.003 A 
HETATM   34  C15 UNL     1     -25.902  -4.063 -45.745  1.00  0.00     0.026 A 
HETATM   35  C16 UNL     1     -26.513  -3.701 -44.561  1.00  0.00     0.062 A 
HETATM   36 CL2  UNL     1     -26.809  -2.033 -44.148  1.00  0.00    -0.082 Cl
ENDBRANCH  26  29
ENDBRANCH  22  23
ENDBRANCH  21  22
ENDBRANCH  20  21
ENDBRANCH  19  20
ENDBRANCH  18  19
ENDBRANCH  17  18
ENDBRANCH   2  17
BRANCH   1  37
HETATM   37  C1  UNL     1     -29.993  -1.923 -33.854  1.00  0.00     0.200 C 
BRANCH  37  38
HETATM   38  O1  UNL     1     -30.922  -1.773 -32.894  1.00  0.00    -0.397 OA
ATOM     39  H1  UNL     1     -30.725  -2.265 -32.105  1.00  0.00     0.209 HD
ENDBRANCH  37  38
ENDBRANCH   1  37
BRANCH  11  40
HETATM   40  O2  UNL     1     -26.722  -7.947 -29.899  1.00  0.00    -0.361 OA
ATOM     41  H2  UNL     1     -26.324  -7.488 -29.169  1.00  0.00     0.217 HD
ENDBRANCH  11  40
TORSDOF 11
ENDMDL
MODEL 2
REMARK VINA RESULT: -6.714515360      0.092      1.436
REMARK  11 active torsions:
REMARK  status: ('A' for Active; 'I' for Inactive)
REMARK    1  A    between atoms: O1_1  and  C1_3 
REMARK    2  A    between atoms: C1_3  and  C2_4 
REMARK    3  A    between atoms: C3_5  and  S1_6 
REMARK    4  A    between atoms: S1_6  and  C4_7 
REMARK    5  A    between atoms: C4_7  and  C5_8 
REMARK    6  A    between atoms: C5_8  and  C6_9 
REMARK    7  A    between atoms: C6_9  and  C7_10 
REMARK    8  A    between atoms: C7_10  and  C8_11 
REMARK    9  A    between atoms: C8_11  and  N1_12 
REMARK   10  A    between atoms: N2_15  and  C11_16 
REMARK   11  A    between atoms: C27_34  and  O2_35 
ROOT
HETATM    1  C2  UNL     1     -29.856  -3.316 -34.229  1.00  0.00    -0.034 A 
HETATM    2  C3  UNL     1     -30.600  -4.188 -34.833  1.00  0.00    -0.015 A 
HETATM    3  C19 UNL     1     -29.507  -5.268 -34.781  1.00  0.00     0.061 A 
HETATM    4  C20 UNL     1     -28.676  -4.247 -34.186  1.00  0.00     0.002 A 
HETATM    5  C21 UNL     1     -27.473  -3.749 -34.933  1.00  0.00    -0.000 C 
HETATM    6  C22 UNL     1     -26.769  -4.741 -35.763  1.00  0.00     0.010 C 
HETATM    7  C23 UNL     1     -26.415  -6.043 -35.210  1.00  0.00     0.039 C 
HETATM    8  C24 UNL     1     -26.634  -6.336 -33.804  1.00  0.00    -0.051 A 
HETATM    9  C25 UNL     1     -25.968  -7.512 -33.488  1.00  0.00     0.010 A 
HETATM   10  C26 UNL     1     -25.973  -8.070 -32.233  1.00  0.00     0.037 A 
HETATM   11  C27 UNL     1     -26.664  -7.458 -31.215  1.00  0.00     0.066 A 
HETATM   12  C28 UNL     1     -27.336  -6.282 -31.515  1.00  0.00     0.044 A 
HETATM   13  C29 UNL     1     -27.319  -5.741 -32.773  1.00  0.00    -0.044 A 
HETATM   14  C30 UNL     1     -28.101  -4.503 -32.820  1.00  0.00     0.033 C 
HETATM   15  C31 UNL     1     -27.128  -3.370 -32.574  1.00  0.00     0.011 C 
HETATM   16  C32 UNL     1     -26.611  -3.044 -33.935  1.00  0.00     0.006 C 
ENDROOT
BRANCH   2  17
HETATM   17  S1  UNL     1     -32.225  -4.405 -35.522  1.00  0.00    -0.134 SA
BRANCH  17  18
HETATM   18  C4  UNL     1     -32.754  -3.186 -36.690  1.00  0.00     0.079 C 
BRANCH  18  19
HETATM   19  C5  UNL     1     -31.891  -3.275 -37.988  1.00  0.00     0.010 C 
BRANCH  19  20
HETATM   20  C6  UNL     1     -30.794  -2.275 -37.872  1.00  0.00     0.002 C 
BRANCH  20  21
HETATM   21  C7  UNL     1     -29.403  -2.845 -37.941  1.00  0.00     0.020 C 
BRANCH  21  22
HETATM   22  C8  UNL     1     -29.428  -4.197 -38.583  1.00  0.00     0.122 C 
BRANCH  22  23
HETATM   23  N1  UNL     1     -28.769  -4.273 -39.829  1.00  0.00    -0.390 N 
HETATM   24  C9  UNL     1     -29.276  -3.538 -40.919  1.00  0.00     0.141 C 
HETATM   25  C10 UNL     1     -28.995  -4.289 -42.228  1.00  0.00     0.143 C 
HETATM   26  N2  UNL     1     -27.545  -4.431 -42.332  1.00  0.00    -0.372 N 
HETATM   27  C17 UNL     1     -26.771  -4.244 -41.127  1.00  0.00     0.167 C 
HETATM   28  C18 UNL     1     -27.470  -4.804 -39.896  1.00  0.00     0.078 C 
BRANCH  26  29
HETATM   29  C11 UNL     1     -26.918  -4.741 -43.576  1.00  0.00     0.074 A 
HETATM   30  C12 UNL     1     -26.557  -3.725 -44.422  1.00  0.00     0.062 A 
HETATM   31 CL1  UNL     1     -26.860  -2.070 -43.982  1.00  0.00    -0.082 Cl
HETATM   32  C13 UNL     1     -25.941  -3.969 -45.651  1.00  0.00     0.026 A 
HETATM   33  C14 UNL     1     -25.677  -5.264 -46.045  1.00  0.00     0.003 A 
HETATM   34  C15 UNL     1     -26.040  -6.278 -45.196  1.00  0.00     0.026 A 
HETATM   35  C16 UNL     1     -26.650  -6.040 -43.979  1.00  0.00     0.062 A 
HETATM   36 CL2  UNL     1     -27.109  -7.336 -42.908  1.00  0.00    -0.082 Cl
ENDBRANCH  26  29
ENDBRANCH  22  23
ENDBRANCH  21  22
ENDBRANCH  20  21
ENDBRANCH  19  20
ENDBRANCH  18  19
ENDBRANCH  17  18
ENDBRANCH   2  17
BRANCH   1  37
HETATM   37  C1  UNL     1     -29.983  -1.897 -33.740  1.00  0.00     0.200 C 
BRANCH  37  38
HETATM   38  O1  UNL     1     -31.021  -1.719 -32.905  1.00  0.00    -0.397 OA
ATOM     39  H1  UNL     1     -30.804  -1.901 -31.997  1.00  0.00     0.209 HD
ENDBRANCH  37  38
ENDBRANCH   1  37
BRANCH  11  40
HETATM   40  O2  UNL     1     -26.692  -7.998 -29.923  1.00  0.00    -0.361 OA
ATOM     41  H2  UNL     1     -26.319  -7.532 -29.183  1.00  0.00     0.217 HD
ENDBRANCH  11  40
TORSDOF 11
ENDMDL
MODEL 3
REMARK VINA RESULT: -6.325234863      2.324      3.529
REMARK  11 active torsions:
REMARK  status: ('A' for Active; 'I' for Inactive)
REMARK    1  A    between atoms: O1_1  and  C1_3 
REMARK    2  A    between atoms: C1_3  and  C2_4 
REMARK    3  A    between atoms: C3_5  and  S1_6 
REMARK    4  A    between atoms: S1_6  and  C4_7 
REMARK    5  A    between atoms: C4_7  and  C5_8 
REMARK    6  A    between atoms: C5_8  and  C6_9 
REMARK    7  A    between atoms: C6_9  and  C7_10 
REMARK    8  A    between atoms: C7_10  and  C8_11 
REMARK    9  A    between atoms: C8_11  and  N1_12 
REMARK   10  A    between atoms: N2_15  and  C11_16 
REMARK   11  A    between atoms: C27_34  and  O2_35 
ROOT
HETATM    1  C2  UNL     1     -27.679  -4.046 -32.993  1.00  0.00    -0.034 A 
HETATM    2  C3  UNL     1     -28.612  -3.697 -33.821  1.00  0.00    -0.015 A 
HETATM    3  C19 UNL     1     -29.305  -5.066 -33.736  1.00  0.00     0.061 A 
HETATM    4  C20 UNL     1     -28.205  -5.451 -32.883  1.00  0.00     0.002 A 
HETATM    5  C21 UNL     1     -27.244  -6.505 -33.351  1.00  0.00    -0.000 C 
HETATM    6  C22 UNL     1     -27.813  -7.579 -34.180  1.00  0.00     0.010 C 
HETATM    7  C23 UNL     1     -29.026  -8.271 -33.755  1.00  0.00     0.039 C 
HETATM    8  C24 UNL     1     -29.616  -8.001 -32.456  1.00  0.00    -0.051 A 
HETATM    9  C25 UNL     1     -30.573  -8.971 -32.196  1.00  0.00     0.010 A 
HETATM   10  C26 UNL     1     -31.322  -9.005 -31.043  1.00  0.00     0.037 A 
HETATM   11  C27 UNL     1     -31.136  -8.044 -30.079  1.00  0.00     0.066 A 
HETATM   12  C28 UNL     1     -30.183  -7.067 -30.325  1.00  0.00     0.044 A 
HETATM   13  C29 UNL     1     -29.447  -7.050 -31.480  1.00  0.00    -0.044 A 
HETATM   14  C30 UNL     1     -28.514  -5.920 -31.488  1.00  0.00     0.033 C 
HETATM   15  C31 UNL     1     -27.204  -6.441 -30.939  1.00  0.00     0.011 C 
HETATM   16  C32 UNL     1     -26.501  -6.975 -32.141  1.00  0.00     0.006 C 
ENDROOT
BRANCH   2  17
HETATM   17  S1  UNL     1     -29.182  -2.316 -34.787  1.00  0.00    -0.134 SA
BRANCH  17  18
HETATM   18  C4  UNL     1     -28.293  -1.981 -36.280  1.00  0.00     0.079 C 
BRANCH  18  19
HETATM   19  C5  UNL     1     -26.902  -2.690 -36.249  1.00  0.00     0.010 C 
BRANCH  19  20
HETATM   20  C6  UNL     1     -26.880  -3.690 -37.351  1.00  0.00     0.002 C 
BRANCH  20  21
HETATM   21  C7  UNL     1     -27.196  -5.102 -36.936  1.00  0.00     0.020 C 
BRANCH  21  22
HETATM   22  C8  UNL     1     -28.228  -5.692 -37.844  1.00  0.00     0.122 C 
BRANCH  22  23
HETATM   23  N1  UNL     1     -27.868  -5.722 -39.209  1.00  0.00    -0.390 N 
HETATM   24  C9  UNL     1     -26.802  -6.546 -39.619  1.00  0.00     0.141 C 
HETATM   25  C10 UNL     1     -26.083  -5.909 -40.817  1.00  0.00     0.143 C 
HETATM   26  N2  UNL     1     -27.074  -5.778 -41.884  1.00  0.00    -0.372 N 
HETATM   27  C17 UNL     1     -28.467  -5.864 -41.512  1.00  0.00     0.167 C 
HETATM   28  C18 UNL     1     -28.750  -5.201 -40.171  1.00  0.00     0.078 C 
BRANCH  26  29
HETATM   29  C11 UNL     1     -26.679  -5.576 -43.239  1.00  0.00     0.074 A 
HETATM   30  C12 UNL     1     -26.616  -4.301 -43.742  1.00  0.00     0.062 A 
HETATM   31 CL1  UNL     1     -27.016  -2.943 -42.733  1.00  0.00    -0.082 Cl
HETATM   32  C13 UNL     1     -26.236  -4.043 -45.060  1.00  0.00     0.026 A 
HETATM   33  C14 UNL     1     -25.907  -5.086 -45.900  1.00  0.00     0.003 A 
HETATM   34  C15 UNL     1     -25.971  -6.360 -45.394  1.00  0.00     0.026 A 
HETATM   35  C16 UNL     1     -26.347  -6.619 -44.090  1.00  0.00     0.062 A 
HETATM   36 CL2  UNL     1     -26.426  -8.241 -43.457  1.00  0.00    -0.082 Cl
ENDBRANCH  26  29
ENDBRANCH  22  23
ENDBRANCH  21  22
ENDBRANCH  20  21
ENDBRANCH  19  20
ENDBRANCH  18  19
ENDBRANCH  17  18
ENDBRANCH   2  17
BRANCH   1  37
HETATM   37  C1  UNL     1     -26.475  -3.414 -32.346  1.00  0.00     0.200 C 
BRANCH  37  38
HETATM   38  O1  UNL     1     -26.637  -2.103 -32.100  1.00  0.00    -0.397 OA
ATOM     39  H1  UNL     1     -27.066  -1.641 -32.811  1.00  0.00     0.209 HD
ENDBRANCH  37  38
ENDBRANCH   1  37
BRANCH  11  40
HETATM   40  O2  UNL     1     -31.881  -8.047 -28.892  1.00  0.00    -0.361 OA
ATOM     41  H2  UNL     1     -31.683  -7.448 -28.182  1.00  0.00     0.217 HD
ENDBRANCH  11  40
TORSDOF 11
ENDMDL
MODEL 4
REMARK VINA RESULT: -6.320230082      5.036      8.298
REMARK  11 active torsions:
REMARK  status: ('A' for Active; 'I' for Inactive)
REMARK    1  A    between atoms: O1_1  and  C1_3 
REMARK    2  A    between atoms: C1_3  and  C2_4 
REMARK    3  A    between atoms: C3_5  and  S1_6 
REMARK    4  A    between atoms: S1_6  and  C4_7 
REMARK    5  A    between atoms: C4_7  and  C5_8 
REMARK    6  A    between atoms: C5_8  and  C6_9 
REMARK    7  A    between atoms: C6_9  and  C7_10 
REMARK    8  A    between atoms: C7_10  and  C8_11 
REMARK    9  A    between atoms: C8_11  and  N1_12 
REMARK   10  A    between atoms: N2_15  and  C11_16 
REMARK   11  A    between atoms: C27_34  and  O2_35 
ROOT
HETATM    1  C2  UNL     1     -31.481   1.606 -38.073  1.00  0.00    -0.034 A 
HETATM    2  C3  UNL     1     -31.054   0.711 -37.240  1.00  0.00    -0.015 A 
HETATM    3  C19 UNL     1     -30.046   1.679 -36.599  1.00  0.00     0.061 A 
HETATM    4  C20 UNL     1     -30.486   2.627 -37.596  1.00  0.00     0.002 A 
HETATM    5  C21 UNL     1     -29.522   3.086 -38.652  1.00  0.00    -0.000 C 
HETATM    6  C22 UNL     1     -28.114   3.202 -38.238  1.00  0.00     0.010 C 
HETATM    7  C23 UNL     1     -27.765   3.909 -37.011  1.00  0.00     0.039 C 
HETATM    8  C24 UNL     1     -28.780   4.615 -36.248  1.00  0.00    -0.051 A 
HETATM    9  C25 UNL     1     -28.148   5.415 -35.307  1.00  0.00     0.010 A 
HETATM   10  C26 UNL     1     -28.825   6.217 -34.419  1.00  0.00     0.037 A 
HETATM   11  C27 UNL     1     -30.199   6.250 -34.439  1.00  0.00     0.066 A 
HETATM   12  C28 UNL     1     -30.845   5.456 -35.374  1.00  0.00     0.044 A 
HETATM   13  C29 UNL     1     -30.152   4.664 -36.251  1.00  0.00    -0.044 A 
HETATM   14  C30 UNL     1     -31.069   3.933 -37.130  1.00  0.00     0.033 C 
HETATM   15  C31 UNL     1     -31.227   4.772 -38.379  1.00  0.00     0.011 C 
HETATM   16  C32 UNL     1     -30.103   4.326 -39.252  1.00  0.00     0.006 C 
ENDROOT
BRANCH   2  17
HETATM   17  S1  UNL     1     -31.314  -0.977 -36.742  1.00  0.00    -0.134 SA
BRANCH  17  18
HETATM   18  C4  UNL     1     -32.180  -1.223 -35.219  1.00  0.00     0.079 C 
BRANCH  18  19
HETATM   19  C5  UNL     1     -31.454  -0.470 -34.060  1.00  0.00     0.010 C 
BRANCH  19  20
HETATM   20  C6  UNL     1     -31.317  -1.419 -32.921  1.00  0.00     0.002 C 
BRANCH  20  21
HETATM   21  C7  UNL     1     -30.692  -2.743 -33.268  1.00  0.00     0.020 C 
BRANCH  21  22
HETATM   22  C8  UNL     1     -29.226  -2.577 -33.515  1.00  0.00     0.122 C 
BRANCH  22  23
HETATM   23  N1  UNL     1     -28.753  -3.176 -34.703  1.00  0.00    -0.390 N 
HETATM   24  C9  UNL     1     -27.380  -3.102 -35.008  1.00  0.00     0.141 C 
HETATM   25  C10 UNL     1     -27.187  -3.060 -36.531  1.00  0.00     0.143 C 
HETATM   26  N2  UNL     1     -27.770  -4.288 -37.066  1.00  0.00    -0.372 N 
HETATM   27  C17 UNL     1     -28.684  -5.015 -36.216  1.00  0.00     0.167 C 
HETATM   28  C18 UNL     1     -29.568  -4.091 -35.390  1.00  0.00     0.078 C 
BRANCH  26  29
HETATM   29  C11 UNL     1     -27.447  -4.751 -38.376  1.00  0.00     0.074 A 
HETATM   30  C12 UNL     1     -26.396  -5.614 -38.548  1.00  0.00     0.062 A 
HETATM   31 CL1  UNL     1     -25.463  -6.140 -37.178  1.00  0.00    -0.082 Cl
HETATM   32  C13 UNL     1     -26.034  -6.099 -39.806  1.00  0.00     0.026 A 
HETATM   33  C14 UNL     1     -26.744  -5.713 -40.924  1.00  0.00     0.003 A 
HETATM   34  C15 UNL     1     -27.796  -4.849 -40.748  1.00  0.00     0.026 A 
HETATM   35  C16 UNL     1     -28.155  -4.368 -39.504  1.00  0.00     0.062 A 
HETATM   36 CL2  UNL     1     -29.492  -3.269 -39.293  1.00  0.00    -0.082 Cl
ENDBRANCH  26  29
ENDBRANCH  22  23
ENDBRANCH  21  22
ENDBRANCH  20  21
ENDBRANCH  19  20
ENDBRANCH  18  19
ENDBRANCH  17  18
ENDBRANCH   2  17
BRANCH   1  37
HETATM   37  C1  UNL     1     -32.522   1.706 -39.157  1.00  0.00     0.200 C 
BRANCH  37  38
HETATM   38  O1  UNL     1     -32.071   1.306 -40.358  1.00  0.00    -0.397 OA
ATOM     39  H1  UNL     1     -31.738   2.021 -40.888  1.00  0.00     0.209 HD
ENDBRANCH  37  38
ENDBRANCH   1  37
BRANCH  11  40
HETATM   40  O2  UNL     1     -30.922   7.056 -33.549  1.00  0.00    -0.361 OA
ATOM     41  H2  UNL     1     -31.596   6.691 -32.987  1.00  0.00     0.217 HD
ENDBRANCH  11  40
TORSDOF 11
ENDMDL
MODEL 5
REMARK VINA RESULT: -6.232600134      5.373      9.110
REMARK  11 active torsions:
REMARK  status: ('A' for Active; 'I' for Inactive)
REMARK    1  A    between atoms: O1_1  and  C1_3 
REMARK    2  A    between atoms: C1_3  and  C2_4 
REMARK    3  A    between atoms: C3_5  and  S1_6 
REMARK    4  A    between atoms: S1_6  and  C4_7 
REMARK    5  A    between atoms: C4_7  and  C5_8 
REMARK    6  A    between atoms: C5_8  and  C6_9 
REMARK    7  A    between atoms: C6_9  and  C7_10 
REMARK    8  A    between atoms: C7_10  and  C8_11 
REMARK    9  A    between atoms: C8_11  and  N1_12 
REMARK   10  A    between atoms: N2_15  and  C11_16 
REMARK   11  A    between atoms: C27_34  and  O2_35 
ROOT
HETATM    1  C2  UNL     1     -31.962   2.033 -38.146  1.00  0.00    -0.034 A 
HETATM    2  C3  UNL     1     -31.661   1.053 -37.355  1.00  0.00    -0.015 A 
HETATM    3  C19 UNL     1     -30.503   1.830 -36.709  1.00  0.00     0.061 A 
HETATM    4  C20 UNL     1     -30.812   2.871 -37.661  1.00  0.00     0.002 A 
HETATM    5  C21 UNL     1     -29.811   3.215 -38.726  1.00  0.00    -0.000 C 
HETATM    6  C22 UNL     1     -28.393   3.097 -38.346  1.00  0.00     0.010 C 
HETATM    7  C23 UNL     1     -27.914   3.697 -37.106  1.00  0.00     0.039 C 
HETATM    8  C24 UNL     1     -28.791   4.522 -36.293  1.00  0.00    -0.051 A 
HETATM    9  C25 UNL     1     -28.024   5.179 -35.342  1.00  0.00     0.010 A 
HETATM   10  C26 UNL     1     -28.550   6.042 -34.411  1.00  0.00     0.037 A 
HETATM   11  C27 UNL     1     -29.902   6.287 -34.394  1.00  0.00     0.066 A 
HETATM   12  C28 UNL     1     -30.682   5.637 -35.338  1.00  0.00     0.044 A 
HETATM   13  C29 UNL     1     -30.139   4.781 -36.259  1.00  0.00    -0.044 A 
HETATM   14  C30 UNL     1     -31.175   4.233 -37.137  1.00  0.00     0.033 C 
HETATM   15  C31 UNL     1     -31.229   5.131 -38.353  1.00  0.00     0.011 C 
HETATM   16  C32 UNL     1     -30.205   4.551 -39.270  1.00  0.00     0.006 C 
ENDROOT
BRANCH   2  17
HETATM   17  S1  UNL     1     -32.169  -0.592 -36.907  1.00  0.00    -0.134 SA
BRANCH  17  18
HETATM   18  C4  UNL     1     -33.256  -0.729 -35.518  1.00  0.00     0.079 C 
BRANCH  18  19
HETATM   19  C5  UNL     1     -32.582  -0.126 -34.246  1.00  0.00     0.010 C 
BRANCH  19  20
HETATM   20  C6  UNL     1     -32.813  -1.073 -33.120  1.00  0.00     0.002 C 
BRANCH  20  21
HETATM   21  C7  UNL     1     -31.772  -2.149 -32.971  1.00  0.00     0.020 C 
BRANCH  21  22
HETATM   22  C8  UNL     1     -30.409  -1.594 -33.242  1.00  0.00     0.122 C 
BRANCH  22  23
HETATM   23  N1  UNL     1     -29.510  -2.499 -33.847  1.00  0.00    -0.390 N 
HETATM   24  C9  UNL     1     -29.770  -2.951 -35.156  1.00  0.00     0.141 C 
HETATM   25  C10 UNL     1     -29.239  -4.382 -35.326  1.00  0.00     0.143 C 
HETATM   26  N2  UNL     1     -27.801  -4.333 -35.073  1.00  0.00    -0.372 N 
HETATM   27  C17 UNL     1     -27.287  -3.176 -34.376  1.00  0.00     0.167 C 
HETATM   28  C18 UNL     1     -28.234  -2.687 -33.289  1.00  0.00     0.078 C 
BRANCH  26  29
HETATM   29  C11 UNL     1     -26.938  -5.387 -35.498  1.00  0.00     0.074 A 
HETATM   30  C12 UNL     1     -26.652  -6.415 -34.638  1.00  0.00     0.062 A 
HETATM   31 CL1  UNL     1     -27.336  -6.434 -33.039  1.00  0.00    -0.082 Cl
HETATM   32  C13 UNL     1     -25.815  -7.472 -35.000  1.00  0.00     0.026 A 
HETATM   33  C14 UNL     1     -25.249  -7.505 -36.257  1.00  0.00     0.003 A 
HETATM   34  C15 UNL     1     -25.538  -6.473 -37.116  1.00  0.00     0.026 A 
HETATM   35  C16 UNL     1     -26.365  -5.426 -36.759  1.00  0.00     0.062 A 
HETATM   36 CL2  UNL     1     -26.724  -4.120 -37.858  1.00  0.00    -0.082 Cl
ENDBRANCH  26  29
ENDBRANCH  22  23
ENDBRANCH  21  22
ENDBRANCH  20  21
ENDBRANCH  19  20
ENDBRANCH  18  19
ENDBRANCH  17  18
ENDBRANCH   2  17
BRANCH   1  37
HETATM   37  C1  UNL     1     -32.997   2.333 -39.198  1.00  0.00     0.200 C 
BRANCH  37  38
HETATM   38  O1  UNL     1     -32.658   1.875 -40.415  1.00  0.00    -0.397 OA
ATOM     39  H1  UNL     1     -32.416   0.956 -40.413  1.00  0.00     0.209 HD
ENDBRANCH  37  38
ENDBRANCH   1  37
BRANCH  11  40
HETATM   40  O2  UNL     1     -30.474   7.161 -33.458  1.00  0.00    -0.361 OA
ATOM     41  H2  UNL     1     -29.988   7.899 -33.109  1.00  0.00     0.217 HD
ENDBRANCH  11  40
TORSDOF 11
ENDMDL
