MODEL 1
REMARK VINA RESULT: -7.633140649      0.000      0.000
REMARK  11 active torsions:
REMARK  status: ('A' for Active; 'I' for Inactive)
REMARK    1  A    between atoms: C6_8  and  C7_9 
REMARK    2  A    between atoms: N2_12  and  C10_13 
REMARK    3  A    between atoms: C11_14  and  C12_15 
REMARK    4  A    between atoms: C12_15  and  C13_16 
REMARK    5  A    between atoms: C13_16  and  C14_17 
REMARK    6  A    between atoms: C14_17  and  O1_18 
REMARK    7  A    between atoms: O1_18  and  C15_19 
REMARK    8  A    between atoms: C15_19  and  N3_21 
REMARK    9  A    between atoms: C18_24  and  O2_25 
REMARK   10  A    between atoms: O2_25  and  C19_26 
REMARK   11  A    between atoms: C31_40  and  O3_41 
ROOT
HETATM    1  C10 UNL     1     -29.793   1.906 -40.061  1.00  0.00     0.089 C 
HETATM    2  C11 UNL     1     -30.501   0.926 -39.267  1.00  0.00     0.013 C 
ENDROOT
BRANCH   2   3
HETATM    3  C12 UNL     1     -31.576   1.121 -38.317  1.00  0.00    -0.023 C 
BRANCH   3   4
HETATM    4  C13 UNL     1     -31.800   0.217 -37.158  1.00  0.00     0.054 C 
BRANCH   4   5
HETATM    5  C14 UNL     1     -30.943   0.641 -35.955  1.00  0.00     0.182 C 
BRANCH   5   6
HETATM    6  O1  UNL     1     -29.787  -0.167 -35.904  1.00  0.00    -0.327 OA
BRANCH   6   7
HETATM    7  C15 UNL     1     -29.668  -1.335 -35.228  1.00  0.00     0.212 C 
HETATM    8  S1  UNL     1     -30.677  -1.646 -33.980  1.00  0.00    -0.033 SA
BRANCH   7   9
HETATM    9  N3  UNL     1     -28.649  -2.306 -35.608  1.00  0.00    -0.351 N 
HETATM   10  C16 UNL     1     -28.687  -2.736 -36.955  1.00  0.00     0.128 C 
HETATM   11  C17 UNL     1     -27.626  -3.680 -37.336  1.00  0.00     0.054 C 
HETATM   12  C18 UNL     1     -27.176  -4.585 -36.205  1.00  0.00     0.150 C 
HETATM   13  C25 UNL     1     -26.720  -3.745 -35.023  1.00  0.00     0.130 C 
HETATM   14 CL1  UNL     1     -26.411  -4.861 -33.680  1.00  0.00    -0.121 Cl
HETATM   15  C26 UNL     1     -27.712  -2.730 -34.628  1.00  0.00     0.148 C 
BRANCH  12  16
HETATM   16  O2  UNL     1     -26.078  -5.296 -36.653  1.00  0.00    -0.344 OA
BRANCH  16  17
HETATM   17  C19 UNL     1     -26.046  -6.601 -37.042  1.00  0.00     0.072 A 
HETATM   18  C20 UNL     1     -25.669  -7.623 -36.216  1.00  0.00     0.037 A 
HETATM   19  C21 UNL     1     -25.650  -8.949 -36.654  1.00  0.00     0.006 A 
HETATM   20  C22 UNL     1     -26.010  -9.281 -37.936  1.00  0.00     0.042 A 
HETATM   21  C23 UNL     1     -26.398  -8.259 -38.795  1.00  0.00     0.119 A 
HETATM   22  F1  UNL     1     -26.748  -8.623 -40.042  1.00  0.00    -0.206 F 
HETATM   23  C24 UNL     1     -26.409  -6.967 -38.346  1.00  0.00     0.079 A 
ENDBRANCH  16  17
ENDBRANCH  12  16
ENDBRANCH   7   9
ENDBRANCH   6   7
ENDBRANCH   5   6
ENDBRANCH   4   5
ENDBRANCH   3   4
ENDBRANCH   2   3
BRANCH   1  24
HETATM   24  N2  UNL     1     -29.122   2.991 -39.552  1.00  0.00    -0.370 N 
HETATM   25  C9  UNL     1     -28.187   2.890 -38.512  1.00  0.00     0.064 C 
HETATM   26  C8  UNL     1     -28.713   3.327 -37.154  1.00  0.00     0.054 C 
HETATM   27  C7  UNL     1     -29.317   4.696 -37.305  1.00  0.00     0.027 C 
HETATM   28  C28 UNL     1     -30.451   4.586 -38.269  1.00  0.00     0.030 C 
HETATM   29  C27 UNL     1     -29.815   4.260 -39.622  1.00  0.00     0.128 C 
BRANCH  27  30
HETATM   30  C6  UNL     1     -29.663   5.308 -36.015  1.00  0.00    -0.026 A 
HETATM   31  C5  UNL     1     -30.958   5.554 -35.618  1.00  0.00     0.096 A 
HETATM   32  N1  UNL     1     -30.926   6.127 -34.402  1.00  0.00    -0.365 N 
HETATM   33  C4  UNL     1     -29.664   6.271 -33.977  1.00  0.00     0.043 A 
ATOM     34  H1  UNL     1     -31.751   6.413 -33.875  1.00  0.00     0.165 HD
HETATM   35  C3  UNL     1     -29.056   6.773 -32.848  1.00  0.00     0.039 A 
HETATM   36  C29 UNL     1     -28.875   5.752 -34.997  1.00  0.00     0.001 A 
HETATM   37  C2  UNL     1     -27.683   6.786 -32.678  1.00  0.00    -0.027 A 
HETATM   38  C1  UNL     1     -27.098   7.345 -31.418  1.00  0.00     0.051 C 
HETATM   39  C31 UNL     1     -26.903   6.271 -33.688  1.00  0.00     0.072 A 
HETATM   40  C30 UNL     1     -27.525   5.763 -34.835  1.00  0.00     0.051 A 
BRANCH  39  41
HETATM   41  O3  UNL     1     -25.539   6.271 -33.547  1.00  0.00    -0.360 OA
ATOM     42  H3  UNL     1     -25.068   7.095 -33.582  1.00  0.00     0.217 HD
ENDBRANCH  39  41
ENDBRANCH  27  30
ENDBRANCH   1  24
TORSDOF 11
ENDMDL
MODEL 2
REMARK VINA RESULT: -7.468982753      4.255      6.848
REMARK  11 active torsions:
REMARK  status: ('A' for Active; 'I' for Inactive)
REMARK    1  A    between atoms: C6_8  and  C7_9 
REMARK    2  A    between atoms: N2_12  and  C10_13 
REMARK    3  A    between atoms: C11_14  and  C12_15 
REMARK    4  A    between atoms: C12_15  and  C13_16 
REMARK    5  A    between atoms: C13_16  and  C14_17 
REMARK    6  A    between atoms: C14_17  and  O1_18 
REMARK    7  A    between atoms: O1_18  and  C15_19 
REMARK    8  A    between atoms: C15_19  and  N3_21 
REMARK    9  A    between atoms: C18_24  and  O2_25 
REMARK   10  A    between atoms: O2_25  and  C19_26 
REMARK   11  A    between atoms: C31_40  and  O3_41 
ROOT
HETATM    1  C10 UNL     1     -33.358   6.025 -28.230  1.00  0.00     0.089 C 
HETATM    2  C11 UNL     1     -33.109   4.611 -28.410  1.00  0.00     0.013 C 
ENDROOT
BRANCH   2   3
HETATM    3  C12 UNL     1     -31.848   3.911 -28.528  1.00  0.00    -0.023 C 
BRANCH   3   4
HETATM    4  C13 UNL     1     -31.725   2.573 -29.164  1.00  0.00     0.054 C 
BRANCH   4   5
HETATM    5  C14 UNL     1     -33.100   2.042 -29.599  1.00  0.00     0.182 C 
BRANCH   5   6
HETATM    6  O1  UNL     1     -33.238   2.206 -30.994  1.00  0.00    -0.327 OA
BRANCH   6   7
HETATM    7  C15 UNL     1     -33.811   1.317 -31.842  1.00  0.00     0.212 C 
HETATM    8  S1  UNL     1     -35.431   1.349 -32.062  1.00  0.00    -0.033 SA
BRANCH   7   9
HETATM    9  N3  UNL     1     -32.993   0.341 -32.550  1.00  0.00    -0.351 N 
HETATM   10  C16 UNL     1     -32.522  -0.741 -31.769  1.00  0.00     0.128 C 
HETATM   11  C17 UNL     1     -31.736  -1.741 -32.507  1.00  0.00     0.054 C 
HETATM   12  C18 UNL     1     -30.942  -1.167 -33.664  1.00  0.00     0.150 C 
HETATM   13  C25 UNL     1     -31.876  -0.438 -34.618  1.00  0.00     0.130 C 
HETATM   14 CL1  UNL     1     -30.859   0.376 -35.820  1.00  0.00    -0.121 Cl
HETATM   15  C26 UNL     1     -32.743   0.537 -33.934  1.00  0.00     0.148 C 
BRANCH  12  16
HETATM   16  O2  UNL     1     -30.390  -2.228 -34.358  1.00  0.00    -0.344 OA
BRANCH  16  17
HETATM   17  C19 UNL     1     -29.076  -2.581 -34.410  1.00  0.00     0.072 A 
HETATM   18  C20 UNL     1     -28.402  -3.133 -33.357  1.00  0.00     0.037 A 
HETATM   19  C21 UNL     1     -27.053  -3.482 -33.453  1.00  0.00     0.006 A 
HETATM   20  C22 UNL     1     -26.346  -3.283 -34.612  1.00  0.00     0.042 A 
HETATM   21  C23 UNL     1     -27.009  -2.723 -35.698  1.00  0.00     0.119 A 
HETATM   22  F1  UNL     1     -26.285  -2.547 -36.819  1.00  0.00    -0.206 F 
HETATM   23  C24 UNL     1     -28.331  -2.389 -35.583  1.00  0.00     0.079 A 
ENDBRANCH  16  17
ENDBRANCH  12  16
ENDBRANCH   7   9
ENDBRANCH   6   7
ENDBRANCH   5   6
ENDBRANCH   4   5
ENDBRANCH   3   4
ENDBRANCH   2   3
BRANCH   1  24
HETATM   24  N2  UNL     1     -32.910   7.013 -29.071  1.00  0.00    -0.370 N 
HETATM   25  C9  UNL     1     -33.390   7.178 -30.378  1.00  0.00     0.064 C 
HETATM   26  C8  UNL     1     -32.457   6.657 -31.458  1.00  0.00     0.054 C 
HETATM   27  C7  UNL     1     -31.095   7.251 -31.225  1.00  0.00     0.027 C 
HETATM   28  C28 UNL     1     -30.621   6.788 -29.888  1.00  0.00     0.030 C 
HETATM   29  C27 UNL     1     -31.545   7.454 -28.867  1.00  0.00     0.128 C 
BRANCH  27  30
HETATM   30  C6  UNL     1     -30.166   6.988 -32.333  1.00  0.00    -0.026 A 
HETATM   31  C5  UNL     1     -30.579   6.676 -33.608  1.00  0.00     0.096 A 
HETATM   32  N1  UNL     1     -29.490   6.485 -34.373  1.00  0.00    -0.365 N 
HETATM   33  C4  UNL     1     -28.371   6.659 -33.656  1.00  0.00     0.043 A 
ATOM     34  H1  UNL     1     -29.512   6.242 -35.363  1.00  0.00     0.165 HD
HETATM   35  C3  UNL     1     -27.019   6.596 -33.911  1.00  0.00     0.039 A 
HETATM   36  C29 UNL     1     -28.805   6.976 -32.374  1.00  0.00     0.001 A 
HETATM   37  C2  UNL     1     -26.062   6.837 -32.942  1.00  0.00    -0.027 A 
HETATM   38  C1  UNL     1     -24.610   6.755 -33.300  1.00  0.00     0.051 C 
HETATM   39  C31 UNL     1     -26.492   7.152 -31.674  1.00  0.00     0.072 A 
HETATM   40  C30 UNL     1     -27.867   7.213 -31.419  1.00  0.00     0.051 A 
BRANCH  39  41
HETATM   41  O3  UNL     1     -25.565   7.396 -30.693  1.00  0.00    -0.360 OA
ATOM     42  H3  UNL     1     -25.407   8.291 -30.416  1.00  0.00     0.217 HD
ENDBRANCH  39  41
ENDBRANCH  27  30
ENDBRANCH   1  24
TORSDOF 11
ENDMDL
MODEL 3
REMARK VINA RESULT: -7.382668198      2.797      3.476
REMARK  11 active torsions:
REMARK  status: ('A' for Active; 'I' for Inactive)
REMARK    1  A    between atoms: C6_8  and  C7_9 
REMARK    2  A    between atoms: N2_12  and  C10_13 
REMARK    3  A    between atoms: C11_14  and  C12_15 
REMARK    4  A    between atoms: C12_15  and  C13_16 
REMARK    5  A    between atoms: C13_16  and  C14_17 
REMARK    6  A    between atoms: C14_17  and  O1_18 
REMARK    7  A    between atoms: O1_18  and  C15_19 
REMARK    8  A    between atoms: C15_19  and  N3_21 
REMARK    9  A    between atoms: C18_24  and  O2_25 
REMARK   10  A    between atoms: O2_25  and  C19_26 
REMARK   11  A    between atoms: C31_40  and  O3_41 
ROOT
HETATM    1  C10 UNL     1     -32.766   3.050 -39.962  1.00  0.00     0.089 C 
HETATM    2  C11 UNL     1     -31.816   2.309 -40.763  1.00  0.00     0.013 C 
ENDROOT
BRANCH   2   3
HETATM    3  C12 UNL     1     -30.592   1.651 -40.357  1.00  0.00    -0.023 C 
BRANCH   3   4
HETATM    4  C13 UNL     1     -30.578   0.354 -39.631  1.00  0.00     0.054 C 
BRANCH   4   5
HETATM    5  C14 UNL     1     -30.255   0.559 -38.143  1.00  0.00     0.182 C 
BRANCH   5   6
HETATM    6  O1  UNL     1     -30.023  -0.697 -37.542  1.00  0.00    -0.327 OA
BRANCH   6   7
HETATM    7  C15 UNL     1     -30.684  -1.195 -36.470  1.00  0.00     0.212 C 
HETATM    8  S1  UNL     1     -32.307  -1.019 -36.377  1.00  0.00    -0.033 SA
BRANCH   7   9
HETATM    9  N3  UNL     1     -29.958  -1.881 -35.409  1.00  0.00    -0.351 N 
HETATM   10  C16 UNL     1     -28.566  -2.024 -35.616  1.00  0.00     0.128 C 
HETATM   11  C17 UNL     1     -27.839  -2.677 -34.518  1.00  0.00     0.054 C 
HETATM   12  C18 UNL     1     -28.660  -3.706 -33.764  1.00  0.00     0.150 C 
HETATM   13  C25 UNL     1     -29.931  -3.063 -33.233  1.00  0.00     0.130 C 
HETATM   14 CL1  UNL     1     -30.927  -4.363 -32.553  1.00  0.00    -0.121 Cl
HETATM   15  C26 UNL     1     -30.678  -2.333 -34.272  1.00  0.00     0.148 C 
BRANCH  12  16
HETATM   16  O2  UNL     1     -27.916  -4.114 -32.672  1.00  0.00    -0.344 OA
BRANCH  16  17
HETATM   17  C19 UNL     1     -27.348  -5.336 -32.474  1.00  0.00     0.072 A 
HETATM   18  C20 UNL     1     -27.474  -6.045 -31.312  1.00  0.00     0.037 A 
HETATM   19  C21 UNL     1     -26.875  -7.296 -31.150  1.00  0.00     0.006 A 
HETATM   20  C22 UNL     1     -26.133  -7.867 -32.154  1.00  0.00     0.042 A 
HETATM   21  C23 UNL     1     -25.991  -7.166 -33.345  1.00  0.00     0.119 A 
HETATM   22  F1  UNL     1     -25.261  -7.758 -34.308  1.00  0.00    -0.206 F 
HETATM   23  C24 UNL     1     -26.586  -5.941 -33.484  1.00  0.00     0.079 A 
ENDBRANCH  16  17
ENDBRANCH  12  16
ENDBRANCH   7   9
ENDBRANCH   6   7
ENDBRANCH   5   6
ENDBRANCH   4   5
ENDBRANCH   3   4
ENDBRANCH   2   3
BRANCH   1  24
HETATM   24  N2  UNL     1     -32.457   4.142 -39.189  1.00  0.00    -0.370 N 
HETATM   25  C9  UNL     1     -31.417   5.029 -39.503  1.00  0.00     0.064 C 
HETATM   26  C8  UNL     1     -30.155   4.831 -38.678  1.00  0.00     0.054 C 
HETATM   27  C7  UNL     1     -30.543   4.830 -37.225  1.00  0.00     0.027 C 
HETATM   28  C28 UNL     1     -31.471   3.682 -37.004  1.00  0.00     0.030 C 
HETATM   29  C27 UNL     1     -32.747   4.026 -37.775  1.00  0.00     0.128 C 
BRANCH  27  30
HETATM   30  C6  UNL     1     -29.380   4.863 -36.328  1.00  0.00    -0.026 A 
HETATM   31  C5  UNL     1     -28.209   4.186 -36.585  1.00  0.00     0.096 A 
HETATM   32  N1  UNL     1     -27.356   4.414 -35.570  1.00  0.00    -0.365 N 
HETATM   33  C4  UNL     1     -27.914   5.215 -34.652  1.00  0.00     0.043 A 
ATOM     34  H1  UNL     1     -26.413   4.031 -35.508  1.00  0.00     0.165 HD
HETATM   35  C3  UNL     1     -27.519   5.762 -33.451  1.00  0.00     0.039 A 
HETATM   36  C29 UNL     1     -29.187   5.493 -35.137  1.00  0.00     0.001 A 
HETATM   37  C2  UNL     1     -28.335   6.586 -32.698  1.00  0.00    -0.027 A 
HETATM   38  C1  UNL     1     -27.830   7.147 -31.405  1.00  0.00     0.051 C 
HETATM   39  C31 UNL     1     -29.595   6.862 -33.179  1.00  0.00     0.072 A 
HETATM   40  C30 UNL     1     -29.993   6.302 -34.399  1.00  0.00     0.051 A 
BRANCH  39  41
HETATM   41  O3  UNL     1     -30.426   7.676 -32.452  1.00  0.00    -0.360 OA
ATOM     42  H3  UNL     1     -31.348   7.457 -32.387  1.00  0.00     0.217 HD
ENDBRANCH  39  41
ENDBRANCH  27  30
ENDBRANCH   1  24
TORSDOF 11
ENDMDL
MODEL 4
REMARK VINA RESULT: -7.355229029      3.788      6.410
REMARK  11 active torsions:
REMARK  status: ('A' for Active; 'I' for Inactive)
REMARK    1  A    between atoms: C6_8  and  C7_9 
REMARK    2  A    between atoms: N2_12  and  C10_13 
REMARK    3  A    between atoms: C11_14  and  C12_15 
REMARK    4  A    between atoms: C12_15  and  C13_16 
REMARK    5  A    between atoms: C13_16  and  C14_17 
REMARK    6  A    between atoms: C14_17  and  O1_18 
REMARK    7  A    between atoms: O1_18  and  C15_19 
REMARK    8  A    between atoms: C15_19  and  N3_21 
REMARK    9  A    between atoms: C18_24  and  O2_25 
REMARK   10  A    between atoms: O2_25  and  C19_26 
REMARK   11  A    between atoms: C31_40  and  O3_41 
ROOT
HETATM    1  C10 UNL     1     -33.538   7.551 -31.433  1.00  0.00     0.089 C 
HETATM    2  C11 UNL     1     -34.325   6.677 -32.276  1.00  0.00     0.013 C 
ENDROOT
BRANCH   2   3
HETATM    3  C12 UNL     1     -33.946   5.433 -32.912  1.00  0.00    -0.023 C 
BRANCH   3   4
HETATM    4  C13 UNL     1     -33.757   5.303 -34.381  1.00  0.00     0.054 C 
BRANCH   4   5
HETATM    5  C14 UNL     1     -34.172   3.906 -34.868  1.00  0.00     0.182 C 
BRANCH   5   6
HETATM    6  O1  UNL     1     -33.234   2.958 -34.405  1.00  0.00    -0.327 OA
BRANCH   6   7
HETATM    7  C15 UNL     1     -33.531   1.770 -33.826  1.00  0.00     0.212 C 
HETATM    8  S1  UNL     1     -34.865   1.646 -32.889  1.00  0.00    -0.033 SA
BRANCH   7   9
HETATM    9  N3  UNL     1     -32.670   0.613 -34.034  1.00  0.00    -0.351 N 
HETATM   10  C16 UNL     1     -32.593  -0.294 -32.950  1.00  0.00     0.128 C 
HETATM   11  C17 UNL     1     -31.757  -1.479 -33.191  1.00  0.00     0.054 C 
HETATM   12  C18 UNL     1     -30.589  -1.226 -34.126  1.00  0.00     0.150 C 
HETATM   13  C25 UNL     1     -31.097  -0.676 -35.448  1.00  0.00     0.130 C 
HETATM   14 CL1  UNL     1     -29.674  -0.213 -36.400  1.00  0.00    -0.121 Cl
HETATM   15  C26 UNL     1     -31.997   0.478 -35.277  1.00  0.00     0.148 C 
BRANCH  12  16
HETATM   16  O2  UNL     1     -29.995  -2.447 -34.388  1.00  0.00    -0.344 OA
BRANCH  16  17
HETATM   17  C19 UNL     1     -28.692  -2.789 -34.184  1.00  0.00     0.072 A 
HETATM   18  C20 UNL     1     -27.896  -3.331 -35.153  1.00  0.00     0.037 A 
HETATM   19  C21 UNL     1     -26.564  -3.668 -34.902  1.00  0.00     0.006 A 
HETATM   20  C22 UNL     1     -25.998  -3.466 -33.669  1.00  0.00     0.042 A 
HETATM   21  C23 UNL     1     -26.787  -2.915 -32.666  1.00  0.00     0.119 A 
HETATM   22  F1  UNL     1     -26.198  -2.728 -31.471  1.00  0.00    -0.206 F 
HETATM   23  C24 UNL     1     -28.090  -2.592 -32.933  1.00  0.00     0.079 A 
ENDBRANCH  16  17
ENDBRANCH  12  16
ENDBRANCH   7   9
ENDBRANCH   6   7
ENDBRANCH   5   6
ENDBRANCH   4   5
ENDBRANCH   3   4
ENDBRANCH   2   3
BRANCH   1  24
HETATM   24  N2  UNL     1     -32.343   8.122 -31.796  1.00  0.00    -0.370 N 
HETATM   25  C9  UNL     1     -32.105   8.647 -33.074  1.00  0.00     0.064 C 
HETATM   26  C8  UNL     1     -31.269   7.749 -33.973  1.00  0.00     0.054 C 
HETATM   27  C7  UNL     1     -30.022   7.369 -33.223  1.00  0.00     0.027 C 
HETATM   28  C28 UNL     1     -30.438   6.611 -32.007  1.00  0.00     0.030 C 
HETATM   29  C27 UNL     1     -31.165   7.621 -31.118  1.00  0.00     0.128 C 
BRANCH  27  30
HETATM   30  C6  UNL     1     -29.040   6.681 -34.071  1.00  0.00    -0.026 A 
HETATM   31  C5  UNL     1     -27.687   6.933 -34.017  1.00  0.00     0.096 A 
HETATM   32  N1  UNL     1     -27.073   6.151 -34.924  1.00  0.00    -0.365 N 
HETATM   33  C4  UNL     1     -27.964   5.392 -35.576  1.00  0.00     0.043 A 
ATOM     34  H1  UNL     1     -26.068   6.138 -35.092  1.00  0.00     0.165 HD
HETATM   35  C3  UNL     1     -27.906   4.440 -36.570  1.00  0.00     0.039 A 
HETATM   36  C29 UNL     1     -29.199   5.731 -35.034  1.00  0.00     0.001 A 
HETATM   37  C2  UNL     1     -29.029   3.797 -37.058  1.00  0.00    -0.027 A 
HETATM   38  C1  UNL     1     -28.883   2.769 -38.137  1.00  0.00     0.051 C 
HETATM   39  C31 UNL     1     -30.250   4.132 -36.520  1.00  0.00     0.072 A 
HETATM   40  C30 UNL     1     -30.305   5.102 -35.511  1.00  0.00     0.051 A 
BRANCH  39  41
HETATM   41  O3  UNL     1     -31.381   3.511 -36.985  1.00  0.00    -0.360 OA
ATOM     42  H3  UNL     1     -31.544   2.605 -36.749  1.00  0.00     0.217 HD
ENDBRANCH  39  41
ENDBRANCH  27  30
ENDBRANCH   1  24
TORSDOF 11
ENDMDL
MODEL 5
REMARK VINA RESULT: -7.278514690      1.691      2.180
REMARK  11 active torsions:
REMARK  status: ('A' for Active; 'I' for Inactive)
REMARK    1  A    between atoms: C6_8  and  C7_9 
REMARK    2  A    between atoms: N2_12  and  C10_13 
REMARK    3  A    between atoms: C11_14  and  C12_15 
REMARK    4  A    between atoms: C12_15  and  C13_16 
REMARK    5  A    between atoms: C13_16  and  C14_17 
REMARK    6  A    between atoms: C14_17  and  O1_18 
REMARK    7  A    between atoms: O1_18  and  C15_19 
REMARK    8  A    between atoms: C15_19  and  N3_21 
REMARK    9  A    between atoms: C18_24  and  O2_25 
REMARK   10  A    between atoms: O2_25  and  C19_26 
REMARK   11  A    between atoms: C31_40  and  O3_41 
ROOT
HETATM    1  C10 UNL     1     -29.781   1.715 -39.867  1.00  0.00     0.089 C 
HETATM    2  C11 UNL     1     -30.302   0.690 -38.990  1.00  0.00     0.013 C 
ENDROOT
BRANCH   2   3
HETATM    3  C12 UNL     1     -31.288   0.801 -37.936  1.00  0.00    -0.023 C 
BRANCH   3   4
HETATM    4  C13 UNL     1     -30.924   0.914 -36.499  1.00  0.00     0.054 C 
BRANCH   4   5
HETATM    5  C14 UNL     1     -31.546  -0.228 -35.682  1.00  0.00     0.182 C 
BRANCH   5   6
HETATM    6  O1  UNL     1     -30.590  -0.713 -34.764  1.00  0.00    -0.327 OA
BRANCH   6   7
HETATM    7  C15 UNL     1     -30.313  -2.018 -34.525  1.00  0.00     0.212 C 
HETATM    8  S1  UNL     1     -31.049  -2.778 -33.279  1.00  0.00    -0.033 SA
BRANCH   7   9
HETATM    9  N3  UNL     1     -29.368  -2.738 -35.370  1.00  0.00    -0.351 N 
HETATM   10  C16 UNL     1     -28.271  -1.979 -35.841  1.00  0.00     0.128 C 
HETATM   11  C17 UNL     1     -27.302  -2.730 -36.654  1.00  0.00     0.054 C 
HETATM   12  C18 UNL     1     -27.920  -3.857 -37.460  1.00  0.00     0.150 C 
HETATM   13  C25 UNL     1     -28.662  -4.806 -36.533  1.00  0.00     0.130 C 
HETATM   14 CL1  UNL     1     -29.523  -5.967 -37.560  1.00  0.00    -0.121 Cl
HETATM   15  C26 UNL     1     -29.606  -4.111 -35.641  1.00  0.00     0.148 C 
BRANCH  12  16
HETATM   16  O2  UNL     1     -26.886  -4.569 -38.039  1.00  0.00    -0.344 OA
BRANCH  16  17
HETATM   17  C19 UNL     1     -26.773  -4.941 -39.344  1.00  0.00     0.072 A 
HETATM   18  C20 UNL     1     -27.314  -4.230 -40.379  1.00  0.00     0.037 A 
HETATM   19  C21 UNL     1     -27.174  -4.646 -41.705  1.00  0.00     0.006 A 
HETATM   20  C22 UNL     1     -26.487  -5.789 -42.024  1.00  0.00     0.042 A 
HETATM   21  C23 UNL     1     -25.928  -6.531 -40.990  1.00  0.00     0.119 A 
HETATM   22  F1  UNL     1     -25.258  -7.643 -41.342  1.00  0.00    -0.206 F 
HETATM   23  C24 UNL     1     -26.075  -6.105 -39.698  1.00  0.00     0.079 A 
ENDBRANCH  16  17
ENDBRANCH  12  16
ENDBRANCH   7   9
ENDBRANCH   6   7
ENDBRANCH   5   6
ENDBRANCH   4   5
ENDBRANCH   3   4
ENDBRANCH   2   3
BRANCH   1  24
HETATM   24  N2  UNL     1     -29.174   2.874 -39.446  1.00  0.00    -0.370 N 
HETATM   25  C9  UNL     1     -28.163   2.895 -38.474  1.00  0.00     0.064 C 
HETATM   26  C8  UNL     1     -28.629   3.340 -37.097  1.00  0.00     0.054 C 
HETATM   27  C7  UNL     1     -29.362   4.645 -37.251  1.00  0.00     0.027 C 
HETATM   28  C28 UNL     1     -30.546   4.399 -38.125  1.00  0.00     0.030 C 
HETATM   29  C27 UNL     1     -29.980   4.075 -39.509  1.00  0.00     0.128 C 
BRANCH  27  30
HETATM   30  C6  UNL     1     -29.668   5.277 -35.961  1.00  0.00    -0.026 A 
HETATM   31  C5  UNL     1     -30.951   5.531 -35.529  1.00  0.00     0.096 A 
HETATM   32  N1  UNL     1     -30.884   6.123 -34.324  1.00  0.00    -0.365 N 
HETATM   33  C4  UNL     1     -29.609   6.271 -33.938  1.00  0.00     0.043 A 
ATOM     34  H1  UNL     1     -31.693   6.418 -33.777  1.00  0.00     0.165 HD
HETATM   35  C3  UNL     1     -28.968   6.790 -32.835  1.00  0.00     0.039 A 
HETATM   36  C29 UNL     1     -28.851   5.735 -34.973  1.00  0.00     0.001 A 
HETATM   37  C2  UNL     1     -27.591   6.802 -32.706  1.00  0.00    -0.027 A 
HETATM   38  C1  UNL     1     -26.969   7.380 -31.471  1.00  0.00     0.051 C 
HETATM   39  C31 UNL     1     -26.841   6.271 -33.730  1.00  0.00     0.072 A 
HETATM   40  C30 UNL     1     -27.497   5.746 -34.850  1.00  0.00     0.051 A 
BRANCH  39  41
HETATM   41  O3  UNL     1     -25.473   6.271 -33.629  1.00  0.00    -0.360 OA
ATOM     42  H3  UNL     1     -25.021   5.453 -33.460  1.00  0.00     0.217 HD
ENDBRANCH  39  41
ENDBRANCH  27  30
ENDBRANCH   1  24
TORSDOF 11
ENDMDL
