MODEL 1
REMARK VINA RESULT: -6.664318238      0.000      0.000
REMARK  11 active torsions:
REMARK  status: ('A' for Active; 'I' for Inactive)
REMARK    1  A    between atoms: C2_2  and  O1_4 
REMARK    2  A    between atoms: C2_2  and  C4_6 
REMARK    3  A    between atoms: C4_6  and  C5_7 
REMARK    4  A    between atoms: C5_7  and  C6_8 
REMARK    5  A    between atoms: C6_8  and  O2_9 
REMARK    6  A    between atoms: C15_20  and  O4_21 
REMARK    7  A    between atoms: O4_21  and  C16_22 
REMARK    8  A    between atoms: C16_22  and  C17_23 
REMARK    9  A    between atoms: C17_23  and  C18_24 
REMARK   10  A    between atoms: C18_24  and  O5_25 
REMARK   11  A    between atoms: O5_25  and  C19_26 
ROOT
HETATM    1  C5  UNL     1     -29.345  -3.744 -34.866  1.00  0.00    -0.009 C 
HETATM    2  C7  UNL     1     -28.484  -3.581 -36.104  1.00  0.00     0.013 C 
HETATM    3  C8  UNL     1     -28.104  -2.121 -36.139  1.00  0.00     0.007 C 
HETATM    4  C9  UNL     1     -29.275  -1.420 -35.488  1.00  0.00    -0.001 C 
HETATM    5  C10 UNL     1     -29.803  -0.451 -36.483  1.00  0.00     0.002 C 
HETATM    6  C11 UNL     1     -30.526   0.698 -35.901  1.00  0.00     0.084 C 
HETATM    7  C12 UNL     1     -31.654   1.209 -36.700  1.00  0.00     0.132 C 
HETATM    8  O3  UNL     1     -32.208   2.213 -36.246  1.00  0.00    -0.298 OA
HETATM    9  C13 UNL     1     -32.177   0.664 -37.949  1.00  0.00     0.066 C 
HETATM   10  C14 UNL     1     -32.748   1.659 -38.882  1.00  0.00     0.044 C 
HETATM   11  C15 UNL     1     -31.710   2.531 -39.607  1.00  0.00     0.122 C 
HETATM   12  C25 UNL     1     -30.652   1.655 -40.236  1.00  0.00     0.033 C 
HETATM   13  C26 UNL     1     -30.104   0.599 -39.348  1.00  0.00     0.013 C 
HETATM   14  C27 UNL     1     -31.138  -0.171 -38.599  1.00  0.00    -0.029 C 
HETATM   15  C28 UNL     1     -31.873  -1.078 -39.600  1.00  0.00     0.016 C 
HETATM   16  C29 UNL     1     -30.465  -1.134 -37.633  1.00  0.00    -0.001 C 
HETATM   17  C30 UNL     1     -31.356  -2.286 -37.263  1.00  0.00     0.006 C 
HETATM   18  C31 UNL     1     -31.430  -2.546 -35.789  1.00  0.00     0.011 C 
HETATM   19  C32 UNL     1     -30.201  -2.502 -35.012  1.00  0.00    -0.030 C 
HETATM   20  C33 UNL     1     -30.642  -2.162 -33.561  1.00  0.00     0.016 C 
ENDROOT
BRANCH  11  21
HETATM   21  O4  UNL     1     -31.155   3.355 -38.706  1.00  0.00    -0.386 OA
BRANCH  21  22
HETATM   22  C16 UNL     1     -30.086   4.063 -38.963  1.00  0.00     0.170 C 
BRANCH  22  23
HETATM   23  C17 UNL     1     -28.799   3.840 -38.274  1.00  0.00     0.053 C 
BRANCH  23  24
HETATM   24  C18 UNL     1     -28.777   3.408 -36.869  1.00  0.00     0.178 C 
BRANCH  24  25
HETATM   25  O5  UNL     1     -27.829   4.266 -36.192  1.00  0.00    -0.351 OA
BRANCH  25  26
HETATM   26  C19 UNL     1     -28.264   5.118 -35.185  1.00  0.00     0.071 A 
HETATM   27  C20 UNL     1     -27.468   5.461 -34.110  1.00  0.00     0.060 A 
HETATM   28  C21 UNL     1     -27.945   6.308 -33.137  1.00  0.00     0.038 A 
HETATM   29 CL1  UNL     1     -26.896   6.717 -31.787  1.00  0.00    -0.084 Cl
HETATM   30  C22 UNL     1     -29.214   6.842 -33.194  1.00  0.00     0.048 A 
HETATM   31  C23 UNL     1     -30.021   6.505 -34.269  1.00  0.00     0.038 A 
HETATM   32 CL2  UNL     1     -31.618   7.186 -34.330  1.00  0.00    -0.084 Cl
HETATM   33  C24 UNL     1     -29.533   5.646 -35.251  1.00  0.00     0.060 A 
ENDBRANCH  25  26
ENDBRANCH  24  25
ENDBRANCH  23  24
ENDBRANCH  22  23
ENDBRANCH  21  22
ENDBRANCH  11  21
BRANCH   1  34
HETATM   34  C4  UNL     1     -28.547  -3.676 -33.608  1.00  0.00     0.049 C 
BRANCH  34  35
HETATM   35  C2  UNL     1     -27.393  -4.493 -33.321  1.00  0.00     0.051 C 
HETATM   36  C1  UNL     1     -26.283  -3.411 -33.045  1.00  0.00     0.045 C 
HETATM   37  C3  UNL     1     -27.323  -5.329 -32.100  1.00  0.00     0.045 C 
BRANCH  35  38
HETATM   38  O1  UNL     1     -26.823  -5.143 -34.437  1.00  0.00    -0.391 OA
ATOM     39  H1  UNL     1     -27.613  -5.447 -34.869  1.00  0.00     0.210 HD
ENDBRANCH  35  38
ENDBRANCH  34  35
ENDBRANCH   1  34
BRANCH   1  40
HETATM   40  C6  UNL     1     -30.094  -5.040 -34.871  1.00  0.00     0.174 C 
BRANCH  40  41
HETATM   41  O2  UNL     1     -29.496  -6.067 -35.597  1.00  0.00    -0.400 OA
ATOM     42  H2  UNL     1     -29.963  -6.894 -35.586  1.00  0.00     0.209 HD
ENDBRANCH  40  41
ENDBRANCH   1  40
TORSDOF 11
ENDMDL
MODEL 2
REMARK VINA RESULT: -6.648535655      1.808      3.403
REMARK  11 active torsions:
REMARK  status: ('A' for Active; 'I' for Inactive)
REMARK    1  A    between atoms: C2_2  and  O1_4 
REMARK    2  A    between atoms: C2_2  and  C4_6 
REMARK    3  A    between atoms: C4_6  and  C5_7 
REMARK    4  A    between atoms: C5_7  and  C6_8 
REMARK    5  A    between atoms: C6_8  and  O2_9 
REMARK    6  A    between atoms: C15_20  and  O4_21 
REMARK    7  A    between atoms: O4_21  and  C16_22 
REMARK    8  A    between atoms: C16_22  and  C17_23 
REMARK    9  A    between atoms: C17_23  and  C18_24 
REMARK   10  A    between atoms: C18_24  and  O5_25 
REMARK   11  A    between atoms: O5_25  and  C19_26 
ROOT
HETATM    1  C5  UNL     1     -27.872  -5.117 -33.643  1.00  0.00    -0.009 C 
HETATM    2  C7  UNL     1     -29.137  -5.664 -34.275  1.00  0.00     0.013 C 
HETATM    3  C8  UNL     1     -29.157  -5.108 -35.678  1.00  0.00     0.007 C 
HETATM    4  C9  UNL     1     -28.449  -3.777 -35.558  1.00  0.00    -0.001 C 
HETATM    5  C10 UNL     1     -29.404  -2.738 -36.022  1.00  0.00     0.002 C 
HETATM    6  C11 UNL     1     -28.773  -1.501 -36.527  1.00  0.00     0.084 C 
HETATM    7  C12 UNL     1     -29.520  -0.258 -36.269  1.00  0.00     0.132 C 
HETATM    8  O3  UNL     1     -29.025   0.763 -36.756  1.00  0.00    -0.298 OA
HETATM    9  C13 UNL     1     -30.759  -0.105 -35.513  1.00  0.00     0.066 C 
HETATM   10  C14 UNL     1     -31.650   0.982 -35.974  1.00  0.00     0.044 C 
HETATM   11  C15 UNL     1     -32.395   0.689 -37.286  1.00  0.00     0.122 C 
HETATM   12  C25 UNL     1     -33.080  -0.655 -37.201  1.00  0.00     0.033 C 
HETATM   13  C26 UNL     1     -32.235  -1.756 -36.676  1.00  0.00     0.013 C 
HETATM   14  C27 UNL     1     -31.463  -1.408 -35.448  1.00  0.00    -0.029 C 
HETATM   15  C28 UNL     1     -32.454  -1.308 -34.277  1.00  0.00     0.016 C 
HETATM   16  C29 UNL     1     -30.542  -2.558 -35.074  1.00  0.00    -0.001 C 
HETATM   17  C30 UNL     1     -30.163  -2.536 -33.620  1.00  0.00     0.006 C 
HETATM   18  C31 UNL     1     -28.693  -2.691 -33.375  1.00  0.00     0.011 C 
HETATM   19  C32 UNL     1     -27.961  -3.688 -34.139  1.00  0.00    -0.030 C 
HETATM   20  C33 UNL     1     -26.488  -3.192 -34.162  1.00  0.00     0.016 C 
ENDROOT
BRANCH  11  21
HETATM   21  O4  UNL     1     -31.498   0.689 -38.284  1.00  0.00    -0.386 OA
BRANCH  21  22
HETATM   22  C16 UNL     1     -31.394   1.674 -39.139  1.00  0.00     0.170 C 
BRANCH  22  23
HETATM   23  C17 UNL     1     -30.091   2.212 -39.578  1.00  0.00     0.053 C 
BRANCH  23  24
HETATM   24  C18 UNL     1     -29.775   3.635 -39.383  1.00  0.00     0.178 C 
BRANCH  24  25
HETATM   25  O5  UNL     1     -28.842   3.699 -38.278  1.00  0.00    -0.351 OA
BRANCH  25  26
HETATM   26  C19 UNL     1     -29.170   4.420 -37.138  1.00  0.00     0.071 A 
HETATM   27  C20 UNL     1     -30.463   4.509 -36.664  1.00  0.00     0.060 A 
HETATM   28  C21 UNL     1     -30.738   5.237 -35.530  1.00  0.00     0.038 A 
HETATM   29 CL1  UNL     1     -32.399   5.321 -34.963  1.00  0.00    -0.084 Cl
HETATM   30  C22 UNL     1     -29.750   5.895 -34.830  1.00  0.00     0.048 A 
HETATM   31  C23 UNL     1     -28.447   5.812 -35.296  1.00  0.00     0.038 A 
HETATM   32 CL2  UNL     1     -27.211   6.645 -34.404  1.00  0.00    -0.084 Cl
HETATM   33  C24 UNL     1     -28.176   5.074 -36.446  1.00  0.00     0.060 A 
ENDBRANCH  25  26
ENDBRANCH  24  25
ENDBRANCH  23  24
ENDBRANCH  22  23
ENDBRANCH  21  22
ENDBRANCH  11  21
BRANCH   1  34
HETATM   34  C4  UNL     1     -26.642  -5.773 -34.176  1.00  0.00     0.049 C 
BRANCH  34  35
HETATM   35  C2  UNL     1     -26.314  -7.167 -34.003  1.00  0.00     0.051 C 
HETATM   36  C1  UNL     1     -25.650  -7.524 -35.386  1.00  0.00     0.045 C 
HETATM   37  C3  UNL     1     -25.277  -7.602 -33.039  1.00  0.00     0.045 C 
BRANCH  35  38
HETATM   38  O1  UNL     1     -27.414  -8.052 -34.028  1.00  0.00    -0.391 OA
ATOM     39  H1  UNL     1     -28.036  -7.553 -33.513  1.00  0.00     0.210 HD
ENDBRANCH  35  38
ENDBRANCH  34  35
ENDBRANCH   1  34
BRANCH   1  40
HETATM   40  C6  UNL     1     -27.874  -5.277 -32.154  1.00  0.00     0.174 C 
BRANCH  40  41
HETATM   41  O2  UNL     1     -28.653  -6.326 -31.674  1.00  0.00    -0.400 OA
ATOM     42  H2  UNL     1     -29.323  -6.078 -31.047  1.00  0.00     0.209 HD
ENDBRANCH  40  41
ENDBRANCH   1  40
TORSDOF 11
ENDMDL
MODEL 3
REMARK VINA RESULT: -6.625802489      1.217      1.812
REMARK  11 active torsions:
REMARK  status: ('A' for Active; 'I' for Inactive)
REMARK    1  A    between atoms: C2_2  and  O1_4 
REMARK    2  A    between atoms: C2_2  and  C4_6 
REMARK    3  A    between atoms: C4_6  and  C5_7 
REMARK    4  A    between atoms: C5_7  and  C6_8 
REMARK    5  A    between atoms: C6_8  and  O2_9 
REMARK    6  A    between atoms: C15_20  and  O4_21 
REMARK    7  A    between atoms: O4_21  and  C16_22 
REMARK    8  A    between atoms: C16_22  and  C17_23 
REMARK    9  A    between atoms: C17_23  and  C18_24 
REMARK   10  A    between atoms: C18_24  and  O5_25 
REMARK   11  A    between atoms: O5_25  and  C19_26 
ROOT
HETATM    1  C5  UNL     1     -29.470  -3.623 -35.203  1.00  0.00    -0.009 C 
HETATM    2  C7  UNL     1     -28.380  -3.251 -36.189  1.00  0.00     0.013 C 
HETATM    3  C8  UNL     1     -28.085  -1.793 -35.930  1.00  0.00     0.007 C 
HETATM    4  C9  UNL     1     -29.404  -1.230 -35.452  1.00  0.00    -0.001 C 
HETATM    5  C10 UNL     1     -29.768  -0.134 -36.386  1.00  0.00     0.002 C 
HETATM    6  C11 UNL     1     -30.661   0.894 -35.814  1.00  0.00     0.084 C 
HETATM    7  C12 UNL     1     -31.624   1.493 -36.755  1.00  0.00     0.132 C 
HETATM    8  O3  UNL     1     -32.317   2.401 -36.291  1.00  0.00    -0.298 OA
HETATM    9  C13 UNL     1     -31.842   1.133 -38.153  1.00  0.00     0.066 C 
HETATM   10  C14 UNL     1     -32.262   2.245 -39.033  1.00  0.00     0.044 C 
HETATM   11  C15 UNL     1     -31.147   3.244 -39.383  1.00  0.00     0.122 C 
HETATM   12  C25 UNL     1     -29.931   2.502 -39.889  1.00  0.00     0.033 C 
HETATM   13  C26 UNL     1     -29.522   1.336 -39.067  1.00  0.00     0.013 C 
HETATM   14  C27 UNL     1     -30.643   0.434 -38.677  1.00  0.00    -0.029 C 
HETATM   15  C28 UNL     1     -31.100  -0.326 -39.933  1.00  0.00     0.016 C 
HETATM   16  C29 UNL     1     -30.134  -0.648 -37.739  1.00  0.00    -0.001 C 
HETATM   17  C30 UNL     1     -31.014  -1.865 -37.740  1.00  0.00     0.006 C 
HETATM   18  C31 UNL     1     -31.380  -2.351 -36.370  1.00  0.00     0.011 C 
HETATM   19  C32 UNL     1     -30.346  -2.396 -35.348  1.00  0.00    -0.030 C 
HETATM   20  C33 UNL     1     -31.100  -2.294 -33.993  1.00  0.00     0.016 C 
ENDROOT
BRANCH  11  21
HETATM   21  O4  UNL     1     -30.840   3.933 -38.274  1.00  0.00    -0.386 OA
BRANCH  21  22
HETATM   22  C16 UNL     1     -29.694   4.543 -38.117  1.00  0.00     0.170 C 
BRANCH  22  23
HETATM   23  C17 UNL     1     -28.855   4.363 -36.915  1.00  0.00     0.053 C 
BRANCH  23  24
HETATM   24  C18 UNL     1     -28.243   5.528 -36.259  1.00  0.00     0.178 C 
BRANCH  24  25
HETATM   25  O5  UNL     1     -28.942   5.706 -35.005  1.00  0.00    -0.351 OA
BRANCH  25  26
HETATM   26  C19 UNL     1     -28.272   6.231 -33.908  1.00  0.00     0.071 A 
HETATM   27  C20 UNL     1     -28.929   6.649 -32.769  1.00  0.00     0.060 A 
HETATM   28  C21 UNL     1     -28.221   7.164 -31.708  1.00  0.00     0.038 A 
HETATM   29 CL1  UNL     1     -29.100   7.682 -30.278  1.00  0.00    -0.084 Cl
HETATM   30  C22 UNL     1     -26.847   7.280 -31.737  1.00  0.00     0.048 A 
HETATM   31  C23 UNL     1     -26.177   6.862 -32.877  1.00  0.00     0.038 A 
HETATM   32 CL2  UNL     1     -24.446   7.013 -32.900  1.00  0.00    -0.084 Cl
HETATM   33  C24 UNL     1     -26.900   6.343 -33.947  1.00  0.00     0.060 A 
ENDBRANCH  25  26
ENDBRANCH  24  25
ENDBRANCH  23  24
ENDBRANCH  22  23
ENDBRANCH  21  22
ENDBRANCH  11  21
BRANCH   1  34
HETATM   34  C4  UNL     1     -28.958  -3.729 -33.806  1.00  0.00     0.049 C 
BRANCH  34  35
HETATM   35  C2  UNL     1     -27.837  -4.542 -33.400  1.00  0.00     0.051 C 
HETATM   36  C1  UNL     1     -26.890  -3.483 -32.720  1.00  0.00     0.045 C 
HETATM   37  C3  UNL     1     -27.971  -5.566 -32.339  1.00  0.00     0.045 C 
BRANCH  35  38
HETATM   38  O1  UNL     1     -26.998  -4.977 -34.449  1.00  0.00    -0.391 OA
ATOM     39  H1  UNL     1     -27.096  -5.917 -34.356  1.00  0.00     0.210 HD
ENDBRANCH  35  38
ENDBRANCH  34  35
ENDBRANCH   1  34
BRANCH   1  40
HETATM   40  C6  UNL     1     -30.125  -4.922 -35.556  1.00  0.00     0.174 C 
BRANCH  40  41
HETATM   41  O2  UNL     1     -29.319  -5.823 -36.247  1.00  0.00    -0.400 OA
ATOM     42  H2  UNL     1     -29.702  -6.182 -37.039  1.00  0.00     0.209 HD
ENDBRANCH  40  41
ENDBRANCH   1  40
TORSDOF 11
ENDMDL
MODEL 4
REMARK VINA RESULT: -6.547119171      3.382      8.611
REMARK  11 active torsions:
REMARK  status: ('A' for Active; 'I' for Inactive)
REMARK    1  A    between atoms: C2_2  and  O1_4 
REMARK    2  A    between atoms: C2_2  and  C4_6 
REMARK    3  A    between atoms: C4_6  and  C5_7 
REMARK    4  A    between atoms: C5_7  and  C6_8 
REMARK    5  A    between atoms: C6_8  and  O2_9 
REMARK    6  A    between atoms: C15_20  and  O4_21 
REMARK    7  A    between atoms: O4_21  and  C16_22 
REMARK    8  A    between atoms: C16_22  and  C17_23 
REMARK    9  A    between atoms: C17_23  and  C18_24 
REMARK   10  A    between atoms: C18_24  and  O5_25 
REMARK   11  A    between atoms: O5_25  and  C19_26 
ROOT
HETATM    1  C5  UNL     1     -30.758   1.113 -37.787  1.00  0.00    -0.009 C 
HETATM    2  C7  UNL     1     -29.970   1.186 -36.494  1.00  0.00     0.013 C 
HETATM    3  C8  UNL     1     -29.114  -0.058 -36.474  1.00  0.00     0.007 C 
HETATM    4  C9  UNL     1     -29.933  -1.079 -37.232  1.00  0.00    -0.001 C 
HETATM    5  C10 UNL     1     -30.156  -2.222 -36.309  1.00  0.00     0.002 C 
HETATM    6  C11 UNL     1     -30.405  -3.516 -36.978  1.00  0.00     0.084 C 
HETATM    7  C12 UNL     1     -31.335  -4.421 -36.281  1.00  0.00     0.132 C 
HETATM    8  O3  UNL     1     -31.483  -5.528 -36.806  1.00  0.00    -0.298 OA
HETATM    9  C13 UNL     1     -32.088  -4.155 -35.059  1.00  0.00     0.066 C 
HETATM   10  C14 UNL     1     -32.339  -5.333 -34.202  1.00  0.00     0.044 C 
HETATM   11  C15 UNL     1     -31.111  -5.839 -33.428  1.00  0.00     0.122 C 
HETATM   12  C25 UNL     1     -30.456  -4.691 -32.695  1.00  0.00     0.033 C 
HETATM   13  C26 UNL     1     -30.251  -3.465 -33.507  1.00  0.00     0.013 C 
HETATM   14  C27 UNL     1     -31.439  -3.052 -34.308  1.00  0.00    -0.029 C 
HETATM   15  C28 UNL     1     -32.499  -2.505 -33.339  1.00  0.00     0.016 C 
HETATM   16  C29 UNL     1     -31.080  -1.868 -35.192  1.00  0.00    -0.001 C 
HETATM   17  C30 UNL     1     -32.287  -1.069 -35.592  1.00  0.00     0.006 C 
HETATM   18  C31 UNL     1     -32.357  -0.770 -37.059  1.00  0.00     0.011 C 
HETATM   19  C32 UNL     1     -31.144  -0.352 -37.743  1.00  0.00    -0.030 C 
HETATM   20  C33 UNL     1     -31.353  -0.743 -39.233  1.00  0.00     0.016 C 
ENDROOT
BRANCH  11  21
HETATM   21  O4  UNL     1     -30.253  -6.375 -34.310  1.00  0.00    -0.386 OA
BRANCH  21  22
HETATM   22  C16 UNL     1     -30.109  -7.666 -34.458  1.00  0.00     0.170 C 
BRANCH  22  23
HETATM   23  C17 UNL     1     -28.839  -8.363 -34.172  1.00  0.00     0.053 C 
BRANCH  23  24
HETATM   24  C18 UNL     1     -27.897  -7.809 -33.187  1.00  0.00     0.178 C 
BRANCH  24  25
HETATM   25  O5  UNL     1     -26.795  -7.255 -33.944  1.00  0.00    -0.351 OA
BRANCH  25  26
HETATM   26  C19 UNL     1     -26.771  -5.897 -34.235  1.00  0.00     0.071 A 
HETATM   27  C20 UNL     1     -26.801  -5.417 -35.528  1.00  0.00     0.060 A 
HETATM   28  C21 UNL     1     -26.774  -4.062 -35.766  1.00  0.00     0.038 A 
HETATM   29 CL1  UNL     1     -26.815  -3.496 -37.429  1.00  0.00    -0.084 Cl
HETATM   30  C22 UNL     1     -26.718  -3.143 -34.740  1.00  0.00     0.048 A 
HETATM   31  C23 UNL     1     -26.688  -3.615 -33.436  1.00  0.00     0.038 A 
HETATM   32 CL2  UNL     1     -26.620  -2.447 -32.152  1.00  0.00    -0.084 Cl
HETATM   33  C24 UNL     1     -26.716  -4.988 -33.203  1.00  0.00     0.060 A 
ENDBRANCH  25  26
ENDBRANCH  24  25
ENDBRANCH  23  24
ENDBRANCH  22  23
ENDBRANCH  21  22
ENDBRANCH  11  21
BRANCH   1  34
HETATM   34  C4  UNL     1     -29.911   1.388 -38.984  1.00  0.00     0.049 C 
BRANCH  34  35
HETATM   35  C2  UNL     1     -29.073   2.550 -39.148  1.00  0.00     0.051 C 
HETATM   36  C1  UNL     1     -28.748   2.509 -40.688  1.00  0.00     0.045 C 
HETATM   37  C3  UNL     1     -29.610   3.920 -38.980  1.00  0.00     0.045 C 
BRANCH  35  38
HETATM   38  O1  UNL     1     -27.767   2.430 -38.624  1.00  0.00    -0.391 OA
ATOM     39  H1  UNL     1     -27.953   1.930 -37.838  1.00  0.00     0.210 HD
ENDBRANCH  35  38
ENDBRANCH  34  35
ENDBRANCH   1  34
BRANCH   1  40
HETATM   40  C6  UNL     1     -31.904   2.075 -37.799  1.00  0.00     0.174 C 
BRANCH  40  41
HETATM   41  O2  UNL     1     -32.085   2.796 -36.622  1.00  0.00    -0.400 OA
ATOM     42  H2  UNL     1     -32.989   2.920 -36.359  1.00  0.00     0.209 HD
ENDBRANCH  40  41
ENDBRANCH   1  40
TORSDOF 11
ENDMDL
MODEL 5
REMARK VINA RESULT: -6.538379708      4.347      6.724
REMARK  11 active torsions:
REMARK  status: ('A' for Active; 'I' for Inactive)
REMARK    1  A    between atoms: C2_2  and  O1_4 
REMARK    2  A    between atoms: C2_2  and  C4_6 
REMARK    3  A    between atoms: C4_6  and  C5_7 
REMARK    4  A    between atoms: C5_7  and  C6_8 
REMARK    5  A    between atoms: C6_8  and  O2_9 
REMARK    6  A    between atoms: C15_20  and  O4_21 
REMARK    7  A    between atoms: O4_21  and  C16_22 
REMARK    8  A    between atoms: C16_22  and  C17_23 
REMARK    9  A    between atoms: C17_23  and  C18_24 
REMARK   10  A    between atoms: C18_24  and  O5_25 
REMARK   11  A    between atoms: O5_25  and  C19_26 
ROOT
HETATM    1  C5  UNL     1     -27.911  -5.087 -33.625  1.00  0.00    -0.009 C 
HETATM    2  C7  UNL     1     -29.207  -5.641 -34.183  1.00  0.00     0.013 C 
HETATM    3  C8  UNL     1     -29.299  -5.105 -35.591  1.00  0.00     0.007 C 
HETATM    4  C9  UNL     1     -28.585  -3.774 -35.526  1.00  0.00    -0.001 C 
HETATM    5  C10 UNL     1     -29.561  -2.740 -35.955  1.00  0.00     0.002 C 
HETATM    6  C11 UNL     1     -28.956  -1.512 -36.510  1.00  0.00     0.084 C 
HETATM    7  C12 UNL     1     -29.687  -0.263 -36.231  1.00  0.00     0.132 C 
HETATM    8  O3  UNL     1     -29.218   0.749 -36.757  1.00  0.00    -0.298 OA
HETATM    9  C13 UNL     1     -30.886  -0.097 -35.415  1.00  0.00     0.066 C 
HETATM   10  C14 UNL     1     -31.799   0.984 -35.845  1.00  0.00     0.044 C 
HETATM   11  C15 UNL     1     -32.611   0.674 -37.113  1.00  0.00     0.122 C 
HETATM   12  C25 UNL     1     -33.292  -0.668 -36.973  1.00  0.00     0.033 C 
HETATM   13  C26 UNL     1     -32.421  -1.763 -36.477  1.00  0.00     0.013 C 
HETATM   14  C27 UNL     1     -31.587  -1.399 -35.296  1.00  0.00    -0.029 C 
HETATM   15  C28 UNL     1     -32.516  -1.280 -34.076  1.00  0.00     0.016 C 
HETATM   16  C29 UNL     1     -30.649  -2.545 -34.952  1.00  0.00    -0.001 C 
HETATM   17  C30 UNL     1     -30.196  -2.502 -33.521  1.00  0.00     0.006 C 
HETATM   18  C31 UNL     1     -28.715  -2.656 -33.349  1.00  0.00     0.011 C 
HETATM   19  C32 UNL     1     -28.024  -3.666 -34.136  1.00  0.00    -0.030 C 
HETATM   20  C33 UNL     1     -26.554  -3.172 -34.242  1.00  0.00     0.016 C 
ENDROOT
BRANCH  11  21
HETATM   21  O4  UNL     1     -31.767   0.658 -38.156  1.00  0.00    -0.386 OA
BRANCH  21  22
HETATM   22  C16 UNL     1     -31.989  -0.051 -39.232  1.00  0.00     0.170 C 
BRANCH  22  23
HETATM   23  C17 UNL     1     -30.953  -0.902 -39.852  1.00  0.00     0.053 C 
BRANCH  23  24
HETATM   24  C18 UNL     1     -31.340  -2.027 -40.716  1.00  0.00     0.178 C 
BRANCH  24  25
HETATM   25  O5  UNL     1     -30.802  -3.220 -40.100  1.00  0.00    -0.351 OA
BRANCH  25  26
HETATM   26  C19 UNL     1     -29.472  -3.565 -40.306  1.00  0.00     0.071 A 
HETATM   27  C20 UNL     1     -28.834  -3.364 -41.513  1.00  0.00     0.060 A 
HETATM   28  C21 UNL     1     -27.515  -3.723 -41.668  1.00  0.00     0.038 A 
HETATM   29 CL1  UNL     1     -26.744  -3.449 -43.223  1.00  0.00    -0.084 Cl
HETATM   30  C22 UNL     1     -26.788  -4.286 -40.641  1.00  0.00     0.048 A 
HETATM   31  C23 UNL     1     -27.419  -4.491 -39.424  1.00  0.00     0.038 A 
HETATM   32 CL2  UNL     1     -26.491  -5.200 -38.138  1.00  0.00    -0.084 Cl
HETATM   33  C24 UNL     1     -28.754  -4.126 -39.274  1.00  0.00     0.060 A 
ENDBRANCH  25  26
ENDBRANCH  24  25
ENDBRANCH  23  24
ENDBRANCH  22  23
ENDBRANCH  21  22
ENDBRANCH  11  21
BRANCH   1  34
HETATM   34  C4  UNL     1     -26.711  -5.753 -34.211  1.00  0.00     0.049 C 
BRANCH  34  35
HETATM   35  C2  UNL     1     -26.351  -7.133 -33.998  1.00  0.00     0.051 C 
HETATM   36  C1  UNL     1     -25.761  -7.541 -35.400  1.00  0.00     0.045 C 
HETATM   37  C3  UNL     1     -25.254  -7.512 -33.078  1.00  0.00     0.045 C 
BRANCH  35  38
HETATM   38  O1  UNL     1     -27.436  -8.034 -33.922  1.00  0.00    -0.391 OA
ATOM     39  H1  UNL     1     -26.997  -8.785 -33.542  1.00  0.00     0.210 HD
ENDBRANCH  35  38
ENDBRANCH  34  35
ENDBRANCH   1  34
BRANCH   1  40
HETATM   40  C6  UNL     1     -27.837  -5.227 -32.136  1.00  0.00     0.174 C 
BRANCH  40  41
HETATM   41  O2  UNL     1     -28.588  -6.270 -31.601  1.00  0.00    -0.400 OA
ATOM     42  H2  UNL     1     -29.201  -6.018 -30.921  1.00  0.00     0.209 HD
ENDBRANCH  40  41
ENDBRANCH   1  40
TORSDOF 11
ENDMDL
