MODEL 1
REMARK VINA RESULT: -5.967133278      0.000      0.000
REMARK  11 active torsions:
REMARK  status: ('A' for Active; 'I' for Inactive)
REMARK    1  A    between atoms: C2_2  and  C3_3 
REMARK    2  A    between atoms: C3_3  and  C4_4 
REMARK    3  A    between atoms: C4_4  and  O1_5 
REMARK    4  A    between atoms: C4_4  and  C5_7 
REMARK    5  A    between atoms: C5_7  and  O2_8 
REMARK    6  A    between atoms: C5_7  and  C6_10 
REMARK    7  A    between atoms: C6_10  and  O3_11 
REMARK    8  A    between atoms: C6_10  and  C7_13 
REMARK    9  A    between atoms: C7_13  and  C8_14 
REMARK   10  A    between atoms: C8_14  and  C9_15 
REMARK   11  A    between atoms: C9_15  and  C10_16 
ROOT
HETATM    1  C6  UNL     1       2.095   0.755  -0.422  1.00  0.00     0.149 C 
ENDROOT
BRANCH   1   2
HETATM    2  C5  UNL     1       1.480   2.008  -1.009  1.00  0.00     0.175 C 
BRANCH   2   3
HETATM    3  C4  UNL     1       1.875   2.149  -2.452  1.00  0.00     0.152 C 
BRANCH   3   4
HETATM    4  C3  UNL     1       3.344   2.110  -2.653  1.00  0.00     0.060 C 
BRANCH   4   5
HETATM    5  C2  UNL     1       3.754   0.924  -3.435  1.00  0.00    -0.034 C 
HETATM    6  C1  UNL     1       4.981   0.458  -3.576  1.00  0.00     0.007 C 
ENDBRANCH   4   5
ENDBRANCH   3   4
BRANCH   3   7
HETATM    7  O1  UNL     1       1.270   1.147  -3.197  1.00  0.00    -0.393 OA
ATOM      8  H1  UNL     1       0.384   1.003  -2.885  1.00  0.00     0.210 HD
ENDBRANCH   3   7
ENDBRANCH   2   3
BRANCH   2   9
HETATM    9  O2  UNL     1       0.105   2.033  -0.846  1.00  0.00    -0.390 OA
ATOM     10  H2  UNL     1      -0.255   2.896  -1.011  1.00  0.00     0.210 HD
ENDBRANCH   2   9
ENDBRANCH   1   2
BRANCH   1  11
HETATM   11  O3  UNL     1       1.183  -0.288  -0.385  1.00  0.00    -0.393 OA
ATOM     12  H3  UNL     1       1.568  -1.098  -0.697  1.00  0.00     0.210 HD
ENDBRANCH   1  11
BRANCH   1  13
HETATM   13  C7  UNL     1       2.649   0.980   0.949  1.00  0.00     0.034 C 
BRANCH  13  14
HETATM   14  C8  UNL     1       3.561  -0.113   1.439  1.00  0.00     0.003 C 
BRANCH  14  15
HETATM   15  C9  UNL     1       4.957   0.142   1.005  1.00  0.00     0.005 C 
BRANCH  15  16
HETATM   16  C10 UNL     1       5.424  -0.746  -0.117  1.00  0.00    -0.014 C 
HETATM   17  C11 UNL     1       4.560  -1.981  -0.224  1.00  0.00     0.004 C 
HETATM   18  C12 UNL     1       5.267  -3.231   0.239  1.00  0.00     0.000 C 
HETATM   19  C13 UNL     1       6.276  -3.749  -0.726  1.00  0.00     0.000 C 
HETATM   20  C14 UNL     1       6.593  -2.798  -1.850  1.00  0.00     0.000 C 
HETATM   21  C15 UNL     1       7.331  -1.577  -1.412  1.00  0.00     0.000 C 
HETATM   22  C16 UNL     1       6.890  -1.058  -0.063  1.00  0.00     0.004 C 
ENDBRANCH  15  16
ENDBRANCH  14  15
ENDBRANCH  13  14
ENDBRANCH   1  13
TORSDOF 11
ENDMDL
MODEL 2
REMARK VINA RESULT: -5.840685487      0.462      1.438
REMARK  11 active torsions:
REMARK  status: ('A' for Active; 'I' for Inactive)
REMARK    1  A    between atoms: C2_2  and  C3_3 
REMARK    2  A    between atoms: C3_3  and  C4_4 
REMARK    3  A    between atoms: C4_4  and  O1_5 
REMARK    4  A    between atoms: C4_4  and  C5_7 
REMARK    5  A    between atoms: C5_7  and  O2_8 
REMARK    6  A    between atoms: C5_7  and  C6_10 
REMARK    7  A    between atoms: C6_10  and  O3_11 
REMARK    8  A    between atoms: C6_10  and  C7_13 
REMARK    9  A    between atoms: C7_13  and  C8_14 
REMARK   10  A    between atoms: C8_14  and  C9_15 
REMARK   11  A    between atoms: C9_15  and  C10_16 
ROOT
HETATM    1  C6  UNL     1       2.082   0.813  -0.279  1.00  0.00     0.149 C 
ENDROOT
BRANCH   1   2
HETATM    2  C5  UNL     1       1.490   2.020  -0.975  1.00  0.00     0.175 C 
BRANCH   2   3
HETATM    3  C4  UNL     1       1.954   2.071  -2.404  1.00  0.00     0.152 C 
BRANCH   3   4
HETATM    4  C3  UNL     1       3.384   1.712  -2.559  1.00  0.00     0.060 C 
BRANCH   4   5
HETATM    5  C2  UNL     1       3.603   0.845  -3.736  1.00  0.00    -0.034 C 
HETATM    6  C1  UNL     1       4.660   0.838  -4.525  1.00  0.00     0.007 C 
ENDBRANCH   4   5
ENDBRANCH   3   4
BRANCH   3   7
HETATM    7  O1  UNL     1       1.169   1.225  -3.174  1.00  0.00    -0.393 OA
ATOM      8  H1  UNL     1       0.547   0.768  -2.620  1.00  0.00     0.210 HD
ENDBRANCH   3   7
ENDBRANCH   2   3
BRANCH   2   9
HETATM    9  O2  UNL     1       0.109   2.045  -0.880  1.00  0.00    -0.390 OA
ATOM     10  H2  UNL     1      -0.225   1.304  -0.389  1.00  0.00     0.210 HD
ENDBRANCH   2   9
ENDBRANCH   1   2
BRANCH   1  11
HETATM   11  O3  UNL     1       1.231  -0.279  -0.348  1.00  0.00    -0.393 OA
ATOM     12  H3  UNL     1       1.609  -1.042   0.074  1.00  0.00     0.210 HD
ENDBRANCH   1  11
BRANCH   1  13
HETATM   13  C7  UNL     1       2.424   1.089   1.150  1.00  0.00     0.034 C 
BRANCH  13  14
HETATM   14  C8  UNL     1       3.624   0.335   1.660  1.00  0.00     0.003 C 
BRANCH  14  15
HETATM   15  C9  UNL     1       4.741   0.418   0.687  1.00  0.00     0.005 C 
BRANCH  15  16
HETATM   16  C10 UNL     1       5.418  -0.898   0.415  1.00  0.00    -0.014 C 
HETATM   17  C11 UNL     1       6.648  -0.706  -0.440  1.00  0.00     0.004 C 
HETATM   18  C12 UNL     1       6.465  -1.207  -1.851  1.00  0.00     0.000 C 
HETATM   19  C13 UNL     1       6.506  -2.692  -1.976  1.00  0.00     0.000 C 
HETATM   20  C14 UNL     1       6.457  -3.418  -0.657  1.00  0.00     0.000 C 
HETATM   21  C15 UNL     1       5.142  -3.304   0.041  1.00  0.00     0.000 C 
HETATM   22  C16 UNL     1       4.491  -1.950  -0.118  1.00  0.00     0.004 C 
ENDBRANCH  15  16
ENDBRANCH  14  15
ENDBRANCH  13  14
ENDBRANCH   1  13
TORSDOF 11
ENDMDL
MODEL 3
REMARK VINA RESULT: -5.802474681      1.236      3.198
REMARK  11 active torsions:
REMARK  status: ('A' for Active; 'I' for Inactive)
REMARK    1  A    between atoms: C2_2  and  C3_3 
REMARK    2  A    between atoms: C3_3  and  C4_4 
REMARK    3  A    between atoms: C4_4  and  O1_5 
REMARK    4  A    between atoms: C4_4  and  C5_7 
REMARK    5  A    between atoms: C5_7  and  O2_8 
REMARK    6  A    between atoms: C5_7  and  C6_10 
REMARK    7  A    between atoms: C6_10  and  O3_11 
REMARK    8  A    between atoms: C6_10  and  C7_13 
REMARK    9  A    between atoms: C7_13  and  C8_14 
REMARK   10  A    between atoms: C8_14  and  C9_15 
REMARK   11  A    between atoms: C9_15  and  C10_16 
ROOT
HETATM    1  C6  UNL     1       3.117   2.199  -2.209  1.00  0.00     0.149 C 
ENDROOT
BRANCH   1   2
HETATM    2  C5  UNL     1       1.970   1.211  -2.241  1.00  0.00     0.175 C 
BRANCH   2   3
HETATM    3  C4  UNL     1       1.035   1.468  -1.093  1.00  0.00     0.152 C 
BRANCH   3   4
HETATM    4  C3  UNL     1       1.717   1.437   0.223  1.00  0.00     0.060 C 
BRANCH   4   5
HETATM    5  C2  UNL     1       2.160   0.071   0.574  1.00  0.00    -0.034 C 
HETATM    6  C1  UNL     1       2.758  -0.303   1.689  1.00  0.00     0.007 C 
ENDBRANCH   4   5
ENDBRANCH   3   4
BRANCH   3   7
HETATM    7  O1  UNL     1       0.409   2.693  -1.272  1.00  0.00    -0.393 OA
ATOM      8  H1  UNL     1      -0.143   2.887  -0.523  1.00  0.00     0.210 HD
ENDBRANCH   3   7
ENDBRANCH   2   3
BRANCH   2   9
HETATM    9  O2  UNL     1       1.309   1.228  -3.458  1.00  0.00    -0.390 OA
ATOM     10  H2  UNL     1       1.802   0.779  -4.134  1.00  0.00     0.210 HD
ENDBRANCH   2   9
ENDBRANCH   1   2
BRANCH   1  11
HETATM   11  O3  UNL     1       2.842   3.320  -2.977  1.00  0.00    -0.393 OA
ATOM     12  H3  UNL     1       2.364   3.973  -2.480  1.00  0.00     0.210 HD
ENDBRANCH   1  11
BRANCH   1  13
HETATM   13  C7  UNL     1       4.407   1.591  -2.659  1.00  0.00     0.034 C 
BRANCH  13  14
HETATM   14  C8  UNL     1       4.602   0.160  -2.231  1.00  0.00     0.003 C 
BRANCH  14  15
HETATM   15  C9  UNL     1       5.963  -0.033  -1.672  1.00  0.00     0.005 C 
BRANCH  15  16
HETATM   16  C10 UNL     1       6.112  -1.272  -0.830  1.00  0.00    -0.014 C 
HETATM   17  C11 UNL     1       7.280  -2.107  -1.300  1.00  0.00     0.004 C 
HETATM   18  C12 UNL     1       6.850  -3.375  -1.996  1.00  0.00     0.000 C 
HETATM   19  C13 UNL     1       6.354  -4.434  -1.072  1.00  0.00     0.000 C 
HETATM   20  C14 UNL     1       6.125  -3.958   0.338  1.00  0.00     0.000 C 
HETATM   21  C15 UNL     1       4.978  -3.011   0.472  1.00  0.00     0.000 C 
HETATM   22  C16 UNL     1       4.843  -2.060  -0.695  1.00  0.00     0.004 C 
ENDBRANCH  15  16
ENDBRANCH  14  15
ENDBRANCH  13  14
ENDBRANCH   1  13
TORSDOF 11
ENDMDL
MODEL 4
REMARK VINA RESULT: -5.797218591      3.634      7.196
REMARK  11 active torsions:
REMARK  status: ('A' for Active; 'I' for Inactive)
REMARK    1  A    between atoms: C2_2  and  C3_3 
REMARK    2  A    between atoms: C3_3  and  C4_4 
REMARK    3  A    between atoms: C4_4  and  O1_5 
REMARK    4  A    between atoms: C4_4  and  C5_7 
REMARK    5  A    between atoms: C5_7  and  O2_8 
REMARK    6  A    between atoms: C5_7  and  C6_10 
REMARK    7  A    between atoms: C6_10  and  O3_11 
REMARK    8  A    between atoms: C6_10  and  C7_13 
REMARK    9  A    between atoms: C7_13  and  C8_14 
REMARK   10  A    between atoms: C8_14  and  C9_15 
REMARK   11  A    between atoms: C9_15  and  C10_16 
ROOT
HETATM    1  C6  UNL     1       6.000  -4.002  -0.160  1.00  0.00     0.149 C 
ENDROOT
BRANCH   1   2
HETATM    2  C5  UNL     1       6.283  -5.484  -0.287  1.00  0.00     0.175 C 
BRANCH   2   3
HETATM    3  C4  UNL     1       5.693  -6.224   0.880  1.00  0.00     0.152 C 
BRANCH   3   4
HETATM    4  C3  UNL     1       6.315  -7.553   1.094  1.00  0.00     0.060 C 
BRANCH   4   5
HETATM    5  C2  UNL     1       5.335  -8.536   1.602  1.00  0.00    -0.034 C 
HETATM    6  C1  UNL     1       5.589  -9.768   2.001  1.00  0.00     0.007 C 
ENDBRANCH   4   5
ENDBRANCH   3   4
BRANCH   3   7
HETATM    7  O1  UNL     1       5.819  -5.453   2.027  1.00  0.00    -0.393 OA
ATOM      8  H1  UNL     1       5.136  -5.681   2.647  1.00  0.00     0.210 HD
ENDBRANCH   3   7
ENDBRANCH   2   3
BRANCH   2   9
HETATM    9  O2  UNL     1       5.839  -5.992  -1.497  1.00  0.00    -0.390 OA
ATOM     10  H2  UNL     1       5.275  -6.747  -1.377  1.00  0.00     0.210 HD
ENDBRANCH   2   9
ENDBRANCH   1   2
BRANCH   1  11
HETATM   11  O3  UNL     1       4.638  -3.747  -0.121  1.00  0.00    -0.393 OA
ATOM     12  H3  UNL     1       4.387  -3.099  -0.768  1.00  0.00     0.210 HD
ENDBRANCH   1  11
BRANCH   1  13
HETATM   13  C7  UNL     1       6.624  -3.206  -1.262  1.00  0.00     0.034 C 
BRANCH  13  14
HETATM   14  C8  UNL     1       5.940  -1.895  -1.548  1.00  0.00     0.003 C 
BRANCH  14  15
HETATM   15  C9  UNL     1       6.224  -0.916  -0.470  1.00  0.00     0.005 C 
BRANCH  15  16
HETATM   16  C10 UNL     1       5.132   0.099  -0.258  1.00  0.00    -0.014 C 
HETATM   17  C11 UNL     1       4.293  -0.254   0.947  1.00  0.00     0.004 C 
HETATM   18  C12 UNL     1       2.916  -0.750   0.576  1.00  0.00     0.000 C 
HETATM   19  C13 UNL     1       1.984   0.325   0.135  1.00  0.00     0.000 C 
HETATM   20  C14 UNL     1       2.653   1.652  -0.111  1.00  0.00     0.000 C 
HETATM   21  C15 UNL     1       3.554   1.656  -1.302  1.00  0.00     0.000 C 
HETATM   22  C16 UNL     1       4.313   0.363  -1.487  1.00  0.00     0.004 C 
ENDBRANCH  15  16
ENDBRANCH  14  15
ENDBRANCH  13  14
ENDBRANCH   1  13
TORSDOF 11
ENDMDL
MODEL 5
REMARK VINA RESULT: -5.779675439      1.398      3.069
REMARK  11 active torsions:
REMARK  status: ('A' for Active; 'I' for Inactive)
REMARK    1  A    between atoms: C2_2  and  C3_3 
REMARK    2  A    between atoms: C3_3  and  C4_4 
REMARK    3  A    between atoms: C4_4  and  O1_5 
REMARK    4  A    between atoms: C4_4  and  C5_7 
REMARK    5  A    between atoms: C5_7  and  O2_8 
REMARK    6  A    between atoms: C5_7  and  C6_10 
REMARK    7  A    between atoms: C6_10  and  O3_11 
REMARK    8  A    between atoms: C6_10  and  C7_13 
REMARK    9  A    between atoms: C7_13  and  C8_14 
REMARK   10  A    between atoms: C8_14  and  C9_15 
REMARK   11  A    between atoms: C9_15  and  C10_16 
ROOT
HETATM    1  C6  UNL     1       3.956   1.911  -3.459  1.00  0.00     0.149 C 
ENDROOT
BRANCH   1   2
HETATM    2  C5  UNL     1       2.933   2.379  -2.445  1.00  0.00     0.175 C 
BRANCH   2   3
HETATM    3  C4  UNL     1       1.969   1.268  -2.135  1.00  0.00     0.152 C 
BRANCH   3   4
HETATM    4  C3  UNL     1       1.510   1.280  -0.725  1.00  0.00     0.060 C 
BRANCH   4   5
HETATM    5  C2  UNL     1       1.950   0.069  -0.001  1.00  0.00    -0.034 C 
HETATM    6  C1  UNL     1       2.583   0.028   1.157  1.00  0.00     0.007 C 
ENDBRANCH   4   5
ENDBRANCH   3   4
BRANCH   3   7
HETATM    7  O1  UNL     1       0.877   1.353  -2.988  1.00  0.00    -0.393 OA
ATOM      8  H1  UNL     1       0.941   2.140  -3.517  1.00  0.00     0.210 HD
ENDBRANCH   3   7
ENDBRANCH   2   3
BRANCH   2   9
HETATM    9  O2  UNL     1       3.533   2.875  -1.299  1.00  0.00    -0.390 OA
ATOM     10  H2  UNL     1       3.263   3.767  -1.118  1.00  0.00     0.210 HD
ENDBRANCH   2   9
ENDBRANCH   1   2
BRANCH   1  11
HETATM   11  O3  UNL     1       3.475   0.851  -4.212  1.00  0.00    -0.393 OA
ATOM     12  H3  UNL     1       3.193   0.132  -3.659  1.00  0.00     0.210 HD
ENDBRANCH   1  11
BRANCH   1  13
HETATM   13  C7  UNL     1       5.253   1.524  -2.823  1.00  0.00     0.034 C 
BRANCH  13  14
HETATM   14  C8  UNL     1       5.553   0.048  -2.871  1.00  0.00     0.003 C 
BRANCH  14  15
HETATM   15  C9  UNL     1       5.668  -0.501  -1.497  1.00  0.00     0.005 C 
BRANCH  15  16
HETATM   16  C10 UNL     1       5.652  -2.006  -1.434  1.00  0.00    -0.014 C 
HETATM   17  C11 UNL     1       4.744  -2.490  -0.329  1.00  0.00     0.004 C 
HETATM   18  C12 UNL     1       5.503  -3.061   0.844  1.00  0.00     0.000 C 
HETATM   19  C13 UNL     1       6.068  -4.417   0.598  1.00  0.00     0.000 C 
HETATM   20  C14 UNL     1       6.009  -4.852  -0.843  1.00  0.00     0.000 C 
HETATM   21  C15 UNL     1       6.920  -4.080  -1.739  1.00  0.00     0.000 C 
HETATM   22  C16 UNL     1       7.022  -2.616  -1.379  1.00  0.00     0.004 C 
ENDBRANCH  15  16
ENDBRANCH  14  15
ENDBRANCH  13  14
ENDBRANCH   1  13
TORSDOF 11
ENDMDL
