MODEL 1
REMARK VINA RESULT: -7.073891342      0.000      0.000
REMARK  12 active torsions:
REMARK  status: ('A' for Active; 'I' for Inactive)
REMARK    1  A    between atoms: C3_3  and  C4_4 
REMARK    2  A    between atoms: C4_4  and  C5_5 
REMARK    3  A    between atoms: C5_5  and  C6_6 
REMARK    4  A    between atoms: C6_6  and  C7_7 
REMARK    5  A    between atoms: C7_7  and  C8_8 
REMARK    6  A    between atoms: C8_8  and  C9_9 
REMARK    7  A    between atoms: C9_9  and  C10_10 
REMARK    8  A    between atoms: C10_10  and  C11_11 
REMARK    9  A    between atoms: C11_11  and  O1_12 
REMARK   10  A    between atoms: C11_11  and  C12_14 
REMARK   11  A    between atoms: C12_14  and  C13_15 
REMARK   12  A    between atoms: C15_18  and  O3_19 
ROOT
HETATM    1  C10 UNL     1       5.112  -4.982  -0.223  1.00  0.00     0.043 C 
ENDROOT
BRANCH   1   2
HETATM    2  C9  UNL     1       6.430  -4.591  -0.950  1.00  0.00     0.087 C 
BRANCH   2   3
HETATM    3  C8  UNL     1       6.472  -3.419  -1.383  1.00  0.00    -0.156 C 
BRANCH   3   4
HETATM    4  C7  UNL     1       6.520  -2.078  -1.878  1.00  0.00     0.050 C 
BRANCH   4   5
HETATM    5  C6  UNL     1       5.706  -0.987  -1.410  1.00  0.00     0.004 C 
BRANCH   5   6
HETATM    6  C5  UNL     1       5.300  -0.799  -0.177  1.00  0.00    -0.022 C 
BRANCH   6   7
HETATM    7  C4  UNL     1       4.076  -1.416   0.426  1.00  0.00     0.054 C 
BRANCH   7   8
HETATM    8  C3  UNL     1       3.558  -0.406   1.387  1.00  0.00    -0.027 C 
HETATM    9  C2  UNL     1       2.547   0.380   1.162  1.00  0.00    -0.035 C 
HETATM   10  C1  UNL     1       1.764   0.376  -0.103  1.00  0.00     0.036 C 
ENDBRANCH   7   8
ENDBRANCH   6   7
ENDBRANCH   5   6
ENDBRANCH   4   5
ENDBRANCH   3   4
ENDBRANCH   2   3
ENDBRANCH   1   2
BRANCH   1  11
HETATM   11  C11 UNL     1       5.535  -5.928   0.868  1.00  0.00     0.121 C 
BRANCH  11  12
HETATM   12  O1  UNL     1       6.082  -5.264   1.932  1.00  0.00    -0.395 OA
ATOM     13  H1  UNL     1       5.614  -5.445   2.739  1.00  0.00     0.210 HD
ENDBRANCH  11  12
BRANCH  11  14
HETATM   14  C12 UNL     1       6.387  -7.070   0.425  1.00  0.00     0.066 C 
BRANCH  14  15
HETATM   15  C13 UNL     1       6.306  -8.185   1.408  1.00  0.00     0.154 C 
HETATM   16  O2  UNL     1       6.165  -9.463   0.818  1.00  0.00    -0.381 OA
HETATM   17  C14 UNL     1       5.640  -9.869   2.062  1.00  0.00     0.202 C 
HETATM   18  C15 UNL     1       5.031  -8.458   2.111  1.00  0.00     0.171 C 
BRANCH  18  19
HETATM   19  O3  UNL     1       3.864  -8.459   1.361  1.00  0.00    -0.391 OA
ATOM     20  H3  UNL     1       3.078  -8.813   1.763  1.00  0.00     0.210 HD
ENDBRANCH  18  19
ENDBRANCH  14  15
ENDBRANCH  11  14
ENDBRANCH   1  11
TORSDOF 12
ENDMDL
MODEL 2
REMARK VINA RESULT: -6.913744998      1.211      1.618
REMARK  12 active torsions:
REMARK  status: ('A' for Active; 'I' for Inactive)
REMARK    1  A    between atoms: C3_3  and  C4_4 
REMARK    2  A    between atoms: C4_4  and  C5_5 
REMARK    3  A    between atoms: C5_5  and  C6_6 
REMARK    4  A    between atoms: C6_6  and  C7_7 
REMARK    5  A    between atoms: C7_7  and  C8_8 
REMARK    6  A    between atoms: C8_8  and  C9_9 
REMARK    7  A    between atoms: C9_9  and  C10_10 
REMARK    8  A    between atoms: C10_10  and  C11_11 
REMARK    9  A    between atoms: C11_11  and  O1_12 
REMARK   10  A    between atoms: C11_11  and  C12_14 
REMARK   11  A    between atoms: C12_14  and  C13_15 
REMARK   12  A    between atoms: C15_18  and  O3_19 
ROOT
HETATM    1  C10 UNL     1       5.777  -3.988   0.165  1.00  0.00     0.043 C 
ENDROOT
BRANCH   1   2
HETATM    2  C9  UNL     1       6.387  -3.671  -1.230  1.00  0.00     0.087 C 
BRANCH   2   3
HETATM    3  C8  UNL     1       6.260  -2.487  -1.610  1.00  0.00    -0.156 C 
BRANCH   3   4
HETATM    4  C7  UNL     1       6.114  -1.133  -2.045  1.00  0.00     0.050 C 
BRANCH   4   5
HETATM    5  C6  UNL     1       5.664  -0.038  -1.227  1.00  0.00     0.004 C 
BRANCH   5   6
HETATM    6  C5  UNL     1       5.712   0.018   0.083  1.00  0.00    -0.022 C 
BRANCH   6   7
HETATM    7  C4  UNL     1       4.599   0.503   0.962  1.00  0.00     0.054 C 
BRANCH   7   8
HETATM    8  C3  UNL     1       3.657  -0.643   1.072  1.00  0.00    -0.027 C 
HETATM    9  C2  UNL     1       2.449  -0.656   0.593  1.00  0.00    -0.035 C 
HETATM   10  C1  UNL     1       1.837   0.487  -0.136  1.00  0.00     0.036 C 
ENDBRANCH   7   8
ENDBRANCH   6   7
ENDBRANCH   5   6
ENDBRANCH   4   5
ENDBRANCH   3   4
ENDBRANCH   2   3
ENDBRANCH   1   2
BRANCH   1  11
HETATM   11  C11 UNL     1       5.558  -5.477   0.165  1.00  0.00     0.121 C 
BRANCH  11  12
HETATM   12  O1  UNL     1       4.334  -5.811  -0.346  1.00  0.00    -0.395 OA
ATOM     13  H1  UNL     1       4.114  -6.718  -0.171  1.00  0.00     0.210 HD
ENDBRANCH  11  12
BRANCH  11  14
HETATM   14  C12 UNL     1       5.826  -6.159   1.464  1.00  0.00     0.066 C 
BRANCH  14  15
HETATM   15  C13 UNL     1       5.291  -7.548   1.437  1.00  0.00     0.154 C 
HETATM   16  O2  UNL     1       5.240  -8.170   2.706  1.00  0.00    -0.381 OA
HETATM   17  C14 UNL     1       5.229  -9.389   1.997  1.00  0.00     0.202 C 
HETATM   18  C15 UNL     1       6.163  -8.667   1.013  1.00  0.00     0.171 C 
BRANCH  18  19
HETATM   19  O3  UNL     1       7.454  -8.713   1.521  1.00  0.00    -0.391 OA
ATOM     20  H3  UNL     1       8.091  -9.252   1.067  1.00  0.00     0.210 HD
ENDBRANCH  18  19
ENDBRANCH  14  15
ENDBRANCH  11  14
ENDBRANCH   1  11
TORSDOF 12
ENDMDL
MODEL 3
REMARK VINA RESULT: -6.896770923      1.151      1.316
REMARK  12 active torsions:
REMARK  status: ('A' for Active; 'I' for Inactive)
REMARK    1  A    between atoms: C3_3  and  C4_4 
REMARK    2  A    between atoms: C4_4  and  C5_5 
REMARK    3  A    between atoms: C5_5  and  C6_6 
REMARK    4  A    between atoms: C6_6  and  C7_7 
REMARK    5  A    between atoms: C7_7  and  C8_8 
REMARK    6  A    between atoms: C8_8  and  C9_9 
REMARK    7  A    between atoms: C9_9  and  C10_10 
REMARK    8  A    between atoms: C10_10  and  C11_11 
REMARK    9  A    between atoms: C11_11  and  O1_12 
REMARK   10  A    between atoms: C11_11  and  C12_14 
REMARK   11  A    between atoms: C12_14  and  C13_15 
REMARK   12  A    between atoms: C15_18  and  O3_19 
ROOT
HETATM    1  C10 UNL     1       5.752  -4.096   0.195  1.00  0.00     0.043 C 
ENDROOT
BRANCH   1   2
HETATM    2  C9  UNL     1       6.437  -3.909  -1.189  1.00  0.00     0.087 C 
BRANCH   2   3
HETATM    3  C8  UNL     1       6.405  -2.746  -1.645  1.00  0.00    -0.156 C 
BRANCH   3   4
HETATM    4  C7  UNL     1       6.368  -1.415  -2.168  1.00  0.00     0.050 C 
BRANCH   4   5
HETATM    5  C6  UNL     1       5.340  -0.443  -1.905  1.00  0.00     0.004 C 
BRANCH   5   6
HETATM    6  C5  UNL     1       5.263   0.333  -0.850  1.00  0.00    -0.022 C 
BRANCH   6   7
HETATM    7  C4  UNL     1       5.194  -0.148   0.567  1.00  0.00     0.054 C 
BRANCH   7   8
HETATM    8  C3  UNL     1       3.905  -0.883   0.670  1.00  0.00    -0.027 C 
HETATM    9  C2  UNL     1       2.848  -0.440   1.284  1.00  0.00    -0.035 C 
HETATM   10  C1  UNL     1       2.785   0.875   1.977  1.00  0.00     0.036 C 
ENDBRANCH   7   8
ENDBRANCH   6   7
ENDBRANCH   5   6
ENDBRANCH   4   5
ENDBRANCH   3   4
ENDBRANCH   2   3
ENDBRANCH   1   2
BRANCH   1  11
HETATM   11  C11 UNL     1       5.586  -5.584   0.348  1.00  0.00     0.121 C 
BRANCH  11  12
HETATM   12  O1  UNL     1       4.456  -6.036  -0.276  1.00  0.00    -0.395 OA
ATOM     13  H1  UNL     1       4.317  -6.964  -0.126  1.00  0.00     0.210 HD
ENDBRANCH  11  12
BRANCH  11  14
HETATM   14  C12 UNL     1       5.694  -6.095   1.746  1.00  0.00     0.066 C 
BRANCH  14  15
HETATM   15  C13 UNL     1       6.085  -7.532   1.740  1.00  0.00     0.154 C 
HETATM   16  O2  UNL     1       6.184  -8.096   0.447  1.00  0.00    -0.381 OA
HETATM   17  C14 UNL     1       6.013  -9.341   1.086  1.00  0.00     0.202 C 
HETATM   18  C15 UNL     1       5.072  -8.574   2.028  1.00  0.00     0.171 C 
BRANCH  18  19
HETATM   19  O3  UNL     1       3.833  -8.462   1.414  1.00  0.00    -0.391 OA
ATOM     20  H3  UNL     1       3.808  -8.453   0.464  1.00  0.00     0.210 HD
ENDBRANCH  18  19
ENDBRANCH  14  15
ENDBRANCH  11  14
ENDBRANCH   1  11
TORSDOF 12
ENDMDL
MODEL 4
REMARK VINA RESULT: -6.735149530      1.557      2.481
REMARK  12 active torsions:
REMARK  status: ('A' for Active; 'I' for Inactive)
REMARK    1  A    between atoms: C3_3  and  C4_4 
REMARK    2  A    between atoms: C4_4  and  C5_5 
REMARK    3  A    between atoms: C5_5  and  C6_6 
REMARK    4  A    between atoms: C6_6  and  C7_7 
REMARK    5  A    between atoms: C7_7  and  C8_8 
REMARK    6  A    between atoms: C8_8  and  C9_9 
REMARK    7  A    between atoms: C9_9  and  C10_10 
REMARK    8  A    between atoms: C10_10  and  C11_11 
REMARK    9  A    between atoms: C11_11  and  O1_12 
REMARK   10  A    between atoms: C11_11  and  C12_14 
REMARK   11  A    between atoms: C12_14  and  C13_15 
REMARK   12  A    between atoms: C15_18  and  O3_19 
ROOT
HETATM    1  C10 UNL     1       5.791  -4.015   0.072  1.00  0.00     0.043 C 
ENDROOT
BRANCH   1   2
HETATM    2  C9  UNL     1       6.490  -3.760  -1.294  1.00  0.00     0.087 C 
BRANCH   2   3
HETATM    3  C8  UNL     1       6.405  -2.590  -1.726  1.00  0.00    -0.156 C 
BRANCH   3   4
HETATM    4  C7  UNL     1       6.307  -1.251  -2.219  1.00  0.00     0.050 C 
BRANCH   4   5
HETATM    5  C6  UNL     1       5.331  -0.279  -1.803  1.00  0.00     0.004 C 
BRANCH   5   6
HETATM    6  C5  UNL     1       4.538  -0.376  -0.761  1.00  0.00    -0.022 C 
BRANCH   6   7
HETATM    7  C4  UNL     1       4.998  -0.436   0.664  1.00  0.00     0.054 C 
BRANCH   7   8
HETATM    8  C3  UNL     1       5.821   0.786   0.863  1.00  0.00    -0.027 C 
HETATM    9  C2  UNL     1       7.113   0.792   1.012  1.00  0.00    -0.035 C 
HETATM   10  C1  UNL     1       7.950  -0.437   1.006  1.00  0.00     0.036 C 
ENDBRANCH   7   8
ENDBRANCH   6   7
ENDBRANCH   5   6
ENDBRANCH   4   5
ENDBRANCH   3   4
ENDBRANCH   2   3
ENDBRANCH   1   2
BRANCH   1  11
HETATM   11  C11 UNL     1       5.533  -5.497   0.105  1.00  0.00     0.121 C 
BRANCH  11  12
HETATM   12  O1  UNL     1       4.284  -5.806  -0.358  1.00  0.00    -0.395 OA
ATOM     13  H1  UNL     1       4.258  -6.669  -0.756  1.00  0.00     0.210 HD
ENDBRANCH  11  12
BRANCH  11  14
HETATM   14  C12 UNL     1       5.826  -6.164   1.408  1.00  0.00     0.066 C 
BRANCH  14  15
HETATM   15  C13 UNL     1       5.289  -7.552   1.408  1.00  0.00     0.154 C 
HETATM   16  O2  UNL     1       5.230  -8.146   2.690  1.00  0.00    -0.381 OA
HETATM   17  C14 UNL     1       5.222  -9.380   2.009  1.00  0.00     0.202 C 
HETATM   18  C15 UNL     1       6.163  -8.682   1.014  1.00  0.00     0.171 C 
BRANCH  18  19
HETATM   19  O3  UNL     1       7.450  -8.717   1.532  1.00  0.00    -0.391 OA
ATOM     20  H3  UNL     1       7.556  -8.963   2.444  1.00  0.00     0.210 HD
ENDBRANCH  18  19
ENDBRANCH  14  15
ENDBRANCH  11  14
ENDBRANCH   1  11
TORSDOF 12
ENDMDL
MODEL 5
REMARK VINA RESULT: -6.697700393      1.665      2.618
REMARK  12 active torsions:
REMARK  status: ('A' for Active; 'I' for Inactive)
REMARK    1  A    between atoms: C3_3  and  C4_4 
REMARK    2  A    between atoms: C4_4  and  C5_5 
REMARK    3  A    between atoms: C5_5  and  C6_6 
REMARK    4  A    between atoms: C6_6  and  C7_7 
REMARK    5  A    between atoms: C7_7  and  C8_8 
REMARK    6  A    between atoms: C8_8  and  C9_9 
REMARK    7  A    between atoms: C9_9  and  C10_10 
REMARK    8  A    between atoms: C10_10  and  C11_11 
REMARK    9  A    between atoms: C11_11  and  O1_12 
REMARK   10  A    between atoms: C11_11  and  C12_14 
REMARK   11  A    between atoms: C12_14  and  C13_15 
REMARK   12  A    between atoms: C15_18  and  O3_19 
ROOT
HETATM    1  C10 UNL     1       5.106  -4.806  -0.177  1.00  0.00     0.043 C 
ENDROOT
BRANCH   1   2
HETATM    2  C9  UNL     1       6.427  -4.448  -0.914  1.00  0.00     0.087 C 
BRANCH   2   3
HETATM    3  C8  UNL     1       6.466  -3.302  -1.412  1.00  0.00    -0.156 C 
BRANCH   3   4
HETATM    4  C7  UNL     1       6.510  -1.991  -1.982  1.00  0.00     0.050 C 
BRANCH   4   5
HETATM    5  C6  UNL     1       5.901  -0.816  -1.417  1.00  0.00     0.004 C 
BRANCH   5   6
HETATM    6  C5  UNL     1       5.666  -0.603  -0.144  1.00  0.00    -0.022 C 
BRANCH   6   7
HETATM    7  C4  UNL     1       6.523   0.232   0.758  1.00  0.00     0.054 C 
BRANCH   7   8
HETATM    8  C3  UNL     1       7.819  -0.492   0.850  1.00  0.00    -0.027 C 
HETATM    9  C2  UNL     1       8.786  -0.179   1.660  1.00  0.00    -0.035 C 
HETATM   10  C1  UNL     1       8.728   0.961   2.614  1.00  0.00     0.036 C 
ENDBRANCH   7   8
ENDBRANCH   6   7
ENDBRANCH   5   6
ENDBRANCH   4   5
ENDBRANCH   3   4
ENDBRANCH   2   3
ENDBRANCH   1   2
BRANCH   1  11
HETATM   11  C11 UNL     1       5.504  -5.811   0.869  1.00  0.00     0.121 C 
BRANCH  11  12
HETATM   12  O1  UNL     1       6.102  -5.216   1.945  1.00  0.00    -0.395 OA
ATOM     13  H1  UNL     1       6.988  -4.934   1.746  1.00  0.00     0.210 HD
ENDBRANCH  11  12
BRANCH  11  14
HETATM   14  C12 UNL     1       6.290  -6.975   0.366  1.00  0.00     0.066 C 
BRANCH  14  15
HETATM   15  C13 UNL     1       6.273  -8.079   1.364  1.00  0.00     0.154 C 
HETATM   16  O2  UNL     1       6.180  -9.369   0.793  1.00  0.00    -0.381 OA
HETATM   17  C14 UNL     1       5.692  -9.782   2.050  1.00  0.00     0.202 C 
HETATM   18  C15 UNL     1       5.023  -8.399   2.091  1.00  0.00     0.171 C 
BRANCH  18  19
HETATM   19  O3  UNL     1       3.845  -8.461   1.359  1.00  0.00    -0.391 OA
ATOM     20  H3  UNL     1       3.880  -8.854   0.494  1.00  0.00     0.210 HD
ENDBRANCH  18  19
ENDBRANCH  14  15
ENDBRANCH  11  14
ENDBRANCH   1  11
TORSDOF 12
ENDMDL
