MODEL 1
REMARK VINA RESULT: -6.422232629      0.000      0.000
REMARK  10 active torsions:
REMARK  status: ('A' for Active; 'I' for Inactive)
REMARK    1  A    between atoms: C2_2  and  C3_3 
REMARK    2  A    between atoms: C3_3  and  C4_4 
REMARK    3  A    between atoms: C4_4  and  O1_5 
REMARK    4  A    between atoms: C4_4  and  C5_7 
REMARK    5  A    between atoms: C5_7  and  C6_8 
REMARK    6  A    between atoms: C6_8  and  C7_9 
REMARK    7  A    between atoms: C7_9  and  C8_10 
REMARK    8  A    between atoms: C7_9  and  C14_19 
REMARK    9  A    between atoms: C8_10  and  C9_11 
REMARK   10  A    between atoms: C14_19  and  O2_21 
ROOT
HETATM    1  C7  UNL     1       5.429  -2.160  -0.664  1.00  0.00     0.016 C 
ENDROOT
BRANCH   1   2
HETATM    2  C6  UNL     1       5.796  -3.561  -0.621  1.00  0.00     0.010 C 
BRANCH   2   3
HETATM    3  C5  UNL     1       5.739  -4.388   0.602  1.00  0.00     0.032 C 
BRANCH   3   4
HETATM    4  C4  UNL     1       5.294  -5.819   0.324  1.00  0.00     0.118 C 
BRANCH   4   5
HETATM    5  C3  UNL     1       5.776  -6.664   1.483  1.00  0.00     0.031 C 
BRANCH   5   6
HETATM    6  C2  UNL     1       5.114  -8.024   1.347  1.00  0.00    -0.002 C 
HETATM    7  C1  UNL     1       6.098  -9.147   1.337  1.00  0.00     0.005 C 
ENDBRANCH   5   6
ENDBRANCH   4   5
BRANCH   4   8
HETATM    8  O1  UNL     1       5.946  -6.231  -0.835  1.00  0.00    -0.396 OA
ATOM      9  H1  UNL     1       5.995  -5.499  -1.437  1.00  0.00     0.210 HD
ENDBRANCH   4   8
ENDBRANCH   3   4
ENDBRANCH   2   3
ENDBRANCH   1   2
BRANCH   1  10
HETATM   10  C8  UNL     1       4.712  -1.372   0.317  1.00  0.00     0.040 C 
BRANCH  10  11
HETATM   11  C9  UNL     1       3.438  -0.678   0.153  1.00  0.00     0.186 C 
HETATM   12  C10 UNL     1       2.653  -0.248   1.311  1.00  0.00     0.033 C 
HETATM   13  C11 UNL     1       2.014   1.144   1.116  1.00  0.00     0.004 C 
HETATM   14  C12 UNL     1       1.394   1.222  -0.240  1.00  0.00     0.027 C 
HETATM   15  C13 UNL     1       2.520   1.043  -1.253  1.00  0.00     0.232 C 
HETATM   16  N1  UNL     1       3.715   0.549  -0.651  1.00  0.00    -0.071 N 
ATOM     17  H12 UNL     1       4.183   1.266  -0.097  1.00  0.00     0.277 HD
ATOM     18  H11 UNL     1       4.448   0.389  -1.344  1.00  0.00     0.277 HD
ENDBRANCH  10  11
ENDBRANCH   1  10
BRANCH   1  19
HETATM   19  C14 UNL     1       6.687  -1.306  -1.036  1.00  0.00     0.118 C 
HETATM   20  C15 UNL     1       7.346  -0.763   0.184  1.00  0.00     0.040 C 
BRANCH  19  21
HETATM   21  O2  UNL     1       7.591  -2.080  -1.726  1.00  0.00    -0.396 OA
ATOM     22  H2  UNL     1       8.462  -1.958  -1.366  1.00  0.00     0.210 HD
ENDBRANCH  19  21
ENDBRANCH   1  19
TORSDOF 10
ENDMDL
MODEL 2
REMARK VINA RESULT: -6.406353439      3.001      7.240
REMARK  10 active torsions:
REMARK  status: ('A' for Active; 'I' for Inactive)
REMARK    1  A    between atoms: C2_2  and  C3_3 
REMARK    2  A    between atoms: C3_3  and  C4_4 
REMARK    3  A    between atoms: C4_4  and  O1_5 
REMARK    4  A    between atoms: C4_4  and  C5_7 
REMARK    5  A    between atoms: C5_7  and  C6_8 
REMARK    6  A    between atoms: C6_8  and  C7_9 
REMARK    7  A    between atoms: C7_9  and  C8_10 
REMARK    8  A    between atoms: C7_9  and  C14_19 
REMARK    9  A    between atoms: C8_10  and  C9_11 
REMARK   10  A    between atoms: C14_19  and  O2_21 
ROOT
HETATM    1  C7  UNL     1       4.023  -0.486   0.071  1.00  0.00     0.016 C 
ENDROOT
BRANCH   1   2
HETATM    2  C6  UNL     1       3.717   0.760  -0.604  1.00  0.00     0.010 C 
BRANCH   2   3
HETATM    3  C5  UNL     1       3.146   0.838  -1.964  1.00  0.00     0.032 C 
BRANCH   3   4
HETATM    4  C4  UNL     1       1.855   1.647  -2.015  1.00  0.00     0.118 C 
BRANCH   4   5
HETATM    5  C3  UNL     1       1.071   1.305  -0.767  1.00  0.00     0.031 C 
BRANCH   5   6
HETATM    6  C2  UNL     1       0.278   2.542  -0.386  1.00  0.00    -0.002 C 
HETATM    7  C1  UNL     1       0.481   2.944   1.038  1.00  0.00     0.005 C 
ENDBRANCH   5   6
ENDBRANCH   4   5
BRANCH   4   8
HETATM    8  O1  UNL     1       1.142   1.209  -3.127  1.00  0.00    -0.396 OA
ATOM      9  H1  UNL     1       0.215   1.227  -2.923  1.00  0.00     0.210 HD
ENDBRANCH   4   8
ENDBRANCH   3   4
ENDBRANCH   2   3
ENDBRANCH   1   2
BRANCH   1  10
HETATM   10  C8  UNL     1       5.225  -1.290   0.005  1.00  0.00     0.040 C 
BRANCH  10  11
HETATM   11  C9  UNL     1       5.362  -2.663  -0.474  1.00  0.00     0.186 C 
HETATM   12  C10 UNL     1       6.198  -2.984  -1.632  1.00  0.00     0.033 C 
HETATM   13  C11 UNL     1       7.000  -4.289  -1.445  1.00  0.00     0.004 C 
HETATM   14  C12 UNL     1       6.107  -5.349  -0.890  1.00  0.00     0.027 C 
HETATM   15  C13 UNL     1       5.631  -4.856   0.473  1.00  0.00     0.232 C 
HETATM   16  N1  UNL     1       5.890  -3.467   0.668  1.00  0.00    -0.071 N 
ATOM     17  H12 UNL     1       6.881  -3.288   0.829  1.00  0.00     0.277 HD
ATOM     18  H11 UNL     1       5.526  -3.137   1.562  1.00  0.00     0.277 HD
ENDBRANCH  10  11
ENDBRANCH   1  10
BRANCH   1  19
HETATM   19  C14 UNL     1       3.710  -0.338   1.598  1.00  0.00     0.118 C 
HETATM   20  C15 UNL     1       3.641   1.095   1.994  1.00  0.00     0.040 C 
BRANCH  19  21
HETATM   21  O2  UNL     1       2.509  -0.942   1.890  1.00  0.00    -0.396 OA
ATOM     22  H2  UNL     1       2.613  -1.525   2.633  1.00  0.00     0.210 HD
ENDBRANCH  19  21
ENDBRANCH   1  19
TORSDOF 10
ENDMDL
MODEL 3
REMARK VINA RESULT: -6.391010803      1.488      2.171
REMARK  10 active torsions:
REMARK  status: ('A' for Active; 'I' for Inactive)
REMARK    1  A    between atoms: C2_2  and  C3_3 
REMARK    2  A    between atoms: C3_3  and  C4_4 
REMARK    3  A    between atoms: C4_4  and  O1_5 
REMARK    4  A    between atoms: C4_4  and  C5_7 
REMARK    5  A    between atoms: C5_7  and  C6_8 
REMARK    6  A    between atoms: C6_8  and  C7_9 
REMARK    7  A    between atoms: C7_9  and  C8_10 
REMARK    8  A    between atoms: C7_9  and  C14_19 
REMARK    9  A    between atoms: C8_10  and  C9_11 
REMARK   10  A    between atoms: C14_19  and  O2_21 
ROOT
HETATM    1  C7  UNL     1       6.533  -0.875  -1.572  1.00  0.00     0.016 C 
ENDROOT
BRANCH   1   2
HETATM    2  C6  UNL     1       7.200  -2.153  -1.424  1.00  0.00     0.010 C 
BRANCH   2   3
HETATM    3  C5  UNL     1       6.520  -3.456  -1.570  1.00  0.00     0.032 C 
BRANCH   3   4
HETATM    4  C4  UNL     1       6.056  -4.030  -0.237  1.00  0.00     0.118 C 
BRANCH   4   5
HETATM    5  C3  UNL     1       6.149  -5.537  -0.348  1.00  0.00     0.031 C 
BRANCH   5   6
HETATM    6  C2  UNL     1       5.786  -6.107   1.011  1.00  0.00    -0.002 C 
HETATM    7  C1  UNL     1       5.789  -7.600   1.031  1.00  0.00     0.005 C 
ENDBRANCH   5   6
ENDBRANCH   4   5
BRANCH   4   8
HETATM    8  O1  UNL     1       4.719  -3.673  -0.082  1.00  0.00    -0.396 OA
ATOM      9  H1  UNL     1       4.567  -3.441   0.826  1.00  0.00     0.210 HD
ENDBRANCH   4   8
ENDBRANCH   3   4
ENDBRANCH   2   3
ENDBRANCH   1   2
BRANCH   1  10
HETATM   10  C8  UNL     1       5.116  -0.588  -1.654  1.00  0.00     0.040 C 
BRANCH  10  11
HETATM   11  C9  UNL     1       4.266   0.040  -0.647  1.00  0.00     0.186 C 
HETATM   12  C10 UNL     1       3.052   0.767  -1.022  1.00  0.00     0.033 C 
HETATM   13  C11 UNL     1       1.879   0.509  -0.052  1.00  0.00     0.004 C 
HETATM   14  C12 UNL     1       2.365   0.604   1.356  1.00  0.00     0.027 C 
HETATM   15  C13 UNL     1       3.412  -0.490   1.537  1.00  0.00     0.232 C 
HETATM   16  N1  UNL     1       3.842  -1.040   0.293  1.00  0.00    -0.071 N 
ATOM     17  H12 UNL     1       3.129  -1.641  -0.120  1.00  0.00     0.277 HD
ATOM     18  H11 UNL     1       4.575  -1.738   0.422  1.00  0.00     0.277 HD
ENDBRANCH  10  11
ENDBRANCH   1  10
BRANCH   1  19
HETATM   19  C14 UNL     1       7.094   0.129  -0.509  1.00  0.00     0.118 C 
HETATM   20  C15 UNL     1       7.798  -0.591   0.588  1.00  0.00     0.040 C 
BRANCH  19  21
HETATM   21  O2  UNL     1       7.974   1.000  -1.109  1.00  0.00    -0.396 OA
ATOM     22  H2  UNL     1       7.689   1.187  -1.996  1.00  0.00     0.210 HD
ENDBRANCH  19  21
ENDBRANCH   1  19
TORSDOF 10
ENDMDL
MODEL 4
REMARK VINA RESULT: -6.301354861      1.611      2.181
REMARK  10 active torsions:
REMARK  status: ('A' for Active; 'I' for Inactive)
REMARK    1  A    between atoms: C2_2  and  C3_3 
REMARK    2  A    between atoms: C3_3  and  C4_4 
REMARK    3  A    between atoms: C4_4  and  O1_5 
REMARK    4  A    between atoms: C4_4  and  C5_7 
REMARK    5  A    between atoms: C5_7  and  C6_8 
REMARK    6  A    between atoms: C6_8  and  C7_9 
REMARK    7  A    between atoms: C7_9  and  C8_10 
REMARK    8  A    between atoms: C7_9  and  C14_19 
REMARK    9  A    between atoms: C8_10  and  C9_11 
REMARK   10  A    between atoms: C14_19  and  O2_21 
ROOT
HETATM    1  C7  UNL     1       6.395  -0.982  -2.092  1.00  0.00     0.016 C 
ENDROOT
BRANCH   1   2
HETATM    2  C6  UNL     1       7.036  -2.127  -1.480  1.00  0.00     0.010 C 
BRANCH   2   3
HETATM    3  C5  UNL     1       6.534  -3.512  -1.601  1.00  0.00     0.032 C 
BRANCH   3   4
HETATM    4  C4  UNL     1       6.061  -4.084  -0.271  1.00  0.00     0.118 C 
BRANCH   4   5
HETATM    5  C3  UNL     1       6.117  -5.591  -0.394  1.00  0.00     0.031 C 
BRANCH   5   6
HETATM    6  C2  UNL     1       5.675  -6.164   0.941  1.00  0.00    -0.002 C 
HETATM    7  C1  UNL     1       5.885  -7.640   1.035  1.00  0.00     0.005 C 
ENDBRANCH   5   6
ENDBRANCH   4   5
BRANCH   4   8
HETATM    8  O1  UNL     1       4.734  -3.696  -0.109  1.00  0.00    -0.396 OA
ATOM      9  H1  UNL     1       4.188  -4.230  -0.674  1.00  0.00     0.210 HD
ENDBRANCH   4   8
ENDBRANCH   3   4
ENDBRANCH   2   3
ENDBRANCH   1   2
BRANCH   1  10
HETATM   10  C8  UNL     1       5.143  -0.341  -1.748  1.00  0.00     0.040 C 
BRANCH  10  11
HETATM   11  C9  UNL     1       4.412  -0.418  -0.486  1.00  0.00     0.186 C 
HETATM   12  C10 UNL     1       5.012   0.037   0.769  1.00  0.00     0.033 C 
HETATM   13  C11 UNL     1       4.010   0.789   1.671  1.00  0.00     0.004 C 
HETATM   14  C12 UNL     1       2.722   0.036   1.723  1.00  0.00     0.027 C 
HETATM   15  C13 UNL     1       2.177  -0.007   0.300  1.00  0.00     0.232 C 
HETATM   16  N1  UNL     1       3.156   0.369  -0.667  1.00  0.00    -0.071 N 
ATOM     17  H12 UNL     1       3.335   1.373  -0.651  1.00  0.00     0.277 HD
ATOM     18  H11 UNL     1       2.796   0.292  -1.619  1.00  0.00     0.277 HD
ENDBRANCH  10  11
ENDBRANCH   1  10
BRANCH   1  19
HETATM   19  C14 UNL     1       7.432   0.185  -2.221  1.00  0.00     0.118 C 
HETATM   20  C15 UNL     1       8.701  -0.146  -1.516  1.00  0.00     0.040 C 
BRANCH  19  21
HETATM   21  O2  UNL     1       7.706   0.423  -3.547  1.00  0.00    -0.396 OA
ATOM     22  H2  UNL     1       7.719   1.359  -3.712  1.00  0.00     0.210 HD
ENDBRANCH  19  21
ENDBRANCH   1  19
TORSDOF 10
ENDMDL
MODEL 5
REMARK VINA RESULT: -6.280580121      2.448      4.528
REMARK  10 active torsions:
REMARK  status: ('A' for Active; 'I' for Inactive)
REMARK    1  A    between atoms: C2_2  and  C3_3 
REMARK    2  A    between atoms: C3_3  and  C4_4 
REMARK    3  A    between atoms: C4_4  and  O1_5 
REMARK    4  A    between atoms: C4_4  and  C5_7 
REMARK    5  A    between atoms: C5_7  and  C6_8 
REMARK    6  A    between atoms: C6_8  and  C7_9 
REMARK    7  A    between atoms: C7_9  and  C8_10 
REMARK    8  A    between atoms: C7_9  and  C14_19 
REMARK    9  A    between atoms: C8_10  and  C9_11 
REMARK   10  A    between atoms: C14_19  and  O2_21 
ROOT
HETATM    1  C7  UNL     1       4.644  -0.498   0.795  1.00  0.00     0.016 C 
ENDROOT
BRANCH   1   2
HETATM    2  C6  UNL     1       4.487  -1.648  -0.072  1.00  0.00     0.010 C 
BRANCH   2   3
HETATM    3  C5  UNL     1       5.236  -2.911   0.095  1.00  0.00     0.032 C 
BRANCH   3   4
HETATM    4  C4  UNL     1       6.005  -3.308  -1.159  1.00  0.00     0.118 C 
BRANCH   4   5
HETATM    5  C3  UNL     1       6.450  -4.742  -0.968  1.00  0.00     0.031 C 
BRANCH   5   6
HETATM    6  C2  UNL     1       5.405  -5.421  -0.100  1.00  0.00    -0.002 C 
HETATM    7  C1  UNL     1       5.948  -6.595   0.645  1.00  0.00     0.005 C 
ENDBRANCH   5   6
ENDBRANCH   4   5
BRANCH   4   8
HETATM    8  O1  UNL     1       7.132  -2.493  -1.221  1.00  0.00    -0.396 OA
ATOM      9  H1  UNL     1       7.012  -1.857  -1.916  1.00  0.00     0.210 HD
ENDBRANCH   4   8
ENDBRANCH   3   4
ENDBRANCH   2   3
ENDBRANCH   1   2
BRANCH   1  10
HETATM   10  C8  UNL     1       5.377   0.729   0.563  1.00  0.00     0.040 C 
BRANCH  10  11
HETATM   11  C9  UNL     1       6.763   1.028   0.912  1.00  0.00     0.186 C 
HETATM   12  C10 UNL     1       7.121   1.538   2.236  1.00  0.00     0.033 C 
HETATM   13  C11 UNL     1       8.425   0.918   2.781  1.00  0.00     0.004 C 
HETATM   14  C12 UNL     1       9.464   0.917   1.709  1.00  0.00     0.027 C 
HETATM   15  C13 UNL     1       8.930   0.043   0.578  1.00  0.00     0.232 C 
HETATM   16  N1  UNL     1       7.538  -0.233   0.718  1.00  0.00    -0.071 N 
ATOM     17  H12 UNL     1       7.359  -0.904   1.465  1.00  0.00     0.277 HD
ATOM     18  H11 UNL     1       7.181  -0.779  -0.067  1.00  0.00     0.277 HD
ENDBRANCH  10  11
ENDBRANCH   1  10
BRANCH   1  19
HETATM   19  C14 UNL     1       3.238  -0.045   1.316  1.00  0.00     0.118 C 
HETATM   20  C15 UNL     1       2.278   0.119   0.190  1.00  0.00     0.040 C 
BRANCH  19  21
HETATM   21  O2  UNL     1       2.742  -0.980   2.194  1.00  0.00    -0.396 OA
ATOM     22  H2  UNL     1       1.814  -1.110   2.037  1.00  0.00     0.210 HD
ENDBRANCH  19  21
ENDBRANCH   1  19
TORSDOF 10
ENDMDL
