MODEL 1
REMARK VINA RESULT: -6.101799371      0.000      0.000
REMARK  10 active torsions:
REMARK  status: ('A' for Active; 'I' for Inactive)
REMARK    1  A    between atoms: O1_1  and  C1_3 
REMARK    2  A    between atoms: C1_3  and  C2_4 
REMARK    3  A    between atoms: C1_3  and  C9_16 
REMARK    4  A    between atoms: C2_4  and  N1_5 
REMARK    5  A    between atoms: N1_5  and  C3_8 
REMARK    6  A    between atoms: C3_8  and  C4_9 
REMARK    7  A    between atoms: C4_9  and  O2_10 
REMARK    8  A    between atoms: C4_9  and  C5_12 
REMARK    9  A    between atoms: C5_12  and  C6_13 
REMARK   10  A    between atoms: C9_16  and  C10_17 
ROOT
HETATM    1  C2  UNL     1       5.612   0.361  -1.616  1.00  0.00     0.264 C 
ENDROOT
BRANCH   1   2
HETATM    2  C1  UNL     1       6.607  -0.607  -2.281  1.00  0.00     0.144 C 
BRANCH   2   3
HETATM    3  O1  UNL     1       7.700   0.104  -2.717  1.00  0.00    -0.394 OA
ATOM      4  H1  UNL     1       8.427  -0.494  -2.845  1.00  0.00     0.210 HD
ENDBRANCH   2   3
BRANCH   2   5
HETATM    5  C9  UNL     1       6.951  -1.686  -1.278  1.00  0.00     0.038 C 
BRANCH   5   6
HETATM    6  C10 UNL     1       6.107  -2.910  -1.436  1.00  0.00    -0.012 C 
HETATM    7  C11 UNL     1       6.900  -4.165  -1.575  1.00  0.00     0.005 C 
HETATM    8  C12 UNL     1       6.271  -5.368  -0.942  1.00  0.00     0.000 C 
HETATM    9  C13 UNL     1       5.791  -5.157   0.458  1.00  0.00     0.000 C 
HETATM   10  C14 UNL     1       5.741  -3.707   0.864  1.00  0.00     0.000 C 
HETATM   11  C15 UNL     1       5.128  -2.946  -0.289  1.00  0.00     0.005 C 
ENDBRANCH   5   6
ENDBRANCH   2   5
ENDBRANCH   1   2
BRANCH   1  12
HETATM   12  N1  UNL     1       4.376   0.325  -2.317  1.00  0.00    -0.070 N 
ATOM     13  H12 UNL     1       4.532   0.155  -3.311  1.00  0.00     0.277 HD
ATOM     14  H11 UNL     1       3.852  -0.517  -2.080  1.00  0.00     0.277 HD
BRANCH  12  15
HETATM   15  C3  UNL     1       3.571   1.488  -2.126  1.00  0.00     0.264 C 
BRANCH  15  16
HETATM   16  C4  UNL     1       2.285   1.053  -1.425  1.00  0.00     0.144 C 
BRANCH  16  17
HETATM   17  O2  UNL     1       1.195   1.433  -2.241  1.00  0.00    -0.394 OA
ATOM     18  H2  UNL     1       0.653   2.035  -1.744  1.00  0.00     0.210 HD
ENDBRANCH  16  17
BRANCH  16  19
HETATM   19  C5  UNL     1       2.155   1.800  -0.091  1.00  0.00     0.038 C 
BRANCH  19  20
HETATM   20  C6  UNL     1       2.127   0.775   1.026  1.00  0.00    -0.012 A 
HETATM   21  C7  UNL     1       3.459   0.192   1.428  1.00  0.00     0.005 A 
HETATM   22  C8  UNL     1       2.409  -0.650   0.738  1.00  0.00     0.005 A 
ENDBRANCH  19  20
ENDBRANCH  16  19
ENDBRANCH  15  16
ENDBRANCH  12  15
ENDBRANCH   1  12
TORSDOF 10
ENDMDL
MODEL 2
REMARK VINA RESULT: -6.092465898      1.314      1.522
REMARK  10 active torsions:
REMARK  status: ('A' for Active; 'I' for Inactive)
REMARK    1  A    between atoms: O1_1  and  C1_3 
REMARK    2  A    between atoms: C1_3  and  C2_4 
REMARK    3  A    between atoms: C1_3  and  C9_16 
REMARK    4  A    between atoms: C2_4  and  N1_5 
REMARK    5  A    between atoms: N1_5  and  C3_8 
REMARK    6  A    between atoms: C3_8  and  C4_9 
REMARK    7  A    between atoms: C4_9  and  O2_10 
REMARK    8  A    between atoms: C4_9  and  C5_12 
REMARK    9  A    between atoms: C5_12  and  C6_13 
REMARK   10  A    between atoms: C9_16  and  C10_17 
ROOT
HETATM    1  C2  UNL     1       5.051   0.479  -1.827  1.00  0.00     0.264 C 
ENDROOT
BRANCH   1   2
HETATM    2  C1  UNL     1       6.061   0.459  -0.664  1.00  0.00     0.144 C 
BRANCH   2   3
HETATM    3  O1  UNL     1       5.811   1.527   0.164  1.00  0.00    -0.394 OA
ATOM      4  H1  UNL     1       6.568   1.673   0.718  1.00  0.00     0.210 HD
ENDBRANCH   2   3
BRANCH   2   5
HETATM    5  C9  UNL     1       5.950  -0.881   0.029  1.00  0.00     0.038 C 
BRANCH   5   6
HETATM    6  C10 UNL     1       5.667  -2.000  -0.922  1.00  0.00    -0.012 C 
HETATM    7  C11 UNL     1       6.896  -2.581  -1.537  1.00  0.00     0.005 C 
HETATM    8  C12 UNL     1       6.826  -4.057  -1.781  1.00  0.00     0.000 C 
HETATM    9  C13 UNL     1       6.346  -4.860  -0.616  1.00  0.00     0.000 C 
HETATM   10  C14 UNL     1       5.727  -4.025   0.476  1.00  0.00     0.000 C 
HETATM   11  C15 UNL     1       4.823  -3.018  -0.197  1.00  0.00     0.005 C 
ENDBRANCH   5   6
ENDBRANCH   2   5
ENDBRANCH   1   2
BRANCH   1  12
HETATM   12  N1  UNL     1       4.536   1.795  -1.983  1.00  0.00    -0.070 N 
ATOM     13  H12 UNL     1       4.232   2.171  -1.084  1.00  0.00     0.277 HD
ATOM     14  H11 UNL     1       5.286   2.451  -2.199  1.00  0.00     0.277 HD
BRANCH  12  15
HETATM   15  C3  UNL     1       3.489   1.892  -2.949  1.00  0.00     0.264 C 
BRANCH  15  16
HETATM   16  C4  UNL     1       2.253   1.210  -2.365  1.00  0.00     0.144 C 
BRANCH  16  17
HETATM   17  O2  UNL     1       1.265   1.160  -3.375  1.00  0.00    -0.394 OA
ATOM     18  H2  UNL     1       0.457   0.857  -2.980  1.00  0.00     0.210 HD
ENDBRANCH  16  17
BRANCH  16  19
HETATM   19  C5  UNL     1       1.701   2.059  -1.212  1.00  0.00     0.038 C 
BRANCH  19  20
HETATM   20  C6  UNL     1       1.350   1.132  -0.065  1.00  0.00    -0.012 A 
HETATM   21  C7  UNL     1       2.400   0.972   1.006  1.00  0.00     0.005 A 
HETATM   22  C8  UNL     1       2.043  -0.169   0.081  1.00  0.00     0.005 A 
ENDBRANCH  19  20
ENDBRANCH  16  19
ENDBRANCH  15  16
ENDBRANCH  12  15
ENDBRANCH   1  12
TORSDOF 10
ENDMDL
MODEL 3
REMARK VINA RESULT: -6.059393925      1.974      3.549
REMARK  10 active torsions:
REMARK  status: ('A' for Active; 'I' for Inactive)
REMARK    1  A    between atoms: O1_1  and  C1_3 
REMARK    2  A    between atoms: C1_3  and  C2_4 
REMARK    3  A    between atoms: C1_3  and  C9_16 
REMARK    4  A    between atoms: C2_4  and  N1_5 
REMARK    5  A    between atoms: N1_5  and  C3_8 
REMARK    6  A    between atoms: C3_8  and  C4_9 
REMARK    7  A    between atoms: C4_9  and  O2_10 
REMARK    8  A    between atoms: C4_9  and  C5_12 
REMARK    9  A    between atoms: C5_12  and  C6_13 
REMARK   10  A    between atoms: C9_16  and  C10_17 
ROOT
HETATM    1  C2  UNL     1       3.373   0.848   0.554  1.00  0.00     0.264 C 
ENDROOT
BRANCH   1   2
HETATM    2  C1  UNL     1       3.868  -0.498   1.116  1.00  0.00     0.144 C 
BRANCH   2   3
HETATM    3  O1  UNL     1       2.907  -1.014   1.953  1.00  0.00    -0.394 OA
ATOM      4  H1  UNL     1       3.095  -1.932   2.110  1.00  0.00     0.210 HD
ENDBRANCH   2   3
BRANCH   2   5
HETATM    5  C9  UNL     1       4.195  -1.401  -0.054  1.00  0.00     0.038 C 
BRANCH   5   6
HETATM    6  C10 UNL     1       5.355  -2.303   0.221  1.00  0.00    -0.012 C 
HETATM    7  C11 UNL     1       5.047  -3.747   0.009  1.00  0.00     0.005 C 
HETATM    8  C12 UNL     1       6.191  -4.551  -0.529  1.00  0.00     0.000 C 
HETATM    9  C13 UNL     1       6.881  -3.942  -1.708  1.00  0.00     0.000 C 
HETATM   10  C14 UNL     1       6.509  -2.501  -1.944  1.00  0.00     0.000 C 
HETATM   11  C15 UNL     1       6.524  -1.815  -0.598  1.00  0.00     0.005 C 
ENDBRANCH   5   6
ENDBRANCH   2   5
ENDBRANCH   1   2
BRANCH   1  12
HETATM   12  N1  UNL     1       2.709   0.628  -0.684  1.00  0.00    -0.070 N 
ATOM     13  H12 UNL     1       3.308   0.106  -1.325  1.00  0.00     0.277 HD
ATOM     14  H11 UNL     1       1.951  -0.045  -0.571  1.00  0.00     0.277 HD
BRANCH  12  15
HETATM   15  C3  UNL     1       2.232   1.823  -1.302  1.00  0.00     0.264 C 
BRANCH  15  16
HETATM   16  C4  UNL     1       2.403   1.666  -2.812  1.00  0.00     0.144 C 
BRANCH  16  17
HETATM   17  O2  UNL     1       1.204   1.129  -3.332  1.00  0.00    -0.394 OA
ATOM     18  H2  UNL     1       1.433   0.488  -3.995  1.00  0.00     0.210 HD
ENDBRANCH  16  17
BRANCH  16  19
HETATM   19  C5  UNL     1       3.527   0.661  -3.094  1.00  0.00     0.038 C 
BRANCH  19  20
HETATM   20  C6  UNL     1       4.796   1.437  -3.388  1.00  0.00    -0.012 A 
HETATM   21  C7  UNL     1       6.009   0.617  -3.752  1.00  0.00     0.005 A 
HETATM   22  C8  UNL     1       5.940   1.382  -2.449  1.00  0.00     0.005 A 
ENDBRANCH  19  20
ENDBRANCH  16  19
ENDBRANCH  15  16
ENDBRANCH  12  15
ENDBRANCH   1  12
TORSDOF 10
ENDMDL
MODEL 4
REMARK VINA RESULT: -6.051702686      1.057      1.644
REMARK  10 active torsions:
REMARK  status: ('A' for Active; 'I' for Inactive)
REMARK    1  A    between atoms: O1_1  and  C1_3 
REMARK    2  A    between atoms: C1_3  and  C2_4 
REMARK    3  A    between atoms: C1_3  and  C9_16 
REMARK    4  A    between atoms: C2_4  and  N1_5 
REMARK    5  A    between atoms: N1_5  and  C3_8 
REMARK    6  A    between atoms: C3_8  and  C4_9 
REMARK    7  A    between atoms: C4_9  and  O2_10 
REMARK    8  A    between atoms: C4_9  and  C5_12 
REMARK    9  A    between atoms: C5_12  and  C6_13 
REMARK   10  A    between atoms: C9_16  and  C10_17 
ROOT
HETATM    1  C2  UNL     1       5.463   1.224  -2.750  1.00  0.00     0.264 C 
ENDROOT
BRANCH   1   2
HETATM    2  C1  UNL     1       6.035   0.410  -1.575  1.00  0.00     0.144 C 
BRANCH   2   3
HETATM    3  O1  UNL     1       5.932   1.153  -0.423  1.00  0.00    -0.394 OA
ATOM      4  H1  UNL     1       5.391   0.682   0.200  1.00  0.00     0.210 HD
ENDBRANCH   2   3
BRANCH   2   5
HETATM    5  C9  UNL     1       5.291  -0.907  -1.513  1.00  0.00     0.038 C 
BRANCH   5   6
HETATM    6  C10 UNL     1       5.892  -1.862  -0.533  1.00  0.00    -0.012 C 
HETATM    7  C11 UNL     1       4.940  -2.911  -0.065  1.00  0.00     0.005 C 
HETATM    8  C12 UNL     1       5.568  -4.247   0.189  1.00  0.00     0.000 C 
HETATM    9  C13 UNL     1       6.454  -4.739  -0.910  1.00  0.00     0.000 C 
HETATM   10  C14 UNL     1       6.802  -3.679  -1.922  1.00  0.00     0.000 C 
HETATM   11  C15 UNL     1       7.148  -2.427  -1.150  1.00  0.00     0.005 C 
ENDBRANCH   5   6
ENDBRANCH   2   5
ENDBRANCH   1   2
BRANCH   1  12
HETATM   12  N1  UNL     1       4.159   0.752  -3.062  1.00  0.00    -0.070 N 
ATOM     13  H12 UNL     1       4.128   0.381  -4.012  1.00  0.00     0.277 HD
ATOM     14  H11 UNL     1       3.951  -0.099  -2.540  1.00  0.00     0.277 HD
BRANCH  12  15
HETATM   15  C3  UNL     1       3.132   1.724  -2.867  1.00  0.00     0.264 C 
BRANCH  15  16
HETATM   16  C4  UNL     1       2.155   1.167  -1.833  1.00  0.00     0.144 C 
BRANCH  16  17
HETATM   17  O2  UNL     1       0.846   1.520  -2.236  1.00  0.00    -0.394 OA
ATOM     18  H2  UNL     1       0.240   1.192  -1.583  1.00  0.00     0.210 HD
ENDBRANCH  16  17
BRANCH  16  19
HETATM   19  C5  UNL     1       2.421   1.829  -0.474  1.00  0.00     0.038 C 
BRANCH  19  20
HETATM   20  C6  UNL     1       1.958   0.880   0.614  1.00  0.00    -0.012 A 
HETATM   21  C7  UNL     1       3.045   0.161   1.376  1.00  0.00     0.005 A 
HETATM   22  C8  UNL     1       2.115  -0.583   0.444  1.00  0.00     0.005 A 
ENDBRANCH  19  20
ENDBRANCH  16  19
ENDBRANCH  15  16
ENDBRANCH  12  15
ENDBRANCH   1  12
TORSDOF 10
ENDMDL
MODEL 5
REMARK VINA RESULT: -6.049841615      1.631      2.184
REMARK  10 active torsions:
REMARK  status: ('A' for Active; 'I' for Inactive)
REMARK    1  A    between atoms: O1_1  and  C1_3 
REMARK    2  A    between atoms: C1_3  and  C2_4 
REMARK    3  A    between atoms: C1_3  and  C9_16 
REMARK    4  A    between atoms: C2_4  and  N1_5 
REMARK    5  A    between atoms: N1_5  and  C3_8 
REMARK    6  A    between atoms: C3_8  and  C4_9 
REMARK    7  A    between atoms: C4_9  and  O2_10 
REMARK    8  A    between atoms: C4_9  and  C5_12 
REMARK    9  A    between atoms: C5_12  and  C6_13 
REMARK   10  A    between atoms: C9_16  and  C10_17 
ROOT
HETATM    1  C2  UNL     1       6.674   0.412  -0.861  1.00  0.00     0.264 C 
ENDROOT
BRANCH   1   2
HETATM    2  C1  UNL     1       6.343  -0.694  -1.881  1.00  0.00     0.144 C 
BRANCH   2   3
HETATM    3  O1  UNL     1       6.706  -0.268  -3.136  1.00  0.00    -0.394 OA
ATOM      4  H1  UNL     1       7.108  -0.991  -3.603  1.00  0.00     0.210 HD
ENDBRANCH   2   3
BRANCH   2   5
HETATM    5  C9  UNL     1       7.050  -1.959  -1.444  1.00  0.00     0.038 C 
BRANCH   5   6
HETATM    6  C10 UNL     1       6.161  -3.160  -1.487  1.00  0.00    -0.012 C 
HETATM    7  C11 UNL     1       6.906  -4.452  -1.468  1.00  0.00     0.005 C 
HETATM    8  C12 UNL     1       6.217  -5.552  -0.722  1.00  0.00     0.000 C 
HETATM    9  C13 UNL     1       5.720  -5.169   0.635  1.00  0.00     0.000 C 
HETATM   10  C14 UNL     1       5.720  -3.682   0.878  1.00  0.00     0.000 C 
HETATM   11  C15 UNL     1       5.160  -3.031  -0.365  1.00  0.00     0.005 C 
ENDBRANCH   5   6
ENDBRANCH   2   5
ENDBRANCH   1   2
BRANCH   1  12
HETATM   12  N1  UNL     1       5.470   0.901  -0.286  1.00  0.00    -0.070 N 
ATOM     13  H12 UNL     1       5.492   1.918  -0.216  1.00  0.00     0.277 HD
ATOM     14  H11 UNL     1       4.691   0.791  -0.936  1.00  0.00     0.277 HD
BRANCH  12  15
HETATM   15  C3  UNL     1       5.156   0.316   0.978  1.00  0.00     0.264 C 
BRANCH  15  16
HETATM   16  C4  UNL     1       3.634   0.235   1.087  1.00  0.00     0.144 C 
BRANCH  16  17
HETATM   17  O2  UNL     1       3.309  -0.971   1.749  1.00  0.00    -0.394 OA
ATOM     18  H2  UNL     1       2.833  -0.751   2.541  1.00  0.00     0.210 HD
ENDBRANCH  16  17
BRANCH  16  19
HETATM   19  C5  UNL     1       3.026   0.175  -0.320  1.00  0.00     0.038 C 
BRANCH  19  20
HETATM   20  C6  UNL     1       1.569   0.585  -0.226  1.00  0.00    -0.012 A 
HETATM   21  C7  UNL     1       1.115   1.653  -1.189  1.00  0.00     0.005 A 
HETATM   22  C8  UNL     1       1.202   1.921   0.297  1.00  0.00     0.005 A 
ENDBRANCH  19  20
ENDBRANCH  16  19
ENDBRANCH  15  16
ENDBRANCH  12  15
ENDBRANCH   1  12
TORSDOF 10
ENDMDL
