MODEL 1
REMARK VINA RESULT: -5.878184670      0.000      0.000
REMARK  10 active torsions:
REMARK  status: ('A' for Active; 'I' for Inactive)
REMARK    1  A    between atoms: C2_2  and  C4_4 
REMARK    2  A    between atoms: C4_4  and  N1_5 
REMARK    3  A    between atoms: C4_4  and  C13_21 
REMARK    4  A    between atoms: N1_5  and  C5_7 
REMARK    5  A    between atoms: C5_7  and  C6_8 
REMARK    6  A    between atoms: C6_8  and  N2_9 
REMARK    7  A    between atoms: N2_9  and  C7_11 
REMARK    8  A    between atoms: C7_11  and  C8_12 
REMARK    9  A    between atoms: C8_12  and  C9_17 
REMARK   10  A    between atoms: N3_13  and  O1_15 
ROOT
HETATM    1  N2  UNL     1       2.366   0.230   0.093  1.00  0.00    -0.396 N 
ATOM      2  H2  UNL     1       2.598   0.042  -0.882  1.00  0.00     0.159 HD
ENDROOT
BRANCH   1   3
HETATM    3  C6  UNL     1       2.839  -0.661   1.065  1.00  0.00     0.138 C 
BRANCH   3   4
HETATM    4  C5  UNL     1       4.333  -1.017   0.745  1.00  0.00     0.133 C 
BRANCH   4   5
HETATM    5  N1  UNL     1       4.438  -2.040  -0.203  1.00  0.00    -0.415 N 
ATOM      6  H1  UNL     1       3.658  -2.246  -0.827  1.00  0.00     0.153 HD
BRANCH   5   7
HETATM    7  C4  UNL     1       5.620  -2.775  -0.285  1.00  0.00     0.084 C 
BRANCH   7   8
HETATM    8  C2  UNL     1       5.617  -4.249  -0.152  1.00  0.00     0.000 C 
HETATM    9  C1  UNL     1       6.517  -5.053  -1.019  1.00  0.00     0.011 C 
HETATM   10  C3  UNL     1       5.758  -4.715   1.289  1.00  0.00     0.011 C 
ENDBRANCH   7   8
BRANCH   7  11
HETATM   11  C13 UNL     1       6.444  -2.440  -1.544  1.00  0.00     0.008 A 
HETATM   12  C14 UNL     1       7.566  -1.416  -1.349  1.00  0.00     0.007 A 
HETATM   13  C15 UNL     1       6.318  -1.096  -2.151  1.00  0.00     0.007 A 
ENDBRANCH   7  11
ENDBRANCH   5   7
ENDBRANCH   4   5
ENDBRANCH   3   4
ENDBRANCH   1   3
BRANCH   1  14
HETATM   14  C7  UNL     1       1.605   1.348   0.375  1.00  0.00     0.111 C 
BRANCH  14  15
HETATM   15  C8  UNL     1       0.860   2.079  -0.643  1.00  0.00     0.054 C 
HETATM   16  N3  UNL     1       0.796   1.853  -1.824  1.00  0.00    -0.271 N 
ATOM     17  H3  UNL     1       0.180   2.609  -2.124  1.00  0.00     0.194 HD
BRANCH  16  18
HETATM   18  O1  UNL     1       1.001   1.283  -2.917  1.00  0.00    -0.290 OA
ATOM     19  H1  UNL     1       0.990   1.130  -3.854  1.00  0.00     0.244 HD
ENDBRANCH  16  18
BRANCH  15  20
HETATM   20  C9  UNL     1       0.084   3.284  -0.128  1.00  0.00    -0.005 C 
HETATM   21  C10 UNL     1       0.440   4.489  -0.979  1.00  0.00     0.021 C 
HETATM   22  C11 UNL     1      -1.390   3.087  -0.177  1.00  0.00     0.021 C 
HETATM   23  C12 UNL     1       0.463   3.576   1.312  1.00  0.00     0.021 C 
ENDBRANCH  15  20
ENDBRANCH  14  15
ENDBRANCH   1  14
TORSDOF 10
ENDMDL
MODEL 2
REMARK VINA RESULT: -5.824920847      5.930     10.223
REMARK  10 active torsions:
REMARK  status: ('A' for Active; 'I' for Inactive)
REMARK    1  A    between atoms: C2_2  and  C4_4 
REMARK    2  A    between atoms: C4_4  and  N1_5 
REMARK    3  A    between atoms: C4_4  and  C13_21 
REMARK    4  A    between atoms: N1_5  and  C5_7 
REMARK    5  A    between atoms: C5_7  and  C6_8 
REMARK    6  A    between atoms: C6_8  and  N2_9 
REMARK    7  A    between atoms: N2_9  and  C7_11 
REMARK    8  A    between atoms: C7_11  and  C8_12 
REMARK    9  A    between atoms: C8_12  and  C9_17 
REMARK   10  A    between atoms: N3_13  and  O1_15 
ROOT
HETATM    1  N2  UNL     1      10.970  -0.989  -2.631  1.00  0.00    -0.396 N 
ATOM      2  H2  UNL     1      10.345  -1.625  -3.126  1.00  0.00     0.159 HD
ENDROOT
BRANCH   1   3
HETATM    3  C6  UNL     1      10.594  -0.563  -1.351  1.00  0.00     0.138 C 
BRANCH   3   4
HETATM    4  C5  UNL     1       9.066  -0.210  -1.359  1.00  0.00     0.133 C 
BRANCH   4   5
HETATM    5  N1  UNL     1       8.269  -1.330  -1.619  1.00  0.00    -0.415 N 
ATOM      6  H1  UNL     1       8.589  -2.052  -2.264  1.00  0.00     0.153 HD
BRANCH   5   7
HETATM    7  C4  UNL     1       7.033  -1.449  -0.986  1.00  0.00     0.084 C 
BRANCH   7   8
HETATM    8  C2  UNL     1       6.111  -0.296  -0.882  1.00  0.00     0.000 C 
HETATM    9  C1  UNL     1       5.000  -0.173  -1.861  1.00  0.00     0.011 C 
HETATM   10  C3  UNL     1       5.568  -0.095   0.524  1.00  0.00     0.011 C 
ENDBRANCH   7   8
BRANCH   7  11
HETATM   11  C13 UNL     1       6.206  -2.639  -1.510  1.00  0.00     0.008 A 
HETATM   12  C14 UNL     1       5.917  -3.746  -0.491  1.00  0.00     0.007 A 
HETATM   13  C15 UNL     1       6.859  -3.960  -1.662  1.00  0.00     0.007 A 
ENDBRANCH   7  11
ENDBRANCH   5   7
ENDBRANCH   4   5
ENDBRANCH   3   4
ENDBRANCH   1   3
BRANCH   1  14
HETATM   14  C7  UNL     1      12.135  -0.601  -3.264  1.00  0.00     0.111 C 
BRANCH  14  15
HETATM   15  C8  UNL     1      13.332  -1.431  -3.303  1.00  0.00     0.054 C 
HETATM   16  N3  UNL     1      13.486  -2.537  -2.852  1.00  0.00    -0.271 N 
ATOM     17  H3  UNL     1      14.459  -2.707  -3.108  1.00  0.00     0.194 HD
BRANCH  16  18
HETATM   18  O1  UNL     1      13.215  -3.610  -2.271  1.00  0.00    -0.290 OA
ATOM     19  H1  UNL     1      13.335  -4.382  -1.731  1.00  0.00     0.244 HD
ENDBRANCH  16  18
BRANCH  15  20
HETATM   20  C9  UNL     1      14.532  -0.795  -3.994  1.00  0.00    -0.005 C 
HETATM   21  C10 UNL     1      15.797  -1.443  -3.464  1.00  0.00     0.021 C 
HETATM   22  C11 UNL     1      14.500  -0.956  -5.474  1.00  0.00     0.021 C 
HETATM   23  C12 UNL     1      14.583   0.691  -3.694  1.00  0.00     0.021 C 
ENDBRANCH  15  20
ENDBRANCH  14  15
ENDBRANCH   1  14
TORSDOF 10
ENDMDL
MODEL 3
REMARK VINA RESULT: -5.770494738      6.041     10.330
REMARK  10 active torsions:
REMARK  status: ('A' for Active; 'I' for Inactive)
REMARK    1  A    between atoms: C2_2  and  C4_4 
REMARK    2  A    between atoms: C4_4  and  N1_5 
REMARK    3  A    between atoms: C4_4  and  C13_21 
REMARK    4  A    between atoms: N1_5  and  C5_7 
REMARK    5  A    between atoms: C5_7  and  C6_8 
REMARK    6  A    between atoms: C6_8  and  N2_9 
REMARK    7  A    between atoms: N2_9  and  C7_11 
REMARK    8  A    between atoms: C7_11  and  C8_12 
REMARK    9  A    between atoms: C8_12  and  C9_17 
REMARK   10  A    between atoms: N3_13  and  O1_15 
ROOT
HETATM    1  N2  UNL     1      11.155  -0.623  -3.409  1.00  0.00    -0.396 N 
ATOM      2  H2  UNL     1      10.440  -0.951  -4.058  1.00  0.00     0.159 HD
ENDROOT
BRANCH   1   3
HETATM    3  C6  UNL     1      10.868  -0.666  -2.038  1.00  0.00     0.138 C 
BRANCH   3   4
HETATM    4  C5  UNL     1       9.356  -0.312  -1.823  1.00  0.00     0.133 C 
BRANCH   4   5
HETATM    5  N1  UNL     1       8.545  -1.452  -1.807  1.00  0.00    -0.415 N 
ATOM      6  H1  UNL     1       8.830  -2.293  -2.309  1.00  0.00     0.153 HD
BRANCH   5   7
HETATM    7  C4  UNL     1       7.346  -1.426  -1.098  1.00  0.00     0.084 C 
BRANCH   7   8
HETATM    8  C2  UNL     1       6.572  -0.173  -0.946  1.00  0.00     0.000 C 
HETATM    9  C1  UNL     1       5.300  -0.016  -1.698  1.00  0.00     0.011 C 
HETATM   10  C3  UNL     1       6.349   0.215   0.508  1.00  0.00     0.011 C 
ENDBRANCH   7   8
BRANCH   7  11
HETATM   11  C13 UNL     1       6.355  -2.511  -1.561  1.00  0.00     0.008 A 
HETATM   12  C14 UNL     1       5.967  -3.550  -0.505  1.00  0.00     0.007 A 
HETATM   13  C15 UNL     1       6.829  -3.907  -1.703  1.00  0.00     0.007 A 
ENDBRANCH   7  11
ENDBRANCH   5   7
ENDBRANCH   4   5
ENDBRANCH   3   4
ENDBRANCH   1   3
BRANCH   1  14
HETATM   14  C7  UNL     1      12.347  -0.163  -3.935  1.00  0.00     0.111 C 
BRANCH  14  15
HETATM   15  C8  UNL     1      13.428  -1.050  -4.346  1.00  0.00     0.054 C 
HETATM   16  N3  UNL     1      13.549  -1.643  -5.388  1.00  0.00    -0.271 N 
ATOM     17  H3  UNL     1      14.432  -2.126  -5.224  1.00  0.00     0.194 HD
BRANCH  16  18
HETATM   18  O1  UNL     1      13.282  -2.045  -6.541  1.00  0.00    -0.290 OA
ATOM     19  H1  UNL     1      13.364  -2.532  -7.352  1.00  0.00     0.244 HD
ENDBRANCH  16  18
BRANCH  15  20
HETATM   20  C9  UNL     1      14.526  -1.247  -3.310  1.00  0.00    -0.005 C 
HETATM   21  C10 UNL     1      14.227  -2.506  -2.519  1.00  0.00     0.021 C 
HETATM   22  C11 UNL     1      15.879  -1.378  -3.917  1.00  0.00     0.021 C 
HETATM   23  C12 UNL     1      14.563  -0.069  -2.354  1.00  0.00     0.021 C 
ENDBRANCH  15  20
ENDBRANCH  14  15
ENDBRANCH   1  14
TORSDOF 10
ENDMDL
MODEL 4
REMARK VINA RESULT: -5.750899649      3.201      4.018
REMARK  10 active torsions:
REMARK  status: ('A' for Active; 'I' for Inactive)
REMARK    1  A    between atoms: C2_2  and  C4_4 
REMARK    2  A    between atoms: C4_4  and  N1_5 
REMARK    3  A    between atoms: C4_4  and  C13_21 
REMARK    4  A    between atoms: N1_5  and  C5_7 
REMARK    5  A    between atoms: C5_7  and  C6_8 
REMARK    6  A    between atoms: C6_8  and  N2_9 
REMARK    7  A    between atoms: N2_9  and  C7_11 
REMARK    8  A    between atoms: C7_11  and  C8_12 
REMARK    9  A    between atoms: C8_12  and  C9_17 
REMARK   10  A    between atoms: N3_13  and  O1_15 
ROOT
HETATM    1  N2  UNL     1       2.764   0.174   2.162  1.00  0.00    -0.396 N 
ATOM      2  H2  UNL     1       2.429  -0.147   3.071  1.00  0.00     0.159 HD
ENDROOT
BRANCH   1   3
HETATM    3  C6  UNL     1       2.818  -0.756   1.116  1.00  0.00     0.138 C 
BRANCH   3   4
HETATM    4  C5  UNL     1       4.319  -1.106   0.823  1.00  0.00     0.133 C 
BRANCH   4   5
HETATM    5  N1  UNL     1       4.447  -2.082  -0.170  1.00  0.00    -0.415 N 
ATOM      6  H1  UNL     1       3.685  -2.253  -0.826  1.00  0.00     0.153 HD
BRANCH   5   7
HETATM    7  C4  UNL     1       5.627  -2.819  -0.254  1.00  0.00     0.084 C 
BRANCH   7   8
HETATM    8  C2  UNL     1       5.621  -4.293  -0.119  1.00  0.00     0.000 C 
HETATM    9  C1  UNL     1       6.506  -5.101  -0.999  1.00  0.00     0.011 C 
HETATM   10  C3  UNL     1       5.782  -4.758   1.320  1.00  0.00     0.011 C 
ENDBRANCH   7   8
BRANCH   7  11
HETATM   11  C13 UNL     1       6.449  -2.488  -1.515  1.00  0.00     0.008 A 
HETATM   12  C14 UNL     1       7.555  -1.444  -1.330  1.00  0.00     0.007 A 
HETATM   13  C15 UNL     1       6.304  -1.153  -2.140  1.00  0.00     0.007 A 
ENDBRANCH   7  11
ENDBRANCH   5   7
ENDBRANCH   4   5
ENDBRANCH   3   4
ENDBRANCH   1   3
BRANCH   1  14
HETATM   14  C7  UNL     1       3.136   1.498   2.039  1.00  0.00     0.111 C 
BRANCH  14  15
HETATM   15  C8  UNL     1       3.547   2.317   3.173  1.00  0.00     0.054 C 
HETATM   16  N3  UNL     1       2.900   2.627   4.141  1.00  0.00    -0.271 N 
ATOM     17  H3  UNL     1       3.582   3.192   4.646  1.00  0.00     0.194 HD
BRANCH  16  18
HETATM   18  O1  UNL     1       1.926   2.697   4.921  1.00  0.00    -0.290 OA
ATOM     19  H1  UNL     1       1.110   2.462   5.345  1.00  0.00     0.244 HD
ENDBRANCH  16  18
BRANCH  15  20
HETATM   20  C9  UNL     1       4.972   2.848   3.098  1.00  0.00    -0.005 C 
HETATM   21  C10 UNL     1       4.924   4.318   2.723  1.00  0.00     0.021 C 
HETATM   22  C11 UNL     1       5.710   2.711   4.384  1.00  0.00     0.021 C 
HETATM   23  C12 UNL     1       5.756   2.100   2.036  1.00  0.00     0.021 C 
ENDBRANCH  15  20
ENDBRANCH  14  15
ENDBRANCH   1  14
TORSDOF 10
ENDMDL
MODEL 5
REMARK VINA RESULT: -5.738723090      2.204      2.518
REMARK  10 active torsions:
REMARK  status: ('A' for Active; 'I' for Inactive)
REMARK    1  A    between atoms: C2_2  and  C4_4 
REMARK    2  A    between atoms: C4_4  and  N1_5 
REMARK    3  A    between atoms: C4_4  and  C13_21 
REMARK    4  A    between atoms: N1_5  and  C5_7 
REMARK    5  A    between atoms: C5_7  and  C6_8 
REMARK    6  A    between atoms: C6_8  and  N2_9 
REMARK    7  A    between atoms: N2_9  and  C7_11 
REMARK    8  A    between atoms: C7_11  and  C8_12 
REMARK    9  A    between atoms: C8_12  and  C9_17 
REMARK   10  A    between atoms: N3_13  and  O1_15 
ROOT
HETATM    1  N2  UNL     1       2.826   0.308   2.226  1.00  0.00    -0.396 N 
ATOM      2  H2  UNL     1       2.957  -0.021   3.182  1.00  0.00     0.159 HD
ENDROOT
BRANCH   1   3
HETATM    3  C6  UNL     1       2.841  -0.641   1.196  1.00  0.00     0.138 C 
BRANCH   3   4
HETATM    4  C5  UNL     1       4.329  -1.020   0.874  1.00  0.00     0.133 C 
BRANCH   4   5
HETATM    5  N1  UNL     1       4.420  -1.978  -0.141  1.00  0.00    -0.415 N 
ATOM      6  H1  UNL     1       3.626  -2.153  -0.757  1.00  0.00     0.153 HD
BRANCH   5   7
HETATM    7  C4  UNL     1       5.607  -2.690  -0.303  1.00  0.00     0.084 C 
BRANCH   7   8
HETATM    8  C2  UNL     1       5.634  -4.167  -0.207  1.00  0.00     0.000 C 
HETATM    9  C1  UNL     1       6.559  -4.929  -1.086  1.00  0.00     0.011 C 
HETATM   10  C3  UNL     1       5.771  -4.667   1.223  1.00  0.00     0.011 C 
ENDBRANCH   7   8
BRANCH   7  11
HETATM   11  C13 UNL     1       6.360  -2.310  -1.592  1.00  0.00     0.008 A 
HETATM   12  C14 UNL     1       7.496  -1.296  -1.424  1.00  0.00     0.007 A 
HETATM   13  C15 UNL     1       6.206  -0.944  -2.141  1.00  0.00     0.007 A 
ENDBRANCH   7  11
ENDBRANCH   5   7
ENDBRANCH   4   5
ENDBRANCH   3   4
ENDBRANCH   1   3
BRANCH   1  14
HETATM   14  C7  UNL     1       2.645   1.663   2.025  1.00  0.00     0.111 C 
BRANCH  14  15
HETATM   15  C8  UNL     1       1.354   2.323   2.179  1.00  0.00     0.054 C 
HETATM   16  N3  UNL     1       0.650   2.363   3.156  1.00  0.00    -0.271 N 
ATOM     17  H3  UNL     1      -0.129   2.917   2.800  1.00  0.00     0.194 HD
BRANCH  16  18
HETATM   18  O1  UNL     1       0.265   2.159   4.327  1.00  0.00    -0.290 OA
ATOM     19  H1  UNL     1      -0.303   2.162   5.088  1.00  0.00     0.244 HD
ENDBRANCH  16  18
BRANCH  15  20
HETATM   20  C9  UNL     1       0.845   3.035   0.933  1.00  0.00    -0.005 C 
HETATM   21  C10 UNL     1      -0.583   3.483   1.180  1.00  0.00     0.021 C 
HETATM   22  C11 UNL     1       1.660   4.227   0.572  1.00  0.00     0.021 C 
HETATM   23  C12 UNL     1       0.860   2.090  -0.254  1.00  0.00     0.021 C 
ENDBRANCH  15  20
ENDBRANCH  14  15
ENDBRANCH   1  14
TORSDOF 10
ENDMDL
