MODEL 1
REMARK VINA RESULT: -6.465531366      0.000      0.000
REMARK  10 active torsions:
REMARK  status: ('A' for Active; 'I' for Inactive)
REMARK    1  A    between atoms: C3_3  and  C4_4 
REMARK    2  A    between atoms: C4_4  and  C5_5 
REMARK    3  A    between atoms: C6_6  and  C7_7 
REMARK    4  A    between atoms: C8_8  and  C9_9 
REMARK    5  A    between atoms: C10_10  and  C11_11 
REMARK    6  A    between atoms: C11_11  and  C13_13 
REMARK    7  A    between atoms: C13_13  and  O1_14 
REMARK    8  A    between atoms: C13_13  and  C14_16 
REMARK    9  A    between atoms: C16_18  and  C17_19 
REMARK   10  A    between atoms: C17_19  and  O2_20 
ROOT
HETATM    1  C7  UNL     1       8.141  -0.871  -0.505  1.00  0.00     0.022 A 
HETATM    2  C8  UNL     1       7.882  -0.131   0.759  1.00  0.00     0.022 A 
HETATM    3  C16 UNL     1       8.986   0.316  -0.200  1.00  0.00     0.026 A 
ENDROOT
BRANCH   2   4
HETATM    4  C9  UNL     1       6.729   0.759   0.944  1.00  0.00    -0.024 C 
HETATM    5  C10 UNL     1       5.545   0.265   1.274  1.00  0.00    -0.023 C 
BRANCH   5   6
HETATM    6  C11 UNL     1       4.325   1.087   1.481  1.00  0.00     0.032 C 
HETATM    7  C12 UNL     1       4.601   2.235   2.387  1.00  0.00     0.017 C 
BRANCH   6   8
HETATM    8  C13 UNL     1       3.120   0.273   1.800  1.00  0.00     0.125 C 
BRANCH   8   9
HETATM    9  O1  UNL     1       2.209   1.158   2.439  1.00  0.00    -0.395 OA
ATOM     10  H1  UNL     1       1.761   1.621   1.740  1.00  0.00     0.210 HD
ENDBRANCH   8   9
BRANCH   8  11
HETATM   11  C14 UNL     1       2.442  -0.388   0.651  1.00  0.00     0.028 C 
HETATM   12  C15 UNL     1       1.677   0.509  -0.265  1.00  0.00     0.007 C 
ENDBRANCH   8  11
ENDBRANCH   6   8
ENDBRANCH   5   6
ENDBRANCH   2   4
BRANCH   1  13
HETATM   13  C6  UNL     1       7.207  -0.722  -1.650  1.00  0.00    -0.025 C 
HETATM   14  C5  UNL     1       6.222  -1.574  -1.887  1.00  0.00    -0.027 C 
BRANCH  14  15
HETATM   15  C4  UNL     1       5.909  -2.756  -1.090  1.00  0.00     0.053 C 
BRANCH  15  16
HETATM   16  C3  UNL     1       6.577  -4.014  -1.373  1.00  0.00    -0.027 C 
HETATM   17  C2  UNL     1       6.458  -5.173  -0.812  1.00  0.00    -0.035 C 
HETATM   18  C1  UNL     1       5.584  -5.536   0.300  1.00  0.00     0.036 C 
ENDBRANCH  15  16
ENDBRANCH  14  15
ENDBRANCH   1  13
BRANCH   3  19
HETATM   19  C17 UNL     1      10.421   0.127   0.223  1.00  0.00     0.170 C 
BRANCH  19  20
HETATM   20  O2  UNL     1      11.088  -0.613  -0.744  1.00  0.00    -0.400 OA
ATOM     21  H2  UNL     1      11.877  -0.151  -1.001  1.00  0.00     0.209 HD
ENDBRANCH  19  20
ENDBRANCH   3  19
TORSDOF 10
ENDMDL
MODEL 2
REMARK VINA RESULT: -6.389363919      1.412      1.719
REMARK  10 active torsions:
REMARK  status: ('A' for Active; 'I' for Inactive)
REMARK    1  A    between atoms: C3_3  and  C4_4 
REMARK    2  A    between atoms: C4_4  and  C5_5 
REMARK    3  A    between atoms: C6_6  and  C7_7 
REMARK    4  A    between atoms: C8_8  and  C9_9 
REMARK    5  A    between atoms: C10_10  and  C11_11 
REMARK    6  A    between atoms: C11_11  and  C13_13 
REMARK    7  A    between atoms: C13_13  and  O1_14 
REMARK    8  A    between atoms: C13_13  and  C14_16 
REMARK    9  A    between atoms: C16_18  and  C17_19 
REMARK   10  A    between atoms: C17_19  and  O2_20 
ROOT
HETATM    1  C7  UNL     1       7.834  -0.992   0.003  1.00  0.00     0.022 A 
HETATM    2  C8  UNL     1       7.102  -0.160   0.996  1.00  0.00     0.022 A 
HETATM    3  C16 UNL     1       8.441   0.303   0.419  1.00  0.00     0.026 A 
ENDROOT
BRANCH   2   4
HETATM    4  C9  UNL     1       5.903   0.617   0.659  1.00  0.00    -0.024 C 
HETATM    5  C10 UNL     1       4.695   0.126   0.897  1.00  0.00    -0.023 C 
BRANCH   5   6
HETATM    6  C11 UNL     1       3.428   0.839   0.590  1.00  0.00     0.032 C 
HETATM    7  C12 UNL     1       2.517   0.839   1.767  1.00  0.00     0.017 C 
BRANCH   6   8
HETATM    8  C13 UNL     1       2.826   0.427  -0.708  1.00  0.00     0.125 C 
BRANCH   8   9
HETATM    9  O1  UNL     1       1.417   0.453  -0.510  1.00  0.00    -0.395 OA
ATOM     10  H1  UNL     1       1.113   1.260  -0.908  1.00  0.00     0.210 HD
ENDBRANCH   8   9
BRANCH   8  11
HETATM   11  C14 UNL     1       3.174   1.257  -1.894  1.00  0.00     0.028 C 
HETATM   12  C15 UNL     1       4.213   0.696  -2.807  1.00  0.00     0.007 C 
ENDBRANCH   8  11
ENDBRANCH   6   8
ENDBRANCH   5   6
ENDBRANCH   2   4
BRANCH   1  13
HETATM   13  C6  UNL     1       7.353  -1.058  -1.400  1.00  0.00    -0.025 C 
HETATM   14  C5  UNL     1       6.544  -2.010  -1.835  1.00  0.00    -0.027 C 
BRANCH  14  15
HETATM   15  C4  UNL     1       6.015  -3.111  -1.034  1.00  0.00     0.053 C 
BRANCH  15  16
HETATM   16  C3  UNL     1       6.514  -4.458  -1.241  1.00  0.00    -0.027 C 
HETATM   17  C2  UNL     1       6.374  -5.526  -0.526  1.00  0.00    -0.035 C 
HETATM   18  C1  UNL     1       5.645  -5.661   0.733  1.00  0.00     0.036 C 
ENDBRANCH  15  16
ENDBRANCH  14  15
ENDBRANCH   1  13
BRANCH   3  19
HETATM   19  C17 UNL     1       9.645   0.311   1.326  1.00  0.00     0.170 C 
BRANCH  19  20
HETATM   20  O2  UNL     1      10.662  -0.432   0.741  1.00  0.00    -0.400 OA
ATOM     21  H2  UNL     1      11.486   0.029   0.848  1.00  0.00     0.209 HD
ENDBRANCH  19  20
ENDBRANCH   3  19
TORSDOF 10
ENDMDL
MODEL 3
REMARK VINA RESULT: -6.368139519      1.195      1.716
REMARK  10 active torsions:
REMARK  status: ('A' for Active; 'I' for Inactive)
REMARK    1  A    between atoms: C3_3  and  C4_4 
REMARK    2  A    between atoms: C4_4  and  C5_5 
REMARK    3  A    between atoms: C6_6  and  C7_7 
REMARK    4  A    between atoms: C8_8  and  C9_9 
REMARK    5  A    between atoms: C10_10  and  C11_11 
REMARK    6  A    between atoms: C11_11  and  C13_13 
REMARK    7  A    between atoms: C13_13  and  O1_14 
REMARK    8  A    between atoms: C13_13  and  C14_16 
REMARK    9  A    between atoms: C16_18  and  C17_19 
REMARK   10  A    between atoms: C17_19  and  O2_20 
ROOT
HETATM    1  C7  UNL     1       7.846  -1.185  -0.058  1.00  0.00     0.022 A 
HETATM    2  C8  UNL     1       7.000  -0.351   0.838  1.00  0.00     0.022 A 
HETATM    3  C16 UNL     1       8.301   0.200   0.249  1.00  0.00     0.026 A 
ENDROOT
BRANCH   2   4
HETATM    4  C9  UNL     1       5.738   0.261   0.406  1.00  0.00    -0.024 C 
HETATM    5  C10 UNL     1       4.605  -0.424   0.464  1.00  0.00    -0.023 C 
BRANCH   5   6
HETATM    6  C11 UNL     1       3.282   0.111   0.050  1.00  0.00     0.032 C 
HETATM    7  C12 UNL     1       3.438   1.286  -0.848  1.00  0.00     0.017 C 
BRANCH   6   8
HETATM    8  C13 UNL     1       2.336   0.273   1.188  1.00  0.00     0.125 C 
BRANCH   8   9
HETATM    9  O1  UNL     1       2.701  -0.716   2.143  1.00  0.00    -0.395 OA
ATOM     10  H1  UNL     1       3.631  -0.598   2.298  1.00  0.00     0.210 HD
ENDBRANCH   8   9
BRANCH   8  11
HETATM   11  C14 UNL     1       2.312   1.609   1.846  1.00  0.00     0.028 C 
HETATM   12  C15 UNL     1       3.362   1.852   2.879  1.00  0.00     0.007 C 
ENDBRANCH   8  11
ENDBRANCH   6   8
ENDBRANCH   5   6
ENDBRANCH   2   4
BRANCH   1  13
HETATM   13  C6  UNL     1       7.417  -1.427  -1.459  1.00  0.00    -0.025 C 
HETATM   14  C5  UNL     1       6.640  -2.442  -1.805  1.00  0.00    -0.027 C 
BRANCH  14  15
HETATM   15  C4  UNL     1       6.101  -3.450  -0.896  1.00  0.00     0.053 C 
BRANCH  15  16
HETATM   16  C3  UNL     1       6.453  -4.846  -1.078  1.00  0.00    -0.027 C 
HETATM   17  C2  UNL     1       6.272  -5.866  -0.304  1.00  0.00    -0.035 C 
HETATM   18  C1  UNL     1       5.637  -5.881   1.011  1.00  0.00     0.036 C 
ENDBRANCH  15  16
ENDBRANCH  14  15
ENDBRANCH   1  13
BRANCH   3  19
HETATM   19  C17 UNL     1       9.470   0.417   1.177  1.00  0.00     0.170 C 
BRANCH  19  20
HETATM   20  O2  UNL     1      10.518  -0.408   0.790  1.00  0.00    -0.400 OA
ATOM     21  H2  UNL     1      11.327   0.091   0.799  1.00  0.00     0.209 HD
ENDBRANCH  19  20
ENDBRANCH   3  19
TORSDOF 10
ENDMDL
MODEL 4
REMARK VINA RESULT: -6.350611000      2.271      2.923
REMARK  10 active torsions:
REMARK  status: ('A' for Active; 'I' for Inactive)
REMARK    1  A    between atoms: C3_3  and  C4_4 
REMARK    2  A    between atoms: C4_4  and  C5_5 
REMARK    3  A    between atoms: C6_6  and  C7_7 
REMARK    4  A    between atoms: C8_8  and  C9_9 
REMARK    5  A    between atoms: C10_10  and  C11_11 
REMARK    6  A    between atoms: C11_11  and  C13_13 
REMARK    7  A    between atoms: C13_13  and  O1_14 
REMARK    8  A    between atoms: C13_13  and  C14_16 
REMARK    9  A    between atoms: C16_18  and  C17_19 
REMARK   10  A    between atoms: C17_19  and  O2_20 
ROOT
HETATM    1  C7  UNL     1       6.984  -0.546   0.406  1.00  0.00     0.022 A 
HETATM    2  C8  UNL     1       5.816   0.370   0.511  1.00  0.00     0.022 A 
HETATM    3  C16 UNL     1       7.231   0.862   0.825  1.00  0.00     0.026 A 
ENDROOT
BRANCH   2   4
HETATM    4  C9  UNL     1       5.136   0.937  -0.659  1.00  0.00    -0.024 C 
HETATM    5  C10 UNL     1       4.029   0.380  -1.128  1.00  0.00    -0.023 C 
BRANCH   5   6
HETATM    6  C11 UNL     1       3.273   0.882  -2.304  1.00  0.00     0.032 C 
HETATM    7  C12 UNL     1       4.159   1.649  -3.221  1.00  0.00     0.017 C 
BRANCH   6   8
HETATM    8  C13 UNL     1       1.985   1.533  -1.936  1.00  0.00     0.125 C 
BRANCH   8   9
HETATM    9  O1  UNL     1       1.092   1.264  -3.010  1.00  0.00    -0.395 OA
ATOM     10  H1  UNL     1       0.436   1.951  -2.981  1.00  0.00     0.210 HD
ENDBRANCH   8   9
BRANCH   8  11
HETATM   11  C14 UNL     1       1.364   1.098  -0.655  1.00  0.00     0.028 C 
HETATM   12  C15 UNL     1       1.171   2.160   0.376  1.00  0.00     0.007 C 
ENDBRANCH   8  11
ENDBRANCH   6   8
ENDBRANCH   5   6
ENDBRANCH   2   4
BRANCH   1  13
HETATM   13  C6  UNL     1       7.507  -0.921  -0.932  1.00  0.00    -0.025 C 
HETATM   14  C5  UNL     1       7.161  -2.041  -1.548  1.00  0.00    -0.027 C 
BRANCH  14  15
HETATM   15  C4  UNL     1       6.244  -3.051  -1.027  1.00  0.00     0.053 C 
BRANCH  15  16
HETATM   16  C3  UNL     1       6.509  -4.457  -1.266  1.00  0.00    -0.027 C 
HETATM   17  C2  UNL     1       6.311  -5.490  -0.513  1.00  0.00    -0.035 C 
HETATM   18  C1  UNL     1       5.741  -5.512   0.832  1.00  0.00     0.036 C 
ENDBRANCH  15  16
ENDBRANCH  14  15
ENDBRANCH   1  13
BRANCH   3  19
HETATM   19  C17 UNL     1       7.579   1.168   2.260  1.00  0.00     0.170 C 
BRANCH  19  20
HETATM   20  O2  UNL     1       8.719   0.459   2.614  1.00  0.00    -0.400 OA
ATOM     21  H2  UNL     1       8.965   0.686   3.503  1.00  0.00     0.209 HD
ENDBRANCH  19  20
ENDBRANCH   3  19
TORSDOF 10
ENDMDL
MODEL 5
REMARK VINA RESULT: -6.331061101      2.317      3.209
REMARK  10 active torsions:
REMARK  status: ('A' for Active; 'I' for Inactive)
REMARK    1  A    between atoms: C3_3  and  C4_4 
REMARK    2  A    between atoms: C4_4  and  C5_5 
REMARK    3  A    between atoms: C6_6  and  C7_7 
REMARK    4  A    between atoms: C8_8  and  C9_9 
REMARK    5  A    between atoms: C10_10  and  C11_11 
REMARK    6  A    between atoms: C11_11  and  C13_13 
REMARK    7  A    between atoms: C13_13  and  O1_14 
REMARK    8  A    between atoms: C13_13  and  C14_16 
REMARK    9  A    between atoms: C16_18  and  C17_19 
REMARK   10  A    between atoms: C17_19  and  O2_20 
ROOT
HETATM    1  C7  UNL     1       6.536  -0.467   0.276  1.00  0.00     0.022 A 
HETATM    2  C8  UNL     1       5.510   0.500   0.750  1.00  0.00     0.022 A 
HETATM    3  C16 UNL     1       6.995   0.865   0.757  1.00  0.00     0.026 A 
ENDROOT
BRANCH   2   4
HETATM    4  C9  UNL     1       4.625   1.237  -0.161  1.00  0.00    -0.024 C 
HETATM    5  C10 UNL     1       3.451   0.734  -0.511  1.00  0.00    -0.023 C 
BRANCH   5   6
HETATM    6  C11 UNL     1       2.492   1.406  -1.425  1.00  0.00     0.032 C 
HETATM    7  C12 UNL     1       1.127   1.446  -0.832  1.00  0.00     0.017 C 
BRANCH   6   8
HETATM    8  C13 UNL     1       2.585   0.921  -2.829  1.00  0.00     0.125 C 
BRANCH   8   9
HETATM    9  O1  UNL     1       1.292   1.107  -3.393  1.00  0.00    -0.395 OA
ATOM     10  H1  UNL     1       1.436   1.456  -4.265  1.00  0.00     0.210 HD
ENDBRANCH   8   9
BRANCH   8  11
HETATM   11  C14 UNL     1       3.601   1.583  -3.694  1.00  0.00     0.028 C 
HETATM   12  C15 UNL     1       4.829   0.788  -3.992  1.00  0.00     0.007 C 
ENDBRANCH   8  11
ENDBRANCH   6   8
ENDBRANCH   5   6
ENDBRANCH   2   4
BRANCH   1  13
HETATM   13  C6  UNL     1       6.696  -0.719  -1.179  1.00  0.00    -0.025 C 
HETATM   14  C5  UNL     1       6.415  -1.884  -1.739  1.00  0.00    -0.027 C 
BRANCH  14  15
HETATM   15  C4  UNL     1       5.922  -3.068  -1.041  1.00  0.00     0.053 C 
BRANCH  15  16
HETATM   16  C3  UNL     1       6.567  -4.351  -1.253  1.00  0.00    -0.027 C 
HETATM   17  C2  UNL     1       6.367  -5.496  -0.687  1.00  0.00    -0.035 C 
HETATM   18  C1  UNL     1       5.398  -5.813   0.358  1.00  0.00     0.036 C 
ENDBRANCH  15  16
ENDBRANCH  14  15
ENDBRANCH   1  13
BRANCH   3  19
HETATM   19  C17 UNL     1       7.696   0.983   2.087  1.00  0.00     0.170 C 
BRANCH  19  20
HETATM   20  O2  UNL     1       8.666  -0.005   2.180  1.00  0.00    -0.400 OA
ATOM     21  H2  UNL     1       9.168   0.124   2.977  1.00  0.00     0.209 HD
ENDBRANCH  19  20
ENDBRANCH   3  19
TORSDOF 10
ENDMDL
