MODEL 1
REMARK VINA RESULT: -6.619362799      0.000      0.000
REMARK  6 active torsions:
REMARK  status: ('A' for Active; 'I' for Inactive)
REMARK    1  A    between atoms: C2_2  and  N1_3 
REMARK    2  A    between atoms: N1_3  and  C3_4 
REMARK    3  A    between atoms: N1_3  and  C11_18 
REMARK    4  A    between atoms: N3_10  and  C8_12 
REMARK    5  A    between atoms: C8_12  and  C9_13 
REMARK    6  A    between atoms: C9_13  and  S1_14 
ROOT
HETATM    1  C3  UNL     1      -0.897  29.741  -5.087  1.00  0.00     0.106 A 
HETATM    2  C4  UNL     1      -0.501  29.216  -6.319  1.00  0.00     0.075 A 
HETATM    3  C5  UNL     1      -0.339  29.995  -7.457  1.00  0.00     0.053 A 
HETATM    4  N2  UNL     1       0.066  29.431  -8.694  1.00  0.00    -0.102 NA
HETATM    5  C6  UNL     1      -0.585  31.349  -7.344  1.00  0.00     0.075 A 
HETATM    6  C7  UNL     1      -0.976  31.870  -6.128  1.00  0.00     0.104 A 
HETATM    7  N3  UNL     1      -1.218  33.120  -5.963  1.00  0.00    -0.376 N 
ATOM      8  H3  UNL     1      -1.501  33.395  -5.022  1.00  0.00     0.161 HD
HETATM    9  N4  UNL     1      -1.121  31.055  -5.033  1.00  0.00    -0.329 N 
ATOM     10  H4  UNL     1      -1.412  31.469  -4.148  1.00  0.00     0.169 HD
ENDROOT
BRANCH   1  11
HETATM   11  N1  UNL     1      -1.029  28.894  -3.927  1.00  0.00    -0.363 N 
BRANCH  11  12
HETATM   12  C2  UNL     1       0.141  28.593  -3.151  1.00  0.00     0.120 C 
HETATM   13  C1  UNL     1       0.066  29.053  -1.708  1.00  0.00     0.026 C 
ENDBRANCH  11  12
BRANCH  11  14
HETATM   14  C11 UNL     1      -2.345  28.346  -3.541  1.00  0.00     0.085 C 
HETATM   15  C12 UNL     1      -3.301  29.493  -3.343  1.00  0.00     0.025 C 
HETATM   16  C13 UNL     1      -4.419  29.547  -4.328  1.00  0.00     0.002 C 
HETATM   17  C14 UNL     1      -5.112  28.179  -4.244  1.00  0.00     0.000 C 
HETATM   18  C15 UNL     1      -4.172  27.206  -4.866  1.00  0.00     0.002 C 
HETATM   19  C16 UNL     1      -2.779  27.202  -4.328  1.00  0.00     0.025 C 
ENDBRANCH  11  14
ENDBRANCH   1  11
BRANCH   7  20
HETATM   20  C8  UNL     1      -1.146  34.172  -6.922  1.00  0.00     0.131 C 
BRANCH  20  21
HETATM   21  C9  UNL     1      -2.522  34.610  -7.400  1.00  0.00     0.093 C 
BRANCH  21  22
HETATM   22  S1  UNL     1      -2.358  35.944  -8.610  1.00  0.00    -0.172 SA
HETATM   23  C10 UNL     1      -0.699  35.918  -9.344  1.00  0.00     0.089 C 
ENDBRANCH  21  22
ENDBRANCH  20  21
ENDBRANCH   7  20
TORSDOF 6
ENDMDL
MODEL 2
REMARK VINA RESULT: -6.529906441      1.155      1.321
REMARK  6 active torsions:
REMARK  status: ('A' for Active; 'I' for Inactive)
REMARK    1  A    between atoms: C2_2  and  N1_3 
REMARK    2  A    between atoms: N1_3  and  C3_4 
REMARK    3  A    between atoms: N1_3  and  C11_18 
REMARK    4  A    between atoms: N3_10  and  C8_12 
REMARK    5  A    between atoms: C8_12  and  C9_13 
REMARK    6  A    between atoms: C9_13  and  S1_14 
ROOT
HETATM    1  C3  UNL     1      -0.675  29.917  -4.930  1.00  0.00     0.106 A 
HETATM    2  C4  UNL     1      -0.744  29.658  -6.301  1.00  0.00     0.075 A 
HETATM    3  C5  UNL     1      -0.632  30.651  -7.265  1.00  0.00     0.053 A 
HETATM    4  N2  UNL     1      -0.705  30.355  -8.651  1.00  0.00    -0.102 NA
HETATM    5  C6  UNL     1      -0.444  31.947  -6.829  1.00  0.00     0.075 A 
HETATM    6  C7  UNL     1      -0.375  32.205  -5.475  1.00  0.00     0.104 A 
HETATM    7  N3  UNL     1      -0.202  33.389  -5.010  1.00  0.00    -0.376 N 
ATOM      8  H3  UNL     1      -0.167  33.465  -3.993  1.00  0.00     0.161 HD
HETATM    9  N4  UNL     1      -0.492  31.186  -4.563  1.00  0.00    -0.329 N 
ATOM     10  H4  UNL     1      -0.437  31.408  -3.569  1.00  0.00     0.169 HD
ENDROOT
BRANCH   1  11
HETATM   11  N1  UNL     1      -0.774  28.848  -3.966  1.00  0.00    -0.363 N 
BRANCH  11  12
HETATM   12  C2  UNL     1       0.433  28.303  -3.410  1.00  0.00     0.120 C 
HETATM   13  C1  UNL     1       0.386  28.096  -1.908  1.00  0.00     0.026 C 
ENDBRANCH  11  12
BRANCH  11  14
HETATM   14  C11 UNL     1      -2.092  28.323  -3.557  1.00  0.00     0.085 C 
HETATM   15  C12 UNL     1      -3.017  29.486  -3.321  1.00  0.00     0.025 C 
HETATM   16  C13 UNL     1      -4.157  29.579  -4.278  1.00  0.00     0.002 C 
HETATM   17  C14 UNL     1      -4.877  28.224  -4.197  1.00  0.00     0.000 C 
HETATM   18  C15 UNL     1      -3.973  27.241  -4.855  1.00  0.00     0.002 C 
HETATM   19  C16 UNL     1      -2.569  27.199  -4.349  1.00  0.00     0.025 C 
ENDBRANCH  11  14
ENDBRANCH   1  11
BRANCH   7  20
HETATM   20  C8  UNL     1      -0.053  34.611  -5.728  1.00  0.00     0.131 C 
BRANCH  20  21
HETATM   21  C9  UNL     1      -0.582  35.805  -4.947  1.00  0.00     0.093 C 
BRANCH  21  22
HETATM   22  S1  UNL     1      -1.505  36.902  -6.049  1.00  0.00    -0.172 SA
HETATM   23  C10 UNL     1      -2.239  35.948  -7.406  1.00  0.00     0.089 C 
ENDBRANCH  21  22
ENDBRANCH  20  21
ENDBRANCH   7  20
TORSDOF 6
ENDMDL
MODEL 3
REMARK VINA RESULT: -6.361409624      2.071      2.407
REMARK  6 active torsions:
REMARK  status: ('A' for Active; 'I' for Inactive)
REMARK    1  A    between atoms: C2_2  and  N1_3 
REMARK    2  A    between atoms: N1_3  and  C3_4 
REMARK    3  A    between atoms: N1_3  and  C11_18 
REMARK    4  A    between atoms: N3_10  and  C8_12 
REMARK    5  A    between atoms: C8_12  and  C9_13 
REMARK    6  A    between atoms: C9_13  and  S1_14 
ROOT
HETATM    1  C3  UNL     1      -0.716  29.860  -4.995  1.00  0.00     0.106 A 
HETATM    2  C4  UNL     1      -0.746  29.648  -6.375  1.00  0.00     0.075 A 
HETATM    3  C5  UNL     1      -0.645  30.676  -7.302  1.00  0.00     0.053 A 
HETATM    4  N2  UNL     1      -0.678  30.427  -8.698  1.00  0.00    -0.102 NA
HETATM    5  C6  UNL     1      -0.508  31.962  -6.817  1.00  0.00     0.075 A 
HETATM    6  C7  UNL     1      -0.478  32.175  -5.454  1.00  0.00     0.104 A 
HETATM    7  N3  UNL     1      -0.354  33.347  -4.945  1.00  0.00    -0.376 N 
ATOM      8  H3  UNL     1      -0.343  33.388  -3.926  1.00  0.00     0.161 HD
HETATM    9  N4  UNL     1      -0.582  31.122  -4.580  1.00  0.00    -0.329 N 
ATOM     10  H4  UNL     1      -0.556  31.310  -3.578  1.00  0.00     0.169 HD
ENDROOT
BRANCH   1  11
HETATM   11  N1  UNL     1      -0.801  28.756  -4.071  1.00  0.00    -0.363 N 
BRANCH  11  12
HETATM   12  C2  UNL     1       0.414  28.166  -3.583  1.00  0.00     0.120 C 
HETATM   13  C1  UNL     1       0.408  27.875  -2.094  1.00  0.00     0.026 C 
ENDBRANCH  11  12
BRANCH  11  14
HETATM   14  C11 UNL     1      -2.113  28.241  -3.633  1.00  0.00     0.085 C 
HETATM   15  C12 UNL     1      -3.012  29.412  -3.338  1.00  0.00     0.025 C 
HETATM   16  C13 UNL     1      -4.181  29.547  -4.255  1.00  0.00     0.002 C 
HETATM   17  C14 UNL     1      -4.919  28.202  -4.185  1.00  0.00     0.000 C 
HETATM   18  C15 UNL     1      -4.053  27.221  -4.896  1.00  0.00     0.002 C 
HETATM   19  C16 UNL     1      -2.633  27.146  -4.437  1.00  0.00     0.025 C 
ENDBRANCH  11  14
ENDBRANCH   1  11
BRANCH   7  20
HETATM   20  C8  UNL     1      -0.228  34.597  -5.617  1.00  0.00     0.131 C 
BRANCH  20  21
HETATM   21  C9  UNL     1      -0.328  35.776  -4.661  1.00  0.00     0.093 C 
BRANCH  21  22
HETATM   22  S1  UNL     1       0.308  35.306  -3.034  1.00  0.00    -0.172 SA
HETATM   23  C10 UNL     1      -0.483  36.306  -1.744  1.00  0.00     0.089 C 
ENDBRANCH  21  22
ENDBRANCH  20  21
ENDBRANCH   7  20
TORSDOF 6
ENDMDL
MODEL 4
REMARK VINA RESULT: -6.273993899      5.786      8.633
REMARK  6 active torsions:
REMARK  status: ('A' for Active; 'I' for Inactive)
REMARK    1  A    between atoms: C2_2  and  N1_3 
REMARK    2  A    between atoms: N1_3  and  C3_4 
REMARK    3  A    between atoms: N1_3  and  C11_18 
REMARK    4  A    between atoms: N3_10  and  C8_12 
REMARK    5  A    between atoms: C8_12  and  C9_13 
REMARK    6  A    between atoms: C9_13  and  S1_14 
ROOT
HETATM    1  C3  UNL     1      -0.105  26.095  -3.205  1.00  0.00     0.106 A 
HETATM    2  C4  UNL     1       0.114  26.335  -1.846  1.00  0.00     0.075 A 
HETATM    3  C5  UNL     1       0.897  25.512  -1.048  1.00  0.00     0.053 A 
HETATM    4  N2  UNL     1       1.100  25.784   0.329  1.00  0.00    -0.102 NA
HETATM    5  C6  UNL     1       1.478  24.410  -1.644  1.00  0.00     0.075 A 
HETATM    6  C7  UNL     1       1.264  24.171  -2.986  1.00  0.00     0.104 A 
HETATM    7  N3  UNL     1       1.777  23.163  -3.594  1.00  0.00    -0.376 N 
ATOM      8  H3  UNL     1       1.553  23.083  -4.586  1.00  0.00     0.161 HD
HETATM    9  N4  UNL     1       0.480  25.017  -3.730  1.00  0.00    -0.329 N 
ATOM     10  H4  UNL     1       0.341  24.814  -4.720  1.00  0.00     0.169 HD
ENDROOT
BRANCH   1  11
HETATM   11  N1  UNL     1      -0.908  26.993  -3.998  1.00  0.00    -0.363 N 
BRANCH  11  12
HETATM   12  C2  UNL     1      -0.442  27.369  -5.304  1.00  0.00     0.120 C 
HETATM   13  C1  UNL     1       0.882  28.109  -5.302  1.00  0.00     0.026 C 
ENDBRANCH  11  12
BRANCH  11  14
HETATM   14  C11 UNL     1      -2.187  27.517  -3.479  1.00  0.00     0.085 C 
HETATM   15  C12 UNL     1      -2.054  29.006  -3.298  1.00  0.00     0.025 C 
HETATM   16  C13 UNL     1      -2.916  29.822  -4.200  1.00  0.00     0.002 C 
HETATM   17  C14 UNL     1      -4.350  29.323  -3.966  1.00  0.00     0.000 C 
HETATM   18  C15 UNL     1      -4.417  27.969  -4.582  1.00  0.00     0.002 C 
HETATM   19  C16 UNL     1      -3.370  26.997  -4.147  1.00  0.00     0.025 C 
ENDBRANCH  11  14
ENDBRANCH   1  11
BRANCH   7  20
HETATM   20  C8  UNL     1       2.619  22.142  -3.064  1.00  0.00     0.131 C 
BRANCH  20  21
HETATM   21  C9  UNL     1       3.495  21.507  -4.134  1.00  0.00     0.093 C 
BRANCH  21  22
HETATM   22  S1  UNL     1       2.963  19.805  -4.436  1.00  0.00    -0.172 SA
HETATM   23  C10 UNL     1       3.881  19.105  -5.835  1.00  0.00     0.089 C 
ENDBRANCH  21  22
ENDBRANCH  20  21
ENDBRANCH   7  20
TORSDOF 6
ENDMDL
MODEL 5
REMARK VINA RESULT: -6.185118030      4.966      7.468
REMARK  6 active torsions:
REMARK  status: ('A' for Active; 'I' for Inactive)
REMARK    1  A    between atoms: C2_2  and  N1_3 
REMARK    2  A    between atoms: N1_3  and  C3_4 
REMARK    3  A    between atoms: N1_3  and  C11_18 
REMARK    4  A    between atoms: N3_10  and  C8_12 
REMARK    5  A    between atoms: C8_12  and  C9_13 
REMARK    6  A    between atoms: C9_13  and  S1_14 
ROOT
HETATM    1  C3  UNL     1      -0.061  27.081  -4.646  1.00  0.00     0.106 A 
HETATM    2  C4  UNL     1       0.480  27.532  -5.852  1.00  0.00     0.075 A 
HETATM    3  C5  UNL     1       1.429  26.818  -6.572  1.00  0.00     0.053 A 
HETATM    4  N2  UNL     1       1.958  27.304  -7.795  1.00  0.00    -0.102 NA
HETATM    5  C6  UNL     1       1.844  25.607  -6.054  1.00  0.00     0.075 A 
HETATM    6  C7  UNL     1       1.312  25.159  -4.863  1.00  0.00     0.104 A 
HETATM    7  N3  UNL     1       1.659  24.042  -4.333  1.00  0.00    -0.376 N 
ATOM      8  H3  UNL     1       1.202  23.809  -3.451  1.00  0.00     0.161 HD
HETATM    9  N4  UNL     1       0.376  25.904  -4.191  1.00  0.00    -0.329 N 
ATOM     10  H4  UNL     1       0.000  25.547  -3.313  1.00  0.00     0.169 HD
ENDROOT
BRANCH   1  11
HETATM   11  N1  UNL     1      -1.062  27.848  -3.948  1.00  0.00    -0.363 N 
BRANCH  11  12
HETATM   12  C2  UNL     1      -0.843  28.178  -2.567  1.00  0.00     0.120 C 
HETATM   13  C1  UNL     1       0.365  29.061  -2.323  1.00  0.00     0.026 C 
ENDBRANCH  11  12
BRANCH  11  14
HETATM   14  C11 UNL     1      -2.291  28.288  -4.638  1.00  0.00     0.085 C 
HETATM   15  C12 UNL     1      -3.266  27.141  -4.654  1.00  0.00     0.025 C 
HETATM   16  C13 UNL     1      -4.502  27.365  -3.850  1.00  0.00     0.002 C 
HETATM   17  C14 UNL     1      -5.113  28.669  -4.383  1.00  0.00     0.000 C 
HETATM   18  C15 UNL     1      -4.215  29.762  -3.918  1.00  0.00     0.002 C 
HETATM   19  C16 UNL     1      -2.767  29.606  -4.246  1.00  0.00     0.025 C 
ENDBRANCH  11  14
ENDBRANCH   1  11
BRANCH   7  20
HETATM   20  C8  UNL     1       2.600  23.086  -4.815  1.00  0.00     0.131 C 
BRANCH  20  21
HETATM   21  C9  UNL     1       2.827  21.953  -3.825  1.00  0.00     0.093 C 
BRANCH  21  22
HETATM   22  S1  UNL     1       2.978  22.620  -2.151  1.00  0.00    -0.172 SA
HETATM   23  C10 UNL     1       3.288  21.276  -0.971  1.00  0.00     0.089 C 
ENDBRANCH  21  22
ENDBRANCH  20  21
ENDBRANCH   7  20
TORSDOF 6
ENDMDL
