MODEL 1
REMARK VINA RESULT: -7.066958640      0.000      0.000
REMARK  8 active torsions:
REMARK  status: ('A' for Active; 'I' for Inactive)
REMARK    1  A    between atoms: O1_1  and  C1_3 
REMARK    2  A    between atoms: C1_3  and  C2_4 
REMARK    3  A    between atoms: C2_4  and  C3_5 
REMARK    4  A    between atoms: C3_5  and  C4_6 
REMARK    5  A    between atoms: C4_6  and  N1_7 
REMARK    6  A    between atoms: N1_7  and  C5_9 
REMARK    7  A    between atoms: N4_19  and  C11_20 
REMARK    8  A    between atoms: C11_20  and  C12_21 
ROOT
HETATM    1  C5  UNL     1      -3.443  28.367  -4.085  1.00  0.00     0.062 A 
HETATM    2  C6  UNL     1      -3.104  29.620  -3.540  1.00  0.00     0.137 A 
HETATM    3  N2  UNL     1      -1.895  29.856  -3.015  1.00  0.00    -0.308 N 
ATOM      4  H2  UNL     1      -1.699  30.782  -2.633  1.00  0.00     0.186 HD
HETATM    5  N3  UNL     1      -0.948  28.940  -2.971  1.00  0.00    -0.285 N 
ATOM      6  H3  UNL     1      -0.038  29.153  -2.563  1.00  0.00     0.188 HD
HETATM    7  C7  UNL     1      -1.202  27.718  -3.474  1.00  0.00     0.134 A 
HETATM    8  C8  UNL     1      -2.444  27.422  -4.032  1.00  0.00     0.039 A 
HETATM    9  C9  UNL     1      -2.381  26.125  -4.442  1.00  0.00     0.035 A 
HETATM   10  C10 UNL     1      -1.120  25.637  -4.139  1.00  0.00     0.093 A 
HETATM   11  N4  UNL     1      -0.419  26.614  -3.554  1.00  0.00    -0.341 N 
ENDROOT
BRANCH   1  12
HETATM   12  N1  UNL     1      -4.572  28.228  -4.549  1.00  0.00    -0.368 N 
ATOM     13  H1  UNL     1      -4.501  28.075  -5.555  1.00  0.00     0.165 HD
BRANCH  12  14
HETATM   14  C4  UNL     1      -5.908  28.206  -4.182  1.00  0.00     0.061 C 
BRANCH  14  15
HETATM   15  C3  UNL     1      -6.673  26.970  -4.633  1.00  0.00     0.046 C 
BRANCH  15  16
HETATM   16  C2  UNL     1      -7.992  27.316  -5.241  1.00  0.00     0.031 C 
BRANCH  16  17
HETATM   17  C1  UNL     1      -8.976  26.168  -5.205  1.00  0.00     0.164 C 
BRANCH  17  18
HETATM   18  O1  UNL     1      -8.829  25.384  -4.087  1.00  0.00    -0.401 OA
ATOM     19  H1  UNL     1      -9.365  24.599  -4.119  1.00  0.00     0.209 HD
ENDBRANCH  17  18
ENDBRANCH  16  17
ENDBRANCH  15  16
ENDBRANCH  14  15
ENDBRANCH  12  14
ENDBRANCH   1  12
BRANCH  11  20
HETATM   20  C11 UNL     1       0.945  26.509  -3.097  1.00  0.00     0.134 C 
BRANCH  20  21
HETATM   21  C12 UNL     1       1.279  25.207  -2.422  1.00  0.00     0.004 C 
HETATM   22  C13 UNL     1       2.741  24.979  -2.302  1.00  0.00     0.006 C 
HETATM   23  C14 UNL     1       3.306  26.018  -1.364  1.00  0.00     0.000 C 
HETATM   24  C15 UNL     1       2.704  25.890   0.002  1.00  0.00     0.000 C 
HETATM   25  C16 UNL     1       1.497  25.013   0.071  1.00  0.00     0.000 C 
HETATM   26  C17 UNL     1       0.556  25.158  -1.098  1.00  0.00     0.006 C 
ENDBRANCH  20  21
ENDBRANCH  11  20
TORSDOF 8
ENDMDL
MODEL 2
REMARK VINA RESULT: -7.001488067      0.681      1.159
REMARK  8 active torsions:
REMARK  status: ('A' for Active; 'I' for Inactive)
REMARK    1  A    between atoms: O1_1  and  C1_3 
REMARK    2  A    between atoms: C1_3  and  C2_4 
REMARK    3  A    between atoms: C2_4  and  C3_5 
REMARK    4  A    between atoms: C3_5  and  C4_6 
REMARK    5  A    between atoms: C4_6  and  N1_7 
REMARK    6  A    between atoms: N1_7  and  C5_9 
REMARK    7  A    between atoms: N4_19  and  C11_20 
REMARK    8  A    between atoms: C11_20  and  C12_21 
ROOT
HETATM    1  C5  UNL     1      -3.396  28.311  -4.061  1.00  0.00     0.062 A 
HETATM    2  C6  UNL     1      -3.158  29.614  -3.586  1.00  0.00     0.137 A 
HETATM    3  N2  UNL     1      -1.988  29.959  -3.033  1.00  0.00    -0.308 N 
ATOM      4  H2  UNL     1      -1.864  30.916  -2.704  1.00  0.00     0.186 HD
HETATM    5  N3  UNL     1      -0.988  29.109  -2.895  1.00  0.00    -0.285 N 
ATOM      6  H3  UNL     1      -0.110  29.405  -2.468  1.00  0.00     0.188 HD
HETATM    7  C7  UNL     1      -1.147  27.845  -3.327  1.00  0.00     0.134 A 
HETATM    8  C8  UNL     1      -2.345  27.437  -3.911  1.00  0.00     0.039 A 
HETATM    9  C9  UNL     1      -2.185  26.123  -4.234  1.00  0.00     0.035 A 
HETATM   10  C10 UNL     1      -0.911  25.736  -3.853  1.00  0.00     0.093 A 
HETATM   11  N4  UNL     1      -0.295  26.789  -3.307  1.00  0.00    -0.341 N 
ENDROOT
BRANCH   1  12
HETATM   12  N1  UNL     1      -4.495  28.072  -4.557  1.00  0.00    -0.368 N 
ATOM     13  H1  UNL     1      -4.359  27.630  -5.466  1.00  0.00     0.165 HD
BRANCH  12  14
HETATM   14  C4  UNL     1      -5.853  28.193  -4.311  1.00  0.00     0.061 C 
BRANCH  14  15
HETATM   15  C3  UNL     1      -6.673  26.953  -4.636  1.00  0.00     0.046 C 
BRANCH  15  16
HETATM   16  C2  UNL     1      -7.974  27.294  -5.287  1.00  0.00     0.031 C 
BRANCH  16  17
HETATM   17  C1  UNL     1      -8.991  26.178  -5.188  1.00  0.00     0.164 C 
BRANCH  17  18
HETATM   18  O1  UNL     1      -8.822  25.410  -4.062  1.00  0.00    -0.401 OA
ATOM     19  H1  UNL     1      -8.143  24.753  -4.168  1.00  0.00     0.209 HD
ENDBRANCH  17  18
ENDBRANCH  16  17
ENDBRANCH  15  16
ENDBRANCH  14  15
ENDBRANCH  12  14
ENDBRANCH   1  12
BRANCH  11  20
HETATM   20  C11 UNL     1       1.053  26.800  -2.794  1.00  0.00     0.134 C 
BRANCH  20  21
HETATM   21  C12 UNL     1       1.153  26.657  -1.300  1.00  0.00     0.004 C 
HETATM   22  C13 UNL     1       0.792  25.297  -0.827  1.00  0.00     0.006 C 
HETATM   23  C14 UNL     1       1.828  24.327  -1.344  1.00  0.00     0.000 C 
HETATM   24  C15 UNL     1       3.187  24.660  -0.808  1.00  0.00     0.000 C 
HETATM   25  C16 UNL     1       3.291  26.001  -0.161  1.00  0.00     0.000 C 
HETATM   26  C17 UNL     1       2.531  27.094  -0.871  1.00  0.00     0.006 C 
ENDBRANCH  20  21
ENDBRANCH  11  20
TORSDOF 8
ENDMDL
MODEL 3
REMARK VINA RESULT: -6.811041696      2.107      2.511
REMARK  8 active torsions:
REMARK  status: ('A' for Active; 'I' for Inactive)
REMARK    1  A    between atoms: O1_1  and  C1_3 
REMARK    2  A    between atoms: C1_3  and  C2_4 
REMARK    3  A    between atoms: C2_4  and  C3_5 
REMARK    4  A    between atoms: C3_5  and  C4_6 
REMARK    5  A    between atoms: C4_6  and  N1_7 
REMARK    6  A    between atoms: N1_7  and  C5_9 
REMARK    7  A    between atoms: N4_19  and  C11_20 
REMARK    8  A    between atoms: C11_20  and  C12_21 
ROOT
HETATM    1  C5  UNL     1      -3.443  27.796  -4.125  1.00  0.00     0.062 A 
HETATM    2  C6  UNL     1      -3.819  29.152  -4.084  1.00  0.00     0.137 A 
HETATM    3  N2  UNL     1      -3.039  30.082  -3.518  1.00  0.00    -0.308 N 
ATOM      4  H2  UNL     1      -3.357  31.051  -3.515  1.00  0.00     0.186 HD
HETATM    5  N3  UNL     1      -1.877  29.795  -2.964  1.00  0.00    -0.285 N 
ATOM      6  H3  UNL     1      -1.309  30.528  -2.541  1.00  0.00     0.188 HD
HETATM    7  C7  UNL     1      -1.455  28.518  -2.966  1.00  0.00     0.134 A 
HETATM    8  C8  UNL     1      -2.229  27.513  -3.543  1.00  0.00     0.039 A 
HETATM    9  C9  UNL     1      -1.532  26.353  -3.382  1.00  0.00     0.035 A 
HETATM   10  C10 UNL     1      -0.353  26.646  -2.718  1.00  0.00     0.093 A 
HETATM   11  N4  UNL     1      -0.321  27.960  -2.474  1.00  0.00    -0.341 N 
ENDROOT
BRANCH   1  12
HETATM   12  N1  UNL     1      -4.211  27.003  -4.663  1.00  0.00    -0.368 N 
ATOM     13  H1  UNL     1      -3.824  26.062  -4.585  1.00  0.00     0.165 HD
BRANCH  12  14
HETATM   14  C4  UNL     1      -5.419  26.940  -5.338  1.00  0.00     0.061 C 
BRANCH  14  15
HETATM   15  C3  UNL     1      -6.652  26.987  -4.447  1.00  0.00     0.046 C 
BRANCH  15  16
HETATM   16  C2  UNL     1      -7.890  27.310  -5.217  1.00  0.00     0.031 C 
BRANCH  16  17
HETATM   17  C1  UNL     1      -8.913  26.196  -5.179  1.00  0.00     0.164 C 
BRANCH  17  18
HETATM   18  O1  UNL     1      -8.809  25.424  -4.048  1.00  0.00    -0.401 OA
ATOM     19  H1  UNL     1      -9.096  24.529  -4.191  1.00  0.00     0.209 HD
ENDBRANCH  17  18
ENDBRANCH  16  17
ENDBRANCH  15  16
ENDBRANCH  14  15
ENDBRANCH  12  14
ENDBRANCH   1  12
BRANCH  11  20
HETATM   20  C11 UNL     1       0.748  28.664  -1.808  1.00  0.00     0.134 C 
BRANCH  20  21
HETATM   21  C12 UNL     1       0.509  28.920  -0.345  1.00  0.00     0.004 C 
HETATM   22  C13 UNL     1       1.056  27.848   0.524  1.00  0.00     0.006 C 
HETATM   23  C14 UNL     1       2.561  27.865   0.403  1.00  0.00     0.000 C 
HETATM   24  C15 UNL     1       3.121  29.174   0.873  1.00  0.00     0.000 C 
HETATM   25  C16 UNL     1       2.109  30.255   1.055  1.00  0.00     0.000 C 
HETATM   26  C17 UNL     1       1.041  30.292  -0.009  1.00  0.00     0.006 C 
ENDBRANCH  20  21
ENDBRANCH  11  20
TORSDOF 8
ENDMDL
MODEL 4
REMARK VINA RESULT: -6.608311314      1.349      1.851
REMARK  8 active torsions:
REMARK  status: ('A' for Active; 'I' for Inactive)
REMARK    1  A    between atoms: O1_1  and  C1_3 
REMARK    2  A    between atoms: C1_3  and  C2_4 
REMARK    3  A    between atoms: C2_4  and  C3_5 
REMARK    4  A    between atoms: C3_5  and  C4_6 
REMARK    5  A    between atoms: C4_6  and  N1_7 
REMARK    6  A    between atoms: N1_7  and  C5_9 
REMARK    7  A    between atoms: N4_19  and  C11_20 
REMARK    8  A    between atoms: C11_20  and  C12_21 
ROOT
HETATM    1  C5  UNL     1      -1.916  28.343  -3.520  1.00  0.00     0.062 A 
HETATM    2  C6  UNL     1      -1.260  29.343  -2.778  1.00  0.00     0.137 A 
HETATM    3  N2  UNL     1      -0.050  29.142  -2.241  1.00  0.00    -0.308 N 
ATOM      4  H2  UNL     1       0.384  29.899  -1.713  1.00  0.00     0.186 HD
HETATM    5  N3  UNL     1       0.604  28.004  -2.369  1.00  0.00    -0.285 N 
ATOM      6  H3  UNL     1       1.525  27.884  -1.946  1.00  0.00     0.188 HD
HETATM    7  C7  UNL     1       0.036  27.003  -3.065  1.00  0.00     0.134 A 
HETATM    8  C8  UNL     1      -1.221  27.162  -3.644  1.00  0.00     0.039 A 
HETATM    9  C9  UNL     1      -1.508  25.985  -4.267  1.00  0.00     0.035 A 
HETATM   10  C10 UNL     1      -0.443  25.123  -4.072  1.00  0.00     0.093 A 
HETATM   11  N4  UNL     1       0.484  25.753  -3.344  1.00  0.00    -0.341 N 
ENDROOT
BRANCH   1  12
HETATM   12  N1  UNL     1      -3.025  28.604  -3.981  1.00  0.00    -0.368 N 
ATOM     13  H1  UNL     1      -3.271  27.896  -4.674  1.00  0.00     0.165 HD
BRANCH  12  14
HETATM   14  C4  UNL     1      -4.057  29.523  -3.889  1.00  0.00     0.061 C 
BRANCH  14  15
HETATM   15  C3  UNL     1      -5.431  28.979  -4.256  1.00  0.00     0.046 C 
BRANCH  15  16
HETATM   16  C2  UNL     1      -5.489  27.490  -4.158  1.00  0.00     0.031 C 
BRANCH  16  17
HETATM   17  C1  UNL     1      -6.637  26.894  -4.943  1.00  0.00     0.164 C 
BRANCH  17  18
HETATM   18  O1  UNL     1      -7.490  26.161  -4.154  1.00  0.00    -0.401 OA
ATOM     19  H1  UNL     1      -7.768  26.636  -3.379  1.00  0.00     0.209 HD
ENDBRANCH  17  18
ENDBRANCH  16  17
ENDBRANCH  15  16
ENDBRANCH  14  15
ENDBRANCH  12  14
ENDBRANCH   1  12
BRANCH  11  20
HETATM   20  C11 UNL     1       1.751  25.198  -2.934  1.00  0.00     0.134 C 
BRANCH  20  21
HETATM   21  C12 UNL     1       1.646  24.066  -1.950  1.00  0.00     0.004 C 
HETATM   22  C13 UNL     1       2.693  23.032  -2.149  1.00  0.00     0.006 C 
HETATM   23  C14 UNL     1       4.034  23.651  -1.833  1.00  0.00     0.000 C 
HETATM   24  C15 UNL     1       4.092  24.102  -0.405  1.00  0.00     0.000 C 
HETATM   25  C16 UNL     1       2.773  24.136   0.292  1.00  0.00     0.000 C 
HETATM   26  C17 UNL     1       1.635  24.644  -0.557  1.00  0.00     0.006 C 
ENDBRANCH  20  21
ENDBRANCH  11  20
TORSDOF 8
ENDMDL
MODEL 5
REMARK VINA RESULT: -6.598163067      2.069      3.695
REMARK  8 active torsions:
REMARK  status: ('A' for Active; 'I' for Inactive)
REMARK    1  A    between atoms: O1_1  and  C1_3 
REMARK    2  A    between atoms: C1_3  and  C2_4 
REMARK    3  A    between atoms: C2_4  and  C3_5 
REMARK    4  A    between atoms: C3_5  and  C4_6 
REMARK    5  A    between atoms: C4_6  and  N1_7 
REMARK    6  A    between atoms: N1_7  and  C5_9 
REMARK    7  A    between atoms: N4_19  and  C11_20 
REMARK    8  A    between atoms: C11_20  and  C12_21 
ROOT
HETATM    1  C5  UNL     1      -1.048  27.103  -3.630  1.00  0.00     0.062 A 
HETATM    2  C6  UNL     1      -1.430  25.933  -4.314  1.00  0.00     0.137 A 
HETATM    3  N2  UNL     1      -1.047  24.719  -3.898  1.00  0.00    -0.308 N 
ATOM      4  H2  UNL     1      -1.351  23.902  -4.428  1.00  0.00     0.186 HD
HETATM    5  N3  UNL     1      -0.293  24.537  -2.832  1.00  0.00    -0.285 N 
ATOM      6  H3  UNL     1      -0.020  23.597  -2.544  1.00  0.00     0.188 HD
HETATM    7  C7  UNL     1       0.109  25.611  -2.130  1.00  0.00     0.134 A 
HETATM    8  C8  UNL     1      -0.262  26.896  -2.520  1.00  0.00     0.039 A 
HETATM    9  C9  UNL     1       0.298  27.748  -1.617  1.00  0.00     0.035 A 
HETATM   10  C10 UNL     1       1.000  26.995  -0.691  1.00  0.00     0.093 A 
HETATM   11  N4  UNL     1       0.876  25.704  -1.014  1.00  0.00    -0.341 N 
ENDROOT
BRANCH   1  12
HETATM   12  N1  UNL     1      -1.440  28.180  -4.072  1.00  0.00    -0.368 N 
ATOM     13  H1  UNL     1      -0.732  28.891  -3.888  1.00  0.00     0.165 HD
BRANCH  12  14
HETATM   14  C4  UNL     1      -2.507  28.766  -4.734  1.00  0.00     0.061 C 
BRANCH  14  15
HETATM   15  C3  UNL     1      -3.562  29.380  -3.824  1.00  0.00     0.046 C 
BRANCH  15  16
HETATM   16  C2  UNL     1      -4.937  28.903  -4.158  1.00  0.00     0.031 C 
BRANCH  16  17
HETATM   17  C1  UNL     1      -5.069  27.397  -4.095  1.00  0.00     0.164 C 
BRANCH  17  18
HETATM   18  O1  UNL     1      -6.299  26.994  -3.636  1.00  0.00    -0.401 OA
ATOM     19  H1  UNL     1      -6.287  26.107  -3.295  1.00  0.00     0.209 HD
ENDBRANCH  17  18
ENDBRANCH  16  17
ENDBRANCH  15  16
ENDBRANCH  14  15
ENDBRANCH  12  14
ENDBRANCH   1  12
BRANCH  11  20
HETATM   20  C11 UNL     1       1.452  24.597  -0.290  1.00  0.00     0.134 C 
BRANCH  20  21
HETATM   21  C12 UNL     1       2.853  24.241  -0.706  1.00  0.00     0.004 C 
HETATM   22  C13 UNL     1       3.748  23.984   0.449  1.00  0.00     0.006 C 
HETATM   23  C14 UNL     1       3.263  22.741   1.155  1.00  0.00     0.000 C 
HETATM   24  C15 UNL     1       3.325  21.551   0.245  1.00  0.00     0.000 C 
HETATM   25  C16 UNL     1       3.541  21.878  -1.195  1.00  0.00     0.000 C 
HETATM   26  C17 UNL     1       2.783  23.089  -1.677  1.00  0.00     0.006 C 
ENDBRANCH  20  21
ENDBRANCH  11  20
TORSDOF 8
ENDMDL
