MODEL 1
REMARK VINA RESULT: -5.991959087      0.000      0.000
REMARK  7 active torsions:
REMARK  status: ('A' for Active; 'I' for Inactive)
REMARK    1  A    between atoms: C2_2  and  C3_3 
REMARK    2  A    between atoms: C3_3  and  C4_4 
REMARK    3  A    between atoms: C4_4  and  N1_5 
REMARK       I    between atoms: N1_5  and  C5_7 
REMARK       I    between atoms: C5_7  and  N2_9 
REMARK    4  A    between atoms: N2_9  and  C6_11 
REMARK    5  A    between atoms: C7_16  and  S1_17 
REMARK    6  A    between atoms: S1_17  and  C8_18 
REMARK    7  A    between atoms: C8_18  and  C9_19 
ROOT
HETATM    1  C6  UNL     1       0.418  29.523  -0.488  1.00  0.00     0.169 A 
HETATM    2  N3  UNL     1       0.084  30.765  -0.857  1.00  0.00    -0.278 N 
ATOM      3  H3  UNL     1       0.180  31.539  -0.199  1.00  0.00     0.189 HD
HETATM    4  N4  UNL     1      -0.349  30.970  -2.021  1.00  0.00    -0.286 N 
ATOM      5  H4  UNL     1      -0.602  31.917  -2.304  1.00  0.00     0.188 HD
HETATM    6  C7  UNL     1      -0.481  29.958  -2.896  1.00  0.00     0.130 A 
HETATM    7  S2  UNL     1       0.075  28.648  -1.911  1.00  0.00    -0.026 SA
ENDROOT
BRANCH   1   8
HETATM    8  N2  UNL     1       0.879  29.134   0.653  1.00  0.00    -0.288 N 
HETATM    9  C5  UNL     1       1.443  27.854   0.794  1.00  0.00     0.322 C 
HETATM   10  N1  UNL     1       2.731  27.586   0.263  1.00  0.00    -0.343 N 
HETATM   11  O1  UNL     1       0.843  26.923   1.380  1.00  0.00    -0.247 OA
ATOM     12  H1  UNL     1       3.237  28.328  -0.220  1.00  0.00     0.164 HD
ATOM     13  H2  UNL     1       0.833  29.760   1.457  1.00  0.00     0.172 HD
BRANCH  10  14
HETATM   14  C4  UNL     1       3.349  26.261   0.397  1.00  0.00     0.124 C 
BRANCH  14  15
HETATM   15  C3  UNL     1       3.173  25.528  -0.888  1.00  0.00     0.019 C 
BRANCH  15  16
HETATM   16  C2  UNL     1       2.157  24.441  -0.713  1.00  0.00    -0.003 C 
HETATM   17  C1  UNL     1       0.867  24.848  -1.423  1.00  0.00     0.005 C 
ENDBRANCH  15  16
ENDBRANCH  14  15
ENDBRANCH  10  14
ENDBRANCH   1   8
BRANCH   6  18
HETATM   18  S1  UNL     1      -1.156  30.011  -4.536  1.00  0.00    -0.103 SA
BRANCH  18  19
HETATM   19  C8  UNL     1      -2.360  28.784  -4.874  1.00  0.00     0.086 C 
BRANCH  19  20
HETATM   20  C9  UNL     1      -3.556  28.585  -4.063  1.00  0.00    -0.005 C 
HETATM   21  C10 UNL     1      -4.505  27.461  -4.460  1.00  0.00     0.005 C 
HETATM   22  C11 UNL     1      -5.664  28.429  -4.214  1.00  0.00     0.001 C 
HETATM   23  C12 UNL     1      -4.643  29.572  -4.069  1.00  0.00     0.005 C 
ENDBRANCH  19  20
ENDBRANCH  18  19
ENDBRANCH   6  18
TORSDOF 7
ENDMDL
MODEL 2
REMARK VINA RESULT: -5.937481874      5.036      8.045
REMARK  7 active torsions:
REMARK  status: ('A' for Active; 'I' for Inactive)
REMARK    1  A    between atoms: C2_2  and  C3_3 
REMARK    2  A    between atoms: C3_3  and  C4_4 
REMARK    3  A    between atoms: C4_4  and  N1_5 
REMARK       I    between atoms: N1_5  and  C5_7 
REMARK       I    between atoms: C5_7  and  N2_9 
REMARK    4  A    between atoms: N2_9  and  C6_11 
REMARK    5  A    between atoms: C7_16  and  S1_17 
REMARK    6  A    between atoms: S1_17  and  C8_18 
REMARK    7  A    between atoms: C8_18  and  C9_19 
ROOT
HETATM    1  C6  UNL     1       0.148  31.665  -5.246  1.00  0.00     0.169 A 
HETATM    2  N3  UNL     1      -0.053  31.788  -3.929  1.00  0.00    -0.278 N 
ATOM      3  H3  UNL     1       0.053  32.695  -3.475  1.00  0.00     0.189 HD
HETATM    4  N4  UNL     1      -0.375  30.774  -3.254  1.00  0.00    -0.286 N 
ATOM      5  H4  UNL     1      -0.530  30.867  -2.250  1.00  0.00     0.188 HD
HETATM    6  C7  UNL     1      -0.516  29.572  -3.841  1.00  0.00     0.130 A 
HETATM    7  S2  UNL     1      -0.148  30.002  -5.476  1.00  0.00    -0.026 SA
ENDROOT
BRANCH   1   8
HETATM    8  N2  UNL     1       0.474  32.590  -6.084  1.00  0.00    -0.288 N 
HETATM    9  C5  UNL     1      -0.476  33.103  -6.984  1.00  0.00     0.322 C 
HETATM   10  N1  UNL     1      -1.490  33.981  -6.520  1.00  0.00    -0.343 N 
HETATM   11  O1  UNL     1      -0.466  32.810  -8.203  1.00  0.00    -0.247 OA
ATOM     12  H1  UNL     1      -1.520  34.232  -5.531  1.00  0.00     0.164 HD
ATOM     13  H2  UNL     1       1.428  32.952  -6.094  1.00  0.00     0.172 HD
BRANCH  10  14
HETATM   14  C4  UNL     1      -2.494  34.536  -7.434  1.00  0.00     0.124 C 
BRANCH  14  15
HETATM   15  C3  UNL     1      -2.226  35.993  -7.600  1.00  0.00     0.019 C 
BRANCH  15  16
HETATM   16  C2  UNL     1      -2.157  36.331  -9.058  1.00  0.00    -0.003 C 
HETATM   17  C1  UNL     1      -0.732  36.098  -9.554  1.00  0.00     0.005 C 
ENDBRANCH  15  16
ENDBRANCH  14  15
ENDBRANCH  10  14
ENDBRANCH   1   8
BRANCH   6  18
HETATM   18  S1  UNL     1      -0.863  28.013  -3.068  1.00  0.00    -0.103 SA
BRANCH  18  19
HETATM   19  C8  UNL     1      -2.426  27.329  -3.467  1.00  0.00     0.086 C 
BRANCH  19  20
HETATM   20  C9  UNL     1      -3.402  27.998  -4.321  1.00  0.00    -0.005 C 
HETATM   21  C10 UNL     1      -3.965  29.332  -3.848  1.00  0.00     0.005 C 
HETATM   22  C11 UNL     1      -5.346  28.842  -4.285  1.00  0.00     0.001 C 
HETATM   23  C12 UNL     1      -4.747  27.441  -4.507  1.00  0.00     0.005 C 
ENDBRANCH  19  20
ENDBRANCH  18  19
ENDBRANCH   6  18
TORSDOF 7
ENDMDL
MODEL 3
REMARK VINA RESULT: -5.908593082      3.571      4.207
REMARK  7 active torsions:
REMARK  status: ('A' for Active; 'I' for Inactive)
REMARK    1  A    between atoms: C2_2  and  C3_3 
REMARK    2  A    between atoms: C3_3  and  C4_4 
REMARK    3  A    between atoms: C4_4  and  N1_5 
REMARK       I    between atoms: N1_5  and  C5_7 
REMARK       I    between atoms: C5_7  and  N2_9 
REMARK    4  A    between atoms: N2_9  and  C6_11 
REMARK    5  A    between atoms: C7_16  and  S1_17 
REMARK    6  A    between atoms: S1_17  and  C8_18 
REMARK    7  A    between atoms: C8_18  and  C9_19 
ROOT
HETATM    1  C6  UNL     1       0.693  24.693  -4.173  1.00  0.00     0.169 A 
HETATM    2  N3  UNL     1      -0.607  24.786  -3.871  1.00  0.00    -0.278 N 
ATOM      3  H3  UNL     1      -1.078  24.021  -3.387  1.00  0.00     0.189 HD
HETATM    4  N4  UNL     1      -1.244  25.825  -4.187  1.00  0.00    -0.286 N 
ATOM      5  H4  UNL     1      -2.235  25.898  -3.956  1.00  0.00     0.188 HD
HETATM    6  C7  UNL     1      -0.635  26.839  -4.826  1.00  0.00     0.130 A 
HETATM    7  S2  UNL     1       0.964  26.188  -4.947  1.00  0.00    -0.026 SA
ENDROOT
BRANCH   1   8
HETATM    8  N2  UNL     1       1.494  23.713  -3.922  1.00  0.00    -0.288 N 
HETATM    9  C5  UNL     1       2.563  23.881  -3.024  1.00  0.00     0.322 C 
HETATM   10  N1  UNL     1       2.312  23.939  -1.628  1.00  0.00    -0.343 N 
HETATM   11  O1  UNL     1       3.750  23.982  -3.412  1.00  0.00    -0.247 OA
ATOM     12  H1  UNL     1       1.353  23.861  -1.288  1.00  0.00     0.164 HD
ATOM     13  H2  UNL     1       1.351  22.812  -4.378  1.00  0.00     0.172 HD
BRANCH  10  14
HETATM   14  C4  UNL     1       3.406  24.109  -0.664  1.00  0.00     0.124 C 
BRANCH  14  15
HETATM   15  C3  UNL     1       2.944  23.614   0.663  1.00  0.00     0.019 C 
BRANCH  15  16
HETATM   16  C2  UNL     1       3.314  22.171   0.822  1.00  0.00    -0.003 C 
HETATM   17  C1  UNL     1       2.918  21.707   2.222  1.00  0.00     0.005 C 
ENDBRANCH  15  16
ENDBRANCH  14  15
ENDBRANCH  10  14
ENDBRANCH   1   8
BRANCH   6  18
HETATM   18  S1  UNL     1      -1.361  28.335  -5.445  1.00  0.00    -0.103 SA
BRANCH  18  19
HETATM   19  C8  UNL     1      -2.200  29.295  -4.242  1.00  0.00     0.086 C 
BRANCH  19  20
HETATM   20  C9  UNL     1      -3.514  28.948  -3.711  1.00  0.00    -0.005 C 
HETATM   21  C10 UNL     1      -4.171  27.670  -4.218  1.00  0.00     0.005 C 
HETATM   22  C11 UNL     1      -5.481  28.453  -4.324  1.00  0.00     0.001 C 
HETATM   23  C12 UNL     1      -4.697  29.749  -4.046  1.00  0.00     0.005 C 
ENDBRANCH  19  20
ENDBRANCH  18  19
ENDBRANCH   6  18
TORSDOF 7
ENDMDL
MODEL 4
REMARK VINA RESULT: -5.888172653      3.437      4.170
REMARK  7 active torsions:
REMARK  status: ('A' for Active; 'I' for Inactive)
REMARK    1  A    between atoms: C2_2  and  C3_3 
REMARK    2  A    between atoms: C3_3  and  C4_4 
REMARK    3  A    between atoms: C4_4  and  N1_5 
REMARK       I    between atoms: N1_5  and  C5_7 
REMARK       I    between atoms: C5_7  and  N2_9 
REMARK    4  A    between atoms: N2_9  and  C6_11 
REMARK    5  A    between atoms: C7_16  and  S1_17 
REMARK    6  A    between atoms: S1_17  and  C8_18 
REMARK    7  A    between atoms: C8_18  and  C9_19 
ROOT
HETATM    1  C6  UNL     1       0.996  24.735  -4.526  1.00  0.00     0.169 A 
HETATM    2  N3  UNL     1      -0.286  24.756  -4.144  1.00  0.00    -0.278 N 
ATOM      3  H3  UNL     1      -0.700  23.941  -3.691  1.00  0.00     0.189 HD
HETATM    4  N4  UNL     1      -0.977  25.788  -4.348  1.00  0.00    -0.286 N 
ATOM      5  H4  UNL     1      -1.954  25.806  -4.056  1.00  0.00     0.188 HD
HETATM    6  C7  UNL     1      -0.442  26.868  -4.947  1.00  0.00     0.130 A 
HETATM    7  S2  UNL     1       1.168  26.289  -5.204  1.00  0.00    -0.026 SA
ENDROOT
BRANCH   1   8
HETATM    8  N2  UNL     1       1.844  23.772  -4.392  1.00  0.00    -0.288 N 
HETATM    9  C5  UNL     1       2.734  23.754  -3.303  1.00  0.00     0.322 C 
HETATM   10  N1  UNL     1       2.262  23.422  -2.007  1.00  0.00    -0.343 N 
HETATM   11  O1  UNL     1       3.951  24.025  -3.434  1.00  0.00    -0.247 OA
ATOM     12  H1  UNL     1       1.275  23.201  -1.876  1.00  0.00     0.164 HD
ATOM     13  H2  UNL     1       1.869  23.019  -5.079  1.00  0.00     0.172 HD
BRANCH  10  14
HETATM   14  C4  UNL     1       3.166  23.391  -0.851  1.00  0.00     0.124 C 
BRANCH  14  15
HETATM   15  C3  UNL     1       2.547  24.180   0.251  1.00  0.00     0.019 C 
BRANCH  15  16
HETATM   16  C2  UNL     1       1.382  24.960  -0.278  1.00  0.00    -0.003 C 
HETATM   17  C1  UNL     1       1.431  26.375   0.295  1.00  0.00     0.005 C 
ENDBRANCH  15  16
ENDBRANCH  14  15
ENDBRANCH  10  14
ENDBRANCH   1   8
BRANCH   6  18
HETATM   18  S1  UNL     1      -1.256  28.374  -5.414  1.00  0.00    -0.103 SA
BRANCH  18  19
HETATM   19  C8  UNL     1      -2.019  29.235  -4.093  1.00  0.00     0.086 C 
BRANCH  19  20
HETATM   20  C9  UNL     1      -3.366  28.942  -3.613  1.00  0.00    -0.005 C 
HETATM   21  C10 UNL     1      -4.022  27.650  -4.084  1.00  0.00     0.005 C 
HETATM   22  C11 UNL     1      -5.308  28.449  -4.302  1.00  0.00     0.001 C 
HETATM   23  C12 UNL     1      -4.513  29.744  -4.054  1.00  0.00     0.005 C 
ENDBRANCH  19  20
ENDBRANCH  18  19
ENDBRANCH   6  18
TORSDOF 7
ENDMDL
MODEL 5
REMARK VINA RESULT: -5.762488060      3.911      4.685
REMARK  7 active torsions:
REMARK  status: ('A' for Active; 'I' for Inactive)
REMARK    1  A    between atoms: C2_2  and  C3_3 
REMARK    2  A    between atoms: C3_3  and  C4_4 
REMARK    3  A    between atoms: C4_4  and  N1_5 
REMARK       I    between atoms: N1_5  and  C5_7 
REMARK       I    between atoms: C5_7  and  N2_9 
REMARK    4  A    between atoms: N2_9  and  C6_11 
REMARK    5  A    between atoms: C7_16  and  S1_17 
REMARK    6  A    between atoms: S1_17  and  C8_18 
REMARK    7  A    between atoms: C8_18  and  C9_19 
ROOT
HETATM    1  C6  UNL     1       1.121  24.777  -4.585  1.00  0.00     0.169 A 
HETATM    2  N3  UNL     1      -0.149  24.739  -4.166  1.00  0.00    -0.278 N 
ATOM      3  H3  UNL     1      -0.652  23.853  -4.132  1.00  0.00     0.189 HD
HETATM    4  N4  UNL     1      -0.717  25.807  -3.816  1.00  0.00    -0.286 N 
ATOM      5  H4  UNL     1      -1.685  25.780  -3.495  1.00  0.00     0.188 HD
HETATM    6  C7  UNL     1      -0.064  26.982  -3.859  1.00  0.00     0.130 A 
HETATM    7  S2  UNL     1       1.469  26.441  -4.453  1.00  0.00    -0.026 SA
ENDROOT
BRANCH   1   8
HETATM    8  N2  UNL     1       1.854  23.788  -4.974  1.00  0.00    -0.288 N 
HETATM    9  C5  UNL     1       2.729  23.155  -4.074  1.00  0.00     0.322 C 
HETATM   10  N1  UNL     1       2.213  22.287  -3.077  1.00  0.00    -0.343 N 
HETATM   11  O1  UNL     1       3.970  23.328  -4.117  1.00  0.00    -0.247 OA
ATOM     12  H1  UNL     1       1.206  22.132  -3.021  1.00  0.00     0.164 HD
ATOM     13  H2  UNL     1       1.798  23.465  -5.940  1.00  0.00     0.172 HD
BRANCH  10  14
HETATM   14  C4  UNL     1       3.100  21.607  -2.125  1.00  0.00     0.124 C 
BRANCH  14  15
HETATM   15  C3  UNL     1       3.065  22.352  -0.835  1.00  0.00     0.019 C 
BRANCH  15  16
HETATM   16  C2  UNL     1       3.453  21.438   0.287  1.00  0.00    -0.003 C 
HETATM   17  C1  UNL     1       3.125  22.115   1.615  1.00  0.00     0.005 C 
ENDBRANCH  15  16
ENDBRANCH  14  15
ENDBRANCH  10  14
ENDBRANCH   1   8
BRANCH   6  18
HETATM   18  S1  UNL     1      -0.701  28.600  -3.507  1.00  0.00    -0.103 SA
BRANCH  18  19
HETATM   19  C8  UNL     1      -2.193  28.997  -4.335  1.00  0.00     0.086 C 
BRANCH  19  20
HETATM   20  C9  UNL     1      -3.515  28.803  -3.747  1.00  0.00    -0.005 C 
HETATM   21  C10 UNL     1      -4.294  27.557  -4.147  1.00  0.00     0.005 C 
HETATM   22  C11 UNL     1      -5.535  28.442  -4.274  1.00  0.00     0.001 C 
HETATM   23  C12 UNL     1      -4.635  29.681  -4.107  1.00  0.00     0.005 C 
ENDBRANCH  19  20
ENDBRANCH  18  19
ENDBRANCH   6  18
TORSDOF 7
ENDMDL
