MODEL 1
REMARK VINA RESULT: -6.240658217      0.000      0.000
REMARK  6 active torsions:
REMARK  status: ('A' for Active; 'I' for Inactive)
REMARK    1  A    between atoms: N2_5  and  C3_6 
REMARK    2  A    between atoms: C3_6  and  C4_7 
REMARK    3  A    between atoms: C4_7  and  N3_8 
REMARK    4  A    between atoms: N3_8  and  C5_11 
REMARK    5  A    between atoms: C5_11  and  C6_12 
REMARK    6  A    between atoms: C12_20  and  C13_21 
ROOT
HETATM    1  C3  UNL     1       0.297  25.572  -2.769  1.00  0.00     0.177 C 
ENDROOT
BRANCH   1   2
HETATM    2  N2  UNL     1       1.213  24.489  -2.446  1.00  0.00    -0.279 N 
HETATM    3  N1  UNL     1       1.540  23.470  -3.181  1.00  0.00    -0.301 N 
HETATM    4  C2  UNL     1       2.405  22.671  -2.584  1.00  0.00     0.032 A 
ATOM      5  H1  UNL     1       1.169  23.304  -4.116  1.00  0.00     0.187 HD
HETATM    6  C1  UNL     1       3.027  21.423  -3.045  1.00  0.00     0.070 C 
HETATM    7  C12 UNL     1       2.666  23.231  -1.327  1.00  0.00     0.009 A 
HETATM    8  C11 UNL     1       1.911  24.366  -1.265  1.00  0.00     0.126 A 
HETATM    9  S1  UNL     1       1.773  25.503  -0.072  1.00  0.00    -0.058 SA
BRANCH   7  10
HETATM   10  C13 UNL     1       3.593  22.717  -0.334  1.00  0.00     0.024 A 
HETATM   11  C14 UNL     1       3.071  22.448   1.071  1.00  0.00     0.010 A 
HETATM   12  C15 UNL     1       3.688  21.378   0.204  1.00  0.00     0.010 A 
ENDBRANCH   7  10
ENDBRANCH   1   2
BRANCH   1  13
HETATM   13  C4  UNL     1      -0.730  25.128  -3.786  1.00  0.00     0.254 C 
BRANCH  13  14
HETATM   14  N3  UNL     1      -1.310  26.182  -4.548  1.00  0.00    -0.073 N 
ATOM     15  H32 UNL     1      -0.586  26.734  -5.008  1.00  0.00     0.277 HD
ATOM     16  H31 UNL     1      -1.789  25.811  -5.368  1.00  0.00     0.277 HD
BRANCH  14  17
HETATM   17  C5  UNL     1      -2.177  27.022  -3.798  1.00  0.00     0.237 C 
BRANCH  17  18
HETATM   18  C6  UNL     1      -3.094  27.884  -4.607  1.00  0.00     0.015 C 
HETATM   19  C7  UNL     1      -3.531  29.035  -3.724  1.00  0.00     0.032 C 
HETATM   20  C8  UNL     1      -4.839  29.627  -4.147  1.00  0.00     0.168 C 
HETATM   21  O1  UNL     1      -5.829  28.680  -4.353  1.00  0.00    -0.391 OA
HETATM   22  C9  UNL     1      -5.403  27.393  -4.039  1.00  0.00     0.168 C 
HETATM   23  C10 UNL     1      -4.293  27.068  -5.050  1.00  0.00     0.032 C 
ENDBRANCH  17  18
ENDBRANCH  14  17
ENDBRANCH  13  14
ENDBRANCH   1  13
TORSDOF 6
ENDMDL
MODEL 2
REMARK VINA RESULT: -6.033148626      4.089      6.547
REMARK  6 active torsions:
REMARK  status: ('A' for Active; 'I' for Inactive)
REMARK    1  A    between atoms: N2_5  and  C3_6 
REMARK    2  A    between atoms: C3_6  and  C4_7 
REMARK    3  A    between atoms: C4_7  and  N3_8 
REMARK    4  A    between atoms: N3_8  and  C5_11 
REMARK    5  A    between atoms: C5_11  and  C6_12 
REMARK    6  A    between atoms: C12_20  and  C13_21 
ROOT
HETATM    1  C3  UNL     1       0.896  27.889  -3.717  1.00  0.00     0.177 C 
ENDROOT
BRANCH   1   2
HETATM    2  N2  UNL     1       0.718  28.232  -5.120  1.00  0.00    -0.279 N 
HETATM    3  N1  UNL     1       1.025  27.523  -6.163  1.00  0.00    -0.301 N 
HETATM    4  C2  UNL     1       0.727  28.133  -7.295  1.00  0.00     0.032 A 
ATOM      5  H1  UNL     1       1.449  26.597  -6.114  1.00  0.00     0.187 HD
HETATM    6  C1  UNL     1       0.906  27.700  -8.687  1.00  0.00     0.070 C 
HETATM    7  C12 UNL     1       0.168  29.370  -6.949  1.00  0.00     0.009 A 
HETATM    8  C11 UNL     1       0.173  29.408  -5.585  1.00  0.00     0.126 A 
HETATM    9  S1  UNL     1      -0.368  30.569  -4.540  1.00  0.00    -0.058 SA
BRANCH   7  10
HETATM   10  C13 UNL     1      -0.349  30.367  -7.871  1.00  0.00     0.024 A 
HETATM   11  C14 UNL     1       0.288  31.750  -7.870  1.00  0.00     0.010 A 
HETATM   12  C15 UNL     1       0.250  30.863  -9.091  1.00  0.00     0.010 A 
ENDBRANCH   7  10
ENDBRANCH   1   2
BRANCH   1  13
HETATM   13  C4  UNL     1      -0.026  26.759  -3.314  1.00  0.00     0.254 C 
BRANCH  13  14
HETATM   14  N3  UNL     1      -1.387  27.137  -3.129  1.00  0.00    -0.073 N 
ATOM     15  H32 UNL     1      -1.712  26.869  -2.201  1.00  0.00     0.277 HD
ATOM     16  H31 UNL     1      -1.471  28.151  -3.053  1.00  0.00     0.277 HD
BRANCH  14  17
HETATM   17  C5  UNL     1      -2.262  26.636  -4.130  1.00  0.00     0.237 C 
BRANCH  17  18
HETATM   18  C6  UNL     1      -3.123  27.660  -4.801  1.00  0.00     0.015 C 
HETATM   19  C7  UNL     1      -3.362  28.775  -3.803  1.00  0.00     0.032 C 
HETATM   20  C8  UNL     1      -4.616  29.543  -4.081  1.00  0.00     0.168 C 
HETATM   21  O1  UNL     1      -5.723  28.734  -4.282  1.00  0.00    -0.391 OA
HETATM   22  C9  UNL     1      -5.431  27.386  -4.098  1.00  0.00     0.168 C 
HETATM   23  C10 UNL     1      -4.436  27.023  -5.212  1.00  0.00     0.032 C 
ENDBRANCH  17  18
ENDBRANCH  14  17
ENDBRANCH  13  14
ENDBRANCH   1  13
TORSDOF 6
ENDMDL
MODEL 3
REMARK VINA RESULT: -6.007989813      3.952      6.239
REMARK  6 active torsions:
REMARK  status: ('A' for Active; 'I' for Inactive)
REMARK    1  A    between atoms: N2_5  and  C3_6 
REMARK    2  A    between atoms: C3_6  and  C4_7 
REMARK    3  A    between atoms: C4_7  and  N3_8 
REMARK    4  A    between atoms: N3_8  and  C5_11 
REMARK    5  A    between atoms: C5_11  and  C6_12 
REMARK    6  A    between atoms: C12_20  and  C13_21 
ROOT
HETATM    1  C3  UNL     1       0.903  27.720  -3.386  1.00  0.00     0.177 C 
ENDROOT
BRANCH   1   2
HETATM    2  N2  UNL     1       0.588  28.313  -4.677  1.00  0.00    -0.279 N 
HETATM    3  N1  UNL     1       0.039  29.465  -4.916  1.00  0.00    -0.301 N 
HETATM    4  C2  UNL     1      -0.103  29.699  -6.207  1.00  0.00     0.032 A 
ATOM      5  H1  UNL     1      -0.250  30.117  -4.188  1.00  0.00     0.187 HD
HETATM    6  C1  UNL     1      -0.671  30.858  -6.910  1.00  0.00     0.070 C 
HETATM    7  C12 UNL     1       0.406  28.580  -6.877  1.00  0.00     0.009 A 
HETATM    8  C11 UNL     1       0.833  27.728  -5.899  1.00  0.00     0.126 A 
HETATM    9  S1  UNL     1       1.556  26.246  -6.004  1.00  0.00    -0.058 SA
BRANCH   7  10
HETATM   10  C13 UNL     1       0.498  28.407  -8.316  1.00  0.00     0.024 A 
HETATM   11  C14 UNL     1       1.648  29.081  -9.053  1.00  0.00     0.010 A 
HETATM   12  C15 UNL     1       1.422  27.588  -9.070  1.00  0.00     0.010 A 
ENDBRANCH   7  10
ENDBRANCH   1   2
BRANCH   1  13
HETATM   13  C4  UNL     1      -0.134  26.690  -2.995  1.00  0.00     0.254 C 
BRANCH  13  14
HETATM   14  N3  UNL     1      -1.477  27.164  -3.000  1.00  0.00    -0.073 N 
ATOM     15  H32 UNL     1      -1.926  26.981  -2.103  1.00  0.00     0.277 HD
ATOM     16  H31 UNL     1      -1.498  28.184  -2.996  1.00  0.00     0.277 HD
BRANCH  14  17
HETATM   17  C5  UNL     1      -2.262  26.650  -4.067  1.00  0.00     0.237 C 
BRANCH  17  18
HETATM   18  C6  UNL     1      -3.124  27.652  -4.770  1.00  0.00     0.015 C 
HETATM   19  C7  UNL     1      -3.356  28.802  -3.811  1.00  0.00     0.032 C 
HETATM   20  C8  UNL     1      -4.610  29.562  -4.110  1.00  0.00     0.168 C 
HETATM   21  O1  UNL     1      -5.719  28.748  -4.278  1.00  0.00    -0.391 OA
HETATM   22  C9  UNL     1      -5.429  27.407  -4.048  1.00  0.00     0.168 C 
HETATM   23  C10 UNL     1      -4.439  27.004  -5.153  1.00  0.00     0.032 C 
ENDBRANCH  17  18
ENDBRANCH  14  17
ENDBRANCH  13  14
ENDBRANCH   1  13
TORSDOF 6
ENDMDL
MODEL 4
REMARK VINA RESULT: -5.964741393      0.939      1.455
REMARK  6 active torsions:
REMARK  status: ('A' for Active; 'I' for Inactive)
REMARK    1  A    between atoms: N2_5  and  C3_6 
REMARK    2  A    between atoms: C3_6  and  C4_7 
REMARK    3  A    between atoms: C4_7  and  N3_8 
REMARK    4  A    between atoms: N3_8  and  C5_11 
REMARK    5  A    between atoms: C5_11  and  C6_12 
REMARK    6  A    between atoms: C12_20  and  C13_21 
ROOT
HETATM    1  C3  UNL     1       0.618  25.540  -2.568  1.00  0.00     0.177 C 
ENDROOT
BRANCH   1   2
HETATM    2  N2  UNL     1       1.451  24.349  -2.518  1.00  0.00    -0.279 N 
HETATM    3  N1  UNL     1       1.596  23.434  -3.427  1.00  0.00    -0.301 N 
HETATM    4  C2  UNL     1       2.436  22.484  -3.061  1.00  0.00     0.032 A 
ATOM      5  H1  UNL     1       1.114  23.447  -4.325  1.00  0.00     0.187 HD
HETATM    6  C1  UNL     1       2.880  21.277  -3.770  1.00  0.00     0.070 C 
HETATM    7  C12 UNL     1       2.883  22.819  -1.776  1.00  0.00     0.009 A 
HETATM    8  C11 UNL     1       2.254  23.988  -1.459  1.00  0.00     0.126 A 
HETATM    9  S1  UNL     1       2.357  24.932  -0.106  1.00  0.00    -0.058 SA
BRANCH   7  10
HETATM   10  C13 UNL     1       3.855  22.083  -0.986  1.00  0.00     0.024 A 
HETATM   11  C14 UNL     1       3.358  21.288   0.214  1.00  0.00     0.010 A 
HETATM   12  C15 UNL     1       4.089  20.655  -0.945  1.00  0.00     0.010 A 
ENDBRANCH   7  10
ENDBRANCH   1   2
BRANCH   1  13
HETATM   13  C4  UNL     1      -0.831  25.179  -2.813  1.00  0.00     0.254 C 
BRANCH  13  14
HETATM   14  N3  UNL     1      -1.259  25.316  -4.165  1.00  0.00    -0.073 N 
ATOM     15  H32 UNL     1      -0.565  24.929  -4.803  1.00  0.00     0.277 HD
ATOM     16  H31 UNL     1      -2.039  24.689  -4.360  1.00  0.00     0.277 HD
BRANCH  14  17
HETATM   17  C5  UNL     1      -1.586  26.651  -4.529  1.00  0.00     0.237 C 
BRANCH  17  18
HETATM   18  C6  UNL     1      -2.669  27.290  -3.718  1.00  0.00     0.015 C 
HETATM   19  C7  UNL     1      -3.894  27.399  -4.603  1.00  0.00     0.032 C 
HETATM   20  C8  UNL     1      -4.823  28.492  -4.175  1.00  0.00     0.168 C 
HETATM   21  O1  UNL     1      -4.185  29.703  -3.960  1.00  0.00    -0.391 OA
HETATM   22  C9  UNL     1      -2.831  29.649  -4.273  1.00  0.00     0.168 C 
HETATM   23  C10 UNL     1      -2.214  28.664  -3.267  1.00  0.00     0.032 C 
ENDBRANCH  17  18
ENDBRANCH  14  17
ENDBRANCH  13  14
ENDBRANCH   1  13
TORSDOF 6
ENDMDL
MODEL 5
REMARK VINA RESULT: -5.941373517      1.398      2.068
REMARK  6 active torsions:
REMARK  status: ('A' for Active; 'I' for Inactive)
REMARK    1  A    between atoms: N2_5  and  C3_6 
REMARK    2  A    between atoms: C3_6  and  C4_7 
REMARK    3  A    between atoms: C4_7  and  N3_8 
REMARK    4  A    between atoms: N3_8  and  C5_11 
REMARK    5  A    between atoms: C5_11  and  C6_12 
REMARK    6  A    between atoms: C12_20  and  C13_21 
ROOT
HETATM    1  C3  UNL     1       0.719  24.777  -4.191  1.00  0.00     0.177 C 
ENDROOT
BRANCH   1   2
HETATM    2  N2  UNL     1       1.267  24.865  -2.847  1.00  0.00    -0.279 N 
HETATM    3  N1  UNL     1       0.988  25.734  -1.923  1.00  0.00    -0.301 N 
HETATM    4  C2  UNL     1       1.665  25.526  -0.810  1.00  0.00     0.032 A 
ATOM      5  H1  UNL     1       0.319  26.495  -2.045  1.00  0.00     0.187 HD
HETATM    6  C1  UNL     1       1.660  26.261   0.461  1.00  0.00     0.070 C 
HETATM    7  C12 UNL     1       2.471  24.403  -1.035  1.00  0.00     0.009 A 
HETATM    8  C11 UNL     1       2.204  24.007  -2.314  1.00  0.00     0.126 A 
HETATM    9  S1  UNL     1       2.793  22.737  -3.192  1.00  0.00    -0.058 SA
BRANCH   7  10
HETATM   10  C13 UNL     1       3.361  23.776  -0.072  1.00  0.00     0.024 A 
HETATM   11  C14 UNL     1       2.759  22.833   0.959  1.00  0.00     0.010 A 
HETATM   12  C15 UNL     1       3.818  22.405  -0.027  1.00  0.00     0.010 A 
ENDBRANCH   7  10
ENDBRANCH   1   2
BRANCH   1  13
HETATM   13  C4  UNL     1      -0.098  26.005  -4.526  1.00  0.00     0.254 C 
BRANCH  13  14
HETATM   14  N3  UNL     1      -1.501  25.860  -4.332  1.00  0.00    -0.073 N 
ATOM     15  H32 UNL     1      -1.971  25.685  -5.219  1.00  0.00     0.277 HD
ATOM     16  H31 UNL     1      -1.708  24.983  -3.853  1.00  0.00     0.277 HD
BRANCH  14  17
HETATM   17  C5  UNL     1      -2.102  26.955  -3.653  1.00  0.00     0.237 C 
BRANCH  17  18
HETATM   18  C6  UNL     1      -2.951  27.848  -4.502  1.00  0.00     0.015 C 
HETATM   19  C7  UNL     1      -3.394  29.009  -3.637  1.00  0.00     0.032 C 
HETATM   20  C8  UNL     1      -4.661  29.643  -4.121  1.00  0.00     0.168 C 
HETATM   21  O1  UNL     1      -5.669  28.728  -4.378  1.00  0.00    -0.391 OA
HETATM   22  C9  UNL     1      -5.299  27.428  -4.049  1.00  0.00     0.168 C 
HETATM   23  C10 UNL     1      -4.151  27.071  -5.006  1.00  0.00     0.032 C 
ENDBRANCH  17  18
ENDBRANCH  14  17
ENDBRANCH  13  14
ENDBRANCH   1  13
TORSDOF 6
ENDMDL
