MODEL 1
REMARK VINA RESULT: -6.592184203      0.000      0.000
REMARK  6 active torsions:
REMARK  status: ('A' for Active; 'I' for Inactive)
REMARK    1  A    between atoms: C1_2  and  C2_3 
REMARK       I    between atoms: C1_2  and  N3_21 
REMARK    2  A    between atoms: C2_3  and  C3_4 
REMARK    3  A    between atoms: C3_4  and  C4_5 
REMARK    4  A    between atoms: C4_5  and  C5_6 
REMARK    5  A    between atoms: C6_9  and  C7_10 
REMARK    6  A    between atoms: C13_18  and  O2_19 
ROOT
HETATM    1  C5  UNL     1      32.653  98.025  34.797  1.00  0.00     0.062 A 
HETATM    2  N1  UNL     1      32.175  98.214  33.548  1.00  0.00    -0.345 N 
ATOM      3  H1  UNL     1      32.209  97.529  32.793  1.00  0.00     0.167 HD
HETATM    4  C6  UNL     1      31.648  99.446  33.456  1.00  0.00     0.087 A 
HETATM    5  N2  UNL     1      31.801 100.023  34.662  1.00  0.00    -0.325 N 
ATOM      6  H2  UNL     1      31.495 100.966  34.900  1.00  0.00     0.169 HD
HETATM    7  C13 UNL     1      32.415  99.177  35.509  1.00  0.00     0.164 A 
ENDROOT
BRANCH   1   8
HETATM    8  C4  UNL     1      33.326  96.820  35.374  1.00  0.00     0.062 C 
BRANCH   8   9
HETATM    9  C3  UNL     1      32.246  95.929  35.925  1.00  0.00     0.015 C 
BRANCH   9  10
HETATM   10  C2  UNL     1      32.587  95.329  37.243  1.00  0.00     0.103 C 
BRANCH  10  11
HETATM   11  C1  UNL     1      32.423  96.313  38.326  1.00  0.00     0.219 C 
HETATM   12  O1  UNL     1      31.411  97.054  38.340  1.00  0.00    -0.273 OA
HETATM   13  N3  UNL     1      33.418  96.394  39.329  1.00  0.00    -0.348 N 
HETATM   14  C14 UNL     1      34.558  95.530  39.282  1.00  0.00     0.152 C 
HETATM   15  C17 UNL     1      33.261  97.361  40.397  1.00  0.00     0.152 C 
HETATM   16  C15 UNL     1      35.326  95.701  40.572  1.00  0.00     0.187 C 
HETATM   17  O3  UNL     1      34.410  95.632  41.615  1.00  0.00    -0.388 OA
HETATM   18  C16 UNL     1      33.657  96.790  41.736  1.00  0.00     0.187 C 
ENDBRANCH  10  11
ENDBRANCH   9  10
ENDBRANCH   8   9
ENDBRANCH   1   8
BRANCH   7  19
HETATM   19  O2  UNL     1      32.759  99.383  36.836  1.00  0.00    -0.345 OA
ATOM     20  H2  UNL     1      32.965 100.225  37.225  1.00  0.00     0.219 HD
ENDBRANCH   7  19
BRANCH   4  21
HETATM   21  C7  UNL     1      31.018 100.046  32.254  1.00  0.00     0.053 C 
HETATM   22  C8  UNL     1      29.776 100.768  32.698  1.00  0.00     0.012 C 
HETATM   23  C9  UNL     1      28.866 101.110  31.540  1.00  0.00     0.001 C 
HETATM   24  C10 UNL     1      28.483  99.772  30.899  1.00  0.00     0.000 C 
HETATM   25  C11 UNL     1      29.758  99.274  30.225  1.00  0.00     0.001 C 
HETATM   26  C12 UNL     1      30.732  98.921  31.293  1.00  0.00     0.012 C 
ENDBRANCH   4  21
TORSDOF 6
ENDMDL
MODEL 2
REMARK VINA RESULT: -6.546440635      2.479      3.710
REMARK  6 active torsions:
REMARK  status: ('A' for Active; 'I' for Inactive)
REMARK    1  A    between atoms: C1_2  and  C2_3 
REMARK       I    between atoms: C1_2  and  N3_21 
REMARK    2  A    between atoms: C2_3  and  C3_4 
REMARK    3  A    between atoms: C3_4  and  C4_5 
REMARK    4  A    between atoms: C4_5  and  C5_6 
REMARK    5  A    between atoms: C6_9  and  C7_10 
REMARK    6  A    between atoms: C13_18  and  O2_19 
ROOT
HETATM    1  C5  UNL     1      32.298  99.945  36.745  1.00  0.00     0.062 A 
HETATM    2  N1  UNL     1      32.151  99.604  35.446  1.00  0.00    -0.345 N 
ATOM      3  H1  UNL     1      32.383  98.695  35.045  1.00  0.00     0.167 HD
HETATM    4  C6  UNL     1      31.652 100.648  34.765  1.00  0.00     0.087 A 
HETATM    5  N2  UNL     1      31.487 101.645  35.654  1.00  0.00    -0.325 N 
ATOM      6  H2  UNL     1      31.121 102.571  35.430  1.00  0.00     0.169 HD
HETATM    7  C13 UNL     1      31.874 101.246  36.878  1.00  0.00     0.164 A 
ENDROOT
BRANCH   1   8
HETATM    8  C4  UNL     1      32.814  99.122  37.882  1.00  0.00     0.062 C 
BRANCH   8   9
HETATM    9  C3  UNL     1      31.942  97.899  37.976  1.00  0.00     0.015 C 
BRANCH   9  10
HETATM   10  C2  UNL     1      32.689  96.623  37.813  1.00  0.00     0.103 C 
BRANCH  10  11
HETATM   11  C1  UNL     1      32.567  96.117  36.435  1.00  0.00     0.219 C 
HETATM   12  O1  UNL     1      31.478  95.629  36.050  1.00  0.00    -0.273 OA
HETATM   13  N3  UNL     1      33.690  96.199  35.577  1.00  0.00    -0.348 N 
HETATM   14  C14 UNL     1      34.916  96.765  36.052  1.00  0.00     0.152 C 
HETATM   15  C17 UNL     1      33.575  95.702  34.221  1.00  0.00     0.152 C 
HETATM   16  C15 UNL     1      35.852  96.905  34.872  1.00  0.00     0.187 C 
HETATM   17  O3  UNL     1      35.135  97.496  33.839  1.00  0.00    -0.388 OA
HETATM   18  C16 UNL     1      34.258  96.612  33.229  1.00  0.00     0.187 C 
ENDBRANCH  10  11
ENDBRANCH   9  10
ENDBRANCH   8   9
ENDBRANCH   1   8
BRANCH   7  19
HETATM   19  O2  UNL     1      31.867 101.967  38.063  1.00  0.00    -0.345 OA
ATOM     20  H2  UNL     1      31.167 102.540  38.352  1.00  0.00     0.219 HD
ENDBRANCH   7  19
BRANCH   4  21
HETATM   21  C7  UNL     1      31.343 100.685  33.314  1.00  0.00     0.053 C 
HETATM   22  C8  UNL     1      29.963 101.262  33.154  1.00  0.00     0.012 C 
HETATM   23  C9  UNL     1      29.398 101.022  31.772  1.00  0.00     0.001 C 
HETATM   24  C10 UNL     1      29.344  99.500  31.599  1.00  0.00     0.000 C 
HETATM   25  C11 UNL     1      30.801  99.062  31.478  1.00  0.00     0.001 C 
HETATM   26  C12 UNL     1      31.454  99.274  32.798  1.00  0.00     0.012 C 
ENDBRANCH   4  21
TORSDOF 6
ENDMDL
MODEL 3
REMARK VINA RESULT: -6.484804314      2.349      3.844
REMARK  6 active torsions:
REMARK  status: ('A' for Active; 'I' for Inactive)
REMARK    1  A    between atoms: C1_2  and  C2_3 
REMARK       I    between atoms: C1_2  and  N3_21 
REMARK    2  A    between atoms: C2_3  and  C3_4 
REMARK    3  A    between atoms: C3_4  and  C4_5 
REMARK    4  A    between atoms: C4_5  and  C5_6 
REMARK    5  A    between atoms: C6_9  and  C7_10 
REMARK    6  A    between atoms: C13_18  and  O2_19 
ROOT
HETATM    1  C5  UNL     1      32.237 101.528  36.551  1.00  0.00     0.062 A 
HETATM    2  N1  UNL     1      31.395 101.266  35.528  1.00  0.00    -0.345 N 
ATOM      3  H1  UNL     1      30.417 100.991  35.624  1.00  0.00     0.167 HD
HETATM    4  C6  UNL     1      32.045 101.424  34.364  1.00  0.00     0.087 A 
HETATM    5  N2  UNL     1      33.304 101.790  34.671  1.00  0.00    -0.325 N 
ATOM      6  H2  UNL     1      34.038 101.983  33.991  1.00  0.00     0.169 HD
HETATM    7  C13 UNL     1      33.454 101.862  36.006  1.00  0.00     0.164 A 
ENDROOT
BRANCH   1   8
HETATM    8  C4  UNL     1      31.971 101.486  38.022  1.00  0.00     0.062 C 
BRANCH   8   9
HETATM    9  C3  UNL     1      31.508 100.092  38.350  1.00  0.00     0.015 C 
BRANCH   9  10
HETATM   10  C2  UNL     1      32.621  99.116  38.497  1.00  0.00     0.103 C 
BRANCH  10  11
HETATM   11  C1  UNL     1      32.221  97.788  38.003  1.00  0.00     0.219 C 
HETATM   12  O1  UNL     1      31.406  97.101  38.663  1.00  0.00    -0.273 OA
HETATM   13  N3  UNL     1      32.773  97.321  36.785  1.00  0.00    -0.348 N 
HETATM   14  C14 UNL     1      33.699  98.134  36.058  1.00  0.00     0.152 C 
HETATM   15  C17 UNL     1      32.383  96.015  36.294  1.00  0.00     0.152 C 
HETATM   16  C15 UNL     1      33.950  97.473  34.722  1.00  0.00     0.187 C 
HETATM   17  O3  UNL     1      32.714  97.131  34.187  1.00  0.00    -0.388 OA
HETATM   18  C16 UNL     1      32.160  96.018  34.801  1.00  0.00     0.187 C 
ENDBRANCH  10  11
ENDBRANCH   9  10
ENDBRANCH   8   9
ENDBRANCH   1   8
BRANCH   7  19
HETATM   19  O2  UNL     1      34.588 102.200  36.730  1.00  0.00    -0.345 OA
ATOM     20  H2  UNL     1      35.482 102.027  36.460  1.00  0.00     0.219 HD
ENDBRANCH   7  19
BRANCH   4  21
HETATM   21  C7  UNL     1      31.479 101.233  33.006  1.00  0.00     0.053 C 
HETATM   22  C8  UNL     1      29.990 101.424  33.099  1.00  0.00     0.012 C 
HETATM   23  C9  UNL     1      29.268 100.908  31.874  1.00  0.00     0.001 C 
HETATM   24  C10 UNL     1      29.593  99.412  31.795  1.00  0.00     0.000 C 
HETATM   25  C11 UNL     1      31.067  99.345  31.404  1.00  0.00     0.001 C 
HETATM   26  C12 UNL     1      31.867  99.850  32.552  1.00  0.00     0.012 C 
ENDBRANCH   4  21
TORSDOF 6
ENDMDL
MODEL 4
REMARK VINA RESULT: -6.353782964      2.270      3.102
REMARK  6 active torsions:
REMARK  status: ('A' for Active; 'I' for Inactive)
REMARK    1  A    between atoms: C1_2  and  C2_3 
REMARK       I    between atoms: C1_2  and  N3_21 
REMARK    2  A    between atoms: C2_3  and  C3_4 
REMARK    3  A    between atoms: C3_4  and  C4_5 
REMARK    4  A    between atoms: C4_5  and  C5_6 
REMARK    5  A    between atoms: C6_9  and  C7_10 
REMARK    6  A    between atoms: C13_18  and  O2_19 
ROOT
HETATM    1  C5  UNL     1      32.980  96.987  33.786  1.00  0.00     0.062 A 
HETATM    2  N1  UNL     1      31.907  97.566  33.204  1.00  0.00    -0.345 N 
ATOM      3  H1  UNL     1      30.949  97.221  33.259  1.00  0.00     0.167 HD
HETATM    4  C6  UNL     1      32.300  98.667  32.542  1.00  0.00     0.087 A 
HETATM    5  N2  UNL     1      33.630  98.770  32.718  1.00  0.00    -0.325 N 
ATOM      6  H2  UNL     1      34.214  99.511  32.332  1.00  0.00     0.169 HD
HETATM    7  C13 UNL     1      34.079  97.754  33.477  1.00  0.00     0.164 A 
ENDROOT
BRANCH   1   8
HETATM    8  C4  UNL     1      33.043  95.749  34.622  1.00  0.00     0.062 C 
BRANCH   8   9
HETATM    9  C3  UNL     1      32.284  96.031  35.890  1.00  0.00     0.015 C 
BRANCH   9  10
HETATM   10  C2  UNL     1      33.093  96.735  36.921  1.00  0.00     0.103 C 
BRANCH  10  11
HETATM   11  C1  UNL     1      32.256  97.667  37.697  1.00  0.00     0.219 C 
HETATM   12  O1  UNL     1      31.409  97.214  38.503  1.00  0.00    -0.273 OA
HETATM   13  N3  UNL     1      32.434  99.059  37.510  1.00  0.00    -0.348 N 
HETATM   14  C14 UNL     1      33.412  99.540  36.582  1.00  0.00     0.152 C 
HETATM   15  C17 UNL     1      31.613  99.979  38.270  1.00  0.00     0.152 C 
HETATM   16  C15 UNL     1      33.515 101.039  36.748  1.00  0.00     0.187 C 
HETATM   17  O3  UNL     1      33.619 101.301  38.109  1.00  0.00    -0.388 OA
HETATM   18  C16 UNL     1      32.408 101.161  38.770  1.00  0.00     0.187 C 
ENDBRANCH  10  11
ENDBRANCH   9  10
ENDBRANCH   8   9
ENDBRANCH   1   8
BRANCH   7  19
HETATM   19  O2  UNL     1      35.378  97.492  33.888  1.00  0.00    -0.345 OA
ATOM     20  H2  UNL     1      36.161  97.689  33.388  1.00  0.00     0.219 HD
ENDBRANCH   7  19
BRANCH   4  21
HETATM   21  C7  UNL     1      31.428  99.587  31.770  1.00  0.00     0.053 C 
HETATM   22  C8  UNL     1      30.455 100.213  32.732  1.00  0.00     0.012 C 
HETATM   23  C9  UNL     1      29.300 100.883  32.024  1.00  0.00     0.001 C 
HETATM   24  C10 UNL     1      28.598  99.778  31.226  1.00  0.00     0.000 C 
HETATM   25  C11 UNL     1      29.564  99.428  30.097  1.00  0.00     0.001 C 
HETATM   26  C12 UNL     1      30.753  98.769  30.700  1.00  0.00     0.012 C 
ENDBRANCH   4  21
TORSDOF 6
ENDMDL
MODEL 5
REMARK VINA RESULT: -6.337223343      2.045      2.753
REMARK  6 active torsions:
REMARK  status: ('A' for Active; 'I' for Inactive)
REMARK    1  A    between atoms: C1_2  and  C2_3 
REMARK       I    between atoms: C1_2  and  N3_21 
REMARK    2  A    between atoms: C2_3  and  C3_4 
REMARK    3  A    between atoms: C3_4  and  C4_5 
REMARK    4  A    between atoms: C4_5  and  C5_6 
REMARK    5  A    between atoms: C6_9  and  C7_10 
REMARK    6  A    between atoms: C13_18  and  O2_19 
ROOT
HETATM    1  C5  UNL     1      32.316  99.888  36.181  1.00  0.00     0.062 A 
HETATM    2  N1  UNL     1      32.042  99.568  34.898  1.00  0.00    -0.345 N 
ATOM      3  H1  UNL     1      32.213  98.660  34.466  1.00  0.00     0.167 HD
HETATM    4  C6  UNL     1      31.508 100.633  34.278  1.00  0.00     0.087 A 
HETATM    5  N2  UNL     1      31.451 101.622  35.190  1.00  0.00    -0.325 N 
ATOM      6  H2  UNL     1      31.090 102.559  35.013  1.00  0.00     0.169 HD
HETATM    7  C13 UNL     1      31.940 101.197  36.369  1.00  0.00     0.164 A 
ENDROOT
BRANCH   1   8
HETATM    8  C4  UNL     1      32.915  99.036  37.255  1.00  0.00     0.062 C 
BRANCH   8   9
HETATM    9  C3  UNL     1      31.793  98.247  37.873  1.00  0.00     0.015 C 
BRANCH   9  10
HETATM   10  C2  UNL     1      32.213  96.912  38.377  1.00  0.00     0.103 C 
BRANCH  10  11
HETATM   11  C1  UNL     1      32.676  96.057  37.272  1.00  0.00     0.219 C 
HETATM   12  O1  UNL     1      31.870  95.716  36.373  1.00  0.00    -0.273 OA
HETATM   13  N3  UNL     1      34.029  95.641  37.253  1.00  0.00    -0.348 N 
HETATM   14  C14 UNL     1      34.921  96.052  38.295  1.00  0.00     0.152 C 
HETATM   15  C17 UNL     1      34.490  94.800  36.167  1.00  0.00     0.152 C 
HETATM   16  C15 UNL     1      36.320  95.634  37.902  1.00  0.00     0.187 C 
HETATM   17  O3  UNL     1      36.518  96.028  36.585  1.00  0.00    -0.388 OA
HETATM   18  C16 UNL     1      35.859  95.208  35.681  1.00  0.00     0.187 C 
ENDBRANCH  10  11
ENDBRANCH   9  10
ENDBRANCH   8   9
ENDBRANCH   1   8
BRANCH   7  19
HETATM   19  O2  UNL     1      32.061 101.901  37.558  1.00  0.00    -0.345 OA
ATOM     20  H2  UNL     1      32.123 102.845  37.631  1.00  0.00     0.219 HD
ENDBRANCH   7  19
BRANCH   4  21
HETATM   21  C7  UNL     1      31.067 100.699  32.863  1.00  0.00     0.053 C 
HETATM   22  C8  UNL     1      29.669 101.253  32.843  1.00  0.00     0.012 C 
HETATM   23  C9  UNL     1      28.984 101.034  31.513  1.00  0.00     0.001 C 
HETATM   24  C10 UNL     1      28.941  99.516  31.308  1.00  0.00     0.000 C 
HETATM   25  C11 UNL     1      30.387  99.109  31.044  1.00  0.00     0.001 C 
HETATM   26  C12 UNL     1      31.154  99.303  32.304  1.00  0.00     0.012 C 
ENDBRANCH   4  21
TORSDOF 6
ENDMDL
