MODEL 1
REMARK VINA RESULT: -6.041645682      0.000      0.000
REMARK  5 active torsions:
REMARK  status: ('A' for Active; 'I' for Inactive)
REMARK    1  A    between atoms: C4_4  and  C5_5 
REMARK    2  A    between atoms: N1_8  and  C8_9 
REMARK    3  A    between atoms: C8_9  and  C9_10 
REMARK    4  A    between atoms: C9_10  and  O1_11 
REMARK    5  A    between atoms: O1_11  and  C10_12 
ROOT
HETATM    1  C5  UNL     1      32.384  98.112  34.183  1.00  0.00     0.024 C 
HETATM    2  C6  UNL     1      32.168  96.647  34.006  1.00  0.00     0.029 C 
HETATM    3  C7  UNL     1      33.445  95.956  34.517  1.00  0.00     0.122 C 
HETATM    4  N1  UNL     1      34.143  96.808  35.407  1.00  0.00    -0.391 N 
HETATM    5  C15 UNL     1      34.773  97.941  34.812  1.00  0.00     0.122 C 
HETATM    6  C16 UNL     1      33.797  98.411  33.719  1.00  0.00     0.029 C 
ENDROOT
BRANCH   4   7
HETATM    7  C8  UNL     1      34.697  96.260  36.563  1.00  0.00     0.084 C 
BRANCH   7   8
HETATM    8  C9  UNL     1      34.134  96.743  37.880  1.00  0.00     0.212 C 
BRANCH   8   9
HETATM    9  O1  UNL     1      32.780  96.818  37.786  1.00  0.00    -0.379 OA
BRANCH   9  10
HETATM   10  C10 UNL     1      32.172  97.815  38.486  1.00  0.00     0.139 C 
HETATM   11  C11 UNL     1      32.474  99.122  37.736  1.00  0.00     0.035 C 
HETATM   12  C12 UNL     1      31.556 100.168  38.339  1.00  0.00     0.022 C 
HETATM   13  C13 UNL     1      31.904 100.322  39.804  1.00  0.00     0.114 C 
HETATM   14  N2  UNL     1      31.884  99.082  40.510  1.00  0.00    -0.419 N 
HETATM   15  C14 UNL     1      32.589  98.002  39.897  1.00  0.00     0.145 C 
ATOM     16  H2  UNL     1      31.395  98.974  41.398  1.00  0.00     0.153 HD
ENDBRANCH   9  10
ENDBRANCH   8   9
ENDBRANCH   7   8
ENDBRANCH   4   7
BRANCH   1  17
HETATM   17  C4  UNL     1      31.455  98.981  33.488  1.00  0.00    -0.030 A 
HETATM   18  C3  UNL     1      30.741  98.547  32.362  1.00  0.00     0.034 A 
HETATM   19  C2  UNL     1      29.956  99.565  31.929  1.00  0.00     0.008 A 
HETATM   20  C1  UNL     1      29.019  99.587  30.774  1.00  0.00     0.068 C 
HETATM   21  N3  UNL     1      30.179 100.604  32.769  1.00  0.00    -0.358 N 
HETATM   22  C17 UNL     1      31.077 100.269  33.710  1.00  0.00     0.014 A 
HETATM   23  C19 UNL     1      29.556 101.928  32.701  1.00  0.00     0.156 C 
HETATM   24  C18 UNL     1      31.599 101.104  34.820  1.00  0.00     0.069 C 
ENDBRANCH   1  17
TORSDOF 5
ENDMDL
MODEL 2
REMARK VINA RESULT: -6.022765969      1.202      1.420
REMARK  5 active torsions:
REMARK  status: ('A' for Active; 'I' for Inactive)
REMARK    1  A    between atoms: C4_4  and  C5_5 
REMARK    2  A    between atoms: N1_8  and  C8_9 
REMARK    3  A    between atoms: C8_9  and  C9_10 
REMARK    4  A    between atoms: C9_10  and  O1_11 
REMARK    5  A    between atoms: O1_11  and  C10_12 
ROOT
HETATM    1  C5  UNL     1      32.851  97.704  33.742  1.00  0.00     0.024 C 
HETATM    2  C6  UNL     1      32.802  96.353  33.112  1.00  0.00     0.029 C 
HETATM    3  C7  UNL     1      34.120  95.653  33.487  1.00  0.00     0.122 C 
HETATM    4  N1  UNL     1      34.680  96.245  34.645  1.00  0.00    -0.391 N 
HETATM    5  C15 UNL     1      35.212  97.557  34.474  1.00  0.00     0.122 C 
HETATM    6  C16 UNL     1      34.244  98.255  33.503  1.00  0.00     0.029 C 
ENDROOT
BRANCH   4   7
HETATM    7  C8  UNL     1      35.234  95.416  35.620  1.00  0.00     0.084 C 
BRANCH   7   8
HETATM    8  C9  UNL     1      34.283  94.846  36.647  1.00  0.00     0.212 C 
BRANCH   8   9
HETATM    9  O1  UNL     1      33.075  95.458  36.526  1.00  0.00    -0.379 OA
BRANCH   9  10
HETATM   10  C10 UNL     1      32.603  96.105  37.626  1.00  0.00     0.139 C 
HETATM   11  C11 UNL     1      32.583  97.602  37.278  1.00  0.00     0.035 C 
HETATM   12  C12 UNL     1      31.784  98.274  38.378  1.00  0.00     0.022 C 
HETATM   13  C13 UNL     1      32.504  98.060  39.692  1.00  0.00     0.114 C 
HETATM   14  N2  UNL     1      32.776  96.684  39.954  1.00  0.00    -0.419 N 
HETATM   15  C14 UNL     1      33.372  95.948  38.884  1.00  0.00     0.145 C 
ATOM     16  H2  UNL     1      32.558  96.251  40.852  1.00  0.00     0.153 HD
ENDBRANCH   9  10
ENDBRANCH   8   9
ENDBRANCH   7   8
ENDBRANCH   4   7
BRANCH   1  17
HETATM   17  C4  UNL     1      31.867  98.661  33.275  1.00  0.00    -0.030 A 
HETATM   18  C3  UNL     1      31.090  98.420  32.131  1.00  0.00     0.034 A 
HETATM   19  C2  UNL     1      30.265  99.479  31.940  1.00  0.00     0.008 A 
HETATM   20  C1  UNL     1      29.257  99.687  30.865  1.00  0.00     0.068 C 
HETATM   21  N3  UNL     1      30.525 100.354  32.940  1.00  0.00    -0.358 N 
HETATM   22  C17 UNL     1      31.485  99.877  33.750  1.00  0.00     0.014 A 
HETATM   23  C19 UNL     1      29.880 101.651  33.153  1.00  0.00     0.156 C 
HETATM   24  C18 UNL     1      32.063 100.509  34.962  1.00  0.00     0.069 C 
ENDBRANCH   1  17
TORSDOF 5
ENDMDL
MODEL 3
REMARK VINA RESULT: -5.989172115      1.716      5.987
REMARK  5 active torsions:
REMARK  status: ('A' for Active; 'I' for Inactive)
REMARK    1  A    between atoms: C4_4  and  C5_5 
REMARK    2  A    between atoms: N1_8  and  C8_9 
REMARK    3  A    between atoms: C8_9  and  C9_10 
REMARK    4  A    between atoms: C9_10  and  O1_11 
REMARK    5  A    between atoms: O1_11  and  C10_12 
ROOT
HETATM    1  C5  UNL     1      32.641  98.166  36.917  1.00  0.00     0.024 C 
HETATM    2  C6  UNL     1      34.028  98.342  36.396  1.00  0.00     0.029 C 
HETATM    3  C7  UNL     1      34.273  97.179  35.416  1.00  0.00     0.122 C 
HETATM    4  N1  UNL     1      33.041  96.659  34.951  1.00  0.00    -0.391 N 
HETATM    5  C15 UNL     1      32.274  95.933  35.910  1.00  0.00     0.122 C 
HETATM    6  C16 UNL     1      32.471  96.692  37.234  1.00  0.00     0.029 C 
ENDROOT
BRANCH   4   7
HETATM    7  C8  UNL     1      32.921  96.327  33.603  1.00  0.00     0.084 C 
BRANCH   7   8
HETATM    8  C9  UNL     1      32.810  97.476  32.627  1.00  0.00     0.212 C 
BRANCH   8   9
HETATM    9  O1  UNL     1      31.496  97.736  32.393  1.00  0.00    -0.379 OA
BRANCH   9  10
HETATM   10  C10 UNL     1      31.139  99.046  32.292  1.00  0.00     0.139 C 
HETATM   11  C11 UNL     1      31.398  99.677  33.670  1.00  0.00     0.035 C 
HETATM   12  C12 UNL     1      31.289 101.175  33.467  1.00  0.00     0.022 C 
HETATM   13  C13 UNL     1      29.883 101.496  33.009  1.00  0.00     0.114 C 
HETATM   14  N2  UNL     1      29.491 100.743  31.862  1.00  0.00    -0.419 N 
HETATM   15  C14 UNL     1      29.733  99.337  31.923  1.00  0.00     0.145 C 
ATOM     16  H2  UNL     1      29.063 101.184  31.047  1.00  0.00     0.153 HD
ENDBRANCH   9  10
ENDBRANCH   8   9
ENDBRANCH   7   8
ENDBRANCH   4   7
BRANCH   1  17
HETATM   17  C4  UNL     1      32.295  98.953  38.084  1.00  0.00    -0.030 A 
HETATM   18  C3  UNL     1      32.313  98.406  39.375  1.00  0.00     0.034 A 
HETATM   19  C2  UNL     1      31.948  99.369  40.257  1.00  0.00     0.008 A 
HETATM   20  C1  UNL     1      31.822  99.271  41.737  1.00  0.00     0.068 C 
HETATM   21  N3  UNL     1      31.711 100.486  39.530  1.00  0.00    -0.358 N 
HETATM   22  C17 UNL     1      31.915 100.252  38.222  1.00  0.00     0.014 A 
HETATM   23  C19 UNL     1      31.288 101.788  40.047  1.00  0.00     0.156 C 
HETATM   24  C18 UNL     1      31.774 101.197  37.087  1.00  0.00     0.069 C 
ENDBRANCH   1  17
TORSDOF 5
ENDMDL
MODEL 4
REMARK VINA RESULT: -5.554895878      1.634      5.905
REMARK  5 active torsions:
REMARK  status: ('A' for Active; 'I' for Inactive)
REMARK    1  A    between atoms: C4_4  and  C5_5 
REMARK    2  A    between atoms: N1_8  and  C8_9 
REMARK    3  A    between atoms: C8_9  and  C9_10 
REMARK    4  A    between atoms: C9_10  and  O1_11 
REMARK    5  A    between atoms: O1_11  and  C10_12 
ROOT
HETATM    1  C5  UNL     1      32.662  98.183  36.922  1.00  0.00     0.024 C 
HETATM    2  C6  UNL     1      34.116  98.208  36.591  1.00  0.00     0.029 C 
HETATM    3  C7  UNL     1      34.370  97.003  35.666  1.00  0.00     0.122 C 
HETATM    4  N1  UNL     1      33.164  96.598  35.044  1.00  0.00    -0.391 N 
HETATM    5  C15 UNL     1      32.206  95.975  35.898  1.00  0.00     0.122 C 
HETATM    6  C16 UNL     1      32.301  96.742  37.228  1.00  0.00     0.029 C 
ENDROOT
BRANCH   4   7
HETATM    7  C8  UNL     1      33.193  96.247  33.695  1.00  0.00     0.084 C 
BRANCH   7   8
HETATM    8  C9  UNL     1      32.966  97.361  32.699  1.00  0.00     0.212 C 
BRANCH   8   9
HETATM    9  O1  UNL     1      31.637  97.640  32.637  1.00  0.00    -0.379 OA
BRANCH   9  10
HETATM   10  C10 UNL     1      31.293  98.949  32.493  1.00  0.00     0.139 C 
HETATM   11  C11 UNL     1      31.488  99.606  33.869  1.00  0.00     0.035 C 
HETATM   12  C12 UNL     1      31.398 101.101  33.632  1.00  0.00     0.022 C 
HETATM   13  C13 UNL     1      30.016 101.419  33.101  1.00  0.00     0.114 C 
HETATM   14  N2  UNL     1      29.676 100.645  31.951  1.00  0.00    -0.419 N 
HETATM   15  C14 UNL     1      29.907  99.239  32.052  1.00  0.00     0.145 C 
ATOM     16  H2  UNL     1      29.290 101.071  31.108  1.00  0.00     0.153 HD
ENDBRANCH   9  10
ENDBRANCH   8   9
ENDBRANCH   7   8
ENDBRANCH   4   7
BRANCH   1  17
HETATM   17  C4  UNL     1      32.246  99.029  38.023  1.00  0.00    -0.030 A 
HETATM   18  C3  UNL     1      31.495 100.196  37.814  1.00  0.00     0.034 A 
HETATM   19  C2  UNL     1      31.255 100.776  39.016  1.00  0.00     0.008 A 
HETATM   20  C1  UNL     1      30.501 102.025  39.308  1.00  0.00     0.068 C 
HETATM   21  N3  UNL     1      31.842  99.987  39.946  1.00  0.00    -0.358 N 
HETATM   22  C17 UNL     1      32.442  98.934  39.366  1.00  0.00     0.014 A 
HETATM   23  C19 UNL     1      31.853 100.208  41.394  1.00  0.00     0.156 C 
HETATM   24  C18 UNL     1      33.192  97.831  40.015  1.00  0.00     0.069 C 
ENDBRANCH   1  17
TORSDOF 5
ENDMDL
MODEL 5
REMARK VINA RESULT: -5.508185186      2.013      4.784
REMARK  5 active torsions:
REMARK  status: ('A' for Active; 'I' for Inactive)
REMARK    1  A    between atoms: C4_4  and  C5_5 
REMARK    2  A    between atoms: N1_8  and  C8_9 
REMARK    3  A    between atoms: C8_9  and  C9_10 
REMARK    4  A    between atoms: C9_10  and  O1_11 
REMARK    5  A    between atoms: O1_11  and  C10_12 
ROOT
HETATM    1  C5  UNL     1      32.985  98.491  35.591  1.00  0.00     0.024 C 
HETATM    2  C6  UNL     1      34.421  98.896  35.604  1.00  0.00     0.029 C 
HETATM    3  C7  UNL     1      34.956  98.545  37.005  1.00  0.00     0.122 C 
HETATM    4  N1  UNL     1      34.145  97.553  37.608  1.00  0.00    -0.391 N 
HETATM    5  C15 UNL     1      32.843  97.976  38.009  1.00  0.00     0.122 C 
HETATM    6  C16 UNL     1      32.383  98.946  36.906  1.00  0.00     0.029 C 
ENDROOT
BRANCH   4   7
HETATM    7  C8  UNL     1      34.763  96.520  38.311  1.00  0.00     0.084 C 
BRANCH   7   8
HETATM    8  C9  UNL     1      34.830  95.175  37.623  1.00  0.00     0.212 C 
BRANCH   8   9
HETATM    9  O1  UNL     1      34.055  95.206  36.506  1.00  0.00    -0.379 OA
BRANCH   9  10
HETATM   10  C10 UNL     1      34.582  94.655  35.379  1.00  0.00     0.139 C 
HETATM   11  C11 UNL     1      35.439  93.463  35.836  1.00  0.00     0.035 C 
HETATM   12  C12 UNL     1      35.770  92.684  34.578  1.00  0.00     0.022 C 
HETATM   13  C13 UNL     1      36.576  93.577  33.659  1.00  0.00     0.114 C 
HETATM   14  N2  UNL     1      35.932  94.823  33.396  1.00  0.00    -0.419 N 
HETATM   15  C14 UNL     1      35.437  95.526  34.537  1.00  0.00     0.145 C 
ATOM     16  H2  UNL     1      35.831  95.190  32.450  1.00  0.00     0.153 HD
ENDBRANCH   9  10
ENDBRANCH   8   9
ENDBRANCH   7   8
ENDBRANCH   4   7
BRANCH   1  17
HETATM   17  C4  UNL     1      32.190  99.004  34.493  1.00  0.00    -0.030 A 
HETATM   18  C3  UNL     1      31.500 100.221  34.588  1.00  0.00     0.034 A 
HETATM   19  C2  UNL     1      30.850 100.442  33.419  1.00  0.00     0.008 A 
HETATM   20  C1  UNL     1      29.990 101.596  33.039  1.00  0.00     0.068 C 
HETATM   21  N3  UNL     1      31.131  99.386  32.618  1.00  0.00    -0.358 N 
HETATM   22  C17 UNL     1      31.935  98.514  33.250  1.00  0.00     0.014 A 
HETATM   23  C19 UNL     1      30.650  99.177  31.252  1.00  0.00     0.156 C 
HETATM   24  C18 UNL     1      32.484  97.234  32.737  1.00  0.00     0.069 C 
ENDBRANCH   1  17
TORSDOF 5
ENDMDL
