MODEL 1
REMARK VINA RESULT: -7.095704012      0.000      0.000
REMARK  6 active torsions:
REMARK  status: ('A' for Active; 'I' for Inactive)
REMARK    1  A    between atoms: S1_2  and  C2_3 
REMARK    2  A    between atoms: C2_3  and  C3_4 
REMARK    3  A    between atoms: C6_7  and  N1_8 
REMARK       I    between atoms: N1_8  and  C7_10 
REMARK    4  A    between atoms: C7_10  and  C8_12 
REMARK    5  A    between atoms: C11_15  and  O2_16 
REMARK    6  A    between atoms: O2_16  and  C12_17 
ROOT
HETATM    1  N1  UNL     1      32.381  98.523  33.176  1.00  0.00    -0.356 N 
ATOM      2  H1  UNL     1      32.476  97.959  32.332  1.00  0.00     0.162 HD
HETATM    3  C7  UNL     1      31.469  99.616  33.179  1.00  0.00     0.222 C 
HETATM    4  O1  UNL     1      31.375 100.290  34.233  1.00  0.00    -0.273 OA
ENDROOT
BRANCH   3   5
HETATM    5  C8  UNL     1      30.641  99.990  32.022  1.00  0.00     0.078 C 
HETATM    6  C9  UNL     1      29.205 100.315  32.376  1.00  0.00     0.016 C 
HETATM    7  C10 UNL     1      28.575 100.801  31.074  1.00  0.00     0.033 C 
HETATM    8  C11 UNL     1      28.479  99.619  30.169  1.00  0.00     0.132 C 
HETATM    9  C14 UNL     1      29.847  99.083  29.820  1.00  0.00     0.033 C 
HETATM   10  C15 UNL     1      30.718  98.862  31.017  1.00  0.00     0.016 C 
BRANCH   8  11
HETATM   11  O2  UNL     1      27.749  99.869  28.991  1.00  0.00    -0.316 OA
BRANCH  11  12
HETATM   12  C12 UNL     1      26.609  99.176  28.611  1.00  0.00     0.255 C 
HETATM   13  C13 UNL     1      25.810  99.587  27.428  1.00  0.00     0.126 C 
HETATM   14  O3  UNL     1      26.295  98.183  29.326  1.00  0.00    -0.266 OA
ENDBRANCH  11  12
ENDBRANCH   8  11
ENDBRANCH   3   5
BRANCH   1  15
HETATM   15  C6  UNL     1      33.174  98.191  34.336  1.00  0.00     0.084 C 
HETATM   16  C5  UNL     1      34.543  97.693  34.003  1.00  0.00     0.025 C 
HETATM   17  C4  UNL     1      34.286  96.318  33.458  1.00  0.00     0.007 C 
HETATM   18  C3  UNL     1      33.336  95.769  34.533  1.00  0.00    -0.003 C 
HETATM   19  C16 UNL     1      32.569  96.981  35.023  1.00  0.00     0.030 C 
BRANCH  18  20
HETATM   20  C2  UNL     1      34.214  95.200  35.635  1.00  0.00     0.078 C 
BRANCH  20  21
HETATM   21  S1  UNL     1      33.314  95.346  37.198  1.00  0.00    -0.173 SA
HETATM   22  C1  UNL     1      33.715  93.966  38.317  1.00  0.00     0.089 C 
ENDBRANCH  20  21
ENDBRANCH  18  20
ENDBRANCH   1  15
TORSDOF 6
ENDMDL
MODEL 2
REMARK VINA RESULT: -7.046100639      1.112      1.184
REMARK  6 active torsions:
REMARK  status: ('A' for Active; 'I' for Inactive)
REMARK    1  A    between atoms: S1_2  and  C2_3 
REMARK    2  A    between atoms: C2_3  and  C3_4 
REMARK    3  A    between atoms: C6_7  and  N1_8 
REMARK       I    between atoms: N1_8  and  C7_10 
REMARK    4  A    between atoms: C7_10  and  C8_12 
REMARK    5  A    between atoms: C11_15  and  O2_16 
REMARK    6  A    between atoms: O2_16  and  C12_17 
ROOT
HETATM    1  N1  UNL     1      31.963  98.203  33.426  1.00  0.00    -0.356 N 
ATOM      2  H1  UNL     1      31.723  97.471  32.757  1.00  0.00     0.162 HD
HETATM    3  C7  UNL     1      31.500  99.529  33.196  1.00  0.00     0.222 C 
HETATM    4  O1  UNL     1      31.812 100.406  34.037  1.00  0.00    -0.273 OA
ENDROOT
BRANCH   3   5
HETATM    5  C8  UNL     1      30.684  99.919  32.036  1.00  0.00     0.078 C 
HETATM    6  C9  UNL     1      29.250 100.257  32.382  1.00  0.00     0.016 C 
HETATM    7  C10 UNL     1      28.634 100.757  31.079  1.00  0.00     0.033 C 
HETATM    8  C11 UNL     1      28.531  99.581  30.167  1.00  0.00     0.132 C 
HETATM    9  C14 UNL     1      29.895  99.032  29.824  1.00  0.00     0.033 C 
HETATM   10  C15 UNL     1      30.756  98.795  31.025  1.00  0.00     0.016 C 
BRANCH   8  11
HETATM   11  O2  UNL     1      27.811  99.845  28.985  1.00  0.00    -0.316 OA
BRANCH  11  12
HETATM   12  C12 UNL     1      26.654  99.180  28.605  1.00  0.00     0.255 C 
HETATM   13  C13 UNL     1      25.864  99.615  27.423  1.00  0.00     0.126 C 
HETATM   14  O3  UNL     1      26.319  98.193  29.316  1.00  0.00    -0.266 OA
ENDBRANCH  11  12
ENDBRANCH   8  11
ENDBRANCH   3   5
BRANCH   1  15
HETATM   15  C6  UNL     1      32.762  97.865  34.580  1.00  0.00     0.084 C 
HETATM   16  C5  UNL     1      34.225  97.767  34.288  1.00  0.00     0.025 C 
HETATM   17  C4  UNL     1      34.334  96.488  33.508  1.00  0.00     0.007 C 
HETATM   18  C3  UNL     1      33.501  95.552  34.397  1.00  0.00    -0.003 C 
HETATM   19  C16 UNL     1      32.441  96.446  35.009  1.00  0.00     0.030 C 
BRANCH  18  20
HETATM   20  C2  UNL     1      34.443  95.018  35.463  1.00  0.00     0.078 C 
BRANCH  20  21
HETATM   21  S1  UNL     1      35.558  93.828  34.678  1.00  0.00    -0.173 SA
HETATM   22  C1  UNL     1      35.499  92.217  35.527  1.00  0.00     0.089 C 
ENDBRANCH  20  21
ENDBRANCH  18  20
ENDBRANCH   1  15
TORSDOF 6
ENDMDL
MODEL 3
REMARK VINA RESULT: -7.012680412      1.440      1.737
REMARK  6 active torsions:
REMARK  status: ('A' for Active; 'I' for Inactive)
REMARK    1  A    between atoms: S1_2  and  C2_3 
REMARK    2  A    between atoms: C2_3  and  C3_4 
REMARK    3  A    between atoms: C6_7  and  N1_8 
REMARK       I    between atoms: N1_8  and  C7_10 
REMARK    4  A    between atoms: C7_10  and  C8_12 
REMARK    5  A    between atoms: C11_15  and  O2_16 
REMARK    6  A    between atoms: O2_16  and  C12_17 
ROOT
HETATM    1  N1  UNL     1      32.098  97.951  33.164  1.00  0.00    -0.356 N 
ATOM      2  H1  UNL     1      31.209  97.451  33.204  1.00  0.00     0.162 HD
HETATM    3  C7  UNL     1      32.191  99.134  32.379  1.00  0.00     0.222 C 
HETATM    4  O1  UNL     1      33.297  99.726  32.350  1.00  0.00    -0.273 OA
ENDROOT
BRANCH   3   5
HETATM    5  C8  UNL     1      31.068  99.693  31.609  1.00  0.00     0.078 C 
HETATM    6  C9  UNL     1      29.866 100.055  32.456  1.00  0.00     0.016 C 
HETATM    7  C10 UNL     1      28.893 100.730  31.494  1.00  0.00     0.033 C 
HETATM    8  C11 UNL     1      28.393  99.673  30.567  1.00  0.00     0.132 C 
HETATM    9  C14 UNL     1      29.512  99.104  29.729  1.00  0.00     0.033 C 
HETATM   10  C15 UNL     1      30.703  98.691  30.536  1.00  0.00     0.016 C 
BRANCH   8  11
HETATM   11  O2  UNL     1      27.343 100.105  29.733  1.00  0.00    -0.316 OA
BRANCH  11  12
HETATM   12  C12 UNL     1      26.624  99.277  28.883  1.00  0.00     0.255 C 
HETATM   13  C13 UNL     1      26.286  99.697  27.497  1.00  0.00     0.126 C 
HETATM   14  O3  UNL     1      26.280  98.157  29.352  1.00  0.00    -0.266 OA
ENDBRANCH  11  12
ENDBRANCH   8  11
ENDBRANCH   3   5
BRANCH   1  15
HETATM   15  C6  UNL     1      33.226  97.438  33.905  1.00  0.00     0.084 C 
HETATM   16  C5  UNL     1      33.124  95.981  34.220  1.00  0.00     0.025 C 
HETATM   17  C4  UNL     1      32.066  95.933  35.285  1.00  0.00     0.007 C 
HETATM   18  C3  UNL     1      32.562  97.050  36.215  1.00  0.00    -0.003 C 
HETATM   19  C16 UNL     1      33.230  98.051  35.293  1.00  0.00     0.030 C 
BRANCH  18  20
HETATM   20  C2  UNL     1      33.577  96.414  37.152  1.00  0.00     0.078 C 
BRANCH  20  21
HETATM   21  S1  UNL     1      33.007  96.672  38.850  1.00  0.00    -0.173 SA
HETATM   22  C1  UNL     1      32.164  98.278  39.021  1.00  0.00     0.089 C 
ENDBRANCH  20  21
ENDBRANCH  18  20
ENDBRANCH   1  15
TORSDOF 6
ENDMDL
MODEL 4
REMARK VINA RESULT: -6.970470138      4.306      5.462
REMARK  6 active torsions:
REMARK  status: ('A' for Active; 'I' for Inactive)
REMARK    1  A    between atoms: S1_2  and  C2_3 
REMARK    2  A    between atoms: C2_3  and  C3_4 
REMARK    3  A    between atoms: C6_7  and  N1_8 
REMARK       I    between atoms: N1_8  and  C7_10 
REMARK    4  A    between atoms: C7_10  and  C8_12 
REMARK    5  A    between atoms: C11_15  and  O2_16 
REMARK    6  A    between atoms: O2_16  and  C12_17 
ROOT
HETATM    1  N1  UNL     1      32.480 101.329  33.025  1.00  0.00    -0.356 N 
ATOM      2  H1  UNL     1      32.974 100.855  32.269  1.00  0.00     0.162 HD
HETATM    3  C7  UNL     1      31.089 101.087  33.203  1.00  0.00     0.222 C 
HETATM    4  O1  UNL     1      30.511 101.685  34.141  1.00  0.00    -0.273 OA
ENDROOT
BRANCH   3   5
HETATM    5  C8  UNL     1      30.304 100.179  32.351  1.00  0.00     0.078 C 
HETATM    6  C9  UNL     1      31.079  99.618  31.177  1.00  0.00     0.016 C 
HETATM    7  C10 UNL     1      30.135  98.616  30.521  1.00  0.00     0.033 C 
HETATM    8  C11 UNL     1      29.030  99.402  29.898  1.00  0.00     0.132 C 
HETATM    9  C14 UNL     1      28.227 100.141  30.941  1.00  0.00     0.033 C 
HETATM   10  C15 UNL     1      29.074 100.930  31.889  1.00  0.00     0.016 C 
BRANCH   8  11
HETATM   11  O2  UNL     1      28.171  98.627  29.093  1.00  0.00    -0.316 OA
BRANCH  11  12
HETATM   12  C12 UNL     1      26.857  98.960  28.802  1.00  0.00     0.255 C 
HETATM   13  C13 UNL     1      26.519 100.199  28.054  1.00  0.00     0.126 C 
HETATM   14  O3  UNL     1      25.974  98.152  29.205  1.00  0.00    -0.266 OA
ENDBRANCH  11  12
ENDBRANCH   8  11
ENDBRANCH   3   5
BRANCH   1  15
HETATM   15  C6  UNL     1      33.211 102.229  33.886  1.00  0.00     0.084 C 
HETATM   16  C5  UNL     1      33.271 103.632  33.374  1.00  0.00     0.025 C 
HETATM   17  C4  UNL     1      34.227 103.536  32.220  1.00  0.00     0.007 C 
HETATM   18  C3  UNL     1      35.366 102.738  32.872  1.00  0.00    -0.003 C 
HETATM   19  C16 UNL     1      34.678 101.840  33.880  1.00  0.00     0.030 C 
BRANCH  18  20
HETATM   20  C2  UNL     1      36.260 103.751  33.568  1.00  0.00     0.078 C 
BRANCH  20  21
HETATM   21  S1  UNL     1      36.596 105.093  32.401  1.00  0.00    -0.173 SA
HETATM   22  C1  UNL     1      37.877 104.611  31.199  1.00  0.00     0.089 C 
ENDBRANCH  20  21
ENDBRANCH  18  20
ENDBRANCH   1  15
TORSDOF 6
ENDMDL
MODEL 5
REMARK VINA RESULT: -6.969909464      1.044      1.329
REMARK  6 active torsions:
REMARK  status: ('A' for Active; 'I' for Inactive)
REMARK    1  A    between atoms: S1_2  and  C2_3 
REMARK    2  A    between atoms: C2_3  and  C3_4 
REMARK    3  A    between atoms: C6_7  and  N1_8 
REMARK       I    between atoms: N1_8  and  C7_10 
REMARK    4  A    between atoms: C7_10  and  C8_12 
REMARK    5  A    between atoms: C11_15  and  O2_16 
REMARK    6  A    between atoms: O2_16  and  C12_17 
ROOT
HETATM    1  N1  UNL     1      32.172  97.910  33.045  1.00  0.00    -0.356 N 
ATOM      2  H1  UNL     1      31.303  97.376  33.052  1.00  0.00     0.162 HD
HETATM    3  C7  UNL     1      32.226  99.135  32.323  1.00  0.00     0.222 C 
HETATM    4  O1  UNL     1      33.309  99.768  32.334  1.00  0.00    -0.273 OA
ENDROOT
BRANCH   3   5
HETATM    5  C8  UNL     1      31.089  99.691  31.573  1.00  0.00     0.078 C 
HETATM    6  C9  UNL     1      29.899 100.047  32.440  1.00  0.00     0.016 C 
HETATM    7  C10 UNL     1      28.907 100.720  31.496  1.00  0.00     0.033 C 
HETATM    8  C11 UNL     1      28.396  99.662  30.576  1.00  0.00     0.132 C 
HETATM    9  C14 UNL     1      29.504  99.099  29.718  1.00  0.00     0.033 C 
HETATM   10  C15 UNL     1      30.710  98.689  30.504  1.00  0.00     0.016 C 
BRANCH   8  11
HETATM   11  O2  UNL     1      27.331 100.092  29.760  1.00  0.00    -0.316 OA
BRANCH  11  12
HETATM   12  C12 UNL     1      26.631  99.272  28.887  1.00  0.00     0.255 C 
HETATM   13  C13 UNL     1      26.328  99.702  27.496  1.00  0.00     0.126 C 
HETATM   14  O3  UNL     1      26.270  98.151  29.341  1.00  0.00    -0.266 OA
ENDBRANCH  11  12
ENDBRANCH   8  11
ENDBRANCH   3   5
BRANCH   1  15
HETATM   15  C6  UNL     1      33.314  97.403  33.768  1.00  0.00     0.084 C 
HETATM   16  C5  UNL     1      33.208  95.952  34.112  1.00  0.00     0.025 C 
HETATM   17  C4  UNL     1      32.176  95.932  35.203  1.00  0.00     0.007 C 
HETATM   18  C3  UNL     1      32.702  97.062  36.100  1.00  0.00    -0.003 C 
HETATM   19  C16 UNL     1      33.355  98.040  35.144  1.00  0.00     0.030 C 
BRANCH  18  20
HETATM   20  C2  UNL     1      33.734  96.435  37.024  1.00  0.00     0.078 C 
BRANCH  20  21
HETATM   21  S1  UNL     1      32.919  95.113  37.954  1.00  0.00    -0.173 SA
HETATM   22  C1  UNL     1      34.026  93.681  38.162  1.00  0.00     0.089 C 
ENDBRANCH  20  21
ENDBRANCH  18  20
ENDBRANCH   1  15
TORSDOF 6
ENDMDL
