MODEL 1
REMARK VINA RESULT: -5.988130175      0.000      0.000
REMARK  5 active torsions:
REMARK  status: ('A' for Active; 'I' for Inactive)
REMARK    1  A    between atoms: C2_2  and  N1_3 
REMARK    2  A    between atoms: N1_3  and  C3_4 
REMARK    3  A    between atoms: N1_3  and  C10_17 
REMARK    4  A    between atoms: N5_20  and  C13_21 
REMARK    5  A    between atoms: C13_21  and  C14_22 
ROOT
HETATM    1  C3  UNL     1      33.199 101.487  32.899  1.00  0.00     0.062 A 
HETATM    2  C4  UNL     1      33.853 100.819  31.885  1.00  0.00     0.049 A 
HETATM    3  C5  UNL     1      34.764 101.421  31.037  1.00  0.00     0.092 A 
HETATM    4  N2  UNL     1      35.016 102.727  31.224  1.00  0.00    -0.350 N 
ATOM      5  H2  UNL     1      35.686 103.190  30.609  1.00  0.00     0.166 HD
HETATM    6  C6  UNL     1      34.429 103.440  32.179  1.00  0.00     0.136 A 
HETATM    7  N3  UNL     1      34.536 104.728  32.523  1.00  0.00    -0.330 N 
ATOM      8  H3  UNL     1      35.140 105.412  32.066  1.00  0.00     0.168 HD
HETATM    9  C7  UNL     1      33.720 104.983  33.573  1.00  0.00     0.079 A 
HETATM   10  C8  UNL     1      33.525 106.278  34.272  1.00  0.00     0.089 C 
HETATM   11  N4  UNL     1      33.117 103.814  33.850  1.00  0.00    -0.341 N 
ATOM     12  H4  UNL     1      32.437 103.687  34.599  1.00  0.00     0.167 HD
HETATM   13  C9  UNL     1      33.514 102.840  33.029  1.00  0.00     0.105 A 
ENDROOT
BRANCH   1  14
HETATM   14  N1  UNL     1      32.280 100.863  33.751  1.00  0.00    -0.374 N 
BRANCH  14  15
HETATM   15  C2  UNL     1      30.844 101.112  33.551  1.00  0.00     0.119 C 
HETATM   16  C1  UNL     1      30.352 100.026  32.614  1.00  0.00     0.026 C 
ENDBRANCH  14  15
BRANCH  14  17
HETATM   17  C10 UNL     1      32.582  99.965  34.839  1.00  0.00     0.088 C 
HETATM   18  C11 UNL     1      34.068  99.725  34.984  1.00  0.00     0.055 C 
HETATM   19  C12 UNL     1      34.447  99.620  36.466  1.00  0.00     0.274 C 
HETATM   20  N5  UNL     1      33.567  98.727  37.164  1.00  0.00     0.088 N 
HETATM   21  C17 UNL     1      32.178  99.153  37.091  1.00  0.00     0.274 C 
HETATM   22  C18 UNL     1      32.019 100.362  36.161  1.00  0.00     0.055 C 
BRANCH  20  23
HETATM   23  C13 UNL     1      33.733  97.359  36.792  1.00  0.00     0.276 C 
BRANCH  23  24
HETATM   24  C14 UNL     1      32.473  96.577  36.626  1.00  0.00     0.006 C 
HETATM   25  C15 UNL     1      32.542  95.385  37.574  1.00  0.00     0.011 C 
HETATM   26  C16 UNL     1      32.293  96.059  35.218  1.00  0.00     0.011 C 
ENDBRANCH  23  24
ENDBRANCH  20  23
ENDBRANCH  14  17
ENDBRANCH   1  14
TORSDOF 5
ENDMDL
MODEL 2
REMARK VINA RESULT: -5.758166281      2.993      4.473
REMARK  5 active torsions:
REMARK  status: ('A' for Active; 'I' for Inactive)
REMARK    1  A    between atoms: C2_2  and  N1_3 
REMARK    2  A    between atoms: N1_3  and  C3_4 
REMARK    3  A    between atoms: N1_3  and  C10_17 
REMARK    4  A    between atoms: N5_20  and  C13_21 
REMARK    5  A    between atoms: C13_21  and  C14_22 
ROOT
HETATM    1  C3  UNL     1      32.481  99.188  34.584  1.00  0.00     0.062 A 
HETATM    2  C4  UNL     1      32.822 100.103  35.558  1.00  0.00     0.049 A 
HETATM    3  C5  UNL     1      32.234 101.350  35.675  1.00  0.00     0.092 A 
HETATM    4  N2  UNL     1      31.280 101.671  34.785  1.00  0.00    -0.350 N 
ATOM      5  H2  UNL     1      30.834 102.585  34.854  1.00  0.00     0.166 HD
HETATM    6  C6  UNL     1      30.895 100.845  33.819  1.00  0.00     0.136 A 
HETATM    7  N3  UNL     1      29.984 100.972  32.848  1.00  0.00    -0.330 N 
ATOM      8  H3  UNL     1      29.396 101.792  32.694  1.00  0.00     0.168 HD
HETATM    9  C7  UNL     1      29.961  99.843  32.101  1.00  0.00     0.079 A 
HETATM   10  C8  UNL     1      29.103  99.555  30.924  1.00  0.00     0.089 C 
HETATM   11  N4  UNL     1      30.884  99.033  32.647  1.00  0.00    -0.341 N 
ATOM     12  H4  UNL     1      31.101  98.099  32.300  1.00  0.00     0.167 HD
HETATM   13  C9  UNL     1      31.483  99.596  33.699  1.00  0.00     0.105 A 
ENDROOT
BRANCH   1  14
HETATM   14  N1  UNL     1      33.085  97.930  34.481  1.00  0.00    -0.374 N 
BRANCH  14  15
HETATM   15  C2  UNL     1      33.431  97.415  33.146  1.00  0.00     0.119 C 
HETATM   16  C1  UNL     1      32.851  96.016  33.069  1.00  0.00     0.026 C 
ENDBRANCH  14  15
BRANCH  14  17
HETATM   17  C10 UNL     1      33.428  97.043  35.567  1.00  0.00     0.088 C 
HETATM   18  C11 UNL     1      34.677  97.488  36.292  1.00  0.00     0.055 C 
HETATM   19  C12 UNL     1      34.542  97.223  37.795  1.00  0.00     0.274 C 
HETATM   20  N5  UNL     1      34.078  95.889  38.047  1.00  0.00     0.088 N 
HETATM   21  C17 UNL     1      32.784  95.631  37.433  1.00  0.00     0.274 C 
HETATM   22  C18 UNL     1      32.341  96.811  36.560  1.00  0.00     0.055 C 
BRANCH  20  23
HETATM   23  C13 UNL     1      35.038  94.883  37.727  1.00  0.00     0.276 C 
BRANCH  23  24
HETATM   24  C14 UNL     1      34.559  93.797  36.822  1.00  0.00     0.006 C 
HETATM   25  C15 UNL     1      34.801  92.468  37.528  1.00  0.00     0.011 C 
HETATM   26  C16 UNL     1      35.293  93.777  35.501  1.00  0.00     0.011 C 
ENDBRANCH  23  24
ENDBRANCH  20  23
ENDBRANCH  14  17
ENDBRANCH   1  14
TORSDOF 5
ENDMDL
MODEL 3
REMARK VINA RESULT: -5.630766792      3.415      7.456
REMARK  5 active torsions:
REMARK  status: ('A' for Active; 'I' for Inactive)
REMARK    1  A    between atoms: C2_2  and  N1_3 
REMARK    2  A    between atoms: N1_3  and  C3_4 
REMARK    3  A    between atoms: N1_3  and  C10_17 
REMARK    4  A    between atoms: N5_20  and  C13_21 
REMARK    5  A    between atoms: C13_21  and  C14_22 
ROOT
HETATM    1  C3  UNL     1      34.248  95.600  36.676  1.00  0.00     0.062 A 
HETATM    2  C4  UNL     1      34.458  94.249  36.865  1.00  0.00     0.049 A 
HETATM    3  C5  UNL     1      34.112  93.577  38.024  1.00  0.00     0.092 A 
HETATM    4  N2  UNL     1      33.540  94.292  39.007  1.00  0.00    -0.350 N 
ATOM      5  H2  UNL     1      33.276  93.815  39.869  1.00  0.00     0.166 HD
HETATM    6  C6  UNL     1      33.303  95.595  38.901  1.00  0.00     0.136 A 
HETATM    7  N3  UNL     1      32.758  96.474  39.749  1.00  0.00    -0.330 N 
ATOM      8  H3  UNL     1      32.409  96.254  40.683  1.00  0.00     0.168 HD
HETATM    9  C7  UNL     1      32.738  97.700  39.177  1.00  0.00     0.079 A 
HETATM   10  C8  UNL     1      32.224  98.964  39.762  1.00  0.00     0.089 C 
HETATM   11  N4  UNL     1      33.288  97.537  37.961  1.00  0.00    -0.341 N 
ATOM     12  H4  UNL     1      33.415  98.291  37.286  1.00  0.00     0.167 HD
HETATM   13  C9  UNL     1      33.650  96.271  37.742  1.00  0.00     0.105 A 
ENDROOT
BRANCH   1  14
HETATM   14  N1  UNL     1      34.603  96.264  35.497  1.00  0.00    -0.374 N 
BRANCH  14  15
HETATM   15  C2  UNL     1      36.022  96.311  35.106  1.00  0.00     0.119 C 
HETATM   16  C1  UNL     1      36.741  97.051  36.217  1.00  0.00     0.026 C 
ENDBRANCH  14  15
BRANCH  14  17
HETATM   17  C10 UNL     1      33.712  96.931  34.578  1.00  0.00     0.088 C 
HETATM   18  C11 UNL     1      33.954  98.422  34.531  1.00  0.00     0.055 C 
HETATM   19  C12 UNL     1      33.775  98.945  33.101  1.00  0.00     0.274 C 
HETATM   20  N5  UNL     1      32.555  98.461  32.521  1.00  0.00     0.088 N 
HETATM   21  C17 UNL     1      32.508  97.007  32.471  1.00  0.00     0.274 C 
HETATM   22  C18 UNL     1      33.715  96.390  33.189  1.00  0.00     0.055 C 
BRANCH  20  23
HETATM   23  C13 UNL     1      31.382  99.019  33.113  1.00  0.00     0.276 C 
BRANCH  23  24
HETATM   24  C14 UNL     1      30.750 100.141  32.360  1.00  0.00     0.006 C 
HETATM   25  C15 UNL     1      30.351 101.209  33.372  1.00  0.00     0.011 C 
HETATM   26  C16 UNL     1      29.513  99.710  31.606  1.00  0.00     0.011 C 
ENDBRANCH  23  24
ENDBRANCH  20  23
ENDBRANCH  14  17
ENDBRANCH   1  14
TORSDOF 5
ENDMDL
MODEL 4
REMARK VINA RESULT: -5.622816856      2.317      6.752
REMARK  5 active torsions:
REMARK  status: ('A' for Active; 'I' for Inactive)
REMARK    1  A    between atoms: C2_2  and  N1_3 
REMARK    2  A    between atoms: N1_3  and  C3_4 
REMARK    3  A    between atoms: N1_3  and  C10_17 
REMARK    4  A    between atoms: N5_20  and  C13_21 
REMARK    5  A    between atoms: C13_21  and  C14_22 
ROOT
HETATM    1  C3  UNL     1      32.858 100.101  33.724  1.00  0.00     0.062 A 
HETATM    2  C4  UNL     1      33.700  99.008  33.746  1.00  0.00     0.049 A 
HETATM    3  C5  UNL     1      33.440  97.830  33.069  1.00  0.00     0.092 A 
HETATM    4  N2  UNL     1      32.304  97.762  32.356  1.00  0.00    -0.350 N 
ATOM      5  H2  UNL     1      32.094  96.902  31.850  1.00  0.00     0.166 HD
HETATM    6  C6  UNL     1      31.442  98.771  32.284  1.00  0.00     0.136 A 
HETATM    7  N3  UNL     1      30.274  98.902  31.645  1.00  0.00    -0.330 N 
ATOM      8  H3  UNL     1      29.836  98.185  31.066  1.00  0.00     0.168 HD
HETATM    9  C7  UNL     1      29.765 100.133  31.885  1.00  0.00     0.079 A 
HETATM   10  C8  UNL     1      28.490 100.699  31.377  1.00  0.00     0.089 C 
HETATM   11  N4  UNL     1      30.657 100.739  32.688  1.00  0.00    -0.341 N 
ATOM     12  H4  UNL     1      30.549 101.688  33.045  1.00  0.00     0.167 HD
HETATM   13  C9  UNL     1      31.699  99.952  32.962  1.00  0.00     0.105 A 
ENDROOT
BRANCH   1  14
HETATM   14  N1  UNL     1      33.136 101.287  34.412  1.00  0.00    -0.374 N 
BRANCH  14  15
HETATM   15  C2  UNL     1      33.222 101.252  35.881  1.00  0.00     0.119 C 
HETATM   16  C1  UNL     1      31.826 100.931  36.379  1.00  0.00     0.026 C 
ENDBRANCH  14  15
BRANCH  14  17
HETATM   17  C10 UNL     1      33.363 102.589  33.834  1.00  0.00     0.088 C 
HETATM   18  C11 UNL     1      33.679 103.631  34.883  1.00  0.00     0.055 C 
HETATM   19  C12 UNL     1      34.733 104.612  34.357  1.00  0.00     0.274 C 
HETATM   20  N5  UNL     1      34.392 105.085  33.046  1.00  0.00     0.088 N 
HETATM   21  C17 UNL     1      34.277 104.000  32.083  1.00  0.00     0.274 C 
HETATM   22  C18 UNL     1      34.405 102.635  32.769  1.00  0.00     0.055 C 
BRANCH  20  23
HETATM   23  C13 UNL     1      33.255 105.946  33.029  1.00  0.00     0.276 C 
BRANCH  23  24
HETATM   24  C14 UNL     1      33.536 107.382  32.736  1.00  0.00     0.006 C 
HETATM   25  C15 UNL     1      33.302 108.169  34.021  1.00  0.00     0.011 C 
HETATM   26  C16 UNL     1      32.634 107.943  31.661  1.00  0.00     0.011 C 
ENDBRANCH  23  24
ENDBRANCH  20  23
ENDBRANCH  14  17
ENDBRANCH   1  14
TORSDOF 5
ENDMDL
MODEL 5
REMARK VINA RESULT: -5.606051011      3.908      8.128
REMARK  5 active torsions:
REMARK  status: ('A' for Active; 'I' for Inactive)
REMARK    1  A    between atoms: C2_2  and  N1_3 
REMARK    2  A    between atoms: N1_3  and  C3_4 
REMARK    3  A    between atoms: N1_3  and  C10_17 
REMARK    4  A    between atoms: N5_20  and  C13_21 
REMARK    5  A    between atoms: C13_21  and  C14_22 
ROOT
HETATM    1  C3  UNL     1      34.027  96.643  38.290  1.00  0.00     0.062 A 
HETATM    2  C4  UNL     1      35.133  97.380  38.660  1.00  0.00     0.049 A 
HETATM    3  C5  UNL     1      36.200  96.854  39.365  1.00  0.00     0.092 A 
HETATM    4  N2  UNL     1      36.142  95.554  39.700  1.00  0.00    -0.350 N 
ATOM      5  H2  UNL     1      36.919  95.147  40.220  1.00  0.00     0.166 HD
HETATM    6  C6  UNL     1      35.112  94.778  39.380  1.00  0.00     0.136 A 
HETATM    7  N3  UNL     1      34.863  93.485  39.617  1.00  0.00    -0.330 N 
ATOM      8  H3  UNL     1      35.481  92.848  40.120  1.00  0.00     0.168 HD
HETATM    9  C7  UNL     1      33.663  93.153  39.086  1.00  0.00     0.079 A 
HETATM   10  C8  UNL     1      32.996  91.827  39.117  1.00  0.00     0.089 C 
HETATM   11  N4  UNL     1      33.195  94.281  38.524  1.00  0.00    -0.341 N 
ATOM     12  H4  UNL     1      32.300  94.348  38.039  1.00  0.00     0.167 HD
HETATM   13  C9  UNL     1      34.041  95.302  38.674  1.00  0.00     0.105 A 
ENDROOT
BRANCH   1  14
HETATM   14  N1  UNL     1      32.956  97.190  37.574  1.00  0.00    -0.374 N 
BRANCH  14  15
HETATM   15  C2  UNL     1      31.852  97.819  38.317  1.00  0.00     0.119 C 
HETATM   16  C1  UNL     1      31.830  99.274  37.889  1.00  0.00     0.026 C 
ENDBRANCH  14  15
BRANCH  14  17
HETATM   17  C10 UNL     1      32.799  97.218  36.140  1.00  0.00     0.088 C 
HETATM   18  C11 UNL     1      34.094  97.543  35.431  1.00  0.00     0.055 C 
HETATM   19  C12 UNL     1      34.207  96.735  34.133  1.00  0.00     0.274 C 
HETATM   20  N5  UNL     1      32.999  96.820  33.363  1.00  0.00     0.088 N 
HETATM   21  C17 UNL     1      31.843  96.324  34.095  1.00  0.00     0.274 C 
HETATM   22  C18 UNL     1      32.210  95.984  35.545  1.00  0.00     0.055 C 
BRANCH  20  23
HETATM   23  C13 UNL     1      32.771  98.113  32.804  1.00  0.00     0.276 C 
BRANCH  23  24
HETATM   24  C14 UNL     1      31.416  98.692  33.046  1.00  0.00     0.006 C 
HETATM   25  C15 UNL     1      30.814  99.037  31.689  1.00  0.00     0.011 C 
HETATM   26  C16 UNL     1      31.464  99.950  33.882  1.00  0.00     0.011 C 
ENDBRANCH  23  24
ENDBRANCH  20  23
ENDBRANCH  14  17
ENDBRANCH   1  14
TORSDOF 5
ENDMDL
