MODEL 1
REMARK VINA RESULT: -5.341412297      0.000      0.000
REMARK  8 active torsions:
REMARK  status: ('A' for Active; 'I' for Inactive)
REMARK    1  A    between atoms: C2_2  and  N1_5 
REMARK    2  A    between atoms: N1_5  and  C5_7 
REMARK    3  A    between atoms: C5_7  and  C6_8 
REMARK    4  A    between atoms: C6_8  and  O1_9 
REMARK    5  A    between atoms: C6_8  and  C7_11 
REMARK    6  A    between atoms: C7_11  and  N2_12 
REMARK    7  A    between atoms: C12_17  and  C13_18 
REMARK       I    between atoms: C13_18  and  N3_20 
REMARK    8  A    between atoms: N3_20  and  C14_22 
ROOT
HETATM    1  N2  UNL     1      -7.950  13.185  29.412  1.00  0.00    -0.276 NA
HETATM    2  C8  UNL     1      -6.615  12.917  30.027  1.00  0.00     0.096 C 
HETATM    3  C9  UNL     1      -6.135  11.535  29.752  1.00  0.00     0.015 C 
HETATM    4  C10 UNL     1      -6.292  11.024  28.369  1.00  0.00     0.007 C 
HETATM    5  C11 UNL     1      -7.590  11.454  27.718  1.00  0.00     0.057 C 
HETATM    6  C12 UNL     1      -7.732  12.931  28.025  1.00  0.00     0.056 C 
ENDROOT
BRANCH   1   7
HETATM    7  C7  UNL     1      -8.788  12.194  30.093  1.00  0.00     0.161 C 
BRANCH   7   8
HETATM    8  C6  UNL     1     -10.221  12.487  30.157  1.00  0.00     0.071 C 
BRANCH   8   9
HETATM    9  C5  UNL     1     -10.602  13.820  30.676  1.00  0.00     0.117 C 
BRANCH   9  10
HETATM   10  N1  UNL     1     -10.218  15.020  30.143  1.00  0.00    -0.389 N 
ATOM     11  H1  UNL     1     -10.454  15.122  29.156  1.00  0.00     0.159 HD
BRANCH  10  12
HETATM   12  C2  UNL     1      -9.583  16.108  30.666  1.00  0.00     0.018 C 
HETATM   13  C1  UNL     1      -8.653  15.832  31.805  1.00  0.00     0.037 C 
HETATM   14  C3  UNL     1     -10.505  17.260  31.081  1.00  0.00     0.037 C 
HETATM   15  C4  UNL     1      -8.719  16.747  29.539  1.00  0.00     0.037 C 
ENDBRANCH  10  12
ENDBRANCH   9  10
ENDBRANCH   8   9
BRANCH   8  16
HETATM   16  O1  UNL     1     -11.036  12.092  29.119  1.00  0.00    -0.362 OA
ATOM     17  H1  UNL     1     -10.953  11.162  28.941  1.00  0.00     0.217 HD
ENDBRANCH   8  16
ENDBRANCH   7   8
ENDBRANCH   1   7
BRANCH   6  18
HETATM   18  C13 UNL     1      -8.505  13.700  27.064  1.00  0.00     0.259 C 
HETATM   19  O2  UNL     1      -9.641  13.275  26.736  1.00  0.00    -0.267 OA
HETATM   20  N3  UNL     1      -8.040  14.898  26.480  1.00  0.00    -0.352 N 
ATOM     21  H3  UNL     1      -7.118  15.251  26.740  1.00  0.00     0.163 HD
BRANCH  20  22
HETATM   22  C14 UNL     1      -8.822  15.630  25.536  1.00  0.00     0.084 C 
HETATM   23  C15 UNL     1      -8.277  15.544  24.124  1.00  0.00     0.025 C 
HETATM   24  C16 UNL     1      -8.350  17.060  24.004  1.00  0.00     0.004 C 
HETATM   25  C17 UNL     1      -8.419  17.091  25.524  1.00  0.00     0.025 C 
ENDBRANCH  20  22
ENDBRANCH   6  18
TORSDOF 8
ENDMDL
MODEL 2
REMARK VINA RESULT: -5.338510515      2.569      4.781
REMARK  8 active torsions:
REMARK  status: ('A' for Active; 'I' for Inactive)
REMARK    1  A    between atoms: C2_2  and  N1_5 
REMARK    2  A    between atoms: N1_5  and  C5_7 
REMARK    3  A    between atoms: C5_7  and  C6_8 
REMARK    4  A    between atoms: C6_8  and  O1_9 
REMARK    5  A    between atoms: C6_8  and  C7_11 
REMARK    6  A    between atoms: C7_11  and  N2_12 
REMARK    7  A    between atoms: C12_17  and  C13_18 
REMARK       I    between atoms: C13_18  and  N3_20 
REMARK    8  A    between atoms: N3_20  and  C14_22 
ROOT
HETATM    1  N2  UNL     1      -7.476  14.923  25.956  1.00  0.00    -0.276 NA
HETATM    2  C8  UNL     1      -7.657  14.833  24.476  1.00  0.00     0.096 C 
HETATM    3  C9  UNL     1      -8.653  15.816  23.969  1.00  0.00     0.015 C 
HETATM    4  C10 UNL     1      -8.572  17.200  24.498  1.00  0.00     0.007 C 
HETATM    5  C11 UNL     1      -8.223  17.255  25.970  1.00  0.00     0.057 C 
HETATM    6  C12 UNL     1      -7.080  16.280  26.157  1.00  0.00     0.056 C 
ENDROOT
BRANCH   1   7
HETATM    7  C7  UNL     1      -8.823  14.601  26.435  1.00  0.00     0.161 C 
BRANCH   7   8
HETATM    8  C6  UNL     1      -8.939  13.442  27.321  1.00  0.00     0.071 C 
BRANCH   8   9
HETATM    9  C5  UNL     1      -8.911  13.714  28.776  1.00  0.00     0.117 C 
BRANCH   9  10
HETATM   10  N1  UNL     1      -8.430  14.852  29.363  1.00  0.00    -0.389 N 
ATOM     11  H1  UNL     1      -7.448  15.033  29.157  1.00  0.00     0.159 HD
BRANCH  10  12
HETATM   12  C2  UNL     1      -9.000  15.794  30.168  1.00  0.00     0.018 C 
HETATM   13  C1  UNL     1     -10.417  15.532  30.572  1.00  0.00     0.037 C 
HETATM   14  C3  UNL     1      -8.920  17.231  29.642  1.00  0.00     0.037 C 
HETATM   15  C4  UNL     1      -8.174  15.862  31.486  1.00  0.00     0.037 C 
ENDBRANCH  10  12
ENDBRANCH   9  10
ENDBRANCH   8   9
BRANCH   8  16
HETATM   16  O1  UNL     1      -9.830  12.441  27.006  1.00  0.00    -0.362 OA
ATOM     17  H1  UNL     1      -9.389  11.667  26.676  1.00  0.00     0.217 HD
ENDBRANCH   8  16
ENDBRANCH   7   8
ENDBRANCH   1   7
BRANCH   6  18
HETATM   18  C13 UNL     1      -6.183  16.568  27.265  1.00  0.00     0.259 C 
HETATM   19  O2  UNL     1      -5.799  15.612  27.984  1.00  0.00    -0.267 OA
HETATM   20  N3  UNL     1      -5.728  17.868  27.573  1.00  0.00    -0.352 N 
ATOM     21  H3  UNL     1      -6.036  18.650  26.994  1.00  0.00     0.163 HD
BRANCH  20  22
HETATM   22  C14 UNL     1      -4.850  18.119  28.670  1.00  0.00     0.084 C 
HETATM   23  C15 UNL     1      -5.584  18.507  29.938  1.00  0.00     0.025 C 
HETATM   24  C16 UNL     1      -4.671  19.715  30.097  1.00  0.00     0.004 C 
HETATM   25  C17 UNL     1      -4.328  19.541  28.625  1.00  0.00     0.025 C 
ENDBRANCH  20  22
ENDBRANCH   6  18
TORSDOF 8
ENDMDL
MODEL 3
REMARK VINA RESULT: -5.283859951      2.752      4.874
REMARK  8 active torsions:
REMARK  status: ('A' for Active; 'I' for Inactive)
REMARK    1  A    between atoms: C2_2  and  N1_5 
REMARK    2  A    between atoms: N1_5  and  C5_7 
REMARK    3  A    between atoms: C5_7  and  C6_8 
REMARK    4  A    between atoms: C6_8  and  O1_9 
REMARK    5  A    between atoms: C6_8  and  C7_11 
REMARK    6  A    between atoms: C7_11  and  N2_12 
REMARK    7  A    between atoms: C12_17  and  C13_18 
REMARK       I    between atoms: C13_18  and  N3_20 
REMARK    8  A    between atoms: N3_20  and  C14_22 
ROOT
HETATM    1  N2  UNL     1      -7.537  14.721  25.671  1.00  0.00    -0.276 NA
HETATM    2  C8  UNL     1      -7.861  15.023  24.245  1.00  0.00     0.096 C 
HETATM    3  C9  UNL     1      -8.710  16.238  24.105  1.00  0.00     0.015 C 
HETATM    4  C10 UNL     1      -8.342  17.422  24.920  1.00  0.00     0.007 C 
HETATM    5  C11 UNL     1      -7.861  17.062  26.310  1.00  0.00     0.057 C 
HETATM    6  C12 UNL     1      -6.894  15.912  26.123  1.00  0.00     0.056 C 
ENDROOT
BRANCH   1   7
HETATM    7  C7  UNL     1      -8.872  14.495  26.232  1.00  0.00     0.161 C 
BRANCH   7   8
HETATM    8  C6  UNL     1      -8.982  13.449  27.250  1.00  0.00     0.071 C 
BRANCH   8   9
HETATM    9  C5  UNL     1      -8.974  13.895  28.662  1.00  0.00     0.117 C 
BRANCH   9  10
HETATM   10  N1  UNL     1      -8.919  15.194  29.085  1.00  0.00    -0.389 N 
ATOM     11  H1  UNL     1      -8.485  15.824  28.411  1.00  0.00     0.159 HD
BRANCH  10  12
HETATM   12  C2  UNL     1      -9.327  15.817  30.228  1.00  0.00     0.018 C 
HETATM   13  C1  UNL     1     -10.712  15.488  30.688  1.00  0.00     0.037 C 
HETATM   14  C3  UNL     1      -9.184  17.343  30.221  1.00  0.00     0.037 C 
HETATM   15  C4  UNL     1      -8.369  15.387  31.377  1.00  0.00     0.037 C 
ENDBRANCH  10  12
ENDBRANCH   9  10
ENDBRANCH   8   9
BRANCH   8  16
HETATM   16  O1  UNL     1      -9.857  12.404  27.050  1.00  0.00    -0.362 OA
ATOM     17  H1  UNL     1     -10.340  12.193  27.840  1.00  0.00     0.217 HD
ENDBRANCH   8  16
ENDBRANCH   7   8
ENDBRANCH   1   7
BRANCH   6  18
HETATM   18  C13 UNL     1      -5.867  15.783  27.145  1.00  0.00     0.259 C 
HETATM   19  O2  UNL     1      -6.164  16.083  28.329  1.00  0.00    -0.267 OA
HETATM   20  N3  UNL     1      -4.555  15.342  26.870  1.00  0.00    -0.352 N 
ATOM     21  H3  UNL     1      -4.305  15.097  25.912  1.00  0.00     0.163 HD
BRANCH  20  22
HETATM   22  C14 UNL     1      -3.567  15.229  27.896  1.00  0.00     0.084 C 
HETATM   23  C15 UNL     1      -2.179  15.614  27.424  1.00  0.00     0.025 C 
HETATM   24  C16 UNL     1      -1.625  14.316  27.996  1.00  0.00     0.004 C 
HETATM   25  C17 UNL     1      -3.059  13.805  27.996  1.00  0.00     0.025 C 
ENDBRANCH  20  22
ENDBRANCH   6  18
TORSDOF 8
ENDMDL
MODEL 4
REMARK VINA RESULT: -5.252343988      1.992      3.982
REMARK  8 active torsions:
REMARK  status: ('A' for Active; 'I' for Inactive)
REMARK    1  A    between atoms: C2_2  and  N1_5 
REMARK    2  A    between atoms: N1_5  and  C5_7 
REMARK    3  A    between atoms: C5_7  and  C6_8 
REMARK    4  A    between atoms: C6_8  and  O1_9 
REMARK    5  A    between atoms: C6_8  and  C7_11 
REMARK    6  A    between atoms: C7_11  and  N2_12 
REMARK    7  A    between atoms: C12_17  and  C13_18 
REMARK       I    between atoms: C13_18  and  N3_20 
REMARK    8  A    between atoms: N3_20  and  C14_22 
ROOT
HETATM    1  N2  UNL     1      -9.409  12.171  28.060  1.00  0.00    -0.276 NA
HETATM    2  C8  UNL     1     -10.663  11.994  28.853  1.00  0.00     0.096 C 
HETATM    3  C9  UNL     1     -10.615  12.717  30.153  1.00  0.00     0.015 C 
HETATM    4  C10 UNL     1     -10.081  14.100  30.143  1.00  0.00     0.007 C 
HETATM    5  C11 UNL     1      -8.908  14.279  29.201  1.00  0.00     0.057 C 
HETATM    6  C12 UNL     1      -9.308  13.587  27.914  1.00  0.00     0.056 C 
ENDROOT
BRANCH   1   7
HETATM    7  C7  UNL     1      -8.413  11.575  28.955  1.00  0.00     0.161 C 
BRANCH   7   8
HETATM    8  C6  UNL     1      -7.303  10.867  28.314  1.00  0.00     0.071 C 
BRANCH   8   9
HETATM    9  C5  UNL     1      -5.970  11.503  28.406  1.00  0.00     0.117 C 
BRANCH   9  10
HETATM   10  N1  UNL     1      -5.722  12.766  28.868  1.00  0.00    -0.389 N 
ATOM     11  H1  UNL     1      -6.377  13.073  29.587  1.00  0.00     0.159 HD
BRANCH  10  12
HETATM   12  C2  UNL     1      -4.774  13.699  28.561  1.00  0.00     0.018 C 
HETATM   13  C1  UNL     1      -4.253  14.498  29.713  1.00  0.00     0.037 C 
HETATM   14  C3  UNL     1      -5.165  14.677  27.447  1.00  0.00     0.037 C 
HETATM   15  C4  UNL     1      -3.549  12.955  27.952  1.00  0.00     0.037 C 
ENDBRANCH  10  12
ENDBRANCH   9  10
ENDBRANCH   8   9
BRANCH   8  16
HETATM   16  O1  UNL     1      -7.224   9.497  28.428  1.00  0.00    -0.362 OA
ATOM     17  H1  UNL     1      -7.547   9.194  29.268  1.00  0.00     0.217 HD
ENDBRANCH   8  16
ENDBRANCH   7   8
ENDBRANCH   1   7
BRANCH   6  18
HETATM   18  C13 UNL     1      -8.686  14.102  26.705  1.00  0.00     0.259 C 
HETATM   19  O2  UNL     1      -8.162  13.283  25.909  1.00  0.00    -0.267 OA
HETATM   20  N3  UNL     1      -8.642  15.475  26.384  1.00  0.00    -0.352 N 
ATOM     21  H3  UNL     1      -9.065  16.148  27.024  1.00  0.00     0.163 HD
BRANCH  20  22
HETATM   22  C14 UNL     1      -8.021  15.951  25.189  1.00  0.00     0.084 C 
HETATM   23  C15 UNL     1      -8.267  17.425  24.941  1.00  0.00     0.025 C 
HETATM   24  C16 UNL     1      -8.705  17.113  23.517  1.00  0.00     0.004 C 
HETATM   25  C17 UNL     1      -8.897  15.677  23.983  1.00  0.00     0.025 C 
ENDBRANCH  20  22
ENDBRANCH   6  18
TORSDOF 8
ENDMDL
MODEL 5
REMARK VINA RESULT: -5.247768778      1.939      2.968
REMARK  8 active torsions:
REMARK  status: ('A' for Active; 'I' for Inactive)
REMARK    1  A    between atoms: C2_2  and  N1_5 
REMARK    2  A    between atoms: N1_5  and  C5_7 
REMARK    3  A    between atoms: C5_7  and  C6_8 
REMARK    4  A    between atoms: C6_8  and  O1_9 
REMARK    5  A    between atoms: C6_8  and  C7_11 
REMARK    6  A    between atoms: C7_11  and  N2_12 
REMARK    7  A    between atoms: C12_17  and  C13_18 
REMARK       I    between atoms: C13_18  and  N3_20 
REMARK    8  A    between atoms: N3_20  and  C14_22 
ROOT
HETATM    1  N2  UNL     1      -7.017  13.426  28.820  1.00  0.00    -0.276 NA
HETATM    2  C8  UNL     1      -6.079  13.425  29.982  1.00  0.00     0.096 C 
HETATM    3  C9  UNL     1      -4.655  13.354  29.557  1.00  0.00     0.015 C 
HETATM    4  C10 UNL     1      -4.238  14.222  28.429  1.00  0.00     0.007 C 
HETATM    5  C11 UNL     1      -5.287  14.329  27.341  1.00  0.00     0.057 C 
HETATM    6  C12 UNL     1      -6.600  14.560  28.060  1.00  0.00     0.056 C 
ENDROOT
BRANCH   1   7
HETATM    7  C7  UNL     1      -6.718  12.131  28.202  1.00  0.00     0.161 C 
BRANCH   7   8
HETATM    8  C6  UNL     1      -7.826  11.467  27.513  1.00  0.00     0.071 C 
BRANCH   8   9
HETATM    9  C5  UNL     1      -8.989  11.084  28.346  1.00  0.00     0.117 C 
BRANCH   9  10
HETATM   10  N1  UNL     1      -9.892  11.951  28.897  1.00  0.00    -0.389 N 
ATOM     11  H1  UNL     1     -10.448  12.454  28.206  1.00  0.00     0.159 HD
BRANCH  10  12
HETATM   12  C2  UNL     1     -10.198  12.279  30.185  1.00  0.00     0.018 C 
HETATM   13  C1  UNL     1      -9.207  11.847  31.219  1.00  0.00     0.037 C 
HETATM   14  C3  UNL     1     -11.589  11.835  30.653  1.00  0.00     0.037 C 
HETATM   15  C4  UNL     1     -10.282  13.831  30.278  1.00  0.00     0.037 C 
ENDBRANCH  10  12
ENDBRANCH   9  10
ENDBRANCH   8   9
BRANCH   8  16
HETATM   16  O1  UNL     1      -8.214  11.918  26.272  1.00  0.00    -0.362 OA
ATOM     17  H1  UNL     1      -7.904  11.349  25.577  1.00  0.00     0.217 HD
ENDBRANCH   8  16
ENDBRANCH   7   8
ENDBRANCH   1   7
BRANCH   6  18
HETATM   18  C13 UNL     1      -7.611  15.281  27.304  1.00  0.00     0.259 C 
HETATM   19  O2  UNL     1      -8.438  15.985  27.937  1.00  0.00    -0.267 OA
HETATM   20  N3  UNL     1      -7.710  15.226  25.898  1.00  0.00    -0.352 N 
ATOM     21  H3  UNL     1      -7.043  14.657  25.376  1.00  0.00     0.163 HD
BRANCH  20  22
HETATM   22  C14 UNL     1      -8.717  15.944  25.184  1.00  0.00     0.084 C 
HETATM   23  C15 UNL     1      -8.752  15.602  23.708  1.00  0.00     0.025 C 
HETATM   24  C16 UNL     1      -8.723  17.085  23.364  1.00  0.00     0.004 C 
HETATM   25  C17 UNL     1      -8.214  17.315  24.779  1.00  0.00     0.025 C 
ENDBRANCH  20  22
ENDBRANCH   6  18
TORSDOF 8
ENDMDL
