MODEL 1
REMARK VINA RESULT: -6.006704165      0.000      0.000
REMARK  9 active torsions:
REMARK  status: ('A' for Active; 'I' for Inactive)
REMARK    1  A    between atoms: C5_5  and  C6_6 
REMARK    2  A    between atoms: C6_6  and  C7_7 
REMARK    3  A    between atoms: C8_8  and  N1_9 
REMARK    4  A    between atoms: C12_16  and  C13_17 
REMARK    5  A    between atoms: C13_17  and  O2_18 
REMARK    6  A    between atoms: C13_17  and  C14_20 
REMARK    7  A    between atoms: C14_20  and  O3_21 
REMARK    8  A    between atoms: C14_20  and  C15_23 
REMARK    9  A    between atoms: C15_23  and  C17_25 
ROOT
HETATM    1  C1  UNL     1      -8.265  18.032  25.040  1.00  0.00     0.017 C 
HETATM    2  C2  UNL     1      -8.252  16.837  24.828  1.00  0.00    -0.083 C 
HETATM    3  C3  UNL     1      -8.239  15.433  24.551  1.00  0.00    -0.013 C 
HETATM    4  C4  UNL     1      -8.030  14.983  23.151  1.00  0.00     0.057 C 
HETATM    5  C5  UNL     1      -8.407  14.543  25.503  1.00  0.00    -0.011 C 
ENDROOT
BRANCH   5   6
HETATM    6  C6  UNL     1      -8.615  14.970  26.873  1.00  0.00     0.036 C 
BRANCH   6   7
HETATM    7  C7  UNL     1      -7.983  14.206  27.970  1.00  0.00     0.034 C 
HETATM    8  C8  UNL     1      -6.734  14.649  28.572  1.00  0.00     0.259 C 
HETATM    9  C10 UNL     1      -5.644  13.706  28.102  1.00  0.00     0.158 C 
HETATM   10  O1  UNL     1      -4.484  13.930  27.852  1.00  0.00    -0.296 OA
HETATM   11  C11 UNL     1      -6.344  12.391  28.012  1.00  0.00     0.088 C 
HETATM   12  C12 UNL     1      -7.704  12.796  27.527  1.00  0.00     0.031 C 
BRANCH   8  13
HETATM   13  N1  UNL     1      -6.245  15.958  28.368  1.00  0.00    -0.068 N 
HETATM   14  C9  UNL     1      -6.587  16.869  29.454  1.00  0.00     0.267 C 
ATOM     15  H12 UNL     1      -5.238  15.948  28.204  1.00  0.00     0.277 HD
ATOM     16  H11 UNL     1      -6.558  16.328  27.470  1.00  0.00     0.277 HD
ENDBRANCH   8  13
BRANCH  12  17
HETATM   17  C13 UNL     1      -8.767  11.793  27.729  1.00  0.00     0.152 C 
BRANCH  17  18
HETATM   18  O2  UNL     1      -9.344  11.353  26.568  1.00  0.00    -0.393 OA
ATOM     19  H2  UNL     1     -10.276  11.525  26.511  1.00  0.00     0.210 HD
ENDBRANCH  17  18
BRANCH  17  20
HETATM   20  C14 UNL     1      -9.793  12.051  28.776  1.00  0.00     0.151 C 
BRANCH  20  21
HETATM   21  O3  UNL     1     -11.082  12.136  28.253  1.00  0.00    -0.393 OA
ATOM     22  H3  UNL     1     -11.748  12.178  28.929  1.00  0.00     0.210 HD
ENDBRANCH  20  21
BRANCH  20  23
HETATM   23  C15 UNL     1      -9.699  11.132  29.958  1.00  0.00     0.016 C 
HETATM   24  C16 UNL     1      -8.810   9.931  29.580  1.00  0.00     0.013 C 
BRANCH  23  25
HETATM   25  C17 UNL     1      -9.234  11.740  31.238  1.00  0.00    -0.016 C 
HETATM   26  C18 UNL     1      -7.717  11.437  31.298  1.00  0.00     0.010 C 
HETATM   27  C19 UNL     1      -9.294  13.236  31.314  1.00  0.00     0.010 C 
ENDBRANCH  23  25
ENDBRANCH  20  23
ENDBRANCH  17  20
ENDBRANCH  12  17
ENDBRANCH   6   7
ENDBRANCH   5   6
TORSDOF 9
ENDMDL
MODEL 2
REMARK VINA RESULT: -5.931022075      0.572      1.130
REMARK  9 active torsions:
REMARK  status: ('A' for Active; 'I' for Inactive)
REMARK    1  A    between atoms: C5_5  and  C6_6 
REMARK    2  A    between atoms: C6_6  and  C7_7 
REMARK    3  A    between atoms: C8_8  and  N1_9 
REMARK    4  A    between atoms: C12_16  and  C13_17 
REMARK    5  A    between atoms: C13_17  and  O2_18 
REMARK    6  A    between atoms: C13_17  and  C14_20 
REMARK    7  A    between atoms: C14_20  and  O3_21 
REMARK    8  A    between atoms: C14_20  and  C15_23 
REMARK    9  A    between atoms: C15_23  and  C17_25 
ROOT
HETATM    1  C1  UNL     1      -8.241  18.143  25.021  1.00  0.00     0.017 C 
HETATM    2  C2  UNL     1      -8.257  16.946  24.821  1.00  0.00    -0.083 C 
HETATM    3  C3  UNL     1      -8.277  15.540  24.558  1.00  0.00    -0.013 C 
HETATM    4  C4  UNL     1      -8.099  15.072  23.160  1.00  0.00     0.057 C 
HETATM    5  C5  UNL     1      -8.447  14.663  25.521  1.00  0.00    -0.011 C 
ENDROOT
BRANCH   5   6
HETATM    6  C6  UNL     1      -8.624  15.107  26.891  1.00  0.00     0.036 C 
BRANCH   6   7
HETATM    7  C7  UNL     1      -7.985  14.345  27.984  1.00  0.00     0.034 C 
HETATM    8  C8  UNL     1      -6.707  14.762  28.543  1.00  0.00     0.259 C 
HETATM    9  C10 UNL     1      -5.658  13.779  28.062  1.00  0.00     0.158 C 
HETATM   10  O1  UNL     1      -4.500  13.964  27.776  1.00  0.00    -0.296 OA
HETATM   11  C11 UNL     1      -6.398  12.484  28.017  1.00  0.00     0.088 C 
HETATM   12  C12 UNL     1      -7.759  12.920  27.561  1.00  0.00     0.031 C 
BRANCH   8  13
HETATM   13  N1  UNL     1      -6.187  16.052  28.301  1.00  0.00    -0.068 N 
HETATM   14  C9  UNL     1      -6.454  16.988  29.387  1.00  0.00     0.267 C 
ATOM     15  H12 UNL     1      -5.188  16.009  28.095  1.00  0.00     0.277 HD
ATOM     16  H11 UNL     1      -6.525  16.421  27.412  1.00  0.00     0.277 HD
ENDBRANCH   8  13
BRANCH  12  17
HETATM   17  C13 UNL     1      -8.845  11.952  27.811  1.00  0.00     0.152 C 
BRANCH  17  18
HETATM   18  O2  UNL     1      -9.374  11.405  26.674  1.00  0.00    -0.393 OA
ATOM     19  H2  UNL     1      -8.725  11.050  26.077  1.00  0.00     0.210 HD
ENDBRANCH  17  18
BRANCH  17  20
HETATM   20  C14 UNL     1      -9.912  12.323  28.779  1.00  0.00     0.151 C 
BRANCH  20  21
HETATM   21  O3  UNL     1     -11.193  12.158  28.252  1.00  0.00    -0.393 OA
ATOM     22  H3  UNL     1     -11.777  12.870  28.484  1.00  0.00     0.210 HD
ENDBRANCH  20  21
BRANCH  20  23
HETATM   23  C15 UNL     1      -9.750  11.698  30.132  1.00  0.00     0.016 C 
HETATM   24  C16 UNL     1     -11.147  11.491  30.751  1.00  0.00     0.013 C 
BRANCH  23  25
HETATM   25  C17 UNL     1      -8.965  10.431  30.190  1.00  0.00    -0.016 C 
HETATM   26  C18 UNL     1      -7.757  10.750  31.103  1.00  0.00     0.010 C 
HETATM   27  C19 UNL     1      -9.630   9.278  30.879  1.00  0.00     0.010 C 
ENDBRANCH  23  25
ENDBRANCH  20  23
ENDBRANCH  17  20
ENDBRANCH  12  17
ENDBRANCH   6   7
ENDBRANCH   5   6
TORSDOF 9
ENDMDL
MODEL 3
REMARK VINA RESULT: -5.842183809      1.821      2.297
REMARK  9 active torsions:
REMARK  status: ('A' for Active; 'I' for Inactive)
REMARK    1  A    between atoms: C5_5  and  C6_6 
REMARK    2  A    between atoms: C6_6  and  C7_7 
REMARK    3  A    between atoms: C8_8  and  N1_9 
REMARK    4  A    between atoms: C12_16  and  C13_17 
REMARK    5  A    between atoms: C13_17  and  O2_18 
REMARK    6  A    between atoms: C13_17  and  C14_20 
REMARK    7  A    between atoms: C14_20  and  O3_21 
REMARK    8  A    between atoms: C14_20  and  C15_23 
REMARK    9  A    between atoms: C15_23  and  C17_25 
ROOT
HETATM    1  C1  UNL     1      -8.307  17.788  25.165  1.00  0.00     0.017 C 
HETATM    2  C2  UNL     1      -8.127  16.594  25.041  1.00  0.00    -0.083 C 
HETATM    3  C3  UNL     1      -7.922  15.188  24.869  1.00  0.00    -0.013 C 
HETATM    4  C4  UNL     1      -7.853  14.640  23.491  1.00  0.00     0.057 C 
HETATM    5  C5  UNL     1      -7.795  14.381  25.898  1.00  0.00    -0.011 C 
ENDROOT
BRANCH   5   6
HETATM    6  C6  UNL     1      -7.864  14.904  27.250  1.00  0.00     0.036 C 
BRANCH   6   7
HETATM    7  C7  UNL     1      -6.720  14.694  28.162  1.00  0.00     0.034 C 
HETATM    8  C8  UNL     1      -5.529  15.525  28.078  1.00  0.00     0.259 C 
HETATM    9  C10 UNL     1      -4.425  14.678  27.478  1.00  0.00     0.158 C 
HETATM   10  O1  UNL     1      -3.525  14.993  26.738  1.00  0.00    -0.296 OA
HETATM   11  C11 UNL     1      -4.703  13.317  28.023  1.00  0.00     0.088 C 
HETATM   12  C12 UNL     1      -6.203  13.288  28.032  1.00  0.00     0.031 C 
BRANCH   8  13
HETATM   13  N1  UNL     1      -5.533  16.742  27.360  1.00  0.00    -0.068 N 
HETATM   14  C9  UNL     1      -5.122  17.882  28.171  1.00  0.00     0.267 C 
ATOM     15  H12 UNL     1      -4.963  16.669  26.518  1.00  0.00     0.277 HD
ATOM     16  H11 UNL     1      -6.444  16.909  26.933  1.00  0.00     0.277 HD
ENDBRANCH   8  13
BRANCH  12  17
HETATM   17  C13 UNL     1      -6.806  12.254  28.896  1.00  0.00     0.152 C 
BRANCH  17  18
HETATM   18  O2  UNL     1      -6.049  11.932  29.989  1.00  0.00    -0.393 OA
ATOM     19  H2  UNL     1      -5.892  11.000  30.089  1.00  0.00     0.210 HD
ENDBRANCH  17  18
BRANCH  17  20
HETATM   20  C14 UNL     1      -7.369  11.037  28.252  1.00  0.00     0.151 C 
BRANCH  20  21
HETATM   21  O3  UNL     1      -6.530   9.930  28.372  1.00  0.00    -0.393 OA
ATOM     22  H3  UNL     1      -5.919   9.855  27.649  1.00  0.00     0.210 HD
ENDBRANCH  20  21
BRANCH  20  23
HETATM   23  C15 UNL     1      -8.786  10.742  28.644  1.00  0.00     0.016 C 
HETATM   24  C16 UNL     1      -8.778   9.685  29.766  1.00  0.00     0.013 C 
BRANCH  23  25
HETATM   25  C17 UNL     1      -9.625  11.911  29.038  1.00  0.00    -0.016 C 
HETATM   26  C18 UNL     1     -10.387  12.309  27.751  1.00  0.00     0.010 C 
HETATM   27  C19 UNL     1     -10.721  11.630  30.021  1.00  0.00     0.010 C 
ENDBRANCH  23  25
ENDBRANCH  20  23
ENDBRANCH  17  20
ENDBRANCH  12  17
ENDBRANCH   6   7
ENDBRANCH   5   6
TORSDOF 9
ENDMDL
MODEL 4
REMARK VINA RESULT: -5.787432091      3.149      6.315
REMARK  9 active torsions:
REMARK  status: ('A' for Active; 'I' for Inactive)
REMARK    1  A    between atoms: C5_5  and  C6_6 
REMARK    2  A    between atoms: C6_6  and  C7_7 
REMARK    3  A    between atoms: C8_8  and  N1_9 
REMARK    4  A    between atoms: C12_16  and  C13_17 
REMARK    5  A    between atoms: C13_17  and  O2_18 
REMARK    6  A    between atoms: C13_17  and  C14_20 
REMARK    7  A    between atoms: C14_20  and  O3_21 
REMARK    8  A    between atoms: C14_20  and  C15_23 
REMARK    9  A    between atoms: C15_23  and  C17_25 
ROOT
HETATM    1  C1  UNL     1     -10.461  12.139  28.179  1.00  0.00     0.017 C 
HETATM    2  C2  UNL     1     -10.842  12.163  29.331  1.00  0.00    -0.083 C 
HETATM    3  C3  UNL     1     -11.296  12.164  30.688  1.00  0.00    -0.013 C 
HETATM    4  C4  UNL     1     -11.490  10.863  31.377  1.00  0.00     0.057 C 
HETATM    5  C5  UNL     1     -11.542  13.284  31.330  1.00  0.00    -0.011 C 
ENDROOT
BRANCH   5   6
HETATM    6  C6  UNL     1     -11.358  14.561  30.667  1.00  0.00     0.036 C 
BRANCH   6   7
HETATM    7  C7  UNL     1     -10.226  15.424  31.066  1.00  0.00     0.034 C 
HETATM    8  C8  UNL     1     -10.447  16.660  31.802  1.00  0.00     0.259 C 
HETATM    9  C10 UNL     1     -10.195  17.809  30.846  1.00  0.00     0.158 C 
HETATM   10  O1  UNL     1     -10.737  18.885  30.774  1.00  0.00    -0.296 OA
HETATM   11  C11 UNL     1      -9.091  17.299  29.981  1.00  0.00     0.088 C 
HETATM   12  C12 UNL     1      -9.442  15.846  29.854  1.00  0.00     0.031 C 
BRANCH   8  13
HETATM   13  N1  UNL     1     -11.681  16.927  32.433  1.00  0.00    -0.068 N 
HETATM   14  C9  UNL     1     -11.718  16.487  33.823  1.00  0.00     0.267 C 
ATOM     15  H12 UNL     1     -11.922  17.916  32.357  1.00  0.00     0.277 HD
ATOM     16  H11 UNL     1     -12.455  16.526  31.903  1.00  0.00     0.277 HD
ENDBRANCH   8  13
BRANCH  12  17
HETATM   17  C13 UNL     1      -8.340  14.970  29.413  1.00  0.00     0.152 C 
BRANCH  17  18
HETATM   18  O2  UNL     1      -7.786  14.224  30.417  1.00  0.00    -0.393 OA
ATOM     19  H2  UNL     1      -6.938  14.537  30.709  1.00  0.00     0.210 HD
ENDBRANCH  17  18
BRANCH  17  20
HETATM   20  C14 UNL     1      -7.291  15.546  28.528  1.00  0.00     0.151 C 
BRANCH  20  21
HETATM   21  O3  UNL     1      -6.009  15.408  29.058  1.00  0.00    -0.393 OA
ATOM     22  H3  UNL     1      -5.371  15.956  28.617  1.00  0.00     0.210 HD
ENDBRANCH  20  21
BRANCH  20  23
HETATM   23  C15 UNL     1      -7.386  15.098  27.100  1.00  0.00     0.016 C 
HETATM   24  C16 UNL     1      -7.390  13.557  27.066  1.00  0.00     0.013 C 
BRANCH  23  25
HETATM   25  C17 UNL     1      -8.530  15.638  26.308  1.00  0.00    -0.016 C 
HETATM   26  C18 UNL     1      -8.303  17.168  26.270  1.00  0.00     0.010 C 
HETATM   27  C19 UNL     1      -8.564  15.252  24.861  1.00  0.00     0.010 C 
ENDBRANCH  23  25
ENDBRANCH  20  23
ENDBRANCH  17  20
ENDBRANCH  12  17
ENDBRANCH   6   7
ENDBRANCH   5   6
TORSDOF 9
ENDMDL
MODEL 5
REMARK VINA RESULT: -5.695870946      2.013      3.344
REMARK  9 active torsions:
REMARK  status: ('A' for Active; 'I' for Inactive)
REMARK    1  A    between atoms: C5_5  and  C6_6 
REMARK    2  A    between atoms: C6_6  and  C7_7 
REMARK    3  A    between atoms: C8_8  and  N1_9 
REMARK    4  A    between atoms: C12_16  and  C13_17 
REMARK    5  A    between atoms: C13_17  and  O2_18 
REMARK    6  A    between atoms: C13_17  and  C14_20 
REMARK    7  A    between atoms: C14_20  and  O3_21 
REMARK    8  A    between atoms: C14_20  and  C15_23 
REMARK    9  A    between atoms: C15_23  and  C17_25 
ROOT
HETATM    1  C1  UNL     1      -7.837  14.305  24.680  1.00  0.00     0.017 C 
HETATM    2  C2  UNL     1      -8.007  15.337  25.297  1.00  0.00    -0.083 C 
HETATM    3  C3  UNL     1      -8.201  16.568  26.000  1.00  0.00    -0.013 C 
HETATM    4  C4  UNL     1      -8.282  17.830  25.223  1.00  0.00     0.057 C 
HETATM    5  C5  UNL     1      -8.309  16.602  27.309  1.00  0.00    -0.011 C 
ENDROOT
BRANCH   5   6
HETATM    6  C6  UNL     1      -8.230  15.376  28.080  1.00  0.00     0.036 C 
BRANCH   6   7
HETATM    7  C7  UNL     1      -9.347  15.016  28.979  1.00  0.00     0.034 C 
HETATM    8  C8  UNL     1      -9.534  15.693  30.253  1.00  0.00     0.259 C 
HETATM    9  C10 UNL     1      -9.142  14.719  31.347  1.00  0.00     0.158 C 
HETATM   10  O1  UNL     1      -8.610  14.926  32.411  1.00  0.00    -0.296 OA
HETATM   11  C11 UNL     1      -9.573  13.399  30.800  1.00  0.00     0.088 C 
HETATM   12  C12 UNL     1      -9.277  13.558  29.338  1.00  0.00     0.031 C 
BRANCH   8  13
HETATM   13  N1  UNL     1      -8.873  16.907  30.543  1.00  0.00    -0.068 N 
HETATM   14  C9  UNL     1      -9.784  18.039  30.657  1.00  0.00     0.267 C 
ATOM     15  H12 UNL     1      -8.298  16.816  31.381  1.00  0.00     0.277 HD
ATOM     16  H11 UNL     1      -8.141  17.095  29.858  1.00  0.00     0.277 HD
ENDBRANCH   8  13
BRANCH  12  17
HETATM   17  C13 UNL     1      -9.965  12.600  28.451  1.00  0.00     0.152 C 
BRANCH  17  18
HETATM   18  O2  UNL     1     -11.188  12.194  28.912  1.00  0.00    -0.393 OA
ATOM     19  H2  UNL     1     -11.918  12.690  28.559  1.00  0.00     0.210 HD
ENDBRANCH  17  18
BRANCH  17  20
HETATM   20  C14 UNL     1      -9.186  11.454  27.909  1.00  0.00     0.151 C 
BRANCH  20  21
HETATM   21  O3  UNL     1      -8.862  11.617  26.562  1.00  0.00    -0.393 OA
ATOM     22  H3  UNL     1      -8.301  12.368  26.410  1.00  0.00     0.210 HD
ENDBRANCH  20  21
BRANCH  20  23
HETATM   23  C15 UNL     1      -8.008  11.067  28.752  1.00  0.00     0.016 C 
HETATM   24  C16 UNL     1      -8.303   9.710  29.419  1.00  0.00     0.013 C 
BRANCH  23  25
HETATM   25  C17 UNL     1      -6.682  11.032  28.067  1.00  0.00    -0.016 C 
HETATM   26  C18 UNL     1      -6.007  12.376  28.432  1.00  0.00     0.010 C 
HETATM   27  C19 UNL     1      -5.713  10.006  28.569  1.00  0.00     0.010 C 
ENDBRANCH  23  25
ENDBRANCH  20  23
ENDBRANCH  17  20
ENDBRANCH  12  17
ENDBRANCH   6   7
ENDBRANCH   5   6
TORSDOF 9
ENDMDL
