MODEL 1
REMARK VINA RESULT: -5.507897986      0.000      0.000
REMARK  7 active torsions:
REMARK  status: ('A' for Active; 'I' for Inactive)
REMARK    1  A    between atoms: C5_5  and  N1_6 
REMARK       I    between atoms: N1_6  and  C6_8 
REMARK    2  A    between atoms: C6_8  and  C7_10 
REMARK    3  A    between atoms: C7_10  and  N2_11 
REMARK    4  A    between atoms: N2_11  and  C8_13 
REMARK    5  A    between atoms: C8_13  and  C9_14 
REMARK    6  A    between atoms: C9_14  and  C10_15 
REMARK    7  A    between atoms: C10_15  and  N3_16 
ROOT
HETATM    1  N1  UNL     1      -9.120  15.260  29.231  1.00  0.00    -0.352 N 
ATOM      2  H1  UNL     1      -9.272  14.253  29.178  1.00  0.00     0.163 HD
HETATM    3  C6  UNL     1      -9.770  15.973  30.255  1.00  0.00     0.257 C 
HETATM    4  O1  UNL     1      -9.532  17.243  30.247  1.00  0.00    -0.267 OA
ENDROOT
BRANCH   1   5
HETATM    5  C5  UNL     1      -8.250  15.868  28.245  1.00  0.00     0.089 C 
HETATM    6  C4  UNL     1      -6.852  15.345  28.472  1.00  0.00     0.055 C 
HETATM    7  C2  UNL     1      -5.886  15.733  27.407  1.00  0.00     0.021 C 
HETATM    8  C1  UNL     1      -4.757  14.721  27.410  1.00  0.00     0.037 C 
HETATM    9  C3  UNL     1      -5.233  17.073  27.779  1.00  0.00     0.037 C 
HETATM   10  N4  UNL     1      -6.378  15.843  26.100  1.00  0.00    -0.405 N 
HETATM   11  C15 UNL     1      -7.754  15.899  25.858  1.00  0.00     0.021 C 
ATOM     12  H4  UNL     1      -5.725  15.882  25.317  1.00  0.00     0.154 HD
HETATM   13  C14 UNL     1      -8.683  15.384  26.897  1.00  0.00     0.055 C 
HETATM   14  C16 UNL     1      -8.027  15.067  24.591  1.00  0.00     0.037 C 
HETATM   15  C17 UNL     1      -8.232  17.307  25.477  1.00  0.00     0.037 C 
ENDBRANCH   1   5
BRANCH   3  16
HETATM   16  C7  UNL     1     -10.662  15.423  31.290  1.00  0.00     0.162 C 
BRANCH  16  17
HETATM   17  N2  UNL     1     -11.580  14.472  30.855  1.00  0.00    -0.374 N 
ATOM     18  H2  UNL     1     -12.384  14.780  30.308  1.00  0.00     0.164 HD
BRANCH  17  19
HETATM   19  C8  UNL     1     -11.441  13.113  31.140  1.00  0.00     0.062 C 
BRANCH  19  20
HETATM   20  C9  UNL     1     -11.127  12.219  29.967  1.00  0.00     0.074 C 
BRANCH  20  21
HETATM   21  C10 UNL     1      -9.684  11.828  29.883  1.00  0.00     0.277 C 
BRANCH  21  22
HETATM   22  N3  UNL     1      -9.357  11.044  28.735  1.00  0.00     0.088 N 
HETATM   23  C11 UNL     1      -7.939  10.742  28.699  1.00  0.00     0.274 C 
HETATM   24  C12 UNL     1      -7.694  11.846  27.691  1.00  0.00     0.060 C 
HETATM   25  C13 UNL     1      -9.193  11.746  27.478  1.00  0.00     0.274 C 
ENDBRANCH  21  22
ENDBRANCH  20  21
ENDBRANCH  19  20
ENDBRANCH  17  19
ENDBRANCH  16  17
ENDBRANCH   3  16
TORSDOF 7
ENDMDL
MODEL 2
REMARK VINA RESULT: -5.258586016      0.939      1.121
REMARK  7 active torsions:
REMARK  status: ('A' for Active; 'I' for Inactive)
REMARK    1  A    between atoms: C5_5  and  N1_6 
REMARK       I    between atoms: N1_6  and  C6_8 
REMARK    2  A    between atoms: C6_8  and  C7_10 
REMARK    3  A    between atoms: C7_10  and  N2_11 
REMARK    4  A    between atoms: N2_11  and  C8_13 
REMARK    5  A    between atoms: C8_13  and  C9_14 
REMARK    6  A    between atoms: C9_14  and  C10_15 
REMARK    7  A    between atoms: C10_15  and  N3_16 
ROOT
HETATM    1  N1  UNL     1      -8.847  16.119  29.608  1.00  0.00    -0.352 N 
ATOM      2  H1  UNL     1      -9.005  15.147  29.872  1.00  0.00     0.163 HD
HETATM    3  C6  UNL     1      -9.473  17.120  30.373  1.00  0.00     0.257 C 
HETATM    4  O1  UNL     1      -9.230  18.323  29.970  1.00  0.00    -0.267 OA
ENDROOT
BRANCH   1   5
HETATM    5  C5  UNL     1      -7.993  16.384  28.469  1.00  0.00     0.089 C 
HETATM    6  C4  UNL     1      -6.678  15.679  28.698  1.00  0.00     0.055 C 
HETATM    7  C2  UNL     1      -5.771  15.700  27.517  1.00  0.00     0.021 C 
HETATM    8  C1  UNL     1      -4.819  14.527  27.638  1.00  0.00     0.037 C 
HETATM    9  C3  UNL     1      -4.885  16.954  27.581  1.00  0.00     0.037 C 
HETATM   10  N4  UNL     1      -6.365  15.658  26.249  1.00  0.00    -0.405 N 
HETATM   11  C15 UNL     1      -7.733  15.905  26.092  1.00  0.00     0.021 C 
ATOM     12  H4  UNL     1      -5.793  15.445  25.431  1.00  0.00     0.154 HD
HETATM   13  C14 UNL     1      -8.625  15.749  27.270  1.00  0.00     0.055 C 
HETATM   14  C16 UNL     1      -8.254  14.920  25.029  1.00  0.00     0.037 C 
HETATM   15  C17 UNL     1      -8.021  17.284  25.481  1.00  0.00     0.037 C 
ENDBRANCH   1   5
BRANCH   3  16
HETATM   16  C7  UNL     1     -10.348  16.926  31.542  1.00  0.00     0.162 C 
BRANCH  16  17
HETATM   17  N2  UNL     1     -11.366  15.990  31.388  1.00  0.00    -0.374 N 
ATOM     18  H2  UNL     1     -12.201  16.253  30.865  1.00  0.00     0.164 HD
BRANCH  17  19
HETATM   19  C8  UNL     1     -11.286  14.703  31.923  1.00  0.00     0.062 C 
BRANCH  19  20
HETATM   20  C9  UNL     1     -11.556  13.570  30.965  1.00  0.00     0.074 C 
BRANCH  20  21
HETATM   21  C10 UNL     1     -10.312  12.969  30.385  1.00  0.00     0.277 C 
BRANCH  21  22
HETATM   22  N3  UNL     1     -10.553  11.901  29.467  1.00  0.00     0.088 N 
HETATM   23  C11 UNL     1      -9.384  11.051  29.343  1.00  0.00     0.274 C 
HETATM   24  C12 UNL     1      -8.988  11.728  28.046  1.00  0.00     0.060 C 
HETATM   25  C13 UNL     1     -10.429  12.202  28.055  1.00  0.00     0.274 C 
ENDBRANCH  21  22
ENDBRANCH  20  21
ENDBRANCH  19  20
ENDBRANCH  17  19
ENDBRANCH  16  17
ENDBRANCH   3  16
TORSDOF 7
ENDMDL
MODEL 3
REMARK VINA RESULT: -5.055311062      5.557      8.199
REMARK  7 active torsions:
REMARK  status: ('A' for Active; 'I' for Inactive)
REMARK    1  A    between atoms: C5_5  and  N1_6 
REMARK       I    between atoms: N1_6  and  C6_8 
REMARK    2  A    between atoms: C6_8  and  C7_10 
REMARK    3  A    between atoms: C7_10  and  N2_11 
REMARK    4  A    between atoms: N2_11  and  C8_13 
REMARK    5  A    between atoms: C8_13  and  C9_14 
REMARK    6  A    between atoms: C9_14  and  C10_15 
REMARK    7  A    between atoms: C10_15  and  N3_16 
ROOT
HETATM    1  N1  UNL     1      -4.181  20.468  28.787  1.00  0.00    -0.352 N 
ATOM      2  H1  UNL     1      -4.756  20.144  29.565  1.00  0.00     0.163 HD
HETATM    3  C6  UNL     1      -3.890  19.555  27.758  1.00  0.00     0.257 C 
HETATM    4  O1  UNL     1      -3.150  20.039  26.816  1.00  0.00    -0.267 OA
ENDROOT
BRANCH   1   5
HETATM    5  C5  UNL     1      -3.714  21.839  28.812  1.00  0.00     0.089 C 
HETATM    6  C4  UNL     1      -4.594  22.613  29.764  1.00  0.00     0.055 C 
HETATM    7  C2  UNL     1      -4.109  23.994  30.040  1.00  0.00     0.021 C 
HETATM    8  C1  UNL     1      -4.677  24.429  31.377  1.00  0.00     0.037 C 
HETATM    9  C3  UNL     1      -4.711  24.959  29.008  1.00  0.00     0.037 C 
HETATM   10  N4  UNL     1      -2.724  24.198  30.061  1.00  0.00    -0.405 N 
HETATM   11  C15 UNL     1      -1.852  23.236  29.538  1.00  0.00     0.021 C 
ATOM     12  H4  UNL     1      -2.346  25.056  30.462  1.00  0.00     0.154 HD
HETATM   13  C14 UNL     1      -2.336  21.838  29.396  1.00  0.00     0.055 C 
HETATM   14  C16 UNL     1      -0.631  23.171  30.474  1.00  0.00     0.037 C 
HETATM   15  C17 UNL     1      -1.253  23.651  28.187  1.00  0.00     0.037 C 
ENDBRANCH   1   5
BRANCH   3  16
HETATM   16  C7  UNL     1      -4.331  18.153  27.664  1.00  0.00     0.162 C 
BRANCH  16  17
HETATM   17  N2  UNL     1      -5.705  17.944  27.736  1.00  0.00    -0.374 N 
ATOM     18  H2  UNL     1      -6.299  18.698  28.081  1.00  0.00     0.164 HD
BRANCH  17  19
HETATM   19  C8  UNL     1      -6.299  16.741  27.354  1.00  0.00     0.062 C 
BRANCH  19  20
HETATM   20  C9  UNL     1      -7.786  16.634  27.586  1.00  0.00     0.074 C 
BRANCH  20  21
HETATM   21  C10 UNL     1      -8.546  16.165  26.383  1.00  0.00     0.277 C 
BRANCH  21  22
HETATM   22  N3  UNL     1      -7.824  16.284  25.156  1.00  0.00     0.088 N 
HETATM   23  C11 UNL     1      -8.528  17.142  24.222  1.00  0.00     0.274 C 
HETATM   24  C12 UNL     1      -9.079  15.942  23.479  1.00  0.00     0.060 C 
HETATM   25  C13 UNL     1      -7.964  15.205  24.198  1.00  0.00     0.274 C 
ENDBRANCH  21  22
ENDBRANCH  20  21
ENDBRANCH  19  20
ENDBRANCH  17  19
ENDBRANCH  16  17
ENDBRANCH   3  16
TORSDOF 7
ENDMDL
MODEL 4
REMARK VINA RESULT: -5.032042588      4.175      6.684
REMARK  7 active torsions:
REMARK  status: ('A' for Active; 'I' for Inactive)
REMARK    1  A    between atoms: C5_5  and  N1_6 
REMARK       I    between atoms: N1_6  and  C6_8 
REMARK    2  A    between atoms: C6_8  and  C7_10 
REMARK    3  A    between atoms: C7_10  and  N2_11 
REMARK    4  A    between atoms: N2_11  and  C8_13 
REMARK    5  A    between atoms: C8_13  and  C9_14 
REMARK    6  A    between atoms: C9_14  and  C10_15 
REMARK    7  A    between atoms: C10_15  and  N3_16 
ROOT
HETATM    1  N1  UNL     1      -5.314  18.973  28.787  1.00  0.00    -0.352 N 
ATOM      2  H1  UNL     1      -6.093  19.245  28.187  1.00  0.00     0.163 HD
HETATM    3  C6  UNL     1      -5.355  17.699  29.383  1.00  0.00     0.257 C 
HETATM    4  O1  UNL     1      -4.337  17.435  30.132  1.00  0.00    -0.267 OA
ENDROOT
BRANCH   1   5
HETATM    5  C5  UNL     1      -4.236  19.922  28.972  1.00  0.00     0.089 C 
HETATM    6  C4  UNL     1      -3.627  20.205  27.620  1.00  0.00     0.055 C 
HETATM    7  C2  UNL     1      -2.633  21.315  27.631  1.00  0.00     0.021 C 
HETATM    8  C1  UNL     1      -2.552  21.881  26.227  1.00  0.00     0.037 C 
HETATM    9  C3  UNL     1      -1.237  20.743  27.922  1.00  0.00     0.037 C 
HETATM   10  N4  UNL     1      -2.858  22.372  28.521  1.00  0.00    -0.405 N 
HETATM   11  C15 UNL     1      -3.782  22.243  29.564  1.00  0.00     0.021 C 
ATOM     12  H4  UNL     1      -2.342  23.245  28.408  1.00  0.00     0.154 HD
HETATM   13  C14 UNL     1      -4.838  21.204  29.456  1.00  0.00     0.055 C 
HETATM   14  C16 UNL     1      -4.520  23.590  29.686  1.00  0.00     0.037 C 
HETATM   15  C17 UNL     1      -3.110  22.072  30.934  1.00  0.00     0.037 C 
ENDBRANCH   1   5
BRANCH   3  16
HETATM   16  C7  UNL     1      -6.412  16.685  29.237  1.00  0.00     0.162 C 
BRANCH  16  17
HETATM   17  N2  UNL     1      -7.653  17.158  28.823  1.00  0.00    -0.374 N 
ATOM     18  H2  UNL     1      -8.139  17.839  29.408  1.00  0.00     0.164 HD
BRANCH  17  19
HETATM   19  C8  UNL     1      -8.258  16.737  27.639  1.00  0.00     0.062 C 
BRANCH  19  20
HETATM   20  C9  UNL     1      -7.479  16.988  26.371  1.00  0.00     0.074 C 
BRANCH  20  21
HETATM   21  C10 UNL     1      -8.346  17.144  25.159  1.00  0.00     0.277 C 
BRANCH  21  22
HETATM   22  N3  UNL     1      -8.933  15.925  24.701  1.00  0.00     0.088 N 
HETATM   23  C11 UNL     1      -7.914  14.931  24.425  1.00  0.00     0.274 C 
HETATM   24  C12 UNL     1      -7.986  15.220  22.939  1.00  0.00     0.060 C 
HETATM   25  C13 UNL     1      -9.313  15.857  23.305  1.00  0.00     0.274 C 
ENDBRANCH  21  22
ENDBRANCH  20  21
ENDBRANCH  19  20
ENDBRANCH  17  19
ENDBRANCH  16  17
ENDBRANCH   3  16
TORSDOF 7
ENDMDL
MODEL 5
REMARK VINA RESULT: -5.001714841      5.442      9.592
REMARK  7 active torsions:
REMARK  status: ('A' for Active; 'I' for Inactive)
REMARK    1  A    between atoms: C5_5  and  N1_6 
REMARK       I    between atoms: N1_6  and  C6_8 
REMARK    2  A    between atoms: C6_8  and  C7_10 
REMARK    3  A    between atoms: C7_10  and  N2_11 
REMARK    4  A    between atoms: N2_11  and  C8_13 
REMARK    5  A    between atoms: C8_13  and  C9_14 
REMARK    6  A    between atoms: C9_14  and  C10_15 
REMARK    7  A    between atoms: C10_15  and  N3_16 
ROOT
HETATM    1  N1  UNL     1      -5.211  18.346  28.003  1.00  0.00    -0.352 N 
ATOM      2  H1  UNL     1      -5.705  19.139  28.413  1.00  0.00     0.163 HD
HETATM    3  C6  UNL     1      -3.861  18.520  27.650  1.00  0.00     0.257 C 
HETATM    4  O1  UNL     1      -3.312  17.473  27.130  1.00  0.00    -0.267 OA
ENDROOT
BRANCH   1   5
HETATM    5  C5  UNL     1      -5.945  17.110  27.820  1.00  0.00     0.089 C 
HETATM    6  C4  UNL     1      -6.916  16.971  28.967  1.00  0.00     0.055 C 
HETATM    7  C2  UNL     1      -7.877  15.844  28.806  1.00  0.00     0.021 C 
HETATM    8  C1  UNL     1      -9.102  16.152  29.644  1.00  0.00     0.037 C 
HETATM    9  C3  UNL     1      -7.273  14.572  29.420  1.00  0.00     0.037 C 
HETATM   10  N4  UNL     1      -8.297  15.536  27.506  1.00  0.00    -0.405 N 
HETATM   11  C15 UNL     1      -7.612  16.043  26.396  1.00  0.00     0.021 C 
ATOM     12  H4  UNL     1      -9.110  14.936  27.367  1.00  0.00     0.154 HD
HETATM   13  C14 UNL     1      -6.761  17.248  26.572  1.00  0.00     0.055 C 
HETATM   14  C16 UNL     1      -8.671  16.419  25.343  1.00  0.00     0.037 C 
HETATM   15  C17 UNL     1      -6.759  14.980  25.690  1.00  0.00     0.037 C 
ENDBRANCH   1   5
BRANCH   3  16
HETATM   16  C7  UNL     1      -3.053  19.741  27.810  1.00  0.00     0.162 C 
BRANCH  16  17
HETATM   17  N2  UNL     1      -3.605  20.906  27.287  1.00  0.00    -0.374 N 
ATOM     18  H2  UNL     1      -4.466  20.841  26.744  1.00  0.00     0.164 HD
BRANCH  17  19
HETATM   19  C8  UNL     1      -3.024  22.160  27.478  1.00  0.00     0.062 C 
BRANCH  19  20
HETATM   20  C9  UNL     1      -1.716  22.400  26.764  1.00  0.00     0.074 C 
BRANCH  20  21
HETATM   21  C10 UNL     1      -0.631  22.910  27.663  1.00  0.00     0.277 C 
BRANCH  21  22
HETATM   22  N3  UNL     1      -0.518  24.334  27.690  1.00  0.00     0.088 N 
HETATM   23  C11 UNL     1       0.829  24.753  27.351  1.00  0.00     0.274 C 
HETATM   24  C12 UNL     1       1.170  24.959  28.813  1.00  0.00     0.060 C 
HETATM   25  C13 UNL     1      -0.338  24.960  28.984  1.00  0.00     0.274 C 
ENDBRANCH  21  22
ENDBRANCH  20  21
ENDBRANCH  19  20
ENDBRANCH  17  19
ENDBRANCH  16  17
ENDBRANCH   3  16
TORSDOF 7
ENDMDL
