MODEL 1
REMARK VINA RESULT: -5.903432810      0.000      0.000
REMARK  6 active torsions:
REMARK  status: ('A' for Active; 'I' for Inactive)
REMARK    1  A    between atoms: C2_2  and  C3_3 
REMARK    2  A    between atoms: C6_10  and  C7_11 
REMARK    3  A    between atoms: C7_11  and  N3_12 
REMARK    4  A    between atoms: N4_17  and  C11_18 
REMARK    5  A    between atoms: C11_18  and  C12_19 
REMARK    6  A    between atoms: C12_19  and  C13_20 
ROOT
HETATM    1  N3  UNL     1      -7.314  13.735  29.791  1.00  0.00    -0.331 N 
HETATM    2  C8  UNL     1      -7.688  14.888  30.570  1.00  0.00     0.137 C 
HETATM    3  C9  UNL     1      -8.814  15.610  29.815  1.00  0.00     0.123 C 
HETATM    4  C10 UNL     1      -8.293  16.046  28.515  1.00  0.00     0.229 C 
HETATM    5  O1  UNL     1      -8.535  17.201  28.095  1.00  0.00    -0.273 OA
HETATM    6  N4  UNL     1      -7.513  15.141  27.750  1.00  0.00    -0.270 N 
HETATM    7  C16 UNL     1      -7.023  13.977  28.400  1.00  0.00     0.327 C 
HETATM    8  O2  UNL     1      -6.323  13.110  27.810  1.00  0.00    -0.247 OA
ENDROOT
BRANCH   1   9
HETATM    9  C7  UNL     1      -7.276  12.410  30.326  1.00  0.00     0.157 C 
BRANCH   9  10
HETATM   10  C6  UNL     1      -8.534  11.755  30.709  1.00  0.00     0.131 C 
HETATM   11  C3  UNL     1      -9.464  11.220  29.696  1.00  0.00    -0.041 C 
HETATM   12  C4  UNL     1      -8.797  10.280  28.743  1.00  0.00     0.093 C 
HETATM   13  N1  UNL     1      -7.798   9.491  29.329  1.00  0.00    -0.362 N 
HETATM   14  C5  UNL     1      -7.393   9.673  30.657  1.00  0.00     0.176 C 
ATOM     15  H1  UNL     1      -7.353   8.762  28.772  1.00  0.00     0.165 HD
HETATM   16  N2  UNL     1      -8.133  10.556  31.495  1.00  0.00    -0.376 N 
ATOM     17  H2  UNL     1      -8.353  10.393  32.477  1.00  0.00     0.161 HD
BRANCH  11  18
HETATM   18  C2  UNL     1     -10.451  12.153  29.096  1.00  0.00     0.033 C 
HETATM   19  C1  UNL     1     -10.071  12.279  27.606  1.00  0.00     0.010 C 
ENDBRANCH  11  18
ENDBRANCH   9  10
ENDBRANCH   1   9
BRANCH   6  20
HETATM   20  C11 UNL     1      -7.202  15.340  26.377  1.00  0.00     0.137 C 
BRANCH  20  21
HETATM   21  C12 UNL     1      -8.372  15.174  25.447  1.00  0.00     0.024 C 
BRANCH  21  22
HETATM   22  C13 UNL     1      -8.235  16.133  24.284  1.00  0.00    -0.021 C 
HETATM   23  C14 UNL     1      -9.296  15.895  23.228  1.00  0.00     0.009 C 
HETATM   24  C15 UNL     1      -8.363  17.567  24.740  1.00  0.00     0.009 C 
ENDBRANCH  21  22
ENDBRANCH  20  21
ENDBRANCH   6  20
TORSDOF 6
ENDMDL
MODEL 2
REMARK VINA RESULT: -5.829592465      2.641      5.295
REMARK  6 active torsions:
REMARK  status: ('A' for Active; 'I' for Inactive)
REMARK    1  A    between atoms: C2_2  and  C3_3 
REMARK    2  A    between atoms: C6_10  and  C7_11 
REMARK    3  A    between atoms: C7_11  and  N3_12 
REMARK    4  A    between atoms: N4_17  and  C11_18 
REMARK    5  A    between atoms: C11_18  and  C12_19 
REMARK    6  A    between atoms: C12_19  and  C13_20 
ROOT
HETATM    1  N3  UNL     1      -6.969  14.913  28.976  1.00  0.00    -0.331 N 
HETATM    2  C8  UNL     1      -6.923  13.504  29.278  1.00  0.00     0.137 C 
HETATM    3  C9  UNL     1      -6.600  12.763  27.972  1.00  0.00     0.123 C 
HETATM    4  C10 UNL     1      -7.679  13.023  27.013  1.00  0.00     0.229 C 
HETATM    5  O1  UNL     1      -8.159  12.086  26.336  1.00  0.00    -0.273 OA
HETATM    6  N4  UNL     1      -8.164  14.349  26.871  1.00  0.00    -0.270 N 
HETATM    7  C16 UNL     1      -7.802  15.296  27.865  1.00  0.00     0.327 C 
HETATM    8  O2  UNL     1      -8.180  16.499  27.830  1.00  0.00    -0.247 OA
ENDROOT
BRANCH   1   9
HETATM    9  C7  UNL     1      -6.203  15.888  29.687  1.00  0.00     0.157 C 
BRANCH   9  10
HETATM   10  C6  UNL     1      -4.784  16.069  29.353  1.00  0.00     0.131 C 
HETATM   11  C3  UNL     1      -4.361  16.559  28.028  1.00  0.00    -0.041 C 
HETATM   12  C4  UNL     1      -5.027  17.844  27.650  1.00  0.00     0.093 C 
HETATM   13  N1  UNL     1      -5.246  18.709  28.731  1.00  0.00    -0.362 N 
HETATM   14  C5  UNL     1      -4.972  18.331  30.051  1.00  0.00     0.176 C 
ATOM     15  H1  UNL     1      -5.616  19.642  28.550  1.00  0.00     0.165 HD
HETATM   16  N2  UNL     1      -4.284  17.108  30.295  1.00  0.00    -0.376 N 
ATOM     17  H2  UNL     1      -3.565  16.966  31.003  1.00  0.00     0.161 HD
BRANCH  11  18
HETATM   18  C2  UNL     1      -4.209  15.566  26.934  1.00  0.00     0.033 C 
HETATM   19  C1  UNL     1      -3.321  14.439  27.499  1.00  0.00     0.010 C 
ENDBRANCH  11  18
ENDBRANCH   9  10
ENDBRANCH   1   9
BRANCH   6  20
HETATM   20  C11 UNL     1      -8.988  14.770  25.792  1.00  0.00     0.137 C 
BRANCH  20  21
HETATM   21  C12 UNL     1      -8.231  15.179  24.558  1.00  0.00     0.024 C 
BRANCH  21  22
HETATM   22  C13 UNL     1      -8.889  16.392  23.938  1.00  0.00    -0.021 C 
HETATM   23  C14 UNL     1      -8.325  17.685  24.492  1.00  0.00     0.009 C 
HETATM   24  C15 UNL     1      -8.694  16.417  22.441  1.00  0.00     0.009 C 
ENDBRANCH  21  22
ENDBRANCH  20  21
ENDBRANCH   6  20
TORSDOF 6
ENDMDL
MODEL 3
REMARK VINA RESULT: -5.709270044      1.951      2.844
REMARK  6 active torsions:
REMARK  status: ('A' for Active; 'I' for Inactive)
REMARK    1  A    between atoms: C2_2  and  C3_3 
REMARK    2  A    between atoms: C6_10  and  C7_11 
REMARK    3  A    between atoms: C7_11  and  N3_12 
REMARK    4  A    between atoms: N4_17  and  C11_18 
REMARK    5  A    between atoms: C11_18  and  C12_19 
REMARK    6  A    between atoms: C12_19  and  C13_20 
ROOT
HETATM    1  N3  UNL     1      -8.263  12.730  28.915  1.00  0.00    -0.331 N 
HETATM    2  C8  UNL     1      -6.979  13.131  29.435  1.00  0.00     0.137 C 
HETATM    3  C9  UNL     1      -6.753  14.594  29.026  1.00  0.00     0.123 C 
HETATM    4  C10 UNL     1      -6.732  14.667  27.561  1.00  0.00     0.229 C 
HETATM    5  O1  UNL     1      -5.854  15.341  26.977  1.00  0.00    -0.273 OA
HETATM    6  N4  UNL     1      -7.720  13.963  26.826  1.00  0.00    -0.270 N 
HETATM    7  C16 UNL     1      -8.488  12.988  27.515  1.00  0.00     0.327 C 
HETATM    8  O2  UNL     1      -9.391  12.308  26.953  1.00  0.00    -0.247 OA
ENDROOT
BRANCH   1   9
HETATM    9  C7  UNL     1      -9.289  12.156  29.728  1.00  0.00     0.157 C 
BRANCH   9  10
HETATM   10  C6  UNL     1      -9.347  12.497  31.156  1.00  0.00     0.131 C 
HETATM   11  C3  UNL     1     -10.198  13.594  31.652  1.00  0.00    -0.041 C 
HETATM   12  C4  UNL     1     -11.622  13.461  31.215  1.00  0.00     0.093 C 
HETATM   13  N1  UNL     1     -12.075  12.136  31.152  1.00  0.00    -0.362 N 
HETATM   14  C5  UNL     1     -11.218  11.048  31.361  1.00  0.00     0.176 C 
ATOM     15  H1  UNL     1     -13.058  11.959  30.947  1.00  0.00     0.165 HD
HETATM   16  N2  UNL     1      -9.894  11.287  31.829  1.00  0.00    -0.376 N 
ATOM     17  H2  UNL     1      -9.399  10.719  32.516  1.00  0.00     0.161 HD
BRANCH  11  18
HETATM   18  C2  UNL     1      -9.642  14.971  31.628  1.00  0.00     0.033 C 
HETATM   19  C1  UNL     1     -10.469  15.748  30.582  1.00  0.00     0.010 C 
ENDBRANCH  11  18
ENDBRANCH   9  10
ENDBRANCH   1   9
BRANCH   6  20
HETATM   20  C11 UNL     1      -7.976  14.185  25.445  1.00  0.00     0.137 C 
BRANCH  20  21
HETATM   21  C12 UNL     1      -8.953  15.294  25.166  1.00  0.00     0.024 C 
BRANCH  21  22
HETATM   22  C13 UNL     1      -8.235  16.445  24.495  1.00  0.00    -0.021 C 
HETATM   23  C14 UNL     1      -8.880  16.820  23.176  1.00  0.00     0.009 C 
HETATM   24  C15 UNL     1      -8.239  17.676  25.368  1.00  0.00     0.009 C 
ENDBRANCH  21  22
ENDBRANCH  20  21
ENDBRANCH   6  20
TORSDOF 6
ENDMDL
MODEL 4
REMARK VINA RESULT: -5.704787257      1.763      2.323
REMARK  6 active torsions:
REMARK  status: ('A' for Active; 'I' for Inactive)
REMARK    1  A    between atoms: C2_2  and  C3_3 
REMARK    2  A    between atoms: C6_10  and  C7_11 
REMARK    3  A    between atoms: C7_11  and  N3_12 
REMARK    4  A    between atoms: N4_17  and  C11_18 
REMARK    5  A    between atoms: C11_18  and  C12_19 
REMARK    6  A    between atoms: C12_19  and  C13_20 
ROOT
HETATM    1  N3  UNL     1      -8.618  12.183  29.234  1.00  0.00    -0.331 N 
HETATM    2  C8  UNL     1      -8.822  13.039  30.375  1.00  0.00     0.137 C 
HETATM    3  C9  UNL     1      -9.653  14.243  29.905  1.00  0.00     0.123 C 
HETATM    4  C10 UNL     1      -8.886  14.964  28.884  1.00  0.00     0.229 C 
HETATM    5  O1  UNL     1      -8.810  16.213  28.918  1.00  0.00    -0.273 OA
HETATM    6  N4  UNL     1      -8.237  14.221  27.863  1.00  0.00    -0.270 N 
HETATM    7  C16 UNL     1      -8.106  12.819  28.047  1.00  0.00     0.327 C 
HETATM    8  O2  UNL     1      -7.546  12.070  27.200  1.00  0.00    -0.247 OA
ENDROOT
BRANCH   1   9
HETATM    9  C7  UNL     1      -8.945  10.791  29.235  1.00  0.00     0.157 C 
BRANCH   9  10
HETATM   10  C6  UNL     1      -8.466   9.942  30.334  1.00  0.00     0.131 C 
HETATM   11  C3  UNL     1      -8.902   8.540  30.471  1.00  0.00    -0.041 C 
HETATM   12  C4  UNL     1      -8.678   7.744  29.224  1.00  0.00     0.093 C 
HETATM   13  N1  UNL     1      -7.516   8.100  28.525  1.00  0.00    -0.362 N 
HETATM   14  C5  UNL     1      -6.723   9.188  28.909  1.00  0.00     0.176 C 
ATOM     15  H1  UNL     1      -7.241   7.549  27.712  1.00  0.00     0.165 HD
HETATM   16  N2  UNL     1      -6.993   9.843  30.145  1.00  0.00    -0.376 N 
ATOM     17  H2  UNL     1      -6.289  10.189  30.796  1.00  0.00     0.161 HD
BRANCH  11  18
HETATM   18  C2  UNL     1     -10.176   8.274  31.185  1.00  0.00     0.033 C 
HETATM   19  C1  UNL     1     -10.542   6.807  30.876  1.00  0.00     0.010 C 
ENDBRANCH  11  18
ENDBRANCH   9  10
ENDBRANCH   1   9
BRANCH   6  20
HETATM   20  C11 UNL     1      -7.717  14.808  26.677  1.00  0.00     0.137 C 
BRANCH  20  21
HETATM   21  C12 UNL     1      -8.744  15.052  25.605  1.00  0.00     0.024 C 
BRANCH  21  22
HETATM   22  C13 UNL     1      -8.240  16.116  24.655  1.00  0.00    -0.021 C 
HETATM   23  C14 UNL     1      -9.059  16.167  23.380  1.00  0.00     0.009 C 
HETATM   24  C15 UNL     1      -8.299  17.487  25.286  1.00  0.00     0.009 C 
ENDBRANCH  21  22
ENDBRANCH  20  21
ENDBRANCH   6  20
TORSDOF 6
ENDMDL
MODEL 5
REMARK VINA RESULT: -5.698521297      2.914      4.597
REMARK  6 active torsions:
REMARK  status: ('A' for Active; 'I' for Inactive)
REMARK    1  A    between atoms: C2_2  and  C3_3 
REMARK    2  A    between atoms: C6_10  and  C7_11 
REMARK    3  A    between atoms: C7_11  and  N3_12 
REMARK    4  A    between atoms: N4_17  and  C11_18 
REMARK    5  A    between atoms: C11_18  and  C12_19 
REMARK    6  A    between atoms: C12_19  and  C13_20 
ROOT
HETATM    1  N3  UNL     1      -9.689  13.807  29.477  1.00  0.00    -0.331 N 
HETATM    2  C8  UNL     1     -10.186  12.508  29.097  1.00  0.00     0.137 C 
HETATM    3  C9  UNL     1      -9.031  11.753  28.422  1.00  0.00     0.123 C 
HETATM    4  C10 UNL     1      -8.633  12.495  27.220  1.00  0.00     0.229 C 
HETATM    5  O1  UNL     1      -8.427  11.888  26.145  1.00  0.00    -0.273 OA
HETATM    6  N4  UNL     1      -8.490  13.904  27.302  1.00  0.00    -0.270 N 
HETATM    7  C16 UNL     1      -9.025  14.559  28.443  1.00  0.00     0.327 C 
HETATM    8  O2  UNL     1      -8.949  15.807  28.610  1.00  0.00    -0.247 OA
ENDROOT
BRANCH   1   9
HETATM    9  C7  UNL     1      -9.790  14.322  30.806  1.00  0.00     0.157 C 
BRANCH   9  10
HETATM   10  C6  UNL     1     -11.098  14.766  31.307  1.00  0.00     0.131 C 
HETATM   11  C3  UNL     1     -11.408  14.775  32.749  1.00  0.00    -0.041 C 
HETATM   12  C4  UNL     1     -10.397  15.530  33.550  1.00  0.00     0.093 C 
HETATM   13  N1  UNL     1      -9.874  16.652  32.893  1.00  0.00    -0.362 N 
HETATM   14  C5  UNL     1     -10.192  16.946  31.561  1.00  0.00     0.176 C 
ATOM     15  H1  UNL     1      -9.244  17.273  33.400  1.00  0.00     0.165 HD
HETATM   16  N2  UNL     1     -11.211  16.196  30.907  1.00  0.00    -0.376 N 
ATOM     17  H2  UNL     1     -11.907  16.577  30.267  1.00  0.00     0.161 HD
BRANCH  11  18
HETATM   18  C2  UNL     1     -11.907  13.517  33.361  1.00  0.00     0.033 C 
HETATM   19  C1  UNL     1     -12.780  13.941  34.560  1.00  0.00     0.010 C 
ENDBRANCH  11  18
ENDBRANCH   9  10
ENDBRANCH   1   9
BRANCH   6  20
HETATM   20  C11 UNL     1      -7.842  14.685  26.305  1.00  0.00     0.137 C 
BRANCH  20  21
HETATM   21  C12 UNL     1      -8.751  15.161  25.205  1.00  0.00     0.024 C 
BRANCH  21  22
HETATM   22  C13 UNL     1      -8.173  16.409  24.575  1.00  0.00    -0.021 C 
HETATM   23  C14 UNL     1      -8.877  16.767  23.281  1.00  0.00     0.009 C 
HETATM   24  C15 UNL     1      -8.294  17.596  25.501  1.00  0.00     0.009 C 
ENDBRANCH  21  22
ENDBRANCH  20  21
ENDBRANCH   6  20
TORSDOF 6
ENDMDL
