MODEL 1
REMARK VINA RESULT: -5.679417806      0.000      0.000
REMARK  7 active torsions:
REMARK  status: ('A' for Active; 'I' for Inactive)
REMARK    1  A    between atoms: C2_2  and  C3_3 
REMARK    2  A    between atoms: C3_3  and  C4_4 
REMARK    3  A    between atoms: C3_3  and  N1_7 
REMARK    4  A    between atoms: C4_4  and  O1_5 
REMARK    5  A    between atoms: N1_7  and  C5_9 
REMARK    6  A    between atoms: C5_9  and  C6_10 
REMARK    7  A    between atoms: C5_9  and  C14_21 
ROOT
HETATM    1  C5  UNL     1      -8.740  14.793  28.954  1.00  0.00     0.041 C 
ENDROOT
BRANCH   1   2
HETATM    2  N1  UNL     1      -8.616  13.401  29.115  1.00  0.00    -0.383 N 
ATOM      3  H1  UNL     1      -7.992  13.078  29.854  1.00  0.00     0.160 HD
BRANCH   2   4
HETATM    4  C3  UNL     1      -9.249  12.439  28.378  1.00  0.00     0.105 C 
BRANCH   4   5
HETATM    5  C2  UNL     1      -9.815  11.393  29.395  1.00  0.00     0.023 C 
HETATM    6  C1  UNL     1     -11.088  11.915  29.971  1.00  0.00     0.007 C 
ENDBRANCH   4   5
BRANCH   4   7
HETATM    7  C4  UNL     1      -8.358  11.559  27.496  1.00  0.00     0.189 C 
BRANCH   7   8
HETATM    8  O1  UNL     1      -8.394  11.900  26.168  1.00  0.00    -0.399 OA
ATOM      9  H1  UNL     1      -7.672  11.542  25.665  1.00  0.00     0.209 HD
ENDBRANCH   7   8
ENDBRANCH   4   7
ENDBRANCH   2   4
ENDBRANCH   1   2
BRANCH   1  10
HETATM   10  C6  UNL     1      -8.113  15.267  27.701  1.00  0.00     0.002 A 
HETATM   11  C7  UNL     1      -8.774  15.620  26.596  1.00  0.00     0.023 A 
HETATM   12  C8  UNL     1      -7.887  16.042  25.514  1.00  0.00     0.138 A 
HETATM   13  C9  UNL     1      -8.120  17.470  25.143  1.00  0.00     0.050 C 
HETATM   14  C10 UNL     1      -8.108  15.146  24.313  1.00  0.00     0.050 C 
HETATM   15  N2  UNL     1      -6.546  15.894  26.041  1.00  0.00    -0.051 N 
HETATM   16  C11 UNL     1      -6.656  15.452  27.388  1.00  0.00     0.148 A 
ATOM     17  H22 UNL     1      -5.962  15.284  25.470  1.00  0.00     0.279 HD
ATOM     18  H21 UNL     1      -5.988  16.742  25.946  1.00  0.00     0.279 HD
HETATM   19  C12 UNL     1      -6.110  16.572  28.314  1.00  0.00     0.051 C 
HETATM   20  C13 UNL     1      -5.774  14.295  27.629  1.00  0.00     0.051 C 
ENDBRANCH   1  10
BRANCH   1  21
HETATM   21  C14 UNL     1      -8.887  15.685  30.103  1.00  0.00    -0.023 C 
HETATM   22  C15 UNL     1      -9.600  15.052  31.314  1.00  0.00     0.068 C 
HETATM   23  C16 UNL     1     -10.729  16.037  31.572  1.00  0.00     0.276 C 
HETATM   24  N3  UNL     1     -10.340  17.303  31.025  1.00  0.00     0.088 N 
HETATM   25  C17 UNL     1      -9.940  18.241  32.058  1.00  0.00     0.310 C 
HETATM   26  C18 UNL     1      -9.293  17.077  30.039  1.00  0.00     0.308 C 
ENDBRANCH   1  21
TORSDOF 7
ENDMDL
MODEL 2
REMARK VINA RESULT: -5.671478415      1.926      3.946
REMARK  7 active torsions:
REMARK  status: ('A' for Active; 'I' for Inactive)
REMARK    1  A    between atoms: C2_2  and  C3_3 
REMARK    2  A    between atoms: C3_3  and  C4_4 
REMARK    3  A    between atoms: C3_3  and  N1_7 
REMARK    4  A    between atoms: C4_4  and  O1_5 
REMARK    5  A    between atoms: N1_7  and  C5_9 
REMARK    6  A    between atoms: C5_9  and  C6_10 
REMARK    7  A    between atoms: C5_9  and  C14_21 
ROOT
HETATM    1  C5  UNL     1      -8.916  14.034  28.735  1.00  0.00     0.041 C 
ENDROOT
BRANCH   1   2
HETATM    2  N1  UNL     1      -9.874  14.854  29.358  1.00  0.00    -0.383 N 
ATOM      3  H1  UNL     1     -10.660  15.159  28.784  1.00  0.00     0.160 HD
BRANCH   2   4
HETATM    4  C3  UNL     1      -9.855  15.284  30.656  1.00  0.00     0.105 C 
BRANCH   4   5
HETATM    5  C2  UNL     1      -8.564  14.690  31.308  1.00  0.00     0.023 C 
HETATM    6  C1  UNL     1      -8.952  13.823  32.458  1.00  0.00     0.007 C 
ENDBRANCH   4   5
BRANCH   4   7
HETATM    7  C4  UNL     1     -10.947  14.726  31.574  1.00  0.00     0.189 C 
BRANCH   7   8
HETATM    8  O1  UNL     1     -12.117  14.433  30.920  1.00  0.00    -0.399 OA
ATOM      9  H1  UNL     1     -12.544  13.647  31.240  1.00  0.00     0.209 HD
ENDBRANCH   7   8
ENDBRANCH   4   7
ENDBRANCH   2   4
ENDBRANCH   1   2
BRANCH   1  10
HETATM   10  C6  UNL     1      -8.219  14.730  27.633  1.00  0.00     0.002 A 
HETATM   11  C7  UNL     1      -8.789  15.136  26.495  1.00  0.00     0.023 A 
HETATM   12  C8  UNL     1      -7.848  15.791  25.589  1.00  0.00     0.138 A 
HETATM   13  C9  UNL     1      -8.226  17.216  25.348  1.00  0.00     0.050 C 
HETATM   14  C10 UNL     1      -7.808  15.030  24.280  1.00  0.00     0.050 C 
HETATM   15  N2  UNL     1      -6.569  15.740  26.267  1.00  0.00    -0.051 N 
HETATM   16  C11 UNL     1      -6.772  15.125  27.533  1.00  0.00     0.148 A 
ATOM     17  H22 UNL     1      -5.847  15.279  25.714  1.00  0.00     0.279 HD
ATOM     18  H21 UNL     1      -6.122  16.654  26.338  1.00  0.00     0.279 HD
HETATM   19  C12 UNL     1      -6.491  16.179  28.637  1.00  0.00     0.051 C 
HETATM   20  C13 UNL     1      -5.778  14.060  27.759  1.00  0.00     0.051 C 
ENDBRANCH   1  10
BRANCH   1  21
HETATM   21  C14 UNL     1      -9.034  12.577  28.746  1.00  0.00    -0.023 C 
HETATM   22  C15 UNL     1     -10.464  12.055  28.988  1.00  0.00     0.068 C 
HETATM   23  C16 UNL     1     -10.270  11.127  30.177  1.00  0.00     0.276 C 
HETATM   24  N3  UNL     1      -8.897  10.712  30.189  1.00  0.00     0.088 N 
HETATM   25  C17 UNL     1      -8.740   9.347  29.720  1.00  0.00     0.310 C 
HETATM   26  C18 UNL     1      -8.120  11.665  29.409  1.00  0.00     0.308 C 
ENDBRANCH   1  21
TORSDOF 7
ENDMDL
MODEL 3
REMARK VINA RESULT: -5.661309921      1.863      4.008
REMARK  7 active torsions:
REMARK  status: ('A' for Active; 'I' for Inactive)
REMARK    1  A    between atoms: C2_2  and  C3_3 
REMARK    2  A    between atoms: C3_3  and  C4_4 
REMARK    3  A    between atoms: C3_3  and  N1_7 
REMARK    4  A    between atoms: C4_4  and  O1_5 
REMARK    5  A    between atoms: N1_7  and  C5_9 
REMARK    6  A    between atoms: C5_9  and  C6_10 
REMARK    7  A    between atoms: C5_9  and  C14_21 
ROOT
HETATM    1  C5  UNL     1      -8.232  14.230  29.451  1.00  0.00     0.041 C 
ENDROOT
BRANCH   1   2
HETATM    2  N1  UNL     1      -8.849  15.162  30.306  1.00  0.00    -0.383 N 
ATOM      3  H1  UNL     1      -8.247  15.640  30.975  1.00  0.00     0.160 HD
BRANCH   2   4
HETATM    4  C3  UNL     1     -10.177  15.490  30.326  1.00  0.00     0.105 C 
BRANCH   4   5
HETATM    5  C2  UNL     1     -10.261  16.998  30.732  1.00  0.00     0.023 C 
HETATM    6  C1  UNL     1      -9.066  17.714  30.199  1.00  0.00     0.007 C 
ENDBRANCH   4   5
BRANCH   4   7
HETATM    7  C4  UNL     1     -11.026  14.831  31.417  1.00  0.00     0.189 C 
BRANCH   7   8
HETATM    8  O1  UNL     1     -12.220  14.335  30.958  1.00  0.00    -0.399 OA
ATOM      9  H1  UNL     1     -12.841  14.140  31.650  1.00  0.00     0.209 HD
ENDBRANCH   7   8
ENDBRANCH   4   7
ENDBRANCH   2   4
ENDBRANCH   1   2
BRANCH   1  10
HETATM   10  C6  UNL     1      -7.789  14.846  28.183  1.00  0.00     0.002 A 
HETATM   11  C7  UNL     1      -8.597  15.261  27.204  1.00  0.00     0.023 A 
HETATM   12  C8  UNL     1      -7.872  15.824  26.067  1.00  0.00     0.138 A 
HETATM   13  C9  UNL     1      -8.208  17.265  25.866  1.00  0.00     0.050 C 
HETATM   14  C10 UNL     1      -8.206  15.028  24.823  1.00  0.00     0.050 C 
HETATM   15  N2  UNL     1      -6.471  15.700  26.411  1.00  0.00    -0.051 N 
HETATM   16  C11 UNL     1      -6.391  15.134  27.714  1.00  0.00     0.148 A 
ATOM     17  H22 UNL     1      -5.938  15.174  25.717  1.00  0.00     0.279 HD
ATOM     18  H21 UNL     1      -5.964  16.581  26.330  1.00  0.00     0.279 HD
HETATM   19  C12 UNL     1      -5.779  16.194  28.668  1.00  0.00     0.051 C 
HETATM   20  C13 UNL     1      -5.440  14.008  27.734  1.00  0.00     0.051 C 
ENDBRANCH   1  10
BRANCH   1  21
HETATM   21  C14 UNL     1      -8.544  12.804  29.525  1.00  0.00    -0.023 C 
HETATM   22  C15 UNL     1      -9.692  12.353  28.599  1.00  0.00     0.068 C 
HETATM   23  C16 UNL     1     -10.638  11.669  29.574  1.00  0.00     0.276 C 
HETATM   24  N3  UNL     1      -9.870  11.249  30.709  1.00  0.00     0.088 N 
HETATM   25  C17 UNL     1      -9.626   9.818  30.699  1.00  0.00     0.310 C 
HETATM   26  C18 UNL     1      -8.639  12.026  30.746  1.00  0.00     0.308 C 
ENDBRANCH   1  21
TORSDOF 7
ENDMDL
MODEL 4
REMARK VINA RESULT: -5.658991639      2.695      5.140
REMARK  7 active torsions:
REMARK  status: ('A' for Active; 'I' for Inactive)
REMARK    1  A    between atoms: C2_2  and  C3_3 
REMARK    2  A    between atoms: C3_3  and  C4_4 
REMARK    3  A    between atoms: C3_3  and  N1_7 
REMARK    4  A    between atoms: C4_4  and  O1_5 
REMARK    5  A    between atoms: N1_7  and  C5_9 
REMARK    6  A    between atoms: C5_9  and  C6_10 
REMARK    7  A    between atoms: C5_9  and  C14_21 
ROOT
HETATM    1  C5  UNL     1      -7.715  16.224  27.751  1.00  0.00     0.041 C 
ENDROOT
BRANCH   1   2
HETATM    2  N1  UNL     1      -7.998  17.152  28.770  1.00  0.00    -0.383 N 
ATOM      3  H1  UNL     1      -7.744  18.123  28.590  1.00  0.00     0.160 HD
BRANCH   2   4
HETATM    4  C3  UNL     1      -8.579  16.880  29.978  1.00  0.00     0.105 C 
BRANCH   4   5
HETATM    5  C2  UNL     1      -9.493  15.629  29.766  1.00  0.00     0.023 C 
HETATM    6  C1  UNL     1     -10.660  15.716  30.690  1.00  0.00     0.007 C 
ENDBRANCH   4   5
BRANCH   4   7
HETATM    7  C4  UNL     1      -9.586  17.911  30.497  1.00  0.00     0.189 C 
BRANCH   7   8
HETATM    8  O1  UNL     1      -9.392  19.170  29.989  1.00  0.00    -0.399 OA
ATOM      9  H1  UNL     1      -9.563  19.863  30.616  1.00  0.00     0.209 HD
ENDBRANCH   7   8
ENDBRANCH   4   7
ENDBRANCH   2   4
ENDBRANCH   1   2
BRANCH   1  10
HETATM   10  C6  UNL     1      -6.334  15.704  27.839  1.00  0.00     0.002 A 
HETATM   11  C7  UNL     1      -5.240  16.348  27.426  1.00  0.00     0.023 A 
HETATM   12  C8  UNL     1      -4.014  15.582  27.638  1.00  0.00     0.138 A 
HETATM   13  C9  UNL     1      -3.092  16.278  28.584  1.00  0.00     0.050 C 
HETATM   14  C10 UNL     1      -3.330  15.362  26.305  1.00  0.00     0.050 C 
HETATM   15  N2  UNL     1      -4.445  14.328  28.221  1.00  0.00    -0.051 N 
HETATM   16  C11 UNL     1      -5.857  14.388  28.385  1.00  0.00     0.148 A 
ATOM     17  H22 UNL     1      -4.143  13.516  27.682  1.00  0.00     0.279 HD
ATOM     18  H21 UNL     1      -3.955  14.105  29.087  1.00  0.00     0.279 HD
HETATM   19  C12 UNL     1      -6.172  14.362  29.905  1.00  0.00     0.051 C 
HETATM   20  C13 UNL     1      -6.495  13.175  27.842  1.00  0.00     0.051 C 
ENDBRANCH   1  10
BRANCH   1  21
HETATM   21  C14 UNL     1      -8.426  16.251  26.474  1.00  0.00    -0.023 C 
HETATM   22  C15 UNL     1      -8.584  14.873  25.802  1.00  0.00     0.068 C 
HETATM   23  C16 UNL     1      -7.988  15.118  24.425  1.00  0.00     0.276 C 
HETATM   24  N3  UNL     1      -8.071  16.523  24.155  1.00  0.00     0.088 N 
HETATM   25  C17 UNL     1      -9.133  16.832  23.214  1.00  0.00     0.310 C 
HETATM   26  C18 UNL     1      -8.222  17.228  25.420  1.00  0.00     0.308 C 
ENDBRANCH   1  21
TORSDOF 7
ENDMDL
MODEL 5
REMARK VINA RESULT: -5.581077664      2.416      5.288
REMARK  7 active torsions:
REMARK  status: ('A' for Active; 'I' for Inactive)
REMARK    1  A    between atoms: C2_2  and  C3_3 
REMARK    2  A    between atoms: C3_3  and  C4_4 
REMARK    3  A    between atoms: C3_3  and  N1_7 
REMARK    4  A    between atoms: C4_4  and  O1_5 
REMARK    5  A    between atoms: N1_7  and  C5_9 
REMARK    6  A    between atoms: C5_9  and  C6_10 
REMARK    7  A    between atoms: C5_9  and  C14_21 
ROOT
HETATM    1  C5  UNL     1      -7.118  14.448  26.840  1.00  0.00     0.041 C 
ENDROOT
BRANCH   1   2
HETATM    2  N1  UNL     1      -7.800  14.379  25.612  1.00  0.00    -0.383 N 
ATOM      3  H1  UNL     1      -8.504  13.647  25.518  1.00  0.00     0.160 HD
BRANCH   2   4
HETATM    4  C3  UNL     1      -7.613  15.196  24.531  1.00  0.00     0.105 C 
BRANCH   4   5
HETATM    5  C2  UNL     1      -8.800  16.215  24.527  1.00  0.00     0.023 C 
HETATM    6  C1  UNL     1      -8.306  17.539  25.007  1.00  0.00     0.007 C 
ENDBRANCH   4   5
BRANCH   4   7
HETATM    7  C4  UNL     1      -7.762  14.547  23.151  1.00  0.00     0.189 C 
BRANCH   7   8
HETATM    8  O1  UNL     1      -8.181  15.419  22.178  1.00  0.00    -0.399 OA
ATOM      9  H1  UNL     1      -7.514  15.613  21.530  1.00  0.00     0.209 HD
ENDBRANCH   7   8
ENDBRANCH   4   7
ENDBRANCH   2   4
ENDBRANCH   1   2
BRANCH   1  10
HETATM   10  C6  UNL     1      -7.823  13.715  27.911  1.00  0.00     0.002 A 
HETATM   11  C7  UNL     1      -9.083  13.935  28.295  1.00  0.00     0.023 A 
HETATM   12  C8  UNL     1      -9.509  13.058  29.383  1.00  0.00     0.138 A 
HETATM   13  C9  UNL     1     -10.638  12.175  28.963  1.00  0.00     0.050 C 
HETATM   14  C10 UNL     1      -9.918  13.904  30.571  1.00  0.00     0.050 C 
HETATM   15  N2  UNL     1      -8.351  12.244  29.691  1.00  0.00    -0.051 N 
HETATM   16  C11 UNL     1      -7.314  12.603  28.784  1.00  0.00     0.148 A 
ATOM     17  H22 UNL     1      -8.065  12.316  30.668  1.00  0.00     0.279 HD
ATOM     18  H21 UNL     1      -8.555  11.246  29.683  1.00  0.00     0.279 HD
HETATM   19  C12 UNL     1      -7.021  11.381  27.874  1.00  0.00     0.051 C 
HETATM   20  C13 UNL     1      -6.054  12.852  29.507  1.00  0.00     0.051 C 
ENDBRANCH   1  10
BRANCH   1  21
HETATM   21  C14 UNL     1      -6.225  15.562  27.155  1.00  0.00    -0.023 C 
HETATM   22  C15 UNL     1      -4.729  15.263  26.931  1.00  0.00     0.068 C 
HETATM   23  C16 UNL     1      -4.128  15.602  28.286  1.00  0.00     0.276 C 
HETATM   24  N3  UNL     1      -5.011  16.523  28.940  1.00  0.00     0.088 N 
HETATM   25  C17 UNL     1      -4.494  17.880  28.916  1.00  0.00     0.310 C 
HETATM   26  C18 UNL     1      -6.327  16.415  28.325  1.00  0.00     0.308 C 
ENDBRANCH   1  21
TORSDOF 7
ENDMDL
