MODEL 1
REMARK VINA RESULT: -6.239964298      0.000      0.000
REMARK  6 active torsions:
REMARK  status: ('A' for Active; 'I' for Inactive)
REMARK    1  A    between atoms: C2_2  and  N1_4 
REMARK       I    between atoms: C4_6  and  N2_7 
REMARK       I    between atoms: C4_6  and  N4_18 
REMARK    2  A    between atoms: N2_7  and  C5_9 
REMARK    3  A    between atoms: C5_9  and  C6_10 
REMARK    4  A    between atoms: C6_10  and  C7_11 
REMARK    5  A    between atoms: C7_11  and  N3_12 
REMARK    6  A    between atoms: N4_18  and  C12_20 
ROOT
HETATM    1  N1  UNL     1      -5.861  13.470  27.681  1.00  0.00    -0.223 N 
ATOM      2  H1  UNL     1      -6.189  12.698  27.100  1.00  0.00     0.178 HD
HETATM    3  C4  UNL     1      -6.525  14.537  27.626  1.00  0.00     0.670 C 
HETATM    4  N2  UNL     1      -6.211  15.702  28.364  1.00  0.00    -0.227 N 
ATOM      5  H2  UNL     1      -5.405  16.272  28.109  1.00  0.00     0.177 HD
HETATM    6  N4  UNL     1      -7.681  14.636  26.774  1.00  0.00    -0.222 N 
ATOM      7  H4  UNL     1      -8.510  14.062  26.928  1.00  0.00     0.178 HD
ENDROOT
BRANCH   1   8
HETATM    8  C2  UNL     1      -4.695  13.222  28.470  1.00  0.00     0.091 C 
HETATM    9  C1  UNL     1      -4.657  11.742  28.812  1.00  0.00     0.032 C 
HETATM   10  C3  UNL     1      -3.415  13.549  27.685  1.00  0.00     0.032 C 
ENDBRANCH   1   8
BRANCH   4  11
HETATM   11  C5  UNL     1      -7.047  16.076  29.486  1.00  0.00     0.140 C 
BRANCH  11  12
HETATM   12  C6  UNL     1      -7.578  14.901  30.259  1.00  0.00     0.050 C 
BRANCH  12  13
HETATM   13  C7  UNL     1      -8.995  15.126  30.632  1.00  0.00     0.274 C 
BRANCH  13  14
HETATM   14  N3  UNL     1      -9.813  13.963  30.650  1.00  0.00     0.092 N 
HETATM   15  C8  UNL     1     -11.150  14.078  31.078  1.00  0.00     0.298 C 
HETATM   16  C9  UNL     1     -11.707  12.646  31.177  1.00  0.00     0.198 C 
HETATM   17  O1  UNL     1     -11.714  12.120  29.913  1.00  0.00    -0.388 OA
HETATM   18  C10 UNL     1     -10.450  11.988  29.344  1.00  0.00     0.198 C 
HETATM   19  C11 UNL     1      -9.666  13.276  29.415  1.00  0.00     0.298 C 
ENDBRANCH  13  14
ENDBRANCH  12  13
ENDBRANCH  11  12
ENDBRANCH   4  11
BRANCH   6  20
HETATM   20  C12 UNL     1      -7.611  15.585  25.695  1.00  0.00     0.099 C 
HETATM   21  C13 UNL     1      -7.779  14.966  24.326  1.00  0.00     0.026 C 
HETATM   22  C14 UNL     1      -8.869  15.644  23.530  1.00  0.00     0.002 C 
HETATM   23  C15 UNL     1      -8.799  17.129  23.528  1.00  0.00     0.000 C 
HETATM   24  C16 UNL     1      -8.190  17.737  24.770  1.00  0.00     0.002 C 
HETATM   25  C17 UNL     1      -8.495  16.787  25.918  1.00  0.00     0.026 C 
ENDBRANCH   6  20
TORSDOF 6
ENDMDL
MODEL 2
REMARK VINA RESULT: -6.236286919      4.874      6.987
REMARK  6 active torsions:
REMARK  status: ('A' for Active; 'I' for Inactive)
REMARK    1  A    between atoms: C2_2  and  N1_4 
REMARK       I    between atoms: C4_6  and  N2_7 
REMARK       I    between atoms: C4_6  and  N4_18 
REMARK    2  A    between atoms: N2_7  and  C5_9 
REMARK    3  A    between atoms: C5_9  and  C6_10 
REMARK    4  A    between atoms: C6_10  and  C7_11 
REMARK    5  A    between atoms: C7_11  and  N3_12 
REMARK    6  A    between atoms: N4_18  and  C12_20 
ROOT
HETATM    1  N1  UNL     1      -4.991  14.624  27.428  1.00  0.00    -0.223 N 
ATOM      2  H1  UNL     1      -5.355  13.674  27.496  1.00  0.00     0.178 HD
HETATM    3  C4  UNL     1      -5.838  15.554  27.449  1.00  0.00     0.670 C 
HETATM    4  N2  UNL     1      -5.507  16.926  27.365  1.00  0.00    -0.227 N 
ATOM      5  H2  UNL     1      -5.192  17.328  26.483  1.00  0.00     0.177 HD
HETATM    6  N4  UNL     1      -7.243  15.261  27.558  1.00  0.00    -0.222 N 
ATOM      7  H4  UNL     1      -7.632  14.810  28.387  1.00  0.00     0.178 HD
ENDROOT
BRANCH   1   8
HETATM    8  C2  UNL     1      -3.572  14.756  27.319  1.00  0.00     0.091 C 
HETATM    9  C1  UNL     1      -2.945  13.397  27.581  1.00  0.00     0.032 C 
HETATM   10  C3  UNL     1      -3.163  15.190  25.902  1.00  0.00     0.032 C 
ENDBRANCH   1   8
BRANCH   4  11
HETATM   11  C5  UNL     1      -5.622  17.755  28.548  1.00  0.00     0.140 C 
BRANCH  11  12
HETATM   12  C6  UNL     1      -4.427  18.635  28.785  1.00  0.00     0.050 C 
BRANCH  12  13
HETATM   13  C7  UNL     1      -4.298  19.634  27.698  1.00  0.00     0.274 C 
BRANCH  13  14
HETATM   14  N3  UNL     1      -3.146  20.465  27.766  1.00  0.00     0.092 N 
HETATM   15  C8  UNL     1      -1.910  19.888  28.118  1.00  0.00     0.298 C 
HETATM   16  C9  UNL     1      -0.916  21.049  28.300  1.00  0.00     0.198 C 
HETATM   17  O1  UNL     1      -0.765  21.656  27.082  1.00  0.00    -0.388 OA
HETATM   18  C10 UNL     1      -1.929  22.239  26.588  1.00  0.00     0.198 C 
HETATM   19  C11 UNL     1      -3.088  21.271  26.597  1.00  0.00     0.298 C 
ENDBRANCH  13  14
ENDBRANCH  12  13
ENDBRANCH  11  12
ENDBRANCH   4  11
BRANCH   6  20
HETATM   20  C12 UNL     1      -8.071  15.633  26.443  1.00  0.00     0.099 C 
HETATM   21  C13 UNL     1      -8.471  17.091  26.440  1.00  0.00     0.026 C 
HETATM   22  C14 UNL     1      -8.129  17.767  25.133  1.00  0.00     0.002 C 
HETATM   23  C15 UNL     1      -8.544  17.014  23.921  1.00  0.00     0.000 C 
HETATM   24  C16 UNL     1      -8.572  15.512  24.086  1.00  0.00     0.002 C 
HETATM   25  C17 UNL     1      -7.513  15.165  25.122  1.00  0.00     0.026 C 
ENDBRANCH   6  20
TORSDOF 6
ENDMDL
MODEL 3
REMARK VINA RESULT: -6.199208251      4.449      6.545
REMARK  6 active torsions:
REMARK  status: ('A' for Active; 'I' for Inactive)
REMARK    1  A    between atoms: C2_2  and  N1_4 
REMARK       I    between atoms: C4_6  and  N2_7 
REMARK       I    between atoms: C4_6  and  N4_18 
REMARK    2  A    between atoms: N2_7  and  C5_9 
REMARK    3  A    between atoms: C5_9  and  C6_10 
REMARK    4  A    between atoms: C6_10  and  C7_11 
REMARK    5  A    between atoms: C7_11  and  N3_12 
REMARK    6  A    between atoms: N4_18  and  C12_20 
ROOT
HETATM    1  N1  UNL     1      -5.087  14.544  27.346  1.00  0.00    -0.223 N 
ATOM      2  H1  UNL     1      -5.406  13.577  27.294  1.00  0.00     0.178 HD
HETATM    3  C4  UNL     1      -5.979  15.427  27.428  1.00  0.00     0.670 C 
HETATM    4  N2  UNL     1      -5.713  16.814  27.507  1.00  0.00    -0.227 N 
ATOM      5  H2  UNL     1      -5.382  17.323  26.688  1.00  0.00     0.177 HD
HETATM    6  N4  UNL     1      -7.372  15.062  27.440  1.00  0.00    -0.222 N 
ATOM      7  H4  UNL     1      -7.772  14.507  28.196  1.00  0.00     0.178 HD
ENDROOT
BRANCH   1   8
HETATM    8  C2  UNL     1      -3.673  14.750  27.317  1.00  0.00     0.091 C 
HETATM    9  C1  UNL     1      -2.992  13.424  27.611  1.00  0.00     0.032 C 
HETATM   10  C3  UNL     1      -3.208  15.212  25.927  1.00  0.00     0.032 C 
ENDBRANCH   1   8
BRANCH   4  11
HETATM   11  C5  UNL     1      -5.917  17.503  28.765  1.00  0.00     0.140 C 
BRANCH  11  12
HETATM   12  C6  UNL     1      -4.762  18.376  29.167  1.00  0.00     0.050 C 
BRANCH  12  13
HETATM   13  C7  UNL     1      -4.023  18.837  27.967  1.00  0.00     0.274 C 
BRANCH  13  14
HETATM   14  N3  UNL     1      -3.572  20.186  28.010  1.00  0.00     0.092 N 
HETATM   15  C8  UNL     1      -3.424  20.892  26.800  1.00  0.00     0.298 C 
HETATM   16  C9  UNL     1      -2.744  22.228  27.149  1.00  0.00     0.198 C 
HETATM   17  O1  UNL     1      -3.605  22.933  27.945  1.00  0.00    -0.388 OA
HETATM   18  C10 UNL     1      -3.878  22.325  29.168  1.00  0.00     0.198 C 
HETATM   19  C11 UNL     1      -4.313  20.890  28.995  1.00  0.00     0.298 C 
ENDBRANCH  13  14
ENDBRANCH  12  13
ENDBRANCH  11  12
ENDBRANCH   4  11
BRANCH   6  20
HETATM   20  C12 UNL     1      -8.171  15.517  26.334  1.00  0.00     0.099 C 
HETATM   21  C13 UNL     1      -8.518  16.986  26.396  1.00  0.00     0.026 C 
HETATM   22  C14 UNL     1      -8.134  17.712  25.128  1.00  0.00     0.002 C 
HETATM   23  C15 UNL     1      -8.559  17.033  23.876  1.00  0.00     0.000 C 
HETATM   24  C16 UNL     1      -8.642  15.527  23.968  1.00  0.00     0.002 C 
HETATM   25  C17 UNL     1      -7.611  15.092  24.998  1.00  0.00     0.026 C 
ENDBRANCH   6  20
TORSDOF 6
ENDMDL
MODEL 4
REMARK VINA RESULT: -6.117101155      0.726      1.252
REMARK  6 active torsions:
REMARK  status: ('A' for Active; 'I' for Inactive)
REMARK    1  A    between atoms: C2_2  and  N1_4 
REMARK       I    between atoms: C4_6  and  N2_7 
REMARK       I    between atoms: C4_6  and  N4_18 
REMARK    2  A    between atoms: N2_7  and  C5_9 
REMARK    3  A    between atoms: C5_9  and  C6_10 
REMARK    4  A    between atoms: C6_10  and  C7_11 
REMARK    5  A    between atoms: C7_11  and  N3_12 
REMARK    6  A    between atoms: N4_18  and  C12_20 
ROOT
HETATM    1  N1  UNL     1      -6.067  13.112  27.677  1.00  0.00    -0.223 N 
ATOM      2  H1  UNL     1      -6.279  12.402  26.977  1.00  0.00     0.178 HD
HETATM    3  C4  UNL     1      -6.777  14.151  27.658  1.00  0.00     0.670 C 
HETATM    4  N2  UNL     1      -6.619  15.232  28.555  1.00  0.00    -0.227 N 
ATOM      5  H2  UNL     1      -5.821  15.861  28.470  1.00  0.00     0.177 HD
HETATM    6  N4  UNL     1      -7.824  14.303  26.681  1.00  0.00    -0.222 N 
ATOM      7  H4  UNL     1      -8.633  13.681  26.664  1.00  0.00     0.178 HD
ENDROOT
BRANCH   1   8
HETATM    8  C2  UNL     1      -4.995  12.821  28.576  1.00  0.00     0.091 C 
HETATM    9  C1  UNL     1      -4.978  11.322  28.828  1.00  0.00     0.032 C 
HETATM   10  C3  UNL     1      -3.639  13.203  27.962  1.00  0.00     0.032 C 
ENDBRANCH   1   8
BRANCH   4  11
HETATM   11  C5  UNL     1      -7.606  15.438  29.596  1.00  0.00     0.140 C 
BRANCH  11  12
HETATM   12  C6  UNL     1      -7.195  14.884  30.931  1.00  0.00     0.050 C 
BRANCH  12  13
HETATM   13  C7  UNL     1      -7.734  13.515  31.110  1.00  0.00     0.274 C 
BRANCH  13  14
HETATM   14  N3  UNL     1      -8.980  13.262  30.473  1.00  0.00     0.092 N 
HETATM   15  C8  UNL     1      -9.114  12.113  29.669  1.00  0.00     0.298 C 
HETATM   16  C9  UNL     1     -10.481  12.219  28.970  1.00  0.00     0.198 C 
HETATM   17  O1  UNL     1     -11.445  12.167  29.941  1.00  0.00    -0.388 OA
HETATM   18  C10 UNL     1     -11.405  13.229  30.840  1.00  0.00     0.198 C 
HETATM   19  C11 UNL     1     -10.025  13.419  31.423  1.00  0.00     0.298 C 
ENDBRANCH  13  14
ENDBRANCH  12  13
ENDBRANCH  11  12
ENDBRANCH   4  11
BRANCH   6  20
HETATM   20  C12 UNL     1      -7.675  15.373  25.733  1.00  0.00     0.099 C 
HETATM   21  C13 UNL     1      -7.789  14.932  24.292  1.00  0.00     0.026 C 
HETATM   22  C14 UNL     1      -8.819  15.736  23.535  1.00  0.00     0.002 C 
HETATM   23  C15 UNL     1      -8.712  17.207  23.719  1.00  0.00     0.000 C 
HETATM   24  C16 UNL     1      -8.152  17.639  25.055  1.00  0.00     0.002 C 
HETATM   25  C17 UNL     1      -8.539  16.566  26.061  1.00  0.00     0.026 C 
ENDBRANCH   6  20
TORSDOF 6
ENDMDL
MODEL 5
REMARK VINA RESULT: -6.096307399      5.899      7.940
REMARK  6 active torsions:
REMARK  status: ('A' for Active; 'I' for Inactive)
REMARK    1  A    between atoms: C2_2  and  N1_4 
REMARK       I    between atoms: C4_6  and  N2_7 
REMARK       I    between atoms: C4_6  and  N4_18 
REMARK    2  A    between atoms: N2_7  and  C5_9 
REMARK    3  A    between atoms: C5_9  and  C6_10 
REMARK    4  A    between atoms: C6_10  and  C7_11 
REMARK    5  A    between atoms: C7_11  and  N3_12 
REMARK    6  A    between atoms: N4_18  and  C12_20 
ROOT
HETATM    1  N1  UNL     1      -5.216  16.246  29.174  1.00  0.00    -0.223 N 
ATOM      2  H1  UNL     1      -6.000  15.725  29.566  1.00  0.00     0.178 HD
HETATM    3  C4  UNL     1      -5.485  17.053  28.246  1.00  0.00     0.670 C 
HETATM    4  N2  UNL     1      -4.520  17.853  27.591  1.00  0.00    -0.227 N 
ATOM      5  H2  UNL     1      -3.857  17.433  26.940  1.00  0.00     0.177 HD
HETATM    6  N4  UNL     1      -6.838  17.206  27.780  1.00  0.00    -0.222 N 
ATOM      7  H4  UNL     1      -7.574  17.569  28.385  1.00  0.00     0.178 HD
ENDROOT
BRANCH   1   8
HETATM    8  C2  UNL     1      -3.929  15.981  29.737  1.00  0.00     0.091 C 
HETATM    9  C1  UNL     1      -3.781  16.815  30.999  1.00  0.00     0.032 C 
HETATM   10  C3  UNL     1      -3.793  14.504  30.138  1.00  0.00     0.032 C 
ENDBRANCH   1   8
BRANCH   4  11
HETATM   11  C5  UNL     1      -4.485  19.277  27.856  1.00  0.00     0.140 C 
BRANCH  11  12
HETATM   12  C6  UNL     1      -3.166  19.918  27.526  1.00  0.00     0.050 C 
BRANCH  12  13
HETATM   13  C7  UNL     1      -3.376  21.153  26.733  1.00  0.00     0.274 C 
BRANCH  13  14
HETATM   14  N3  UNL     1      -2.846  22.342  27.305  1.00  0.00     0.092 N 
HETATM   15  C8  UNL     1      -3.151  22.648  28.646  1.00  0.00     0.298 C 
HETATM   16  C9  UNL     1      -2.613  24.066  28.909  1.00  0.00     0.198 C 
HETATM   17  O1  UNL     1      -1.250  24.017  28.789  1.00  0.00    -0.388 OA
HETATM   18  C10 UNL     1      -0.803  23.682  27.514  1.00  0.00     0.198 C 
HETATM   19  C11 UNL     1      -1.461  22.423  27.002  1.00  0.00     0.298 C 
ENDBRANCH  13  14
ENDBRANCH  12  13
ENDBRANCH  11  12
ENDBRANCH   4  11
BRANCH   6  20
HETATM   20  C12 UNL     1      -7.101  16.823  26.419  1.00  0.00     0.099 C 
HETATM   21  C13 UNL     1      -6.985  15.337  26.169  1.00  0.00     0.026 C 
HETATM   22  C14 UNL     1      -8.228  14.774  25.521  1.00  0.00     0.002 C 
HETATM   23  C15 UNL     1      -8.724  15.554  24.357  1.00  0.00     0.000 C 
HETATM   24  C16 UNL     1      -8.425  17.035  24.412  1.00  0.00     0.002 C 
HETATM   25  C17 UNL     1      -8.380  17.419  25.883  1.00  0.00     0.026 C 
ENDBRANCH   6  20
TORSDOF 6
ENDMDL
