MODEL 1
REMARK VINA RESULT: -6.289340909      0.000      0.000
REMARK  7 active torsions:
REMARK  status: ('A' for Active; 'I' for Inactive)
REMARK    1  A    between atoms: O1_2  and  C2_3 
REMARK    2  A    between atoms: C2_3  and  C3_4 
REMARK    3  A    between atoms: C3_4  and  N1_5 
REMARK    4  A    between atoms: C3_4  and  C11_21 
REMARK       I    between atoms: N1_5  and  C4_7 
REMARK    5  A    between atoms: C4_7  and  O3_9 
REMARK    6  A    between atoms: O3_9  and  C5_10 
REMARK       I    between atoms: N2_13  and  C8_14 
REMARK    7  A    between atoms: C11_21  and  C13_23 
ROOT
HETATM    1  N1  UNL     1      -5.045  18.214  27.654  1.00  0.00    -0.330 N 
ATOM      2  H1  UNL     1      -5.213  18.314  26.653  1.00  0.00     0.165 HD
HETATM    3  C4  UNL     1      -5.889  17.364  28.426  1.00  0.00     0.361 C 
HETATM    4  O2  UNL     1      -5.696  17.228  29.671  1.00  0.00    -0.238 OA
ENDROOT
BRANCH   3   5
HETATM    5  O3  UNL     1      -6.942  16.654  27.889  1.00  0.00    -0.298 OA
BRANCH   5   6
HETATM    6  C5  UNL     1      -7.186  16.569  26.480  1.00  0.00     0.136 C 
HETATM    7  C6  UNL     1      -7.152  15.153  25.994  1.00  0.00     0.052 C 
HETATM    8  C7  UNL     1      -8.208  14.922  24.943  1.00  0.00     0.128 C 
HETATM    9  N2  UNL     1      -8.372  16.015  24.035  1.00  0.00    -0.356 N 
HETATM   10  C8  UNL     1      -8.466  15.823  22.642  1.00  0.00     0.183 C 
HETATM   11  C9  UNL     1      -8.443  17.379  24.563  1.00  0.00     0.128 C 
HETATM   12  N3  UNL     1      -8.674  16.767  21.810  1.00  0.00    -0.374 N 
HETATM   13  N4  UNL     1      -8.322  14.503  22.114  1.00  0.00    -0.064 NA
ATOM     14  H32 UNL     1      -8.776  17.709  22.187  1.00  0.00     0.158 HD
ATOM     15  H31 UNL     1      -8.742  16.628  20.802  1.00  0.00     0.158 HD
HETATM   16  C10 UNL     1      -8.480  17.195  26.089  1.00  0.00     0.052 C 
ENDBRANCH   5   6
ENDBRANCH   3   5
BRANCH   1  17
HETATM   17  C3  UNL     1      -3.956  18.935  28.266  1.00  0.00     0.114 C 
BRANCH  17  18
HETATM   18  C2  UNL     1      -2.682  18.183  28.107  1.00  0.00     0.192 C 
BRANCH  18  19
HETATM   19  O1  UNL     1      -2.724  17.370  26.973  1.00  0.00    -0.394 OA
HETATM   20  C1  UNL     1      -2.103  16.147  27.214  1.00  0.00     0.201 C 
ENDBRANCH  18  19
ENDBRANCH  17  18
BRANCH  17  21
HETATM   21  C11 UNL     1      -3.946  20.382  28.006  1.00  0.00     0.010 C 
HETATM   22  C12 UNL     1      -4.335  21.176  29.264  1.00  0.00     0.012 C 
BRANCH  21  23
HETATM   23  C13 UNL     1      -2.747  21.043  27.436  1.00  0.00    -0.017 C 
HETATM   24  C14 UNL     1      -2.029  21.995  28.343  1.00  0.00     0.010 C 
HETATM   25  C15 UNL     1      -2.933  21.588  26.041  1.00  0.00     0.010 C 
ENDBRANCH  21  23
ENDBRANCH  17  21
ENDBRANCH   1  17
TORSDOF 7
ENDMDL
MODEL 2
REMARK VINA RESULT: -6.215436595      2.457      7.150
REMARK  7 active torsions:
REMARK  status: ('A' for Active; 'I' for Inactive)
REMARK    1  A    between atoms: O1_2  and  C2_3 
REMARK    2  A    between atoms: C2_3  and  C3_4 
REMARK    3  A    between atoms: C3_4  and  N1_5 
REMARK    4  A    between atoms: C3_4  and  C11_21 
REMARK       I    between atoms: N1_5  and  C4_7 
REMARK    5  A    between atoms: C4_7  and  O3_9 
REMARK    6  A    between atoms: O3_9  and  C5_10 
REMARK       I    between atoms: N2_13  and  C8_14 
REMARK    7  A    between atoms: C11_21  and  C13_23 
ROOT
HETATM    1  N1  UNL     1      -7.031  15.812  27.332  1.00  0.00    -0.330 N 
ATOM      2  H1  UNL     1      -7.481  16.367  28.059  1.00  0.00     0.165 HD
HETATM    3  C4  UNL     1      -5.610  15.718  27.299  1.00  0.00     0.361 C 
HETATM    4  O2  UNL     1      -5.033  15.034  26.401  1.00  0.00    -0.238 OA
ENDROOT
BRANCH   3   5
HETATM    5  O3  UNL     1      -4.789  16.346  28.211  1.00  0.00    -0.298 OA
BRANCH   5   6
HETATM    6  C5  UNL     1      -4.020  17.513  27.893  1.00  0.00     0.136 C 
HETATM    7  C6  UNL     1      -4.894  18.690  27.590  1.00  0.00     0.052 C 
HETATM    8  C7  UNL     1      -4.298  19.957  28.150  1.00  0.00     0.128 C 
HETATM    9  N2  UNL     1      -2.876  20.035  28.021  1.00  0.00    -0.356 N 
HETATM   10  C8  UNL     1      -2.229  21.201  27.564  1.00  0.00     0.183 C 
HETATM   11  C9  UNL     1      -2.061  18.870  28.371  1.00  0.00     0.128 C 
HETATM   12  N3  UNL     1      -0.961  21.327  27.497  1.00  0.00    -0.374 N 
HETATM   13  N4  UNL     1      -3.021  22.316  27.150  1.00  0.00    -0.064 NA
ATOM     14  H32 UNL     1      -0.396  20.531  27.792  1.00  0.00     0.158 HD
ATOM     15  H31 UNL     1      -0.493  22.170  27.167  1.00  0.00     0.158 HD
HETATM   16  C10 UNL     1      -3.062  17.874  28.977  1.00  0.00     0.052 C 
ENDBRANCH   5   6
ENDBRANCH   3   5
BRANCH   1  17
HETATM   17  C3  UNL     1      -7.844  15.134  26.352  1.00  0.00     0.114 C 
BRANCH  17  18
HETATM   18  C2  UNL     1      -8.572  13.999  26.978  1.00  0.00     0.192 C 
BRANCH  18  19
HETATM   19  O1  UNL     1      -8.306  12.806  26.305  1.00  0.00    -0.394 OA
HETATM   20  C1  UNL     1      -7.889  11.816  27.192  1.00  0.00     0.201 C 
ENDBRANCH  18  19
ENDBRANCH  17  18
BRANCH  17  21
HETATM   21  C11 UNL     1      -8.585  16.019  25.441  1.00  0.00     0.010 C 
HETATM   22  C12 UNL     1      -8.100  17.473  25.560  1.00  0.00     0.012 C 
BRANCH  21  23
HETATM   23  C13 UNL     1      -8.675  15.714  23.992  1.00  0.00    -0.017 C 
HETATM   24  C14 UNL     1      -7.639  14.776  23.454  1.00  0.00     0.010 C 
HETATM   25  C15 UNL     1      -8.893  16.919  23.110  1.00  0.00     0.010 C 
ENDBRANCH  21  23
ENDBRANCH  17  21
ENDBRANCH   1  17
TORSDOF 7
ENDMDL
MODEL 3
REMARK VINA RESULT: -6.170594946      3.773      6.384
REMARK  7 active torsions:
REMARK  status: ('A' for Active; 'I' for Inactive)
REMARK    1  A    between atoms: O1_2  and  C2_3 
REMARK    2  A    between atoms: C2_3  and  C3_4 
REMARK    3  A    between atoms: C3_4  and  N1_5 
REMARK    4  A    between atoms: C3_4  and  C11_21 
REMARK       I    between atoms: N1_5  and  C4_7 
REMARK    5  A    between atoms: C4_7  and  O3_9 
REMARK    6  A    between atoms: O3_9  and  C5_10 
REMARK       I    between atoms: N2_13  and  C8_14 
REMARK    7  A    between atoms: C11_21  and  C13_23 
ROOT
HETATM    1  N1  UNL     1      -8.278  15.482  29.008  1.00  0.00    -0.330 N 
ATOM      2  H1  UNL     1      -9.147  15.881  28.652  1.00  0.00     0.165 HD
HETATM    3  C4  UNL     1      -7.031  15.982  28.532  1.00  0.00     0.361 C 
HETATM    4  O2  UNL     1      -5.941  15.498  28.961  1.00  0.00    -0.238 OA
ENDROOT
BRANCH   3   5
HETATM    5  O3  UNL     1      -6.927  16.994  27.601  1.00  0.00    -0.298 OA
BRANCH   5   6
HETATM    6  C5  UNL     1      -7.181  16.797  26.205  1.00  0.00     0.136 C 
HETATM    7  C6  UNL     1      -7.103  15.351  25.824  1.00  0.00     0.052 C 
HETATM    8  C7  UNL     1      -8.161  15.009  24.805  1.00  0.00     0.128 C 
HETATM    9  N2  UNL     1      -8.369  16.026  23.821  1.00  0.00    -0.356 N 
HETATM   10  C8  UNL     1      -8.469  15.728  22.447  1.00  0.00     0.183 C 
HETATM   11  C9  UNL     1      -8.482  17.421  24.249  1.00  0.00     0.128 C 
HETATM   12  N3  UNL     1      -8.717  16.601  21.551  1.00  0.00    -0.374 N 
HETATM   13  N4  UNL     1      -8.286  14.379  22.015  1.00  0.00    -0.064 NA
ATOM     14  H32 UNL     1      -8.848  17.564  21.859  1.00  0.00     0.158 HD
ATOM     15  H31 UNL     1      -8.789  16.386  20.557  1.00  0.00     0.158 HD
HETATM   16  C10 UNL     1      -8.500  17.349  25.784  1.00  0.00     0.052 C 
ENDBRANCH   5   6
ENDBRANCH   3   5
BRANCH   1  17
HETATM   17  C3  UNL     1      -8.331  14.422  29.983  1.00  0.00     0.114 C 
BRANCH  17  18
HETATM   18  C2  UNL     1      -9.326  14.739  31.042  1.00  0.00     0.192 C 
BRANCH  18  19
HETATM   19  O1  UNL     1     -10.553  15.095  30.478  1.00  0.00    -0.394 OA
HETATM   20  C1  UNL     1     -11.591  14.353  31.038  1.00  0.00     0.201 C 
ENDBRANCH  18  19
ENDBRANCH  17  18
BRANCH  17  21
HETATM   21  C11 UNL     1      -8.321  13.062  29.422  1.00  0.00     0.010 C 
HETATM   22  C12 UNL     1      -8.775  12.027  30.465  1.00  0.00     0.012 C 
BRANCH  21  23
HETATM   23  C13 UNL     1      -9.047  12.753  28.167  1.00  0.00    -0.017 C 
HETATM   24  C14 UNL     1     -10.413  12.159  28.328  1.00  0.00     0.010 C 
HETATM   25  C15 UNL     1      -8.220  12.049  27.120  1.00  0.00     0.010 C 
ENDBRANCH  21  23
ENDBRANCH  17  21
ENDBRANCH   1  17
TORSDOF 7
ENDMDL
MODEL 4
REMARK VINA RESULT: -6.168828666      2.576      7.454
REMARK  7 active torsions:
REMARK  status: ('A' for Active; 'I' for Inactive)
REMARK    1  A    between atoms: O1_2  and  C2_3 
REMARK    2  A    between atoms: C2_3  and  C3_4 
REMARK    3  A    between atoms: C3_4  and  N1_5 
REMARK    4  A    between atoms: C3_4  and  C11_21 
REMARK       I    between atoms: N1_5  and  C4_7 
REMARK    5  A    between atoms: C4_7  and  O3_9 
REMARK    6  A    between atoms: O3_9  and  C5_10 
REMARK       I    between atoms: N2_13  and  C8_14 
REMARK    7  A    between atoms: C11_21  and  C13_23 
ROOT
HETATM    1  N1  UNL     1      -6.520  17.535  27.272  1.00  0.00    -0.330 N 
ATOM      2  H1  UNL     1      -6.727  18.492  26.987  1.00  0.00     0.165 HD
HETATM    3  C4  UNL     1      -5.178  17.171  27.584  1.00  0.00     0.361 C 
HETATM    4  O2  UNL     1      -4.901  15.987  27.938  1.00  0.00    -0.238 OA
ENDROOT
BRANCH   3   5
HETATM    5  O3  UNL     1      -4.121  18.055  27.522  1.00  0.00    -0.298 OA
BRANCH   5   6
HETATM    6  C5  UNL     1      -4.250  19.447  27.833  1.00  0.00     0.136 C 
HETATM    7  C6  UNL     1      -4.664  19.664  29.255  1.00  0.00     0.052 C 
HETATM    8  C7  UNL     1      -3.959  20.862  29.841  1.00  0.00     0.128 C 
HETATM    9  N2  UNL     1      -3.824  21.957  28.932  1.00  0.00    -0.356 N 
HETATM   10  C8  UNL     1      -4.112  23.284  29.310  1.00  0.00     0.183 C 
HETATM   11  C9  UNL     1      -3.374  21.698  27.563  1.00  0.00     0.128 C 
HETATM   12  N3  UNL     1      -3.942  24.290  28.546  1.00  0.00    -0.374 N 
HETATM   13  N4  UNL     1      -4.623  23.535  30.621  1.00  0.00    -0.064 NA
ATOM     14  H32 UNL     1      -3.578  24.111  27.610  1.00  0.00     0.158 HD
ATOM     15  H31 UNL     1      -4.151  25.251  28.819  1.00  0.00     0.158 HD
HETATM   16  C10 UNL     1      -2.998  20.208  27.561  1.00  0.00     0.052 C 
ENDBRANCH   5   6
ENDBRANCH   3   5
BRANCH   1  17
HETATM   17  C3  UNL     1      -7.589  16.571  27.353  1.00  0.00     0.114 C 
BRANCH  17  18
HETATM   18  C2  UNL     1      -8.182  16.567  28.717  1.00  0.00     0.192 C 
BRANCH  18  19
HETATM   19  O1  UNL     1      -8.548  17.858  29.103  1.00  0.00    -0.394 OA
HETATM   20  C1  UNL     1      -9.211  17.842  30.328  1.00  0.00     0.201 C 
ENDBRANCH  18  19
ENDBRANCH  17  18
BRANCH  17  21
HETATM   21  C11 UNL     1      -8.501  16.557  26.199  1.00  0.00     0.010 C 
HETATM   22  C12 UNL     1      -8.184  17.703  25.225  1.00  0.00     0.012 C 
BRANCH  21  23
HETATM   23  C13 UNL     1      -8.669  15.332  25.379  1.00  0.00    -0.017 C 
HETATM   24  C14 UNL     1      -7.972  14.105  25.883  1.00  0.00     0.010 C 
HETATM   25  C15 UNL     1      -8.493  15.541  23.895  1.00  0.00     0.010 C 
ENDBRANCH  21  23
ENDBRANCH  17  21
ENDBRANCH   1  17
TORSDOF 7
ENDMDL
MODEL 5
REMARK VINA RESULT: -6.144225243      2.446      7.191
REMARK  7 active torsions:
REMARK  status: ('A' for Active; 'I' for Inactive)
REMARK    1  A    between atoms: O1_2  and  C2_3 
REMARK    2  A    between atoms: C2_3  and  C3_4 
REMARK    3  A    between atoms: C3_4  and  N1_5 
REMARK    4  A    between atoms: C3_4  and  C11_21 
REMARK       I    between atoms: N1_5  and  C4_7 
REMARK    5  A    between atoms: C4_7  and  O3_9 
REMARK    6  A    between atoms: O3_9  and  C5_10 
REMARK       I    between atoms: N2_13  and  C8_14 
REMARK    7  A    between atoms: C11_21  and  C13_23 
ROOT
HETATM    1  N1  UNL     1      -7.205  16.041  27.246  1.00  0.00    -0.330 N 
ATOM      2  H1  UNL     1      -7.721  16.638  27.892  1.00  0.00     0.165 HD
HETATM    3  C4  UNL     1      -5.785  15.966  27.342  1.00  0.00     0.361 C 
HETATM    4  O2  UNL     1      -5.127  15.232  26.547  1.00  0.00    -0.238 OA
ENDROOT
BRANCH   3   5
HETATM    5  O3  UNL     1      -5.053  16.667  28.276  1.00  0.00    -0.298 OA
BRANCH   5   6
HETATM    6  C5  UNL     1      -4.801  18.074  28.174  1.00  0.00     0.136 C 
HETATM    7  C6  UNL     1      -5.181  18.800  29.427  1.00  0.00     0.052 C 
HETATM    8  C7  UNL     1      -4.190  19.895  29.732  1.00  0.00     0.128 C 
HETATM    9  N2  UNL     1      -3.731  20.600  28.575  1.00  0.00    -0.356 N 
HETATM   10  C8  UNL     1      -3.652  22.006  28.539  1.00  0.00     0.183 C 
HETATM   11  C9  UNL     1      -3.329  19.842  27.389  1.00  0.00     0.128 C 
HETATM   12  N3  UNL     1      -3.189  22.664  27.549  1.00  0.00    -0.374 N 
HETATM   13  N4  UNL     1      -4.112  22.756  29.666  1.00  0.00    -0.064 NA
ATOM     14  H32 UNL     1      -2.861  22.129  26.745  1.00  0.00     0.158 HD
ATOM     15  H31 UNL     1      -3.132  23.682  27.522  1.00  0.00     0.158 HD
HETATM   16  C10 UNL     1      -3.380  18.374  27.840  1.00  0.00     0.052 C 
ENDBRANCH   5   6
ENDBRANCH   3   5
BRANCH   1  17
HETATM   17  C3  UNL     1      -7.923  15.286  26.249  1.00  0.00     0.114 C 
BRANCH  17  18
HETATM   18  C2  UNL     1      -8.630  14.138  26.877  1.00  0.00     0.192 C 
BRANCH  18  19
HETATM   19  O1  UNL     1      -8.299  12.943  26.237  1.00  0.00    -0.394 OA
HETATM   20  C1  UNL     1      -7.924  11.970  27.161  1.00  0.00     0.201 C 
ENDBRANCH  18  19
ENDBRANCH  17  18
BRANCH  17  21
HETATM   21  C11 UNL     1      -8.654  16.098  25.263  1.00  0.00     0.010 C 
HETATM   22  C12 UNL     1      -8.216  17.571  25.321  1.00  0.00     0.012 C 
BRANCH  21  23
HETATM   23  C13 UNL     1      -8.678  15.713  23.831  1.00  0.00    -0.017 C 
HETATM   24  C14 UNL     1      -7.598  14.776  23.386  1.00  0.00     0.010 C 
HETATM   25  C15 UNL     1      -8.892  16.862  22.876  1.00  0.00     0.010 C 
ENDBRANCH  21  23
ENDBRANCH  17  21
ENDBRANCH   1  17
TORSDOF 7
ENDMDL
