MODEL 1
REMARK VINA RESULT: -7.246677497      0.000      0.000
REMARK  16 active torsions:
REMARK  status: ('A' for Active; 'I' for Inactive)
REMARK       I    between atoms: N2_3  and  C2_5 
REMARK    1  A    between atoms: C2_5  and  C3_7 
REMARK    2  A    between atoms: C4_10  and  C5_11 
REMARK    3  A    between atoms: C5_11  and  C6_12 
REMARK    4  A    between atoms: C5_11  and  C12_28 
REMARK    5  A    between atoms: C5_11  and  C16_37 
REMARK    6  A    between atoms: C6_12  and  C7_14 
REMARK    7  A    between atoms: C7_14  and  O3_15 
REMARK    8  A    between atoms: C7_14  and  N4_17 
REMARK    9  A    between atoms: C10_22  and  C11_23 
REMARK   10  A    between atoms: C11_23  and  O6_24 
REMARK   11  A    between atoms: C11_23  and  O7_26 
REMARK   12  A    between atoms: C16_37  and  O9_38 
REMARK   13  A    between atoms: C16_37  and  O10_40 
REMARK   14  A    between atoms: C17_42  and  N7_43 
REMARK   15  A    between atoms: N7_43  and  N8_45 
REMARK   16  A    between atoms: C18_50  and  O11_51 
ROOT
HETATM    1  N1  UNL     1      34.262  26.470  29.184  1.00  0.00    -0.172 NA
HETATM    2  C1  UNL     1      33.649  27.208  28.539  1.00  0.00     0.184 C 
HETATM    3  N2  UNL     1      32.905  28.113  27.727  1.00  0.00    -0.258 N 
ATOM      4  H2  UNL     1      32.260  28.769  28.168  1.00  0.00     0.181 HD
HETATM    5  C2  UNL     1      33.047  28.114  26.351  1.00  0.00     0.285 C 
HETATM    6  O1  UNL     1      33.880  27.257  25.873  1.00  0.00    -0.265 OA
ENDROOT
BRANCH   5   7
HETATM    7  C3  UNL     1      32.366  28.963  25.423  1.00  0.00     0.153 A 
HETATM    8  N3  UNL     1      32.245  30.283  25.763  1.00  0.00    -0.347 N 
HETATM    9  C4  UNL     1      31.632  31.218  24.995  1.00  0.00     0.085 A 
ATOM     10  H3  UNL     1      32.642  30.583  26.653  1.00  0.00     0.166 HD
HETATM   11  C17 UNL     1      31.120  30.764  23.818  1.00  0.00     0.146 A 
HETATM   12  N9  UNL     1      31.223  29.464  23.452  1.00  0.00    -0.319 N 
HETATM   13  C18 UNL     1      31.833  28.564  24.231  1.00  0.00     0.174 A 
ATOM     14  H9  UNL     1      30.826  29.164  22.561  1.00  0.00     0.169 HD
BRANCH   9  15
HETATM   15  C5  UNL     1      31.502  32.611  25.412  1.00  0.00     0.178 C 
BRANCH  15  16
HETATM   16  C6  UNL     1      32.161  33.587  24.497  1.00  0.00     0.204 C 
HETATM   17  O2  UNL     1      31.779  34.742  24.438  1.00  0.00    -0.291 OA
BRANCH  16  18
HETATM   18  C7  UNL     1      33.305  33.209  23.619  1.00  0.00     0.320 C 
BRANCH  18  19
HETATM   19  O3  UNL     1      32.880  33.115  22.292  1.00  0.00    -0.368 OA
ATOM     20  H3  UNL     1      32.433  32.289  22.151  1.00  0.00     0.212 HD
ENDBRANCH  18  19
BRANCH  18  21
HETATM   21  N4  UNL     1      34.437  34.116  23.793  1.00  0.00    -0.211 N 
HETATM   22  O4  UNL     1      34.954  34.498  24.925  1.00  0.00    -0.190 OA
HETATM   23  C8  UNL     1      35.954  35.308  24.792  1.00  0.00     0.307 A 
HETATM   24  O5  UNL     1      36.666  35.854  25.701  1.00  0.00    -0.258 OA
HETATM   25  C9  UNL     1      36.115  35.477  23.440  1.00  0.00     0.116 A 
HETATM   26  C10 UNL     1      35.135  34.706  22.832  1.00  0.00     0.099 A 
BRANCH  26  27
HETATM   27  C11 UNL     1      34.987  34.607  21.377  1.00  0.00     0.307 C 
BRANCH  27  28
HETATM   28  O6  UNL     1      35.015  35.941  20.883  1.00  0.00    -0.366 OA
ATOM     29  H6  UNL     1      34.379  35.977  20.179  1.00  0.00     0.213 HD
ENDBRANCH  27  28
BRANCH  27  30
HETATM   30  O7  UNL     1      36.054  33.988  20.726  1.00  0.00    -0.366 OA
ATOM     31  H7  UNL     1      35.982  33.970  19.778  1.00  0.00     0.213 HD
ENDBRANCH  27  30
ENDBRANCH  26  27
ENDBRANCH  18  21
ENDBRANCH  16  18
ENDBRANCH  15  16
BRANCH  15  32
HETATM   32  C12 UNL     1      32.173  32.816  26.768  1.00  0.00     0.111 A 
HETATM   33  N5  UNL     1      33.387  33.293  26.934  1.00  0.00    -0.311 N 
HETATM   34  C13 UNL     1      33.988  33.447  28.132  1.00  0.00     0.247 A 
ATOM     35  H5  UNL     1      33.909  33.566  26.102  1.00  0.00     0.170 HD
HETATM   36  O8  UNL     1      35.150  33.913  28.163  1.00  0.00    -0.268 OA
HETATM   37  C14 UNL     1      33.280  33.076  29.267  1.00  0.00     0.091 A 
HETATM   38  C15 UNL     1      32.013  32.577  29.105  1.00  0.00     0.095 A 
HETATM   39  N6  UNL     1      31.489  32.458  27.862  1.00  0.00    -0.354 N 
ATOM     40  H6  UNL     1      30.546  32.084  27.756  1.00  0.00     0.166 HD
ENDBRANCH  15  32
BRANCH  15  41
HETATM   41  C16 UNL     1      30.093  33.015  25.702  1.00  0.00     0.283 C 
BRANCH  41  42
HETATM   42  O9  UNL     1      29.390  33.760  24.839  1.00  0.00    -0.369 OA
ATOM     43  H9  UNL     1      29.242  34.685  24.992  1.00  0.00     0.212 HD
ENDBRANCH  41  42
BRANCH  41  44
HETATM   44  O10 UNL     1      29.348  31.867  26.081  1.00  0.00    -0.369 OA
ATOM     45  H10 UNL     1      29.717  31.101  25.657  1.00  0.00     0.212 HD
ENDBRANCH  41  44
ENDBRANCH  15  41
ENDBRANCH   9  15
BRANCH  11  46
HETATM   46  N7  UNL     1      30.552  31.533  22.981  1.00  0.00    -0.290 N 
ATOM     47  H7  UNL     1      31.117  32.184  22.435  1.00  0.00     0.188 HD
BRANCH  46  48
HETATM   48  N8  UNL     1      29.181  31.504  22.797  1.00  0.00    -0.344 N 
ATOM     49  H82 UNL     1      28.816  31.106  21.932  1.00  0.00     0.176 HD
ATOM     50  H81 UNL     1      28.545  31.871  23.506  1.00  0.00     0.176 HD
ENDBRANCH  46  48
ENDBRANCH  11  46
BRANCH  13  51
HETATM   51  O11 UNL     1      31.908  27.255  23.812  1.00  0.00    -0.344 OA
ATOM     52  H11 UNL     1      31.846  27.025  22.892  1.00  0.00     0.219 HD
ENDBRANCH  13  51
ENDBRANCH   5   7
TORSDOF 16
ENDMDL
MODEL 2
REMARK VINA RESULT: -6.573654572      2.353      7.413
REMARK  16 active torsions:
REMARK  status: ('A' for Active; 'I' for Inactive)
REMARK       I    between atoms: N2_3  and  C2_5 
REMARK    1  A    between atoms: C2_5  and  C3_7 
REMARK    2  A    between atoms: C4_10  and  C5_11 
REMARK    3  A    between atoms: C5_11  and  C6_12 
REMARK    4  A    between atoms: C5_11  and  C12_28 
REMARK    5  A    between atoms: C5_11  and  C16_37 
REMARK    6  A    between atoms: C6_12  and  C7_14 
REMARK    7  A    between atoms: C7_14  and  O3_15 
REMARK    8  A    between atoms: C7_14  and  N4_17 
REMARK    9  A    between atoms: C10_22  and  C11_23 
REMARK   10  A    between atoms: C11_23  and  O6_24 
REMARK   11  A    between atoms: C11_23  and  O7_26 
REMARK   12  A    between atoms: C16_37  and  O9_38 
REMARK   13  A    between atoms: C16_37  and  O10_40 
REMARK   14  A    between atoms: C17_42  and  N7_43 
REMARK   15  A    between atoms: N7_43  and  N8_45 
REMARK   16  A    between atoms: C18_50  and  O11_51 
ROOT
HETATM    1  N1  UNL     1      36.376  35.479  23.430  1.00  0.00    -0.172 NA
HETATM    2  C1  UNL     1      35.388  34.885  23.503  1.00  0.00     0.184 C 
HETATM    3  N2  UNL     1      34.175  34.146  23.614  1.00  0.00    -0.258 N 
ATOM      4  H2  UNL     1      33.628  33.949  22.776  1.00  0.00     0.181 HD
HETATM    5  C2  UNL     1      33.729  33.691  24.842  1.00  0.00     0.285 C 
HETATM    6  O1  UNL     1      34.475  33.979  25.851  1.00  0.00    -0.265 OA
ENDROOT
BRANCH   5   7
HETATM    7  C3  UNL     1      32.537  32.942  25.094  1.00  0.00     0.153 A 
HETATM    8  N3  UNL     1      32.678  31.754  25.757  1.00  0.00    -0.347 N 
HETATM    9  C4  UNL     1      31.650  30.928  26.076  1.00  0.00     0.085 A 
ATOM     10  H3  UNL     1      33.618  31.471  26.031  1.00  0.00     0.166 HD
HETATM   11  C17 UNL     1      30.416  31.355  25.689  1.00  0.00     0.146 A 
HETATM   12  N9  UNL     1      30.242  32.525  25.031  1.00  0.00    -0.319 N 
HETATM   13  C18 UNL     1      31.276  33.319  24.729  1.00  0.00     0.174 A 
ATOM     14  H9  UNL     1      29.300  32.808  24.759  1.00  0.00     0.169 HD
BRANCH   9  15
HETATM   15  C5  UNL     1      31.852  29.655  26.760  1.00  0.00     0.178 C 
BRANCH  15  16
HETATM   16  C6  UNL     1      33.192  29.509  27.398  1.00  0.00     0.204 C 
HETATM   17  O2  UNL     1      33.609  30.353  28.171  1.00  0.00    -0.291 OA
BRANCH  16  18
HETATM   18  C7  UNL     1      34.079  28.342  27.131  1.00  0.00     0.320 C 
BRANCH  18  19
HETATM   19  O3  UNL     1      35.411  28.758  27.064  1.00  0.00    -0.368 OA
ATOM     20  H3  UNL     1      35.642  29.242  27.847  1.00  0.00     0.212 HD
ENDBRANCH  18  19
BRANCH  18  21
HETATM   21  N4  UNL     1      33.864  27.271  28.099  1.00  0.00    -0.211 N 
HETATM   22  O4  UNL     1      33.563  27.416  29.358  1.00  0.00    -0.190 OA
HETATM   23  C8  UNL     1      33.428  26.296  29.991  1.00  0.00     0.307 A 
HETATM   24  O5  UNL     1      33.138  26.104  31.221  1.00  0.00    -0.258 OA
HETATM   25  C9  UNL     1      33.663  25.314  29.062  1.00  0.00     0.116 A 
HETATM   26  C10 UNL     1      33.937  25.966  27.869  1.00  0.00     0.099 A 
BRANCH  26  27
HETATM   27  C11 UNL     1      34.226  25.255  26.620  1.00  0.00     0.307 C 
BRANCH  27  28
HETATM   28  O6  UNL     1      35.597  24.883  26.683  1.00  0.00    -0.366 OA
ATOM     29  H6  UNL     1      36.064  25.491  26.122  1.00  0.00     0.213 HD
ENDBRANCH  27  28
BRANCH  27  30
HETATM   30  O7  UNL     1      33.557  24.039  26.476  1.00  0.00    -0.366 OA
ATOM     31  H7  UNL     1      34.032  23.285  26.806  1.00  0.00     0.213 HD
ENDBRANCH  27  30
ENDBRANCH  26  27
ENDBRANCH  18  21
ENDBRANCH  16  18
ENDBRANCH  15  16
BRANCH  15  32
HETATM   32  C12 UNL     1      31.756  28.503  25.761  1.00  0.00     0.111 A 
HETATM   33  N5  UNL     1      32.463  28.415  24.656  1.00  0.00    -0.311 N 
HETATM   34  C13 UNL     1      32.356  27.411  23.761  1.00  0.00     0.247 A 
ATOM     35  H5  UNL     1      33.138  29.154  24.463  1.00  0.00     0.170 HD
HETATM   36  O8  UNL     1      33.086  27.437  22.743  1.00  0.00    -0.268 OA
HETATM   37  C14 UNL     1      31.438  26.403  24.021  1.00  0.00     0.091 A 
HETATM   38  C15 UNL     1      30.695  26.487  25.171  1.00  0.00     0.095 A 
HETATM   39  N6  UNL     1      30.870  27.533  26.013  1.00  0.00    -0.354 N 
ATOM     40  H6  UNL     1      30.309  27.582  26.864  1.00  0.00     0.166 HD
ENDBRANCH  15  32
BRANCH  15  41
HETATM   41  C16 UNL     1      30.760  29.318  27.722  1.00  0.00     0.283 C 
BRANCH  41  42
HETATM   42  O9  UNL     1      30.796  28.195  28.451  1.00  0.00    -0.369 OA
ATOM     43  H9  UNL     1      31.621  27.820  28.739  1.00  0.00     0.212 HD
ENDBRANCH  41  42
BRANCH  41  44
HETATM   44  O10 UNL     1      30.513  30.439  28.558  1.00  0.00    -0.369 OA
ATOM     45  H10 UNL     1      29.897  30.191  29.239  1.00  0.00     0.212 HD
ENDBRANCH  41  44
ENDBRANCH  15  41
ENDBRANCH   9  15
BRANCH  11  46
HETATM   46  N7  UNL     1      29.357  30.702  25.951  1.00  0.00    -0.290 N 
ATOM     47  H7  UNL     1      29.109  30.521  26.924  1.00  0.00     0.188 HD
BRANCH  46  48
HETATM   48  N8  UNL     1      28.536  30.233  24.942  1.00  0.00    -0.344 N 
ATOM     49  H82 UNL     1      27.595  30.619  24.864  1.00  0.00     0.176 HD
ATOM     50  H81 UNL     1      28.857  29.518  24.289  1.00  0.00     0.176 HD
ENDBRANCH  46  48
ENDBRANCH  11  46
BRANCH  13  51
HETATM   51  O11 UNL     1      31.043  34.497  24.059  1.00  0.00    -0.344 OA
ATOM     52  H11 UNL     1      30.719  34.504  23.165  1.00  0.00     0.219 HD
ENDBRANCH  13  51
ENDBRANCH   5   7
TORSDOF 16
ENDMDL
MODEL 3
REMARK VINA RESULT: -6.507588585      2.970      6.806
REMARK  16 active torsions:
REMARK  status: ('A' for Active; 'I' for Inactive)
REMARK       I    between atoms: N2_3  and  C2_5 
REMARK    1  A    between atoms: C2_5  and  C3_7 
REMARK    2  A    between atoms: C4_10  and  C5_11 
REMARK    3  A    between atoms: C5_11  and  C6_12 
REMARK    4  A    between atoms: C5_11  and  C12_28 
REMARK    5  A    between atoms: C5_11  and  C16_37 
REMARK    6  A    between atoms: C6_12  and  C7_14 
REMARK    7  A    between atoms: C7_14  and  O3_15 
REMARK    8  A    between atoms: C7_14  and  N4_17 
REMARK    9  A    between atoms: C10_22  and  C11_23 
REMARK   10  A    between atoms: C11_23  and  O6_24 
REMARK   11  A    between atoms: C11_23  and  O7_26 
REMARK   12  A    between atoms: C16_37  and  O9_38 
REMARK   13  A    between atoms: C16_37  and  O10_40 
REMARK   14  A    between atoms: C17_42  and  N7_43 
REMARK   15  A    between atoms: N7_43  and  N8_45 
REMARK   16  A    between atoms: C18_50  and  O11_51 
ROOT
HETATM    1  N1  UNL     1      34.618  27.609  28.860  1.00  0.00    -0.172 NA
HETATM    2  C1  UNL     1      33.846  28.244  28.280  1.00  0.00     0.184 C 
HETATM    3  N2  UNL     1      32.901  29.045  27.575  1.00  0.00    -0.258 N 
ATOM      4  H2  UNL     1      32.119  28.596  27.099  1.00  0.00     0.181 HD
HETATM    5  C2  UNL     1      33.031  30.421  27.529  1.00  0.00     0.285 C 
HETATM    6  O1  UNL     1      34.043  30.911  28.155  1.00  0.00    -0.265 OA
ENDROOT
BRANCH   5   7
HETATM    7  C3  UNL     1      32.159  31.339  26.862  1.00  0.00     0.153 A 
HETATM    8  N3  UNL     1      31.848  31.065  25.558  1.00  0.00    -0.347 N 
HETATM    9  C4  UNL     1      31.037  31.830  24.787  1.00  0.00     0.085 A 
ATOM     10  H3  UNL     1      32.254  30.229  25.138  1.00  0.00     0.166 HD
HETATM   11  C17 UNL     1      30.521  32.933  25.397  1.00  0.00     0.146 A 
HETATM   12  N9  UNL     1      30.809  33.234  26.686  1.00  0.00    -0.319 N 
HETATM   13  C18 UNL     1      31.614  32.459  27.421  1.00  0.00     0.174 A 
ATOM     14  H9  UNL     1      30.402  34.069  27.105  1.00  0.00     0.169 HD
BRANCH   9  15
HETATM   15  C5  UNL     1      30.755  31.513  23.390  1.00  0.00     0.178 C 
BRANCH  15  16
HETATM   16  C6  UNL     1      29.436  30.855  23.166  1.00  0.00     0.204 C 
HETATM   17  O2  UNL     1      29.105  30.486  22.054  1.00  0.00    -0.291 OA
BRANCH  16  18
HETATM   18  C7  UNL     1      28.466  30.616  24.273  1.00  0.00     0.320 C 
BRANCH  18  19
HETATM   19  O3  UNL     1      27.404  31.519  24.183  1.00  0.00    -0.368 OA
ATOM     20  H3  UNL     1      26.732  31.175  23.607  1.00  0.00     0.212 HD
ENDBRANCH  18  19
BRANCH  18  21
HETATM   21  N4  UNL     1      28.030  29.223  24.313  1.00  0.00    -0.211 N 
HETATM   22  O4  UNL     1      27.082  28.690  23.597  1.00  0.00    -0.190 OA
HETATM   23  C8  UNL     1      26.901  27.430  23.832  1.00  0.00     0.307 A 
HETATM   24  O5  UNL     1      26.057  26.632  23.299  1.00  0.00    -0.258 OA
HETATM   25  C9  UNL     1      27.817  27.099  24.798  1.00  0.00     0.116 A 
HETATM   26  C10 UNL     1      28.520  28.260  25.082  1.00  0.00     0.099 A 
BRANCH  26  27
HETATM   27  C11 UNL     1      29.609  28.313  26.061  1.00  0.00     0.307 C 
BRANCH  27  28
HETATM   28  O6  UNL     1      29.398  27.223  26.950  1.00  0.00    -0.366 OA
ATOM     29  H6  UNL     1      28.704  27.492  27.540  1.00  0.00     0.213 HD
ENDBRANCH  27  28
BRANCH  27  30
HETATM   30  O7  UNL     1      30.878  28.071  25.533  1.00  0.00    -0.366 OA
ATOM     31  H7  UNL     1      31.321  27.314  25.899  1.00  0.00     0.213 HD
ENDBRANCH  27  30
ENDBRANCH  26  27
ENDBRANCH  18  21
ENDBRANCH  16  18
ENDBRANCH  15  16
BRANCH  15  32
HETATM   32  C12 UNL     1      31.792  30.524  22.860  1.00  0.00     0.111 A 
HETATM   33  N5  UNL     1      31.841  29.251  23.184  1.00  0.00    -0.311 N 
HETATM   34  C13 UNL     1      32.775  28.387  22.736  1.00  0.00     0.247 A 
ATOM     35  H5  UNL     1      31.126  28.893  23.816  1.00  0.00     0.170 HD
HETATM   36  O8  UNL     1      32.717  27.195  23.117  1.00  0.00    -0.268 OA
HETATM   37  C14 UNL     1      33.750  28.871  21.876  1.00  0.00     0.091 A 
HETATM   38  C15 UNL     1      33.707  30.198  21.531  1.00  0.00     0.095 A 
HETATM   39  N6  UNL     1      32.732  30.993  22.030  1.00  0.00    -0.354 N 
ATOM     40  H6  UNL     1      32.713  31.978  21.767  1.00  0.00     0.166 HD
ENDBRANCH  15  32
BRANCH  15  41
HETATM   41  C16 UNL     1      30.939  32.675  22.469  1.00  0.00     0.283 C 
BRANCH  41  42
HETATM   42  O9  UNL     1      29.894  33.391  22.034  1.00  0.00    -0.369 OA
ATOM     43  H9  UNL     1      29.275  33.031  21.410  1.00  0.00     0.212 HD
ENDBRANCH  41  42
BRANCH  41  44
HETATM   44  O10 UNL     1      31.939  33.535  22.997  1.00  0.00    -0.369 OA
ATOM     45  H10 UNL     1      31.761  34.426  22.720  1.00  0.00     0.212 HD
ENDBRANCH  41  44
ENDBRANCH  15  41
ENDBRANCH   9  15
BRANCH  11  46
HETATM   46  N7  UNL     1      29.716  33.722  24.809  1.00  0.00    -0.290 N 
ATOM     47  H7  UNL     1      28.890  33.341  24.346  1.00  0.00     0.188 HD
BRANCH  46  48
HETATM   48  N8  UNL     1      29.939  35.087  24.786  1.00  0.00    -0.344 N 
ATOM     49  H82 UNL     1      30.703  35.463  25.347  1.00  0.00     0.176 HD
ATOM     50  H81 UNL     1      29.358  35.708  24.223  1.00  0.00     0.176 HD
ENDBRANCH  46  48
ENDBRANCH  11  46
BRANCH  13  51
HETATM   51  O11 UNL     1      31.875  32.811  28.726  1.00  0.00    -0.344 OA
ATOM     52  H11 UNL     1      31.260  33.329  29.232  1.00  0.00     0.219 HD
ENDBRANCH  13  51
ENDBRANCH   5   7
TORSDOF 16
ENDMDL
MODEL 4
REMARK VINA RESULT: -6.503932406      2.635      5.621
REMARK  16 active torsions:
REMARK  status: ('A' for Active; 'I' for Inactive)
REMARK       I    between atoms: N2_3  and  C2_5 
REMARK    1  A    between atoms: C2_5  and  C3_7 
REMARK    2  A    between atoms: C4_10  and  C5_11 
REMARK    3  A    between atoms: C5_11  and  C6_12 
REMARK    4  A    between atoms: C5_11  and  C12_28 
REMARK    5  A    between atoms: C5_11  and  C16_37 
REMARK    6  A    between atoms: C6_12  and  C7_14 
REMARK    7  A    between atoms: C7_14  and  O3_15 
REMARK    8  A    between atoms: C7_14  and  N4_17 
REMARK    9  A    between atoms: C10_22  and  C11_23 
REMARK   10  A    between atoms: C11_23  and  O6_24 
REMARK   11  A    between atoms: C11_23  and  O7_26 
REMARK   12  A    between atoms: C16_37  and  O9_38 
REMARK   13  A    between atoms: C16_37  and  O10_40 
REMARK   14  A    between atoms: C17_42  and  N7_43 
REMARK   15  A    between atoms: N7_43  and  N8_45 
REMARK   16  A    between atoms: C18_50  and  O11_51 
ROOT
HETATM    1  N1  UNL     1      24.350  28.412  24.912  1.00  0.00    -0.172 NA
HETATM    2  C1  UNL     1      25.503  28.349  24.876  1.00  0.00     0.184 C 
HETATM    3  N2  UNL     1      26.926  28.288  24.820  1.00  0.00    -0.258 N 
ATOM      4  H2  UNL     1      27.405  27.437  25.118  1.00  0.00     0.181 HD
HETATM    5  C2  UNL     1      27.666  29.365  24.368  1.00  0.00     0.285 C 
HETATM    6  O1  UNL     1      26.989  30.400  24.010  1.00  0.00    -0.265 OA
ENDROOT
BRANCH   5   7
HETATM    7  C3  UNL     1      29.091  29.438  24.260  1.00  0.00     0.153 A 
HETATM    8  N3  UNL     1      29.808  29.330  25.420  1.00  0.00    -0.347 N 
HETATM    9  C4  UNL     1      31.161  29.376  25.491  1.00  0.00     0.085 A 
ATOM     10  H3  UNL     1      29.289  29.207  26.290  1.00  0.00     0.166 HD
HETATM   11  C17 UNL     1      31.803  29.541  24.302  1.00  0.00     0.146 A 
HETATM   12  N9  UNL     1      31.124  29.651  23.135  1.00  0.00    -0.319 N 
HETATM   13  C18 UNL     1      29.788  29.603  23.098  1.00  0.00     0.174 A 
ATOM     14  H9  UNL     1      31.643  29.774  22.266  1.00  0.00     0.169 HD
BRANCH   9  15
HETATM   15  C5  UNL     1      31.883  29.285  26.757  1.00  0.00     0.178 C 
BRANCH  15  16
HETATM   16  C6  UNL     1      33.036  30.223  26.871  1.00  0.00     0.204 C 
HETATM   17  O2  UNL     1      34.180  29.821  26.756  1.00  0.00    -0.291 OA
BRANCH  16  18
HETATM   18  C7  UNL     1      32.856  31.680  27.128  1.00  0.00     0.320 C 
BRANCH  18  19
HETATM   19  O3  UNL     1      33.894  32.157  27.932  1.00  0.00    -0.368 OA
ATOM     20  H3  UNL     1      34.629  32.423  27.393  1.00  0.00     0.212 HD
ENDBRANCH  18  19
BRANCH  18  21
HETATM   21  N4  UNL     1      32.707  32.430  25.884  1.00  0.00    -0.211 N 
HETATM   22  O4  UNL     1      33.597  32.548  24.941  1.00  0.00    -0.190 OA
HETATM   23  C8  UNL     1      33.204  33.272  23.944  1.00  0.00     0.307 A 
HETATM   24  O5  UNL     1      33.839  33.573  22.876  1.00  0.00    -0.258 OA
HETATM   25  C9  UNL     1      31.930  33.674  24.258  1.00  0.00     0.116 A 
HETATM   26  C10 UNL     1      31.643  33.122  25.497  1.00  0.00     0.099 A 
BRANCH  26  27
HETATM   27  C11 UNL     1      30.356  33.308  26.174  1.00  0.00     0.307 C 
BRANCH  27  28
HETATM   28  O6  UNL     1      29.702  34.374  25.497  1.00  0.00    -0.366 OA
ATOM     29  H6  UNL     1      28.786  34.130  25.439  1.00  0.00     0.213 HD
ENDBRANCH  27  28
BRANCH  27  30
HETATM   30  O7  UNL     1      29.471  32.237  26.042  1.00  0.00    -0.366 OA
ATOM     31  H7  UNL     1      29.125  31.907  26.863  1.00  0.00     0.213 HD
ENDBRANCH  27  30
ENDBRANCH  26  27
ENDBRANCH  18  21
ENDBRANCH  16  18
ENDBRANCH  15  16
BRANCH  15  32
HETATM   32  C12 UNL     1      32.483  27.890  26.917  1.00  0.00     0.111 A 
HETATM   33  N5  UNL     1      33.148  27.482  27.975  1.00  0.00    -0.311 N 
HETATM   34  C13 UNL     1      33.701  26.258  28.102  1.00  0.00     0.247 A 
ATOM     35  H5  UNL     1      33.252  28.134  28.752  1.00  0.00     0.170 HD
HETATM   36  O8  UNL     1      34.312  25.985  29.161  1.00  0.00    -0.268 OA
HETATM   37  C14 UNL     1      33.562  25.368  27.046  1.00  0.00     0.091 A 
HETATM   38  C15 UNL     1      32.870  25.784  25.937  1.00  0.00     0.095 A 
HETATM   39  N6  UNL     1      32.348  27.033  25.897  1.00  0.00    -0.354 N 
ATOM     40  H6  UNL     1      31.837  27.330  25.066  1.00  0.00     0.166 HD
ENDBRANCH  15  32
BRANCH  15  41
HETATM   41  C16 UNL     1      30.995  29.377  27.955  1.00  0.00     0.283 C 
BRANCH  41  42
HETATM   42  O9  UNL     1      30.125  30.384  28.101  1.00  0.00    -0.369 OA
ATOM     43  H9  UNL     1      29.288  30.255  28.532  1.00  0.00     0.212 HD
ENDBRANCH  41  42
BRANCH  41  44
HETATM   44  O10 UNL     1      30.341  28.131  28.147  1.00  0.00    -0.369 OA
ATOM     45  H10 UNL     1      30.877  27.580  28.706  1.00  0.00     0.212 HD
ENDBRANCH  41  44
ENDBRANCH  15  41
ENDBRANCH   9  15
BRANCH  11  46
HETATM   46  N7  UNL     1      33.071  29.565  24.211  1.00  0.00    -0.290 N 
ATOM     47  H7  UNL     1      33.620  29.972  24.969  1.00  0.00     0.188 HD
BRANCH  46  48
HETATM   48  N8  UNL     1      33.720  29.051  23.103  1.00  0.00    -0.344 N 
ATOM     49  H82 UNL     1      33.154  28.683  22.337  1.00  0.00     0.176 HD
ATOM     50  H81 UNL     1      34.738  29.035  23.046  1.00  0.00     0.176 HD
ENDBRANCH  46  48
ENDBRANCH  11  46
BRANCH  13  51
HETATM   51  O11 UNL     1      29.146  29.721  21.886  1.00  0.00    -0.344 OA
ATOM     52  H11 UNL     1      29.532  30.207  21.166  1.00  0.00     0.219 HD
ENDBRANCH  13  51
ENDBRANCH   5   7
TORSDOF 16
ENDMDL
MODEL 5
REMARK VINA RESULT: -6.461414322      2.442      4.079
REMARK  16 active torsions:
REMARK  status: ('A' for Active; 'I' for Inactive)
REMARK       I    between atoms: N2_3  and  C2_5 
REMARK    1  A    between atoms: C2_5  and  C3_7 
REMARK    2  A    between atoms: C4_10  and  C5_11 
REMARK    3  A    between atoms: C5_11  and  C6_12 
REMARK    4  A    between atoms: C5_11  and  C12_28 
REMARK    5  A    between atoms: C5_11  and  C16_37 
REMARK    6  A    between atoms: C6_12  and  C7_14 
REMARK    7  A    between atoms: C7_14  and  O3_15 
REMARK    8  A    between atoms: C7_14  and  N4_17 
REMARK    9  A    between atoms: C10_22  and  C11_23 
REMARK   10  A    between atoms: C11_23  and  O6_24 
REMARK   11  A    between atoms: C11_23  and  O7_26 
REMARK   12  A    between atoms: C16_37  and  O9_38 
REMARK   13  A    between atoms: C16_37  and  O10_40 
REMARK   14  A    between atoms: C17_42  and  N7_43 
REMARK   15  A    between atoms: N7_43  and  N8_45 
REMARK   16  A    between atoms: C18_50  and  O11_51 
ROOT
HETATM    1  N1  UNL     1      33.135  25.694  30.802  1.00  0.00    -0.172 NA
HETATM    2  C1  UNL     1      32.372  26.125  30.049  1.00  0.00     0.184 C 
HETATM    3  N2  UNL     1      31.444  26.672  29.116  1.00  0.00    -0.258 N 
ATOM      4  H2  UNL     1      30.466  26.384  29.152  1.00  0.00     0.181 HD
HETATM    5  C2  UNL     1      31.852  27.587  28.162  1.00  0.00     0.285 C 
HETATM    6  O1  UNL     1      33.100  27.900  28.182  1.00  0.00    -0.265 OA
ENDROOT
BRANCH   5   7
HETATM    7  C3  UNL     1      31.030  28.211  27.171  1.00  0.00     0.153 A 
HETATM    8  N3  UNL     1      31.339  29.499  26.829  1.00  0.00    -0.347 N 
HETATM    9  C4  UNL     1      30.663  30.230  25.909  1.00  0.00     0.085 A 
ATOM     10  H3  UNL     1      32.130  29.939  27.299  1.00  0.00     0.166 HD
HETATM   11  C17 UNL     1      29.617  29.595  25.311  1.00  0.00     0.146 A 
HETATM   12  N9  UNL     1      29.285  28.320  25.626  1.00  0.00    -0.319 N 
HETATM   13  C18 UNL     1      29.970  27.625  26.541  1.00  0.00     0.174 A 
ATOM     14  H9  UNL     1      28.494  27.881  25.156  1.00  0.00     0.169 HD
BRANCH   9  15
HETATM   15  C5  UNL     1      31.011  31.613  25.597  1.00  0.00     0.178 C 
BRANCH  15  16
HETATM   16  C6  UNL     1      31.846  31.772  24.371  1.00  0.00     0.204 C 
HETATM   17  O2  UNL     1      32.842  31.091  24.203  1.00  0.00    -0.291 OA
BRANCH  16  18
HETATM   18  C7  UNL     1      31.513  32.755  23.302  1.00  0.00     0.320 C 
BRANCH  18  19
HETATM   19  O3  UNL     1      32.631  33.537  23.005  1.00  0.00    -0.368 OA
ATOM     20  H3  UNL     1      32.483  34.435  23.277  1.00  0.00     0.212 HD
ENDBRANCH  18  19
BRANCH  18  21
HETATM   21  N4  UNL     1      30.948  32.098  22.126  1.00  0.00    -0.211 N 
HETATM   22  O4  UNL     1      31.544  31.225  21.367  1.00  0.00    -0.190 OA
HETATM   23  C8  UNL     1      30.811  30.801  20.388  1.00  0.00     0.307 A 
HETATM   24  O5  UNL     1      31.105  29.953  19.479  1.00  0.00    -0.258 OA
HETATM   25  C9  UNL     1      29.613  31.458  20.513  1.00  0.00     0.116 A 
HETATM   26  C10 UNL     1      29.731  32.275  21.627  1.00  0.00     0.099 A 
BRANCH  26  27
HETATM   27  C11 UNL     1      28.643  33.133  22.106  1.00  0.00     0.307 C 
BRANCH  27  28
HETATM   28  O6  UNL     1      27.957  33.589  20.946  1.00  0.00    -0.366 OA
ATOM     29  H6  UNL     1      27.096  33.864  21.238  1.00  0.00     0.213 HD
ENDBRANCH  27  28
BRANCH  27  30
HETATM   30  O7  UNL     1      27.658  32.469  22.836  1.00  0.00    -0.366 OA
ATOM     31  H7  UNL     1      26.785  32.525  22.466  1.00  0.00     0.213 HD
ENDBRANCH  27  30
ENDBRANCH  26  27
ENDBRANCH  18  21
ENDBRANCH  16  18
ENDBRANCH  15  16
BRANCH  15  32
HETATM   32  C12 UNL     1      31.844  32.211  26.729  1.00  0.00     0.111 A 
HETATM   33  N5  UNL     1      33.006  32.804  26.567  1.00  0.00    -0.311 N 
HETATM   34  C13 UNL     1      33.752  33.306  27.573  1.00  0.00     0.247 A 
ATOM     35  H5  UNL     1      33.367  32.891  25.618  1.00  0.00     0.170 HD
HETATM   36  O8  UNL     1      34.845  33.850  27.292  1.00  0.00    -0.268 OA
HETATM   37  C14 UNL     1      33.263  33.189  28.866  1.00  0.00     0.091 A 
HETATM   38  C15 UNL     1      32.052  32.571  29.046  1.00  0.00     0.095 A 
HETATM   39  N6  UNL     1      31.371  32.096  27.976  1.00  0.00    -0.354 N 
ATOM     40  H6  UNL     1      30.472  31.638  28.125  1.00  0.00     0.166 HD
ENDBRANCH  15  32
BRANCH  15  41
HETATM   41  C16 UNL     1      29.832  32.530  25.565  1.00  0.00     0.283 C 
BRANCH  41  42
HETATM   42  O9  UNL     1      28.711  32.245  26.241  1.00  0.00    -0.369 OA
ATOM     43  H9  UNL     1      28.191  32.930  26.646  1.00  0.00     0.212 HD
ENDBRANCH  41  42
BRANCH  41  44
HETATM   44  O10 UNL     1      30.261  33.851  25.860  1.00  0.00    -0.369 OA
ATOM     45  H10 UNL     1      31.127  33.987  25.494  1.00  0.00     0.212 HD
ENDBRANCH  41  44
ENDBRANCH  15  41
ENDBRANCH   9  15
BRANCH  11  46
HETATM   46  N7  UNL     1      28.916  30.143  24.403  1.00  0.00    -0.290 N 
ATOM     47  H7  UNL     1      29.379  30.688  23.675  1.00  0.00     0.188 HD
BRANCH  46  48
HETATM   48  N8  UNL     1      27.539  30.015  24.385  1.00  0.00    -0.344 N 
ATOM     49  H82 UNL     1      27.102  29.383  25.056  1.00  0.00     0.176 HD
ATOM     50  H81 UNL     1      26.969  30.536  23.719  1.00  0.00     0.176 HD
ENDBRANCH  46  48
ENDBRANCH  11  46
BRANCH  13  51
HETATM   51  O11 UNL     1      29.590  26.333  26.824  1.00  0.00    -0.344 OA
ATOM     52  H11 UNL     1      28.695  26.040  26.695  1.00  0.00     0.219 HD
ENDBRANCH  13  51
ENDBRANCH   5   7
TORSDOF 16
ENDMDL
