MODEL 1
REMARK VINA RESULT: -7.145591021      0.000      0.000
REMARK  15 active torsions:
REMARK  status: ('A' for Active; 'I' for Inactive)
REMARK    1  A    between atoms: N1_1  and  C1_4 
REMARK    2  A    between atoms: C2_7  and  N3_8 
REMARK    3  A    between atoms: N6_16  and  C4_17 
REMARK    4  A    between atoms: C7_20  and  C8_21 
REMARK    5  A    between atoms: C9_24  and  N8_25 
REMARK    6  A    between atoms: N8_25  and  C10_27 
REMARK    7  A    between atoms: C10_27  and  C11_28 
REMARK    8  A    between atoms: C10_27  and  C12_31 
REMARK    9  A    between atoms: C12_31  and  O2_32 
REMARK   10  A    between atoms: C12_31  and  O3_34 
REMARK   11  A    between atoms: C14_38  and  S1_39 
REMARK   12  A    between atoms: S1_39  and  N10_42 
REMARK   13  A    between atoms: N10_42  and  O7_43 
REMARK   14  A    between atoms: N10_42  and  N11_45 
REMARK   15  A    between atoms: N11_45  and  O8_46 
ROOT
HETATM    1  C4  UNL     1      30.396  29.104  26.285  1.00  0.00     0.131 A 
HETATM    2  C5  UNL     1      29.496  28.074  26.366  1.00  0.00     0.051 A 
HETATM    3  C6  UNL     1      29.965  26.872  26.828  1.00  0.00     0.022 A 
HETATM    4  C7  UNL     1      31.285  26.672  27.205  1.00  0.00     0.055 A 
HETATM    5  C14 UNL     1      32.154  27.723  27.108  1.00  0.00     0.163 A 
HETATM    6  N12 UNL     1      31.667  28.913  26.646  1.00  0.00    -0.330 N 
ATOM      7  H12 UNL     1      32.311  29.700  26.573  1.00  0.00     0.168 HD
ENDROOT
BRANCH   1   8
HETATM    8  N6  UNL     1      29.957  30.378  25.811  1.00  0.00    -0.206 N 
HETATM    9  N5  UNL     1      28.708  30.673  25.510  1.00  0.00    -0.232 N 
HETATM   10  N4  UNL     1      28.611  31.918  25.101  1.00  0.00    -0.279 N 
ATOM     11  H5  UNL     1      27.924  30.024  25.583  1.00  0.00     0.209 HD
HETATM   12  C3  UNL     1      29.836  32.460  25.135  1.00  0.00     0.140 A 
ATOM     13  H4  UNL     1      27.754  32.389  24.810  1.00  0.00     0.189 HD
HETATM   14  C2  UNL     1      30.345  33.703  24.828  1.00  0.00     0.147 A 
HETATM   15  C15 UNL     1      30.689  31.480  25.586  1.00  0.00     0.177 A 
HETATM   16  N2  UNL     1      31.660  33.907  24.983  1.00  0.00    -0.175 N 
HETATM   17  C1  UNL     1      32.496  32.963  25.420  1.00  0.00     0.679 A 
ATOM     18  H2  UNL     1      32.039  34.826  24.757  1.00  0.00     0.186 HD
HETATM   19  N13 UNL     1      31.995  31.737  25.722  1.00  0.00    -0.172 N 
ATOM     20  H13 UNL     1      32.621  31.005  26.056  1.00  0.00     0.186 HD
BRANCH  14  21
HETATM   21  N3  UNL     1      29.559  34.627  24.406  1.00  0.00    -0.383 N 
ATOM     22  H32 UNL     1      29.949  35.489  24.025  1.00  0.00     0.157 HD
ATOM     23  H31 UNL     1      28.544  34.529  24.438  1.00  0.00     0.157 HD
ENDBRANCH  14  21
BRANCH  17  24
HETATM   24  N1  UNL     1      33.747  33.211  25.550  1.00  0.00    -0.234 N 
ATOM     25  H12 UNL     1      34.113  34.149  25.390  1.00  0.00     0.174 HD
ATOM     26  H11 UNL     1      34.397  32.470  25.816  1.00  0.00     0.174 HD
ENDBRANCH  17  24
ENDBRANCH   1   8
BRANCH   5  27
HETATM   27  S1  UNL     1      33.854  27.591  27.479  1.00  0.00     0.299 S 
HETATM   28  O5  UNL     1      34.094  26.868  28.754  1.00  0.00    -0.201 OA
HETATM   29  O6  UNL     1      34.455  26.657  26.396  1.00  0.00    -0.201 OA
BRANCH  27  30
HETATM   30  N10 UNL     1      34.707  29.061  27.296  1.00  0.00     0.040 NA
BRANCH  30  31
HETATM   31  O7  UNL     1      34.712  29.782  28.459  1.00  0.00    -0.281 OA
ATOM     32  H7  UNL     1      34.374  30.659  28.323  1.00  0.00     0.240 HD
ENDBRANCH  30  31
BRANCH  30  33
HETATM   33  N11 UNL     1      34.057  29.917  26.367  1.00  0.00     0.034 NA
BRANCH  33  34
HETATM   34  O8  UNL     1      34.102  29.423  25.117  1.00  0.00    -0.279 OA
ATOM     35  H8  UNL     1      33.609  29.960  24.508  1.00  0.00     0.240 HD
ENDBRANCH  33  34
ENDBRANCH  30  33
ENDBRANCH  27  30
ENDBRANCH   5  27
BRANCH   4  36
HETATM   36  C8  UNL     1      31.680  25.350  27.722  1.00  0.00     0.162 A 
HETATM   37  N7  UNL     1      32.415  24.436  27.059  1.00  0.00    -0.321 N 
HETATM   38  C9  UNL     1      32.604  23.318  27.819  1.00  0.00     0.130 A 
ATOM     39  H7  UNL     1      32.782  24.562  26.116  1.00  0.00     0.169 HD
HETATM   40  C13 UNL     1      31.939  23.606  28.982  1.00  0.00     0.192 A 
HETATM   41  O4  UNL     1      31.418  24.811  28.867  1.00  0.00    -0.301 OA
BRANCH  38  42
HETATM   42  N8  UNL     1      33.337  22.179  27.403  1.00  0.00    -0.336 N 
ATOM     43  H8  UNL     1      32.814  21.309  27.300  1.00  0.00     0.167 HD
BRANCH  42  44
HETATM   44  C10 UNL     1      34.720  22.128  27.114  1.00  0.00     0.131 C 
BRANCH  44  45
HETATM   45  C11 UNL     1      35.094  22.241  25.684  1.00  0.00     0.282 C 
HETATM   46  N9  UNL     1      34.801  23.432  25.003  1.00  0.00    -0.056 NA
HETATM   47  O1  UNL     1      35.657  21.274  25.128  1.00  0.00    -0.270 OA
ENDBRANCH  44  45
BRANCH  44  48
HETATM   48  C12 UNL     1      35.619  22.894  28.045  1.00  0.00     0.310 C 
BRANCH  48  49
HETATM   49  O2  UNL     1      35.351  22.554  29.391  1.00  0.00    -0.366 OA
ATOM     50  H2  UNL     1      36.160  22.441  29.876  1.00  0.00     0.213 HD
ENDBRANCH  48  49
BRANCH  48  51
HETATM   51  O3  UNL     1      35.599  24.263  27.862  1.00  0.00    -0.366 OA
ATOM     52  H3  UNL     1      36.236  24.739  28.380  1.00  0.00     0.213 HD
ENDBRANCH  48  51
ENDBRANCH  44  48
ENDBRANCH  42  44
ENDBRANCH  38  42
ENDBRANCH   4  36
TORSDOF 15
ENDMDL
MODEL 2
REMARK VINA RESULT: -6.939126221      3.324      8.606
REMARK  15 active torsions:
REMARK  status: ('A' for Active; 'I' for Inactive)
REMARK    1  A    between atoms: N1_1  and  C1_4 
REMARK    2  A    between atoms: C2_7  and  N3_8 
REMARK    3  A    between atoms: N6_16  and  C4_17 
REMARK    4  A    between atoms: C7_20  and  C8_21 
REMARK    5  A    between atoms: C9_24  and  N8_25 
REMARK    6  A    between atoms: N8_25  and  C10_27 
REMARK    7  A    between atoms: C10_27  and  C11_28 
REMARK    8  A    between atoms: C10_27  and  C12_31 
REMARK    9  A    between atoms: C12_31  and  O2_32 
REMARK   10  A    between atoms: C12_31  and  O3_34 
REMARK   11  A    between atoms: C14_38  and  S1_39 
REMARK   12  A    between atoms: S1_39  and  N10_42 
REMARK   13  A    between atoms: N10_42  and  O7_43 
REMARK   14  A    between atoms: N10_42  and  N11_45 
REMARK   15  A    between atoms: N11_45  and  O8_46 
ROOT
HETATM    1  C4  UNL     1      32.159  27.333  28.029  1.00  0.00     0.131 A 
HETATM    2  C5  UNL     1      31.028  27.150  27.277  1.00  0.00     0.051 A 
HETATM    3  C6  UNL     1      30.468  28.266  26.712  1.00  0.00     0.022 A 
HETATM    4  C7  UNL     1      30.996  29.538  26.874  1.00  0.00     0.055 A 
HETATM    5  C14 UNL     1      32.124  29.681  27.632  1.00  0.00     0.163 A 
HETATM    6  N12 UNL     1      32.667  28.557  28.186  1.00  0.00    -0.330 N 
ATOM      7  H12 UNL     1      33.510  28.659  28.752  1.00  0.00     0.168 HD
ENDROOT
BRANCH   1   8
HETATM    8  N6  UNL     1      32.782  26.201  28.637  1.00  0.00    -0.206 N 
HETATM    9  N5  UNL     1      32.907  26.026  29.938  1.00  0.00    -0.232 N 
HETATM   10  N4  UNL     1      33.522  24.894  30.197  1.00  0.00    -0.279 N 
ATOM     11  H5  UNL     1      32.573  26.679  30.646  1.00  0.00     0.209 HD
HETATM   12  C3  UNL     1      33.811  24.305  29.028  1.00  0.00     0.140 A 
ATOM     13  H4  UNL     1      33.742  24.528  31.124  1.00  0.00     0.189 HD
HETATM   14  C2  UNL     1      34.436  23.129  28.674  1.00  0.00     0.147 A 
HETATM   15  C15 UNL     1      33.340  25.137  28.039  1.00  0.00     0.177 A 
HETATM   16  N2  UNL     1      34.559  22.842  27.371  1.00  0.00    -0.175 N 
HETATM   17  C1  UNL     1      34.105  23.642  26.404  1.00  0.00     0.679 A 
ATOM     18  H2  UNL     1      35.021  21.973  27.106  1.00  0.00     0.186 HD
HETATM   19  N13 UNL     1      33.490  24.802  26.752  1.00  0.00    -0.172 N 
ATOM     20  H13 UNL     1      33.139  25.424  26.025  1.00  0.00     0.186 HD
BRANCH  14  21
HETATM   21  N3  UNL     1      34.881  22.343  29.588  1.00  0.00    -0.383 N 
ATOM     22  H32 UNL     1      35.639  21.696  29.374  1.00  0.00     0.157 HD
ATOM     23  H31 UNL     1      34.498  22.344  30.533  1.00  0.00     0.157 HD
ENDBRANCH  14  21
BRANCH  17  24
HETATM   24  N1  UNL     1      34.250  23.320  25.171  1.00  0.00    -0.234 N 
ATOM     25  H12 UNL     1      34.922  23.809  24.579  1.00  0.00     0.174 HD
ATOM     26  H11 UNL     1      33.693  22.569  24.764  1.00  0.00     0.174 HD
ENDBRANCH  17  24
ENDBRANCH   1   8
BRANCH   5  27
HETATM   27  S1  UNL     1      32.850  31.231  27.977  1.00  0.00     0.299 S 
HETATM   28  O5  UNL     1      32.188  31.917  29.116  1.00  0.00    -0.201 OA
HETATM   29  O6  UNL     1      34.278  30.925  28.499  1.00  0.00    -0.201 OA
BRANCH  27  30
HETATM   30  N10 UNL     1      33.099  32.191  26.585  1.00  0.00     0.040 NA
BRANCH  30  31
HETATM   31  O7  UNL     1      33.617  31.452  25.557  1.00  0.00    -0.281 OA
ATOM     32  H7  UNL     1      33.816  30.565  25.834  1.00  0.00     0.240 HD
ENDBRANCH  30  31
BRANCH  30  33
HETATM   33  N11 UNL     1      34.084  33.188  26.820  1.00  0.00     0.034 NA
BRANCH  33  34
HETATM   34  O8  UNL     1      34.072  33.609  28.096  1.00  0.00    -0.279 OA
ATOM     35  H8  UNL     1      34.844  33.321  28.569  1.00  0.00     0.240 HD
ENDBRANCH  33  34
ENDBRANCH  30  33
ENDBRANCH  27  30
ENDBRANCH   5  27
BRANCH   4  36
HETATM   36  C8  UNL     1      30.337  30.668  26.196  1.00  0.00     0.162 A 
HETATM   37  N7  UNL     1      30.693  31.183  25.002  1.00  0.00    -0.321 N 
HETATM   38  C9  UNL     1      29.878  32.222  24.657  1.00  0.00     0.130 A 
ATOM     39  H7  UNL     1      31.468  30.843  24.433  1.00  0.00     0.169 HD
HETATM   40  C13 UNL     1      29.006  32.309  25.710  1.00  0.00     0.192 A 
HETATM   41  O4  UNL     1      29.324  31.372  26.582  1.00  0.00    -0.301 OA
BRANCH  38  42
HETATM   42  N8  UNL     1      29.995  32.970  23.459  1.00  0.00    -0.336 N 
ATOM     43  H8  UNL     1      29.361  33.762  23.348  1.00  0.00     0.167 HD
BRANCH  42  44
HETATM   44  C10 UNL     1      30.903  32.729  22.402  1.00  0.00     0.131 C 
BRANCH  44  45
HETATM   45  C11 UNL     1      30.535  33.300  21.083  1.00  0.00     0.282 C 
HETATM   46  N9  UNL     1      31.523  33.962  20.337  1.00  0.00    -0.056 NA
HETATM   47  O1  UNL     1      29.361  33.177  20.677  1.00  0.00    -0.270 OA
ENDBRANCH  44  45
BRANCH  44  48
HETATM   48  C12 UNL     1      32.362  32.857  22.740  1.00  0.00     0.310 C 
BRANCH  48  49
HETATM   49  O2  UNL     1      32.967  31.583  22.832  1.00  0.00    -0.366 OA
ATOM     50  H2  UNL     1      33.206  31.389  23.731  1.00  0.00     0.213 HD
ENDBRANCH  48  49
BRANCH  48  51
HETATM   51  O3  UNL     1      32.625  33.617  23.863  1.00  0.00    -0.366 OA
ATOM     52  H3  UNL     1      32.395  34.535  23.779  1.00  0.00     0.213 HD
ENDBRANCH  48  51
ENDBRANCH  44  48
ENDBRANCH  42  44
ENDBRANCH  38  42
ENDBRANCH   4  36
TORSDOF 15
ENDMDL
MODEL 3
REMARK VINA RESULT: -6.935817508      3.254      8.705
REMARK  15 active torsions:
REMARK  status: ('A' for Active; 'I' for Inactive)
REMARK    1  A    between atoms: N1_1  and  C1_4 
REMARK    2  A    between atoms: C2_7  and  N3_8 
REMARK    3  A    between atoms: N6_16  and  C4_17 
REMARK    4  A    between atoms: C7_20  and  C8_21 
REMARK    5  A    between atoms: C9_24  and  N8_25 
REMARK    6  A    between atoms: N8_25  and  C10_27 
REMARK    7  A    between atoms: C10_27  and  C11_28 
REMARK    8  A    between atoms: C10_27  and  C12_31 
REMARK    9  A    between atoms: C12_31  and  O2_32 
REMARK   10  A    between atoms: C12_31  and  O3_34 
REMARK   11  A    between atoms: C14_38  and  S1_39 
REMARK   12  A    between atoms: S1_39  and  N10_42 
REMARK   13  A    between atoms: N10_42  and  O7_43 
REMARK   14  A    between atoms: N10_42  and  N11_45 
REMARK   15  A    between atoms: N11_45  and  O8_46 
ROOT
HETATM    1  C4  UNL     1      32.135  27.176  28.028  1.00  0.00     0.131 A 
HETATM    2  C5  UNL     1      30.980  26.975  27.318  1.00  0.00     0.051 A 
HETATM    3  C6  UNL     1      30.395  28.080  26.756  1.00  0.00     0.022 A 
HETATM    4  C7  UNL     1      30.920  29.357  26.881  1.00  0.00     0.055 A 
HETATM    5  C14 UNL     1      32.072  29.518  27.598  1.00  0.00     0.163 A 
HETATM    6  N12 UNL     1      32.641  28.405  28.149  1.00  0.00    -0.330 N 
ATOM      7  H12 UNL     1      33.502  28.520  28.685  1.00  0.00     0.168 HD
ENDROOT
BRANCH   1   8
HETATM    8  N6  UNL     1      32.785  26.057  28.631  1.00  0.00    -0.206 N 
HETATM    9  N5  UNL     1      32.889  25.864  29.931  1.00  0.00    -0.232 N 
HETATM   10  N4  UNL     1      33.539  24.750  30.185  1.00  0.00    -0.279 N 
ATOM     11  H5  UNL     1      32.517  26.493  30.643  1.00  0.00     0.209 HD
HETATM   12  C3  UNL     1      33.873  24.192  29.013  1.00  0.00     0.140 A 
ATOM     13  H4  UNL     1      33.752  24.377  31.111  1.00  0.00     0.189 HD
HETATM   14  C2  UNL     1      34.546  23.045  28.654  1.00  0.00     0.147 A 
HETATM   15  C15 UNL     1      33.393  25.023  28.028  1.00  0.00     0.177 A 
HETATM   16  N2  UNL     1      34.707  22.784  27.350  1.00  0.00    -0.175 N 
HETATM   17  C1  UNL     1      34.245  23.584  26.387  1.00  0.00     0.679 A 
ATOM     18  H2  UNL     1      35.205  21.937  27.081  1.00  0.00     0.186 HD
HETATM   19  N13 UNL     1      33.582  24.715  26.740  1.00  0.00    -0.172 N 
ATOM     20  H13 UNL     1      33.224  25.337  26.015  1.00  0.00     0.186 HD
BRANCH  14  21
HETATM   21  N3  UNL     1      35.000  22.260  29.565  1.00  0.00    -0.383 N 
ATOM     22  H32 UNL     1      34.418  21.496  29.910  1.00  0.00     0.157 HD
ATOM     23  H31 UNL     1      35.933  22.374  29.960  1.00  0.00     0.157 HD
ENDBRANCH  14  21
BRANCH  17  24
HETATM   24  N1  UNL     1      34.427  23.289  25.152  1.00  0.00    -0.234 N 
ATOM     25  H12 UNL     1      33.664  23.365  24.479  1.00  0.00     0.174 HD
ATOM     26  H11 UNL     1      35.340  22.972  24.824  1.00  0.00     0.174 HD
ENDBRANCH  17  24
ENDBRANCH   1   8
BRANCH   5  27
HETATM   27  S1  UNL     1      32.801  31.077  27.895  1.00  0.00     0.299 S 
HETATM   28  O5  UNL     1      32.196  31.761  29.067  1.00  0.00    -0.201 OA
HETATM   29  O6  UNL     1      34.259  30.788  28.338  1.00  0.00    -0.201 OA
BRANCH  27  30
HETATM   30  N10 UNL     1      32.961  32.032  26.487  1.00  0.00     0.040 NA
BRANCH  30  31
HETATM   31  O7  UNL     1      33.495  31.311  25.455  1.00  0.00    -0.281 OA
ATOM     32  H7  UNL     1      32.899  30.631  25.163  1.00  0.00     0.240 HD
ENDBRANCH  30  31
BRANCH  30  33
HETATM   33  N11 UNL     1      33.894  33.085  26.687  1.00  0.00     0.034 NA
BRANCH  33  34
HETATM   34  O8  UNL     1      34.243  33.668  25.527  1.00  0.00    -0.279 OA
ATOM     35  H8  UNL     1      34.372  34.604  25.628  1.00  0.00     0.240 HD
ENDBRANCH  33  34
ENDBRANCH  30  33
ENDBRANCH  27  30
ENDBRANCH   5  27
BRANCH   4  36
HETATM   36  C8  UNL     1      30.231  30.473  26.209  1.00  0.00     0.162 A 
HETATM   37  N7  UNL     1      30.310  30.768  24.896  1.00  0.00    -0.321 N 
HETATM   38  C9  UNL     1      29.552  31.862  24.596  1.00  0.00     0.130 A 
ATOM     39  H7  UNL     1      30.863  30.244  24.218  1.00  0.00     0.169 HD
HETATM   40  C13 UNL     1      29.008  32.215  25.803  1.00  0.00     0.192 A 
HETATM   41  O4  UNL     1      29.442  31.365  26.712  1.00  0.00    -0.301 OA
BRANCH  38  42
HETATM   42  N8  UNL     1      29.425  32.419  23.299  1.00  0.00    -0.336 N 
ATOM     43  H8  UNL     1      28.594  32.162  22.768  1.00  0.00     0.167 HD
BRANCH  42  44
HETATM   44  C10 UNL     1      30.336  33.297  22.668  1.00  0.00     0.131 C 
BRANCH  44  45
HETATM   45  C11 UNL     1      31.565  33.623  23.431  1.00  0.00     0.282 C 
HETATM   46  N9  UNL     1      32.776  33.026  23.045  1.00  0.00    -0.056 NA
HETATM   47  O1  UNL     1      31.488  34.415  24.393  1.00  0.00    -0.270 OA
ENDBRANCH  44  45
BRANCH  44  48
HETATM   48  C12 UNL     1      30.569  33.066  21.200  1.00  0.00     0.310 C 
BRANCH  48  49
HETATM   49  O2  UNL     1      30.985  31.736  20.965  1.00  0.00    -0.366 OA
ATOM     50  H2  UNL     1      30.252  31.137  21.045  1.00  0.00     0.213 HD
ENDBRANCH  48  49
BRANCH  48  51
HETATM   51  O3  UNL     1      31.429  33.971  20.608  1.00  0.00    -0.366 OA
ATOM     52  H3  UNL     1      30.997  34.694  20.168  1.00  0.00     0.213 HD
ENDBRANCH  48  51
ENDBRANCH  44  48
ENDBRANCH  42  44
ENDBRANCH  38  42
ENDBRANCH   4  36
TORSDOF 15
ENDMDL
MODEL 4
REMARK VINA RESULT: -6.893466050      3.203      8.715
REMARK  15 active torsions:
REMARK  status: ('A' for Active; 'I' for Inactive)
REMARK    1  A    between atoms: N1_1  and  C1_4 
REMARK    2  A    between atoms: C2_7  and  N3_8 
REMARK    3  A    between atoms: N6_16  and  C4_17 
REMARK    4  A    between atoms: C7_20  and  C8_21 
REMARK    5  A    between atoms: C9_24  and  N8_25 
REMARK    6  A    between atoms: N8_25  and  C10_27 
REMARK    7  A    between atoms: C10_27  and  C11_28 
REMARK    8  A    between atoms: C10_27  and  C12_31 
REMARK    9  A    between atoms: C12_31  and  O2_32 
REMARK   10  A    between atoms: C12_31  and  O3_34 
REMARK   11  A    between atoms: C14_38  and  S1_39 
REMARK   12  A    between atoms: S1_39  and  N10_42 
REMARK   13  A    between atoms: N10_42  and  O7_43 
REMARK   14  A    between atoms: N10_42  and  N11_45 
REMARK   15  A    between atoms: N11_45  and  O8_46 
ROOT
HETATM    1  C4  UNL     1      32.151  26.995  28.092  1.00  0.00     0.131 A 
HETATM    2  C5  UNL     1      30.917  26.845  27.515  1.00  0.00     0.051 A 
HETATM    3  C6  UNL     1      30.350  27.961  26.956  1.00  0.00     0.022 A 
HETATM    4  C7  UNL     1      30.969  29.202  26.958  1.00  0.00     0.055 A 
HETATM    5  C14 UNL     1      32.198  29.313  27.545  1.00  0.00     0.163 A 
HETATM    6  N12 UNL     1      32.747  28.190  28.095  1.00  0.00    -0.330 N 
ATOM      7  H12 UNL     1      33.664  28.268  28.533  1.00  0.00     0.168 HD
ENDROOT
BRANCH   1   8
HETATM    8  N6  UNL     1      32.785  25.862  28.686  1.00  0.00    -0.206 N 
HETATM    9  N5  UNL     1      32.853  25.639  29.983  1.00  0.00    -0.232 N 
HETATM   10  N4  UNL     1      33.497  24.519  30.228  1.00  0.00    -0.279 N 
ATOM     11  H5  UNL     1      32.461  26.250  30.699  1.00  0.00     0.209 HD
HETATM   12  C3  UNL     1      33.864  23.989  29.053  1.00  0.00     0.140 A 
ATOM     13  H4  UNL     1      33.684  24.124  31.150  1.00  0.00     0.189 HD
HETATM   14  C2  UNL     1      34.548  22.851  28.685  1.00  0.00     0.147 A 
HETATM   15  C15 UNL     1      33.410  24.844  28.075  1.00  0.00     0.177 A 
HETATM   16  N2  UNL     1      34.745  22.623  27.380  1.00  0.00    -0.175 N 
HETATM   17  C1  UNL     1      34.309  23.445  26.424  1.00  0.00     0.679 A 
ATOM     18  H2  UNL     1      35.251  21.782  27.105  1.00  0.00     0.186 HD
HETATM   19  N13 UNL     1      33.635  24.567  26.786  1.00  0.00    -0.172 N 
ATOM     20  H13 UNL     1      33.297  25.206  26.067  1.00  0.00     0.186 HD
BRANCH  14  21
HETATM   21  N3  UNL     1      34.977  22.045  29.589  1.00  0.00    -0.383 N 
ATOM     22  H32 UNL     1      35.441  21.179  29.316  1.00  0.00     0.157 HD
ATOM     23  H31 UNL     1      34.868  22.243  30.584  1.00  0.00     0.157 HD
ENDBRANCH  14  21
BRANCH  17  24
HETATM   24  N1  UNL     1      34.526  23.179  25.188  1.00  0.00    -0.234 N 
ATOM     25  H12 UNL     1      33.783  22.807  24.596  1.00  0.00     0.174 HD
ATOM     26  H11 UNL     1      35.446  23.337  24.778  1.00  0.00     0.174 HD
ENDBRANCH  17  24
ENDBRANCH   1   8
BRANCH   5  27
HETATM   27  S1  UNL     1      33.055  30.828  27.682  1.00  0.00     0.299 S 
HETATM   28  O5  UNL     1      34.370  30.667  28.354  1.00  0.00    -0.201 OA
HETATM   29  O6  UNL     1      33.419  31.244  26.233  1.00  0.00    -0.201 OA
BRANCH  27  30
HETATM   30  N10 UNL     1      32.084  32.109  28.263  1.00  0.00     0.040 NA
BRANCH  30  31
HETATM   31  O7  UNL     1      31.779  32.995  27.267  1.00  0.00    -0.281 OA
ATOM     32  H7  UNL     1      30.945  33.422  27.426  1.00  0.00     0.240 HD
ENDBRANCH  30  31
BRANCH  30  33
HETATM   33  N11 UNL     1      32.788  32.894  29.215  1.00  0.00     0.034 NA
BRANCH  33  34
HETATM   34  O8  UNL     1      33.894  33.446  28.687  1.00  0.00    -0.279 OA
ATOM     35  H8  UNL     1      33.711  34.287  28.284  1.00  0.00     0.240 HD
ENDBRANCH  33  34
ENDBRANCH  30  33
ENDBRANCH  27  30
ENDBRANCH   5  27
BRANCH   4  36
HETATM   36  C8  UNL     1      30.289  30.331  26.299  1.00  0.00     0.162 A 
HETATM   37  N7  UNL     1      30.510  30.754  25.038  1.00  0.00    -0.321 N 
HETATM   38  C9  UNL     1      29.716  31.822  24.736  1.00  0.00     0.130 A 
ATOM     39  H7  UNL     1      31.180  30.332  24.396  1.00  0.00     0.169 HD
HETATM   40  C13 UNL     1      29.000  32.024  25.887  1.00  0.00     0.192 A 
HETATM   41  O4  UNL     1      29.379  31.119  26.768  1.00  0.00    -0.301 OA
BRANCH  38  42
HETATM   42  N8  UNL     1      29.712  32.491  23.487  1.00  0.00    -0.336 N 
ATOM     43  H8  UNL     1      28.905  32.331  22.883  1.00  0.00     0.167 HD
BRANCH  42  44
HETATM   44  C10 UNL     1      30.715  33.357  22.993  1.00  0.00     0.131 C 
BRANCH  44  45
HETATM   45  C11 UNL     1      31.335  34.270  23.984  1.00  0.00     0.282 C 
HETATM   46  N9  UNL     1      32.653  34.020  24.396  1.00  0.00    -0.056 NA
HETATM   47  O1  UNL     1      30.668  35.231  24.421  1.00  0.00    -0.270 OA
ENDBRANCH  44  45
BRANCH  44  48
HETATM   48  C12 UNL     1      31.690  32.754  22.020  1.00  0.00     0.310 C 
BRANCH  48  49
HETATM   49  O2  UNL     1      32.421  31.709  22.630  1.00  0.00    -0.366 OA
ATOM     50  H2  UNL     1      33.140  32.059  23.144  1.00  0.00     0.213 HD
ENDBRANCH  48  49
BRANCH  48  51
HETATM   51  O3  UNL     1      32.531  33.666  21.414  1.00  0.00    -0.366 OA
ATOM     52  H3  UNL     1      32.683  33.507  20.490  1.00  0.00     0.213 HD
ENDBRANCH  48  51
ENDBRANCH  44  48
ENDBRANCH  42  44
ENDBRANCH  38  42
ENDBRANCH   4  36
TORSDOF 15
ENDMDL
MODEL 5
REMARK VINA RESULT: -6.850235850      3.219      9.027
REMARK  15 active torsions:
REMARK  status: ('A' for Active; 'I' for Inactive)
REMARK    1  A    between atoms: N1_1  and  C1_4 
REMARK    2  A    between atoms: C2_7  and  N3_8 
REMARK    3  A    between atoms: N6_16  and  C4_17 
REMARK    4  A    between atoms: C7_20  and  C8_21 
REMARK    5  A    between atoms: C9_24  and  N8_25 
REMARK    6  A    between atoms: N8_25  and  C10_27 
REMARK    7  A    between atoms: C10_27  and  C11_28 
REMARK    8  A    between atoms: C10_27  and  C12_31 
REMARK    9  A    between atoms: C12_31  and  O2_32 
REMARK   10  A    between atoms: C12_31  and  O3_34 
REMARK   11  A    between atoms: C14_38  and  S1_39 
REMARK   12  A    between atoms: S1_39  and  N10_42 
REMARK   13  A    between atoms: N10_42  and  O7_43 
REMARK   14  A    between atoms: N10_42  and  N11_45 
REMARK   15  A    between atoms: N11_45  and  O8_46 
ROOT
HETATM    1  C4  UNL     1      33.461  27.148  28.275  1.00  0.00     0.131 A 
HETATM    2  C5  UNL     1      34.434  28.058  28.597  1.00  0.00     0.051 A 
HETATM    3  C6  UNL     1      34.323  29.309  28.047  1.00  0.00     0.022 A 
HETATM    4  C7  UNL     1      33.287  29.671  27.199  1.00  0.00     0.055 A 
HETATM    5  C14 UNL     1      32.337  28.735  26.899  1.00  0.00     0.163 A 
HETATM    6  N12 UNL     1      32.465  27.495  27.458  1.00  0.00    -0.330 N 
ATOM      7  H12 UNL     1      31.757  26.794  27.237  1.00  0.00     0.168 HD
ENDROOT
BRANCH   1   8
HETATM    8  N6  UNL     1      33.531  25.831  28.823  1.00  0.00    -0.206 N 
HETATM    9  N5  UNL     1      33.051  25.486  30.001  1.00  0.00    -0.232 N 
HETATM   10  N4  UNL     1      33.263  24.210  30.233  1.00  0.00    -0.279 N 
ATOM     11  H5  UNL     1      32.581  26.122  30.646  1.00  0.00     0.209 HD
HETATM   12  C3  UNL     1      33.902  23.699  29.171  1.00  0.00     0.140 A 
ATOM     13  H4  UNL     1      32.989  23.699  31.073  1.00  0.00     0.189 HD
HETATM   14  C2  UNL     1      34.374  22.446  28.847  1.00  0.00     0.147 A 
HETATM   15  C15 UNL     1      34.070  24.730  28.277  1.00  0.00     0.177 A 
HETATM   16  N2  UNL     1      34.983  22.283  27.665  1.00  0.00    -0.175 N 
HETATM   17  C1  UNL     1      35.152  23.277  26.791  1.00  0.00     0.679 A 
ATOM     18  H2  UNL     1      35.334  21.357  27.423  1.00  0.00     0.186 HD
HETATM   19  N13 UNL     1      34.687  24.512  27.110  1.00  0.00    -0.172 N 
ATOM     20  H13 UNL     1      34.809  25.282  26.453  1.00  0.00     0.186 HD
BRANCH  14  21
HETATM   21  N3  UNL     1      34.223  21.474  29.674  1.00  0.00    -0.383 N 
ATOM     22  H32 UNL     1      34.596  20.553  29.445  1.00  0.00     0.157 HD
ATOM     23  H31 UNL     1      33.738  21.592  30.563  1.00  0.00     0.157 HD
ENDBRANCH  14  21
BRANCH  17  24
HETATM   24  N1  UNL     1      35.743  23.067  25.672  1.00  0.00    -0.234 N 
ATOM     25  H12 UNL     1      35.866  22.119  25.316  1.00  0.00     0.174 HD
ATOM     26  H11 UNL     1      36.099  23.848  25.120  1.00  0.00     0.174 HD
ENDBRANCH  17  24
ENDBRANCH   1   8
BRANCH   5  27
HETATM   27  S1  UNL     1      31.022  29.033  25.790  1.00  0.00     0.299 S 
HETATM   28  O5  UNL     1      31.422  28.811  24.377  1.00  0.00    -0.201 OA
HETATM   29  O6  UNL     1      29.974  27.924  26.065  1.00  0.00    -0.201 OA
BRANCH  27  30
HETATM   30  N10 UNL     1      30.190  30.494  26.097  1.00  0.00     0.040 NA
BRANCH  30  31
HETATM   31  O7  UNL     1      30.053  30.716  27.440  1.00  0.00    -0.281 OA
ATOM     32  H7  UNL     1      29.758  31.602  27.616  1.00  0.00     0.240 HD
ENDBRANCH  30  31
BRANCH  30  33
HETATM   33  N11 UNL     1      28.853  30.432  25.623  1.00  0.00     0.034 NA
BRANCH  33  34
HETATM   34  O8  UNL     1      28.803  30.283  24.288  1.00  0.00    -0.279 OA
ATOM     35  H8  UNL     1      27.913  30.154  23.981  1.00  0.00     0.240 HD
ENDBRANCH  33  34
ENDBRANCH  30  33
ENDBRANCH  27  30
ENDBRANCH   5  27
BRANCH   4  36
HETATM   36  C8  UNL     1      33.241  31.052  26.689  1.00  0.00     0.162 A 
HETATM   37  N7  UNL     1      32.728  31.435  25.502  1.00  0.00    -0.321 N 
HETATM   38  C9  UNL     1      32.841  32.784  25.335  1.00  0.00     0.130 A 
ATOM     39  H7  UNL     1      32.312  30.800  24.821  1.00  0.00     0.169 HD
HETATM   40  C13 UNL     1      33.452  33.200  26.488  1.00  0.00     0.192 A 
HETATM   41  O4  UNL     1      33.662  32.141  27.245  1.00  0.00    -0.301 OA
BRANCH  38  42
HETATM   42  N8  UNL     1      32.393  33.491  24.191  1.00  0.00    -0.336 N 
ATOM     43  H8  UNL     1      33.111  33.843  23.558  1.00  0.00     0.167 HD
BRANCH  42  44
HETATM   44  C10 UNL     1      31.049  33.757  23.839  1.00  0.00     0.131 C 
BRANCH  44  45
HETATM   45  C11 UNL     1      30.389  32.750  22.974  1.00  0.00     0.282 C 
HETATM   46  N9  UNL     1      29.101  33.021  22.487  1.00  0.00    -0.056 NA
HETATM   47  O1  UNL     1      30.997  31.692  22.706  1.00  0.00    -0.270 OA
ENDBRANCH  44  45
BRANCH  44  48
HETATM   48  C12 UNL     1      30.171  34.293  24.936  1.00  0.00     0.310 C 
BRANCH  48  49
HETATM   49  O2  UNL     1      29.348  33.271  25.461  1.00  0.00    -0.366 OA
ATOM     50  H2  UNL     1      28.525  33.630  25.770  1.00  0.00     0.213 HD
ENDBRANCH  48  49
BRANCH  48  51
HETATM   51  O3  UNL     1      29.428  35.403  24.584  1.00  0.00    -0.366 OA
ATOM     52  H3  UNL     1      28.491  35.255  24.551  1.00  0.00     0.213 HD
ENDBRANCH  48  51
ENDBRANCH  44  48
ENDBRANCH  42  44
ENDBRANCH  38  42
ENDBRANCH   4  36
TORSDOF 15
ENDMDL
