MODEL 1
REMARK VINA RESULT: -6.923543444      0.000      0.000
REMARK  17 active torsions:
REMARK  status: ('A' for Active; 'I' for Inactive)
REMARK    1  A    between atoms: C3_3  and  N1_4 
REMARK    2  A    between atoms: N1_4  and  O1_5 
REMARK    3  A    between atoms: C5_8  and  O2_9 
REMARK    4  A    between atoms: O2_9  and  C6_10 
REMARK    5  A    between atoms: C8_12  and  N2_13 
REMARK    6  A    between atoms: C9_17  and  O3_18 
REMARK    7  A    between atoms: O3_18  and  C10_19 
REMARK    8  A    between atoms: C11_20  and  O4_21 
REMARK    9  A    between atoms: C12_23  and  N3_24 
REMARK   10  A    between atoms: C13_28  and  O5_29 
REMARK   11  A    between atoms: O5_29  and  C14_30 
REMARK   12  A    between atoms: C14_30  and  C15_31 
REMARK   13  A    between atoms: C16_34  and  N5_35 
REMARK   14  A    between atoms: C17_44  and  O7_45 
REMARK   15  A    between atoms: C18_47  and  O8_48 
REMARK   16  A    between atoms: C19_50  and  O9_51 
REMARK   17  A    between atoms: C20_53  and  O10_54 
ROOT
HETATM    1  C10 UNL     1      32.531  28.100  27.956  1.00  0.00     0.184 C 
HETATM    2  C11 UNL     1      32.209  27.477  26.636  1.00  0.00     0.182 C 
HETATM    3  C12 UNL     1      31.562  26.116  26.793  1.00  0.00     0.246 C 
HETATM    4  C13 UNL     1      32.542  25.203  27.459  1.00  0.00     0.186 C 
HETATM    5  C17 UNL     1      33.711  25.871  28.105  1.00  0.00     0.180 C 
HETATM    6  C18 UNL     1      33.422  27.193  28.770  1.00  0.00     0.181 C 
ENDROOT
BRANCH   1   7
HETATM    7  O3  UNL     1      33.112  29.342  27.911  1.00  0.00    -0.370 OA
BRANCH   7   8
HETATM    8  C9  UNL     1      32.247  30.392  27.838  1.00  0.00     0.183 C 
HETATM    9  C8  UNL     1      32.601  31.634  28.575  1.00  0.00     0.217 C 
HETATM   10  C7  UNL     1      31.991  32.772  27.737  1.00  0.00     0.070 C 
HETATM   11  C6  UNL     1      31.283  32.070  26.616  1.00  0.00     0.155 C 
HETATM   12  C19 UNL     1      32.239  30.895  26.391  1.00  0.00     0.178 C 
BRANCH   9  13
HETATM   13  N2  UNL     1      34.003  31.848  28.783  1.00  0.00    -0.072 N 
ATOM     14  H23 UNL     1      34.415  31.115  29.359  1.00  0.00     0.274 HD
ATOM     15  H22 UNL     1      34.539  31.693  27.929  1.00  0.00     0.274 HD
ATOM     16  H21 UNL     1      34.176  32.775  29.172  1.00  0.00     0.274 HD
ENDBRANCH   9  13
BRANCH  11  17
HETATM   17  O2  UNL     1      30.984  32.794  25.536  1.00  0.00    -0.375 OA
BRANCH  17  18
HETATM   18  C5  UNL     1      29.675  33.076  25.274  1.00  0.00     0.152 C 
HETATM   19  C4  UNL     1      29.672  33.973  24.024  1.00  0.00     0.058 C 
HETATM   20  C3  UNL     1      29.978  33.036  22.877  1.00  0.00     0.115 C 
HETATM   21  C2  UNL     1      29.555  31.664  23.320  1.00  0.00     0.034 C 
HETATM   22  C1  UNL     1      30.712  30.696  23.252  1.00  0.00     0.014 C 
HETATM   23  C20 UNL     1      29.018  31.837  24.709  1.00  0.00     0.152 C 
BRANCH  20  24
HETATM   24  N1  UNL     1      29.266  33.474  21.700  1.00  0.00    -0.098 NA
BRANCH  24  25
HETATM   25  O1  UNL     1      27.972  33.709  21.923  1.00  0.00    -0.296 OA
ATOM     26  H1  UNL     1      27.682  34.552  21.597  1.00  0.00     0.238 HD
ENDBRANCH  24  25
ENDBRANCH  20  24
BRANCH  23  27
HETATM   27  O10 UNL     1      27.632  31.922  24.721  1.00  0.00    -0.393 OA
ATOM     28  H10 UNL     1      27.320  32.522  25.388  1.00  0.00     0.210 HD
ENDBRANCH  23  27
ENDBRANCH  17  18
ENDBRANCH  11  17
BRANCH  12  29
HETATM   29  O9  UNL     1      33.534  31.356  26.143  1.00  0.00    -0.390 OA
ATOM     30  H9  UNL     1      34.106  30.635  25.910  1.00  0.00     0.210 HD
ENDBRANCH  12  29
ENDBRANCH   7   8
ENDBRANCH   1   7
BRANCH   2  31
HETATM   31  O4  UNL     1      33.298  27.301  25.793  1.00  0.00    -0.391 OA
ATOM     32  H4  UNL     1      33.747  28.102  25.550  1.00  0.00     0.210 HD
ENDBRANCH   2  31
BRANCH   6  33
HETATM   33  O8  UNL     1      34.691  27.806  28.956  1.00  0.00    -0.390 OA
ATOM     34  H8  UNL     1      34.956  27.727  29.865  1.00  0.00     0.210 HD
ENDBRANCH   6  33
BRANCH   3  35
HETATM   35  N3  UNL     1      30.299  26.202  27.487  1.00  0.00    -0.070 N 
ATOM     36  H33 UNL     1      30.420  26.551  28.437  1.00  0.00     0.274 HD
ATOM     37  H32 UNL     1      29.720  26.954  27.114  1.00  0.00     0.274 HD
ATOM     38  H31 UNL     1      29.803  25.311  27.479  1.00  0.00     0.274 HD
ENDBRANCH   3  35
BRANCH   5  39
HETATM   39  O7  UNL     1      34.281  25.070  29.110  1.00  0.00    -0.390 OA
ATOM     40  H7  UNL     1      33.730  25.028  29.883  1.00  0.00     0.210 HD
ENDBRANCH   5  39
BRANCH   4  41
HETATM   41  O5  UNL     1      31.945  24.237  28.247  1.00  0.00    -0.373 OA
BRANCH  41  42
HETATM   42  C14 UNL     1      31.890  22.988  27.752  1.00  0.00     0.254 C 
BRANCH  42  43
HETATM   43  C15 UNL     1      33.251  22.448  27.523  1.00  0.00     0.171 A 
HETATM   44  N4  UNL     1      34.111  22.283  28.495  1.00  0.00    -0.326 N 
HETATM   45  C16 UNL     1      35.437  21.766  28.334  1.00  0.00     0.404 A 
ATOM     46  H4  UNL     1      33.816  22.542  29.437  1.00  0.00     0.165 HD
HETATM   47  N6  UNL     1      35.775  21.428  26.990  1.00  0.00    -0.270 N 
HETATM   48  N7  UNL     1      34.974  21.575  26.037  1.00  0.00    -0.201 N 
ATOM     49  H6  UNL     1      36.703  21.053  26.797  1.00  0.00     0.186 HD
HETATM   50  O6  UNL     1      33.716  22.078  26.267  1.00  0.00    -0.207 OA
ATOM     51  H7  UNL     1      35.256  21.322  25.090  1.00  0.00     0.216 HD
BRANCH  45  52
HETATM   52  N5  UNL     1      36.435  22.720  28.824  1.00  0.00    -0.039 N 
ATOM     53  H53 UNL     1      37.153  22.907  28.125  1.00  0.00     0.279 HD
ATOM     54  H52 UNL     1      36.050  23.662  28.904  1.00  0.00     0.279 HD
ATOM     55  H51 UNL     1      36.841  22.404  29.705  1.00  0.00     0.279 HD
ENDBRANCH  45  52
ENDBRANCH  42  43
ENDBRANCH  41  42
ENDBRANCH   4  41
TORSDOF 17
ENDMDL
MODEL 2
REMARK VINA RESULT: -6.788577061      1.390      1.776
REMARK  17 active torsions:
REMARK  status: ('A' for Active; 'I' for Inactive)
REMARK    1  A    between atoms: C3_3  and  N1_4 
REMARK    2  A    between atoms: N1_4  and  O1_5 
REMARK    3  A    between atoms: C5_8  and  O2_9 
REMARK    4  A    between atoms: O2_9  and  C6_10 
REMARK    5  A    between atoms: C8_12  and  N2_13 
REMARK    6  A    between atoms: C9_17  and  O3_18 
REMARK    7  A    between atoms: O3_18  and  C10_19 
REMARK    8  A    between atoms: C11_20  and  O4_21 
REMARK    9  A    between atoms: C12_23  and  N3_24 
REMARK   10  A    between atoms: C13_28  and  O5_29 
REMARK   11  A    between atoms: O5_29  and  C14_30 
REMARK   12  A    between atoms: C14_30  and  C15_31 
REMARK   13  A    between atoms: C16_34  and  N5_35 
REMARK   14  A    between atoms: C17_44  and  O7_45 
REMARK   15  A    between atoms: C18_47  and  O8_48 
REMARK   16  A    between atoms: C19_50  and  O9_51 
REMARK   17  A    between atoms: C20_53  and  O10_54 
ROOT
HETATM    1  C10 UNL     1      32.527  28.038  27.952  1.00  0.00     0.184 C 
HETATM    2  C11 UNL     1      32.210  27.352  26.663  1.00  0.00     0.182 C 
HETATM    3  C12 UNL     1      31.519  26.022  26.882  1.00  0.00     0.246 C 
HETATM    4  C13 UNL     1      32.458  25.118  27.615  1.00  0.00     0.186 C 
HETATM    5  C17 UNL     1      33.634  25.787  28.247  1.00  0.00     0.180 C 
HETATM    6  C18 UNL     1      33.375  27.152  28.833  1.00  0.00     0.181 C 
ENDROOT
BRANCH   1   7
HETATM    7  O3  UNL     1      33.145  29.257  27.851  1.00  0.00    -0.370 OA
BRANCH   7   8
HETATM    8  C9  UNL     1      32.315  30.337  27.825  1.00  0.00     0.183 C 
HETATM    9  C8  UNL     1      32.732  31.550  28.576  1.00  0.00     0.217 C 
HETATM   10  C7  UNL     1      32.136  32.726  27.780  1.00  0.00     0.070 C 
HETATM   11  C6  UNL     1      31.374  32.071  26.666  1.00  0.00     0.155 C 
HETATM   12  C19 UNL     1      32.283  30.871  26.389  1.00  0.00     0.178 C 
BRANCH   9  13
HETATM   13  N2  UNL     1      34.146  31.714  28.748  1.00  0.00    -0.072 N 
ATOM     14  H23 UNL     1      34.617  31.875  27.858  1.00  0.00     0.274 HD
ATOM     15  H22 UNL     1      34.370  32.598  29.204  1.00  0.00     0.274 HD
ATOM     16  H21 UNL     1      34.546  30.920  29.248  1.00  0.00     0.274 HD
ENDBRANCH   9  13
BRANCH  11  17
HETATM   17  O2  UNL     1      31.069  32.828  25.610  1.00  0.00    -0.375 OA
BRANCH  17  18
HETATM   18  C5  UNL     1      29.757  33.110  25.358  1.00  0.00     0.152 C 
HETATM   19  C4  UNL     1      29.746  34.031  24.126  1.00  0.00     0.058 C 
HETATM   20  C3  UNL     1      30.051  33.117  22.961  1.00  0.00     0.115 C 
HETATM   21  C2  UNL     1      29.636  31.735  23.378  1.00  0.00     0.034 C 
HETATM   22  C1  UNL     1      30.796  30.774  23.288  1.00  0.00     0.014 C 
HETATM   23  C20 UNL     1      29.103  31.879  24.772  1.00  0.00     0.152 C 
BRANCH  20  24
HETATM   24  N1  UNL     1      29.333  33.574  21.795  1.00  0.00    -0.098 NA
BRANCH  24  25
HETATM   25  O1  UNL     1      28.022  33.708  22.002  1.00  0.00    -0.296 OA
ATOM     26  H1  UNL     1      27.565  32.878  22.067  1.00  0.00     0.238 HD
ENDBRANCH  24  25
ENDBRANCH  20  24
BRANCH  23  27
HETATM   27  O10 UNL     1      27.717  31.957  24.791  1.00  0.00    -0.393 OA
ATOM     28  H10 UNL     1      27.340  31.755  23.942  1.00  0.00     0.210 HD
ENDBRANCH  23  27
ENDBRANCH  17  18
ENDBRANCH  11  17
BRANCH  12  29
HETATM   29  O9  UNL     1      33.585  31.294  26.113  1.00  0.00    -0.390 OA
ATOM     30  H9  UNL     1      33.836  31.049  25.231  1.00  0.00     0.210 HD
ENDBRANCH  12  29
ENDBRANCH   7   8
ENDBRANCH   1   7
BRANCH   2  31
HETATM   31  O4  UNL     1      33.308  27.098  25.853  1.00  0.00    -0.391 OA
ATOM     32  H4  UNL     1      33.294  26.256  25.415  1.00  0.00     0.210 HD
ENDBRANCH   2  31
BRANCH   6  33
HETATM   33  O8  UNL     1      34.657  27.736  29.010  1.00  0.00    -0.390 OA
ATOM     34  H8  UNL     1      35.018  27.472  29.849  1.00  0.00     0.210 HD
ENDBRANCH   6  33
BRANCH   3  35
HETATM   35  N3  UNL     1      30.247  26.183  27.544  1.00  0.00    -0.070 N 
ATOM     36  H33 UNL     1      30.085  25.441  28.225  1.00  0.00     0.274 HD
ATOM     37  H32 UNL     1      30.257  26.981  28.179  1.00  0.00     0.274 HD
ATOM     38  H31 UNL     1      29.479  26.249  26.876  1.00  0.00     0.274 HD
ENDBRANCH   3  35
BRANCH   5  39
HETATM   39  O7  UNL     1      34.162  25.026  29.306  1.00  0.00    -0.390 OA
ATOM     40  H7  UNL     1      34.869  25.480  29.749  1.00  0.00     0.210 HD
ENDBRANCH   5  39
BRANCH   4  41
HETATM   41  O5  UNL     1      31.818  24.216  28.444  1.00  0.00    -0.373 OA
BRANCH  41  42
HETATM   42  C14 UNL     1      31.704  22.951  28.001  1.00  0.00     0.254 C 
BRANCH  42  43
HETATM   43  C15 UNL     1      32.326  21.999  28.952  1.00  0.00     0.171 A 
HETATM   44  N4  UNL     1      31.643  21.051  29.542  1.00  0.00    -0.326 N 
HETATM   45  C16 UNL     1      32.190  20.105  30.467  1.00  0.00     0.404 A 
ATOM     46  H4  UNL     1      30.648  20.982  29.327  1.00  0.00     0.165 HD
HETATM   47  N6  UNL     1      33.585  20.267  30.715  1.00  0.00    -0.270 N 
HETATM   48  N7  UNL     1      34.267  21.165  30.166  1.00  0.00    -0.201 N 
ATOM     49  H6  UNL     1      34.046  19.628  31.363  1.00  0.00     0.186 HD
HETATM   50  O6  UNL     1      33.673  22.039  29.288  1.00  0.00    -0.207 OA
ATOM     51  H7  UNL     1      35.262  21.247  30.372  1.00  0.00     0.216 HD
BRANCH  45  52
HETATM   52  N5  UNL     1      31.493  20.166  31.754  1.00  0.00    -0.039 N 
ATOM     53  H53 UNL     1      30.787  20.902  31.765  1.00  0.00     0.279 HD
ATOM     54  H52 UNL     1      30.878  19.362  31.888  1.00  0.00     0.279 HD
ATOM     55  H51 UNL     1      32.154  20.266  32.523  1.00  0.00     0.279 HD
ENDBRANCH  45  52
ENDBRANCH  42  43
ENDBRANCH  41  42
ENDBRANCH   4  41
TORSDOF 17
ENDMDL
MODEL 3
REMARK VINA RESULT: -6.625491432      3.652      5.172
REMARK  17 active torsions:
REMARK  status: ('A' for Active; 'I' for Inactive)
REMARK    1  A    between atoms: C3_3  and  N1_4 
REMARK    2  A    between atoms: N1_4  and  O1_5 
REMARK    3  A    between atoms: C5_8  and  O2_9 
REMARK    4  A    between atoms: O2_9  and  C6_10 
REMARK    5  A    between atoms: C8_12  and  N2_13 
REMARK    6  A    between atoms: C9_17  and  O3_18 
REMARK    7  A    between atoms: O3_18  and  C10_19 
REMARK    8  A    between atoms: C11_20  and  O4_21 
REMARK    9  A    between atoms: C12_23  and  N3_24 
REMARK   10  A    between atoms: C13_28  and  O5_29 
REMARK   11  A    between atoms: O5_29  and  C14_30 
REMARK   12  A    between atoms: C14_30  and  C15_31 
REMARK   13  A    between atoms: C16_34  and  N5_35 
REMARK   14  A    between atoms: C17_44  and  O7_45 
REMARK   15  A    between atoms: C18_47  and  O8_48 
REMARK   16  A    between atoms: C19_50  and  O9_51 
REMARK   17  A    between atoms: C20_53  and  O10_54 
ROOT
HETATM    1  C10 UNL     1      31.736  30.366  25.411  1.00  0.00     0.184 C 
HETATM    2  C11 UNL     1      33.129  30.356  25.951  1.00  0.00     0.182 C 
HETATM    3  C12 UNL     1      33.533  28.985  26.455  1.00  0.00     0.246 C 
HETATM    4  C13 UNL     1      32.640  28.621  27.598  1.00  0.00     0.186 C 
HETATM    5  C17 UNL     1      31.408  29.453  27.744  1.00  0.00     0.180 C 
HETATM    6  C18 UNL     1      30.756  29.887  26.456  1.00  0.00     0.181 C 
ENDROOT
BRANCH   1   7
HETATM    7  O3  UNL     1      31.287  31.565  24.922  1.00  0.00    -0.370 OA
BRANCH   7   8
HETATM    8  C9  UNL     1      31.319  31.695  23.566  1.00  0.00     0.183 C 
HETATM    9  C8  UNL     1      30.055  32.065  22.875  1.00  0.00     0.217 C 
HETATM   10  C7  UNL     1      30.505  32.878  21.647  1.00  0.00     0.070 C 
HETATM   11  C6  UNL     1      32.004  32.850  21.713  1.00  0.00     0.155 C 
HETATM   12  C19 UNL     1      32.206  32.899  23.230  1.00  0.00     0.178 C 
BRANCH   9  13
HETATM   13  N2  UNL     1      29.116  32.807  23.663  1.00  0.00    -0.072 N 
ATOM     14  H23 UNL     1      29.410  33.776  23.786  1.00  0.00     0.274 HD
ATOM     15  H22 UNL     1      28.246  32.972  23.156  1.00  0.00     0.274 HD
ATOM     16  H21 UNL     1      28.949  32.348  24.558  1.00  0.00     0.274 HD
ENDBRANCH   9  13
BRANCH  11  17
HETATM   17  O2  UNL     1      32.661  33.773  21.007  1.00  0.00    -0.375 OA
BRANCH  17  18
HETATM   18  C5  UNL     1      33.315  33.391  19.872  1.00  0.00     0.152 C 
HETATM   19  C4  UNL     1      33.510  34.670  19.039  1.00  0.00     0.058 C 
HETATM   20  C3  UNL     1      34.616  35.423  19.744  1.00  0.00     0.115 C 
HETATM   21  C2  UNL     1      35.415  34.402  20.503  1.00  0.00     0.034 C 
HETATM   22  C1  UNL     1      35.458  34.738  21.974  1.00  0.00     0.014 C 
HETATM   23  C20 UNL     1      34.754  33.085  20.223  1.00  0.00     0.152 C 
BRANCH  20  24
HETATM   24  N1  UNL     1      35.413  36.124  18.767  1.00  0.00    -0.098 NA
BRANCH  24  25
HETATM   25  O1  UNL     1      35.059  37.402  18.615  1.00  0.00    -0.296 OA
ATOM     26  H1  UNL     1      35.783  37.965  18.367  1.00  0.00     0.238 HD
ENDBRANCH  24  25
ENDBRANCH  20  24
BRANCH  23  27
HETATM   27  O10 UNL     1      35.406  32.383  19.219  1.00  0.00    -0.393 OA
ATOM     28  H10 UNL     1      34.861  32.283  18.447  1.00  0.00     0.210 HD
ENDBRANCH  23  27
ENDBRANCH  17  18
ENDBRANCH  11  17
BRANCH  12  29
HETATM   29  O9  UNL     1      31.560  34.010  23.776  1.00  0.00    -0.390 OA
ATOM     30  H9  UNL     1      31.577  33.973  24.725  1.00  0.00     0.210 HD
ENDBRANCH  12  29
ENDBRANCH   7   8
ENDBRANCH   1   7
BRANCH   2  31
HETATM   31  O4  UNL     1      33.356  31.243  26.995  1.00  0.00    -0.391 OA
ATOM     32  H4  UNL     1      34.194  31.141  27.430  1.00  0.00     0.210 HD
ENDBRANCH   2  31
BRANCH   6  33
HETATM   33  O8  UNL     1      29.881  30.947  26.815  1.00  0.00    -0.390 OA
ATOM     34  H8  UNL     1      28.985  30.631  26.840  1.00  0.00     0.210 HD
ENDBRANCH   6  33
BRANCH   3  35
HETATM   35  N3  UNL     1      33.533  28.005  25.396  1.00  0.00    -0.070 N 
ATOM     36  H33 UNL     1      32.708  28.096  24.805  1.00  0.00     0.274 HD
ATOM     37  H32 UNL     1      34.250  28.210  24.700  1.00  0.00     0.274 HD
ATOM     38  H31 UNL     1      33.628  27.057  25.759  1.00  0.00     0.274 HD
ENDBRANCH   3  35
BRANCH   5  39
HETATM   39  O7  UNL     1      30.402  28.777  28.456  1.00  0.00    -0.390 OA
ATOM     40  H7  UNL     1      29.665  29.344  28.652  1.00  0.00     0.210 HD
ENDBRANCH   5  39
BRANCH   4  41
HETATM   41  O5  UNL     1      32.411  27.263  27.706  1.00  0.00    -0.373 OA
BRANCH  41  42
HETATM   42  C14 UNL     1      33.042  26.611  28.700  1.00  0.00     0.254 C 
BRANCH  42  43
HETATM   43  C15 UNL     1      33.863  25.499  28.167  1.00  0.00     0.171 A 
HETATM   44  N4  UNL     1      33.762  24.275  28.618  1.00  0.00    -0.326 N 
HETATM   45  C16 UNL     1      34.529  23.163  28.142  1.00  0.00     0.404 A 
ATOM     46  H4  UNL     1      33.089  24.100  29.364  1.00  0.00     0.165 HD
HETATM   47  N6  UNL     1      35.447  23.487  27.100  1.00  0.00    -0.270 N 
HETATM   48  N7  UNL     1      35.568  24.650  26.647  1.00  0.00    -0.201 N 
ATOM     49  H6  UNL     1      36.028  22.745  26.710  1.00  0.00     0.186 HD
HETATM   50  O6  UNL     1      34.799  25.669  27.153  1.00  0.00    -0.207 OA
ATOM     51  H7  UNL     1      36.238  24.840  25.902  1.00  0.00     0.216 HD
BRANCH  45  52
HETATM   52  N5  UNL     1      35.284  22.541  29.233  1.00  0.00    -0.039 N 
ATOM     53  H53 UNL     1      36.254  22.371  28.970  1.00  0.00     0.279 HD
ATOM     54  H52 UNL     1      35.444  23.193  30.001  1.00  0.00     0.279 HD
ATOM     55  H51 UNL     1      34.826  21.687  29.553  1.00  0.00     0.279 HD
ENDBRANCH  45  52
ENDBRANCH  42  43
ENDBRANCH  41  42
ENDBRANCH   4  41
TORSDOF 17
ENDMDL
MODEL 4
REMARK VINA RESULT: -6.481981024      2.913     10.251
REMARK  17 active torsions:
REMARK  status: ('A' for Active; 'I' for Inactive)
REMARK    1  A    between atoms: C3_3  and  N1_4 
REMARK    2  A    between atoms: N1_4  and  O1_5 
REMARK    3  A    between atoms: C5_8  and  O2_9 
REMARK    4  A    between atoms: O2_9  and  C6_10 
REMARK    5  A    between atoms: C8_12  and  N2_13 
REMARK    6  A    between atoms: C9_17  and  O3_18 
REMARK    7  A    between atoms: O3_18  and  C10_19 
REMARK    8  A    between atoms: C11_20  and  O4_21 
REMARK    9  A    between atoms: C12_23  and  N3_24 
REMARK   10  A    between atoms: C13_28  and  O5_29 
REMARK   11  A    between atoms: O5_29  and  C14_30 
REMARK   12  A    between atoms: C14_30  and  C15_31 
REMARK   13  A    between atoms: C16_34  and  N5_35 
REMARK   14  A    between atoms: C17_44  and  O7_45 
REMARK   15  A    between atoms: C18_47  and  O8_48 
REMARK   16  A    between atoms: C19_50  and  O9_51 
REMARK   17  A    between atoms: C20_53  and  O10_54 
ROOT
HETATM    1  C10 UNL     1      31.626  32.698  24.899  1.00  0.00     0.184 C 
HETATM    2  C11 UNL     1      31.929  31.638  23.891  1.00  0.00     0.182 C 
HETATM    3  C12 UNL     1      32.063  32.205  22.492  1.00  0.00     0.246 C 
HETATM    4  C13 UNL     1      30.747  32.794  22.095  1.00  0.00     0.186 C 
HETATM    5  C17 UNL     1      29.775  33.010  23.208  1.00  0.00     0.180 C 
HETATM    6  C18 UNL     1      30.372  33.449  24.522  1.00  0.00     0.181 C 
ENDROOT
BRANCH   1   7
HETATM    7  O3  UNL     1      31.499  32.278  26.197  1.00  0.00    -0.370 OA
BRANCH   7   8
HETATM    8  C9  UNL     1      32.478  31.443  26.643  1.00  0.00     0.183 C 
HETATM    9  C8  UNL     1      33.267  31.870  27.829  1.00  0.00     0.217 C 
HETATM   10  C7  UNL     1      33.647  30.558  28.539  1.00  0.00     0.070 C 
HETATM   11  C6  UNL     1      33.087  29.483  27.655  1.00  0.00     0.155 C 
HETATM   12  C19 UNL     1      31.807  30.171  27.174  1.00  0.00     0.178 C 
BRANCH   9  13
HETATM   13  N2  UNL     1      32.594  32.761  28.728  1.00  0.00    -0.072 N 
ATOM     14  H23 UNL     1      32.391  32.313  29.621  1.00  0.00     0.274 HD
ATOM     15  H22 UNL     1      33.215  33.499  29.063  1.00  0.00     0.274 HD
ATOM     16  H21 UNL     1      31.752  33.144  28.299  1.00  0.00     0.274 HD
ENDBRANCH   9  13
BRANCH  11  17
HETATM   17  O2  UNL     1      32.930  28.272  28.194  1.00  0.00    -0.375 OA
BRANCH  17  18
HETATM   18  C5  UNL     1      34.006  27.433  28.254  1.00  0.00     0.152 C 
HETATM   19  C4  UNL     1      33.775  26.529  29.477  1.00  0.00     0.058 C 
HETATM   20  C3  UNL     1      32.703  25.557  29.040  1.00  0.00     0.115 C 
HETATM   21  C2  UNL     1      32.775  25.482  27.541  1.00  0.00     0.034 C 
HETATM   22  C1  UNL     1      31.449  25.849  26.919  1.00  0.00     0.014 C 
HETATM   23  C20 UNL     1      33.883  26.412  27.146  1.00  0.00     0.152 C 
BRANCH  20  24
HETATM   24  N1  UNL     1      32.937  24.275  29.662  1.00  0.00    -0.098 NA
BRANCH  24  25
HETATM   25  O1  UNL     1      34.193  23.846  29.528  1.00  0.00    -0.296 OA
ATOM     26  H1  UNL     1      34.698  24.350  28.901  1.00  0.00     0.238 HD
ENDBRANCH  24  25
ENDBRANCH  20  24
BRANCH  23  27
HETATM   27  O10 UNL     1      35.073  25.732  26.920  1.00  0.00    -0.393 OA
ATOM     28  H10 UNL     1      35.710  26.275  26.469  1.00  0.00     0.210 HD
ENDBRANCH  23  27
ENDBRANCH  17  18
ENDBRANCH  11  17
BRANCH  12  29
HETATM   29  O9  UNL     1      31.030  30.578  28.260  1.00  0.00    -0.390 OA
ATOM     30  H9  UNL     1      31.296  30.125  29.050  1.00  0.00     0.210 HD
ENDBRANCH  12  29
ENDBRANCH   7   8
ENDBRANCH   1   7
BRANCH   2  31
HETATM   31  O4  UNL     1      30.989  30.619  23.816  1.00  0.00    -0.391 OA
ATOM     32  H4  UNL     1      31.265  29.793  24.195  1.00  0.00     0.210 HD
ENDBRANCH   2  31
BRANCH   6  33
HETATM   33  O8  UNL     1      29.361  33.214  25.492  1.00  0.00    -0.390 OA
ATOM     34  H8  UNL     1      28.587  32.859  25.071  1.00  0.00     0.210 HD
ENDBRANCH   6  33
BRANCH   3  35
HETATM   35  N3  UNL     1      33.159  33.139  22.396  1.00  0.00    -0.070 N 
ATOM     36  H33 UNL     1      33.786  32.899  21.629  1.00  0.00     0.274 HD
ATOM     37  H32 UNL     1      32.843  34.050  22.065  1.00  0.00     0.274 HD
ATOM     38  H31 UNL     1      33.664  33.219  23.279  1.00  0.00     0.274 HD
ENDBRANCH   3  35
BRANCH   5  39
HETATM   39  O7  UNL     1      28.824  33.995  22.888  1.00  0.00    -0.390 OA
ATOM     40  H7  UNL     1      28.122  33.646  22.351  1.00  0.00     0.210 HD
ENDBRANCH   5  39
BRANCH   4  41
HETATM   41  O5  UNL     1      30.863  33.873  21.240  1.00  0.00    -0.373 OA
BRANCH  41  42
HETATM   42  C14 UNL     1      30.776  33.623  19.921  1.00  0.00     0.254 C 
BRANCH  42  43
HETATM   43  C15 UNL     1      31.519  34.639  19.139  1.00  0.00     0.171 A 
HETATM   44  N4  UNL     1      32.815  34.584  18.970  1.00  0.00    -0.326 N 
HETATM   45  C16 UNL     1      33.583  35.536  18.225  1.00  0.00     0.404 A 
ATOM     46  H4  UNL     1      33.315  33.806  19.400  1.00  0.00     0.165 HD
HETATM   47  N6  UNL     1      32.814  36.592  17.655  1.00  0.00    -0.270 N 
HETATM   48  N7  UNL     1      31.571  36.674  17.799  1.00  0.00    -0.201 N 
ATOM     49  H6  UNL     1      33.293  37.309  17.109  1.00  0.00     0.186 HD
HETATM   50  O6  UNL     1      30.900  35.723  18.528  1.00  0.00    -0.207 OA
ATOM     51  H7  UNL     1      31.059  37.447  17.375  1.00  0.00     0.216 HD
BRANCH  45  52
HETATM   52  N5  UNL     1      34.627  36.136  19.061  1.00  0.00    -0.039 N 
ATOM     53  H53 UNL     1      34.764  37.123  18.841  1.00  0.00     0.279 HD
ATOM     54  H52 UNL     1      34.323  36.235  20.030  1.00  0.00     0.279 HD
ATOM     55  H51 UNL     1      35.498  35.611  18.991  1.00  0.00     0.279 HD
ENDBRANCH  45  52
ENDBRANCH  42  43
ENDBRANCH  41  42
ENDBRANCH   4  41
TORSDOF 17
ENDMDL
MODEL 5
REMARK VINA RESULT: -6.444478066      2.907     10.194
REMARK  17 active torsions:
REMARK  status: ('A' for Active; 'I' for Inactive)
REMARK    1  A    between atoms: C3_3  and  N1_4 
REMARK    2  A    between atoms: N1_4  and  O1_5 
REMARK    3  A    between atoms: C5_8  and  O2_9 
REMARK    4  A    between atoms: O2_9  and  C6_10 
REMARK    5  A    between atoms: C8_12  and  N2_13 
REMARK    6  A    between atoms: C9_17  and  O3_18 
REMARK    7  A    between atoms: O3_18  and  C10_19 
REMARK    8  A    between atoms: C11_20  and  O4_21 
REMARK    9  A    between atoms: C12_23  and  N3_24 
REMARK   10  A    between atoms: C13_28  and  O5_29 
REMARK   11  A    between atoms: O5_29  and  C14_30 
REMARK   12  A    between atoms: C14_30  and  C15_31 
REMARK   13  A    between atoms: C16_34  and  N5_35 
REMARK   14  A    between atoms: C17_44  and  O7_45 
REMARK   15  A    between atoms: C18_47  and  O8_48 
REMARK   16  A    between atoms: C19_50  and  O9_51 
REMARK   17  A    between atoms: C20_53  and  O10_54 
ROOT
HETATM    1  C10 UNL     1      31.605  32.412  24.865  1.00  0.00     0.184 C 
HETATM    2  C11 UNL     1      31.825  31.382  23.805  1.00  0.00     0.182 C 
HETATM    3  C12 UNL     1      31.973  32.003  22.431  1.00  0.00     0.246 C 
HETATM    4  C13 UNL     1      30.692  32.692  22.085  1.00  0.00     0.186 C 
HETATM    5  C17 UNL     1      29.752  32.917  23.224  1.00  0.00     0.180 C 
HETATM    6  C18 UNL     1      30.395  33.257  24.545  1.00  0.00     0.181 C 
ENDROOT
BRANCH   1   7
HETATM    7  O3  UNL     1      31.471  31.941  26.146  1.00  0.00    -0.370 OA
BRANCH   7   8
HETATM    8  C9  UNL     1      32.515  31.201  26.612  1.00  0.00     0.183 C 
HETATM    9  C8  UNL     1      33.234  31.698  27.815  1.00  0.00     0.217 C 
HETATM   10  C7  UNL     1      33.721  30.425  28.532  1.00  0.00     0.070 C 
HETATM   11  C6  UNL     1      33.284  29.304  27.636  1.00  0.00     0.155 C 
HETATM   12  C19 UNL     1      31.955  29.870  27.128  1.00  0.00     0.178 C 
BRANCH   9  13
HETATM   13  N2  UNL     1      32.462  32.519  28.699  1.00  0.00    -0.072 N 
ATOM     14  H23 UNL     1      32.884  32.576  29.626  1.00  0.00     0.274 HD
ATOM     15  H22 UNL     1      32.518  33.505  28.444  1.00  0.00     0.274 HD
ATOM     16  H21 UNL     1      31.496  32.196  28.745  1.00  0.00     0.274 HD
ENDBRANCH   9  13
BRANCH  11  17
HETATM   17  O2  UNL     1      33.231  28.083  28.171  1.00  0.00    -0.375 OA
BRANCH  17  18
HETATM   18  C5  UNL     1      32.609  27.086  27.476  1.00  0.00     0.152 C 
HETATM   19  C4  UNL     1      33.716  26.109  27.046  1.00  0.00     0.058 C 
HETATM   20  C3  UNL     1      34.084  25.364  28.310  1.00  0.00     0.115 C 
HETATM   21  C2  UNL     1      32.886  25.432  29.213  1.00  0.00     0.034 C 
HETATM   22  C1  UNL     1      33.245  26.062  30.538  1.00  0.00     0.014 C 
HETATM   23  C20 UNL     1      31.855  26.214  28.455  1.00  0.00     0.152 C 
BRANCH  20  24
HETATM   24  N1  UNL     1      34.441  24.005  27.977  1.00  0.00    -0.098 NA
BRANCH  24  25
HETATM   25  O1  UNL     1      35.756  23.820  27.856  1.00  0.00    -0.296 OA
ATOM     26  H1  UNL     1      36.139  23.352  28.589  1.00  0.00     0.238 HD
ENDBRANCH  24  25
ENDBRANCH  20  24
BRANCH  23  27
HETATM   27  O10 UNL     1      30.937  25.385  27.825  1.00  0.00    -0.393 OA
ATOM     28  H10 UNL     1      30.091  25.807  27.722  1.00  0.00     0.210 HD
ENDBRANCH  23  27
ENDBRANCH  17  18
ENDBRANCH  11  17
BRANCH  12  29
HETATM   29  O9  UNL     1      31.120  30.200  28.197  1.00  0.00    -0.390 OA
ATOM     30  H9  UNL     1      30.818  29.415  28.639  1.00  0.00     0.210 HD
ENDBRANCH  12  29
ENDBRANCH   7   8
ENDBRANCH   1   7
BRANCH   2  31
HETATM   31  O4  UNL     1      30.821  30.429  23.701  1.00  0.00    -0.391 OA
ATOM     32  H4  UNL     1      31.118  29.529  23.762  1.00  0.00     0.210 HD
ENDBRANCH   2  31
BRANCH   6  33
HETATM   33  O8  UNL     1      29.386  33.041  25.522  1.00  0.00    -0.390 OA
ATOM     34  H8  UNL     1      29.785  32.937  26.378  1.00  0.00     0.210 HD
ENDBRANCH   6  33
BRANCH   3  35
HETATM   35  N3  UNL     1      33.125  32.870  22.358  1.00  0.00    -0.070 N 
ATOM     36  H33 UNL     1      33.334  33.288  23.265  1.00  0.00     0.274 HD
ATOM     37  H32 UNL     1      33.984  32.337  22.227  1.00  0.00     0.274 HD
ATOM     38  H31 UNL     1      33.016  33.583  21.637  1.00  0.00     0.274 HD
ENDBRANCH   3  35
BRANCH   5  39
HETATM   39  O7  UNL     1      28.861  33.973  22.966  1.00  0.00    -0.390 OA
ATOM     40  H7  UNL     1      27.963  33.670  22.901  1.00  0.00     0.210 HD
ENDBRANCH   5  39
BRANCH   4  41
HETATM   41  O5  UNL     1      30.864  33.800  21.277  1.00  0.00    -0.373 OA
BRANCH  41  42
HETATM   42  C14 UNL     1      30.695  33.627  19.954  1.00  0.00     0.254 C 
BRANCH  42  43
HETATM   43  C15 UNL     1      31.485  34.617  19.185  1.00  0.00     0.171 A 
HETATM   44  N4  UNL     1      32.782  34.521  19.044  1.00  0.00    -0.326 N 
HETATM   45  C16 UNL     1      33.596  35.446  18.313  1.00  0.00     0.404 A 
ATOM     46  H4  UNL     1      33.248  33.729  19.487  1.00  0.00     0.165 HD
HETATM   47  N6  UNL     1      32.872  36.524  17.724  1.00  0.00    -0.270 N 
HETATM   48  N7  UNL     1      31.629  36.645  17.842  1.00  0.00    -0.201 N 
ATOM     49  H6  UNL     1      33.384  37.223  17.186  1.00  0.00     0.186 HD
HETATM   50  O6  UNL     1      30.913  35.718  18.558  1.00  0.00    -0.207 OA
ATOM     51  H7  UNL     1      31.150  37.432  17.405  1.00  0.00     0.216 HD
BRANCH  45  52
HETATM   52  N5  UNL     1      34.639  36.016  19.169  1.00  0.00    -0.039 N 
ATOM     53  H53 UNL     1      34.990  35.334  19.840  1.00  0.00     0.279 HD
ATOM     54  H52 UNL     1      35.503  36.181  18.651  1.00  0.00     0.279 HD
ATOM     55  H51 UNL     1      34.310  36.863  19.631  1.00  0.00     0.279 HD
ENDBRANCH  45  52
ENDBRANCH  42  43
ENDBRANCH  41  42
ENDBRANCH   4  41
TORSDOF 17
ENDMDL
