MODEL 1
REMARK VINA RESULT: -6.557869398      0.000      0.000
REMARK  19 active torsions:
REMARK  status: ('A' for Active; 'I' for Inactive)
REMARK    1  A    between atoms: O1_1  and  C1_3 
REMARK    2  A    between atoms: C1_3  and  N1_4 
REMARK    3  A    between atoms: N1_4  and  C2_6 
REMARK    4  A    between atoms: C3_7  and  C4_8 
REMARK    5  A    between atoms: C4_8  and  O2_9 
REMARK    6  A    between atoms: C6_12  and  C7_13 
REMARK    7  A    between atoms: C7_13  and  O3_14 
REMARK    8  A    between atoms: O3_14  and  C8_15 
REMARK    9  A    between atoms: C9_18  and  O6_19 
REMARK   10  A    between atoms: C9_18  and  C10_21 
REMARK   11  A    between atoms: C10_21  and  O7_22 
REMARK   12  A    between atoms: O7_22  and  C11_23 
REMARK   13  A    between atoms: C13_26  and  O9_27 
REMARK   14  A    between atoms: C14_29  and  O10_30 
REMARK   15  A    between atoms: C15_32  and  O11_33 
REMARK   16  A    between atoms: C17_36  and  O12_37 
REMARK   17  A    between atoms: C18_39  and  O13_40 
REMARK   18  A    between atoms: C19_42  and  O14_43 
REMARK   19  A    between atoms: C20_45  and  O15_46 
ROOT
HETATM    1  C8  UNL     1      29.755  29.716  25.865  1.00  0.00     0.330 C 
HETATM    2  O4  UNL     1      30.917  29.670  25.048  1.00  0.00    -0.202 OA
HETATM    3  O5  UNL     1      31.883  29.012  25.692  1.00  0.00    -0.196 OA
HETATM    4  C9  UNL     1      31.484  27.712  25.984  1.00  0.00     0.219 C 
HETATM    5  C16 UNL     1      30.244  27.434  25.159  1.00  0.00     0.110 C 
HETATM    6  C17 UNL     1      29.139  28.327  25.678  1.00  0.00     0.181 C 
ENDROOT
BRANCH   1   7
HETATM    7  O3  UNL     1      28.982  30.707  25.397  1.00  0.00    -0.326 OA
BRANCH   7   8
HETATM    8  C7  UNL     1      29.314  32.000  25.441  1.00  0.00     0.143 C 
BRANCH   8   9
HETATM    9  C6  UNL     1      30.687  32.476  25.271  1.00  0.00    -0.024 C 
HETATM   10  C5  UNL     1      31.421  32.858  26.549  1.00  0.00     0.083 C 
HETATM   11  C4  UNL     1      32.902  32.823  26.215  1.00  0.00     0.109 C 
HETATM   12  C20 UNL     1      33.184  33.748  25.083  1.00  0.00     0.188 C 
HETATM   13  C19 UNL     1      32.492  33.243  23.831  1.00  0.00     0.183 C 
HETATM   14  C18 UNL     1      30.974  33.423  24.166  1.00  0.00     0.180 C 
BRANCH  11  15
HETATM   15  C3  UNL     1      33.683  33.227  27.415  1.00  0.00     0.030 C 
HETATM   16  C2  UNL     1      33.886  32.439  28.450  1.00  0.00     0.084 C 
BRANCH  16  17
HETATM   17  N1  UNL     1      33.377  31.129  28.510  1.00  0.00    -0.378 N 
ATOM     18  H1  UNL     1      32.365  30.997  28.531  1.00  0.00     0.161 HD
BRANCH  17  19
HETATM   19  C1  UNL     1      34.240  29.953  28.543  1.00  0.00     0.286 C 
BRANCH  19  20
HETATM   20  O1  UNL     1      34.477  29.492  27.262  1.00  0.00    -0.382 OA
ATOM     21  H1  UNL     1      33.661  29.260  26.835  1.00  0.00     0.211 HD
ENDBRANCH  19  20
ENDBRANCH  17  19
ENDBRANCH  16  17
ENDBRANCH  11  15
BRANCH  11  22
HETATM   22  O2  UNL     1      33.288  31.530  25.879  1.00  0.00    -0.383 OA
ATOM     23  H2  UNL     1      32.527  31.088  25.521  1.00  0.00     0.211 HD
ENDBRANCH  11  22
BRANCH  12  24
HETATM   24  O15 UNL     1      34.549  33.939  24.864  1.00  0.00    -0.390 OA
ATOM     25  H15 UNL     1      34.894  34.698  25.320  1.00  0.00     0.210 HD
ENDBRANCH  12  24
BRANCH  13  26
HETATM   26  O14 UNL     1      32.783  31.948  23.504  1.00  0.00    -0.390 OA
ATOM     27  H14 UNL     1      33.196  31.889  22.651  1.00  0.00     0.210 HD
ENDBRANCH  13  26
BRANCH  14  28
HETATM   28  O13 UNL     1      30.921  34.777  24.524  1.00  0.00    -0.388 OA
ATOM     29  H13 UNL     1      30.110  35.217  24.301  1.00  0.00     0.210 HD
ENDBRANCH  14  28
ENDBRANCH   8   9
ENDBRANCH   7   8
ENDBRANCH   1   7
BRANCH   6  30
HETATM   30  O12 UNL     1      28.041  28.359  24.836  1.00  0.00    -0.390 OA
ATOM     31  H12 UNL     1      27.727  29.244  24.697  1.00  0.00     0.210 HD
ENDBRANCH   6  30
BRANCH   4  32
HETATM   32  O6  UNL     1      31.149  27.559  27.330  1.00  0.00    -0.362 OA
ATOM     33  H6  UNL     1      31.544  26.783  27.708  1.00  0.00     0.213 HD
ENDBRANCH   4  32
BRANCH   4  34
HETATM   34  C10 UNL     1      32.584  26.718  25.662  1.00  0.00     0.242 C 
BRANCH  34  35
HETATM   35  O7  UNL     1      33.766  27.043  26.322  1.00  0.00    -0.353 OA
BRANCH  35  36
HETATM   36  C11 UNL     1      34.335  25.933  26.935  1.00  0.00     0.291 C 
HETATM   37  O8  UNL     1      34.160  24.855  26.062  1.00  0.00    -0.356 OA
HETATM   38  C12 UNL     1      35.006  23.807  26.424  1.00  0.00     0.205 C 
HETATM   39  C13 UNL     1      34.801  23.396  27.863  1.00  0.00     0.173 C 
HETATM   40  C14 UNL     1      33.662  24.135  28.510  1.00  0.00     0.182 C 
HETATM   41  C15 UNL     1      33.671  25.607  28.250  1.00  0.00     0.204 C 
BRANCH  39  42
HETATM   42  O9  UNL     1      35.995  23.517  28.569  1.00  0.00    -0.391 OA
ATOM     43  H9  UNL     1      35.913  23.107  29.422  1.00  0.00     0.210 HD
ENDBRANCH  39  42
BRANCH  40  44
HETATM   44  O10 UNL     1      33.740  23.892  29.885  1.00  0.00    -0.390 OA
ATOM     45  H10 UNL     1      33.223  23.114  30.062  1.00  0.00     0.210 HD
ENDBRANCH  40  44
BRANCH  41  46
HETATM   46  O11 UNL     1      34.312  26.253  29.314  1.00  0.00    -0.388 OA
ATOM     47  H11 UNL     1      34.737  27.052  29.023  1.00  0.00     0.210 HD
ENDBRANCH  41  46
ENDBRANCH  35  36
ENDBRANCH  34  35
ENDBRANCH   4  34
TORSDOF 19
ENDMDL
MODEL 2
REMARK VINA RESULT: -6.312343687      2.450      4.731
REMARK  19 active torsions:
REMARK  status: ('A' for Active; 'I' for Inactive)
REMARK    1  A    between atoms: O1_1  and  C1_3 
REMARK    2  A    between atoms: C1_3  and  N1_4 
REMARK    3  A    between atoms: N1_4  and  C2_6 
REMARK    4  A    between atoms: C3_7  and  C4_8 
REMARK    5  A    between atoms: C4_8  and  O2_9 
REMARK    6  A    between atoms: C6_12  and  C7_13 
REMARK    7  A    between atoms: C7_13  and  O3_14 
REMARK    8  A    between atoms: O3_14  and  C8_15 
REMARK    9  A    between atoms: C9_18  and  O6_19 
REMARK   10  A    between atoms: C9_18  and  C10_21 
REMARK   11  A    between atoms: C10_21  and  O7_22 
REMARK   12  A    between atoms: O7_22  and  C11_23 
REMARK   13  A    between atoms: C13_26  and  O9_27 
REMARK   14  A    between atoms: C14_29  and  O10_30 
REMARK   15  A    between atoms: C15_32  and  O11_33 
REMARK   16  A    between atoms: C17_36  and  O12_37 
REMARK   17  A    between atoms: C18_39  and  O13_40 
REMARK   18  A    between atoms: C19_42  and  O14_43 
REMARK   19  A    between atoms: C20_45  and  O15_46 
ROOT
HETATM    1  C8  UNL     1      32.855  29.733  27.255  1.00  0.00     0.330 C 
HETATM    2  O4  UNL     1      31.925  28.958  27.999  1.00  0.00    -0.202 OA
HETATM    3  O5  UNL     1      31.737  27.787  27.385  1.00  0.00    -0.196 OA
HETATM    4  C9  UNL     1      32.932  27.085  27.284  1.00  0.00     0.219 C 
HETATM    5  C16 UNL     1      33.922  27.760  28.211  1.00  0.00     0.110 C 
HETATM    6  C17 UNL     1      34.208  29.136  27.652  1.00  0.00     0.181 C 
ENDROOT
BRANCH   1   7
HETATM    7  O3  UNL     1      32.703  31.008  27.641  1.00  0.00    -0.326 OA
BRANCH   7   8
HETATM    8  C7  UNL     1      31.551  31.679  27.572  1.00  0.00     0.143 C 
BRANCH   8   9
HETATM    9  C6  UNL     1      30.896  32.012  26.307  1.00  0.00    -0.024 C 
HETATM   10  C5  UNL     1      30.146  30.875  25.627  1.00  0.00     0.083 C 
HETATM   11  C4  UNL     1      29.167  31.527  24.667  1.00  0.00     0.109 C 
HETATM   12  C20 UNL     1      29.904  32.393  23.707  1.00  0.00     0.188 C 
HETATM   13  C19 UNL     1      30.542  33.549  24.454  1.00  0.00     0.183 C 
HETATM   14  C18 UNL     1      31.635  32.849  25.329  1.00  0.00     0.180 C 
BRANCH  11  15
HETATM   15  C3  UNL     1      28.421  30.467  23.935  1.00  0.00     0.030 C 
HETATM   16  C2  UNL     1      27.177  30.600  23.530  1.00  0.00     0.084 C 
BRANCH  16  17
HETATM   17  N1  UNL     1      26.433  31.772  23.756  1.00  0.00    -0.378 N 
ATOM     18  H1  UNL     1      26.474  32.210  24.677  1.00  0.00     0.161 HD
BRANCH  17  19
HETATM   19  C1  UNL     1      25.604  32.386  22.724  1.00  0.00     0.286 C 
BRANCH  19  20
HETATM   20  O1  UNL     1      26.282  33.426  22.115  1.00  0.00    -0.382 OA
ATOM     21  H1  UNL     1      25.953  34.262  22.422  1.00  0.00     0.211 HD
ENDBRANCH  19  20
ENDBRANCH  17  19
ENDBRANCH  16  17
ENDBRANCH  11  15
BRANCH  11  22
HETATM   22  O2  UNL     1      28.235  32.284  25.371  1.00  0.00    -0.383 OA
ATOM     23  H2  UNL     1      28.453  32.219  26.294  1.00  0.00     0.211 HD
ENDBRANCH  11  22
BRANCH  12  24
HETATM   24  O15 UNL     1      29.103  32.849  22.659  1.00  0.00    -0.390 OA
ATOM     25  H15 UNL     1      29.582  33.373  22.028  1.00  0.00     0.210 HD
ENDBRANCH  12  24
BRANCH  13  26
HETATM   26  O14 UNL     1      29.676  34.276  25.222  1.00  0.00    -0.390 OA
ATOM     27  H14 UNL     1      29.098  34.808  24.686  1.00  0.00     0.210 HD
ENDBRANCH  13  26
BRANCH  14  28
HETATM   28  O13 UNL     1      32.352  32.129  24.364  1.00  0.00    -0.388 OA
ATOM     29  H13 UNL     1      33.166  32.533  24.089  1.00  0.00     0.210 HD
ENDBRANCH  14  28
ENDBRANCH   8   9
ENDBRANCH   7   8
ENDBRANCH   1   7
BRANCH   6  30
HETATM   30  O12 UNL     1      34.885  29.944  28.549  1.00  0.00    -0.390 OA
ATOM     31  H12 UNL     1      35.042  29.502  29.375  1.00  0.00     0.210 HD
ENDBRANCH   6  30
BRANCH   4  32
HETATM   32  O6  UNL     1      33.455  27.129  25.990  1.00  0.00    -0.362 OA
ATOM     33  H6  UNL     1      34.401  27.044  25.987  1.00  0.00     0.213 HD
ENDBRANCH   4  32
BRANCH   4  34
HETATM   34  C10 UNL     1      32.743  25.627  27.660  1.00  0.00     0.242 C 
BRANCH  34  35
HETATM   35  O7  UNL     1      32.921  24.795  26.558  1.00  0.00    -0.353 OA
BRANCH  35  36
HETATM   36  C11 UNL     1      33.719  23.699  26.864  1.00  0.00     0.291 C 
HETATM   37  O8  UNL     1      32.896  22.767  27.503  1.00  0.00    -0.356 OA
HETATM   38  C12 UNL     1      33.513  21.516  27.516  1.00  0.00     0.205 C 
HETATM   39  C13 UNL     1      34.883  21.576  28.149  1.00  0.00     0.173 C 
HETATM   40  C14 UNL     1      35.192  22.935  28.712  1.00  0.00     0.182 C 
HETATM   41  C15 UNL     1      34.853  24.062  27.791  1.00  0.00     0.204 C 
BRANCH  39  42
HETATM   42  O9  UNL     1      35.846  21.133  27.247  1.00  0.00    -0.391 OA
ATOM     43  H9  UNL     1      35.655  20.242  26.976  1.00  0.00     0.210 HD
ENDBRANCH  39  42
BRANCH  40  44
HETATM   44  O10 UNL     1      36.557  22.958  29.013  1.00  0.00    -0.390 OA
ATOM     45  H10 UNL     1      37.001  22.458  28.337  1.00  0.00     0.210 HD
ENDBRANCH  40  44
BRANCH  41  46
HETATM   46  O11 UNL     1      35.998  24.421  27.069  1.00  0.00    -0.388 OA
ATOM     47  H11 UNL     1      36.332  25.264  27.354  1.00  0.00     0.210 HD
ENDBRANCH  41  46
ENDBRANCH  35  36
ENDBRANCH  34  35
ENDBRANCH   4  34
TORSDOF 19
ENDMDL
MODEL 3
REMARK VINA RESULT: -6.237358774      1.951      4.083
REMARK  19 active torsions:
REMARK  status: ('A' for Active; 'I' for Inactive)
REMARK    1  A    between atoms: O1_1  and  C1_3 
REMARK    2  A    between atoms: C1_3  and  N1_4 
REMARK    3  A    between atoms: N1_4  and  C2_6 
REMARK    4  A    between atoms: C3_7  and  C4_8 
REMARK    5  A    between atoms: C4_8  and  O2_9 
REMARK    6  A    between atoms: C6_12  and  C7_13 
REMARK    7  A    between atoms: C7_13  and  O3_14 
REMARK    8  A    between atoms: O3_14  and  C8_15 
REMARK    9  A    between atoms: C9_18  and  O6_19 
REMARK   10  A    between atoms: C9_18  and  C10_21 
REMARK   11  A    between atoms: C10_21  and  O7_22 
REMARK   12  A    between atoms: O7_22  and  C11_23 
REMARK   13  A    between atoms: C13_26  and  O9_27 
REMARK   14  A    between atoms: C14_29  and  O10_30 
REMARK   15  A    between atoms: C15_32  and  O11_33 
REMARK   16  A    between atoms: C17_36  and  O12_37 
REMARK   17  A    between atoms: C18_39  and  O13_40 
REMARK   18  A    between atoms: C19_42  and  O14_43 
REMARK   19  A    between atoms: C20_45  and  O15_46 
ROOT
HETATM    1  C8  UNL     1      32.869  29.666  26.935  1.00  0.00     0.330 C 
HETATM    2  O4  UNL     1      31.859  28.959  27.642  1.00  0.00    -0.202 OA
HETATM    3  O5  UNL     1      31.819  27.697  27.210  1.00  0.00    -0.196 OA
HETATM    4  C9  UNL     1      33.042  27.066  27.416  1.00  0.00     0.219 C 
HETATM    5  C16 UNL     1      33.837  27.942  28.363  1.00  0.00     0.110 C 
HETATM    6  C17 UNL     1      34.159  29.228  27.634  1.00  0.00     0.181 C 
ENDROOT
BRANCH   1   7
HETATM    7  O3  UNL     1      32.607  30.973  27.074  1.00  0.00    -0.326 OA
BRANCH   7   8
HETATM    8  C7  UNL     1      32.775  31.878  26.106  1.00  0.00     0.143 C 
BRANCH   8   9
HETATM    9  C6  UNL     1      31.673  32.390  25.293  1.00  0.00    -0.024 C 
HETATM   10  C5  UNL     1      30.924  31.358  24.460  1.00  0.00     0.083 C 
HETATM   11  C4  UNL     1      29.578  31.977  24.127  1.00  0.00     0.109 C 
HETATM   12  C20 UNL     1      29.780  33.266  23.412  1.00  0.00     0.188 C 
HETATM   13  C19 UNL     1      30.445  34.263  24.341  1.00  0.00     0.183 C 
HETATM   14  C18 UNL     1      31.873  33.658  24.550  1.00  0.00     0.180 C 
BRANCH  11  15
HETATM   15  C3  UNL     1      28.804  31.032  23.277  1.00  0.00     0.030 C 
HETATM   16  C2  UNL     1      28.260  29.923  23.731  1.00  0.00     0.084 C 
BRANCH  16  17
HETATM   17  N1  UNL     1      28.363  29.530  25.077  1.00  0.00    -0.378 N 
ATOM     18  H1  UNL     1      28.120  30.203  25.805  1.00  0.00     0.161 HD
BRANCH  17  19
HETATM   19  C1  UNL     1      28.805  28.197  25.473  1.00  0.00     0.286 C 
BRANCH  19  20
HETATM   20  O1  UNL     1      30.120  27.992  25.098  1.00  0.00    -0.382 OA
ATOM     21  H1  UNL     1      30.227  27.128  24.719  1.00  0.00     0.211 HD
ENDBRANCH  19  20
ENDBRANCH  17  19
ENDBRANCH  16  17
ENDBRANCH  11  15
BRANCH  11  22
HETATM   22  O2  UNL     1      28.846  32.189  25.291  1.00  0.00    -0.383 OA
ATOM     23  H2  UNL     1      27.985  32.498  25.035  1.00  0.00     0.211 HD
ENDBRANCH  11  22
BRANCH  12  24
HETATM   24  O15 UNL     1      28.598  33.783  22.878  1.00  0.00    -0.390 OA
ATOM     25  H15 UNL     1      28.686  34.043  21.968  1.00  0.00     0.210 HD
ENDBRANCH  12  24
BRANCH  13  26
HETATM   26  O14 UNL     1      29.800  34.447  25.532  1.00  0.00    -0.390 OA
ATOM     27  H14 UNL     1      28.885  34.668  25.402  1.00  0.00     0.210 HD
ENDBRANCH  13  26
BRANCH  14  28
HETATM   28  O13 UNL     1      32.310  33.501  23.227  1.00  0.00    -0.388 OA
ATOM     29  H13 UNL     1      32.232  34.279  22.687  1.00  0.00     0.210 HD
ENDBRANCH  14  28
ENDBRANCH   8   9
ENDBRANCH   7   8
ENDBRANCH   1   7
BRANCH   6  30
HETATM   30  O12 UNL     1      34.646  30.210  28.479  1.00  0.00    -0.390 OA
ATOM     31  H12 UNL     1      35.292  29.867  29.084  1.00  0.00     0.210 HD
ENDBRANCH   6  30
BRANCH   4  32
HETATM   32  O6  UNL     1      33.769  26.938  26.232  1.00  0.00    -0.362 OA
ATOM     33  H6  UNL     1      34.185  26.087  26.161  1.00  0.00     0.213 HD
ENDBRANCH   4  32
BRANCH   4  34
HETATM   34  C10 UNL     1      32.848  25.677  27.996  1.00  0.00     0.242 C 
BRANCH  34  35
HETATM   35  O7  UNL     1      32.708  24.726  26.989  1.00  0.00    -0.353 OA
BRANCH  35  36
HETATM   36  C11 UNL     1      33.563  23.646  27.178  1.00  0.00     0.291 C 
HETATM   37  O8  UNL     1      32.845  22.683  27.893  1.00  0.00    -0.356 OA
HETATM   38  C12 UNL     1      33.489  21.449  27.809  1.00  0.00     0.205 C 
HETATM   39  C13 UNL     1      34.924  21.536  28.276  1.00  0.00     0.173 C 
HETATM   40  C14 UNL     1      35.264  22.894  28.824  1.00  0.00     0.182 C 
HETATM   41  C15 UNL     1      34.790  24.025  27.970  1.00  0.00     0.204 C 
BRANCH  39  42
HETATM   42  O9  UNL     1      35.783  21.132  27.258  1.00  0.00    -0.391 OA
ATOM     43  H9  UNL     1      36.552  20.713  27.627  1.00  0.00     0.210 HD
ENDBRANCH  39  42
BRANCH  40  44
HETATM   44  O10 UNL     1      36.655  22.947  28.960  1.00  0.00    -0.390 OA
ATOM     45  H10 UNL     1      36.843  23.535  29.683  1.00  0.00     0.210 HD
ENDBRANCH  40  44
BRANCH  41  46
HETATM   46  O11 UNL     1      35.833  24.426  27.125  1.00  0.00    -0.388 OA
ATOM     47  H11 UNL     1      36.670  24.386  27.571  1.00  0.00     0.210 HD
ENDBRANCH  41  46
ENDBRANCH  35  36
ENDBRANCH  34  35
ENDBRANCH   4  34
TORSDOF 19
ENDMDL
MODEL 4
REMARK VINA RESULT: -6.224245141      2.512      4.839
REMARK  19 active torsions:
REMARK  status: ('A' for Active; 'I' for Inactive)
REMARK    1  A    between atoms: O1_1  and  C1_3 
REMARK    2  A    between atoms: C1_3  and  N1_4 
REMARK    3  A    between atoms: N1_4  and  C2_6 
REMARK    4  A    between atoms: C3_7  and  C4_8 
REMARK    5  A    between atoms: C4_8  and  O2_9 
REMARK    6  A    between atoms: C6_12  and  C7_13 
REMARK    7  A    between atoms: C7_13  and  O3_14 
REMARK    8  A    between atoms: O3_14  and  C8_15 
REMARK    9  A    between atoms: C9_18  and  O6_19 
REMARK   10  A    between atoms: C9_18  and  C10_21 
REMARK   11  A    between atoms: C10_21  and  O7_22 
REMARK   12  A    between atoms: O7_22  and  C11_23 
REMARK   13  A    between atoms: C13_26  and  O9_27 
REMARK   14  A    between atoms: C14_29  and  O10_30 
REMARK   15  A    between atoms: C15_32  and  O11_33 
REMARK   16  A    between atoms: C17_36  and  O12_37 
REMARK   17  A    between atoms: C18_39  and  O13_40 
REMARK   18  A    between atoms: C19_42  and  O14_43 
REMARK   19  A    between atoms: C20_45  and  O15_46 
ROOT
HETATM    1  C8  UNL     1      32.821  29.856  27.463  1.00  0.00     0.330 C 
HETATM    2  O4  UNL     1      32.108  28.855  28.178  1.00  0.00    -0.202 OA
HETATM    3  O5  UNL     1      32.116  27.721  27.475  1.00  0.00    -0.196 OA
HETATM    4  C9  UNL     1      33.418  27.282  27.260  1.00  0.00     0.219 C 
HETATM    5  C16 UNL     1      34.310  28.070  28.197  1.00  0.00     0.110 C 
HETATM    6  C17 UNL     1      34.286  29.514  27.747  1.00  0.00     0.181 C 
ENDROOT
BRANCH   1   7
HETATM    7  O3  UNL     1      32.445  31.042  27.963  1.00  0.00    -0.326 OA
BRANCH   7   8
HETATM    8  C7  UNL     1      31.239  31.583  27.780  1.00  0.00     0.143 C 
BRANCH   8   9
HETATM    9  C6  UNL     1      30.692  31.884  26.457  1.00  0.00    -0.024 C 
HETATM   10  C5  UNL     1      29.945  30.748  25.772  1.00  0.00     0.083 C 
HETATM   11  C4  UNL     1      29.067  31.394  24.715  1.00  0.00     0.109 C 
HETATM   12  C20 UNL     1      29.909  32.186  23.777  1.00  0.00     0.188 C 
HETATM   13  C19 UNL     1      30.540  33.348  24.520  1.00  0.00     0.183 C 
HETATM   14  C18 UNL     1      31.535  32.646  25.502  1.00  0.00     0.180 C 
BRANCH  11  15
HETATM   15  C3  UNL     1      28.333  30.332  23.975  1.00  0.00     0.030 C 
HETATM   16  C2  UNL     1      27.113  30.484  23.505  1.00  0.00     0.084 C 
BRANCH  16  17
HETATM   17  N1  UNL     1      26.389  31.679  23.661  1.00  0.00    -0.378 N 
ATOM     18  H1  UNL     1      26.351  32.112  24.584  1.00  0.00     0.161 HD
BRANCH  17  19
HETATM   19  C1  UNL     1      25.690  32.323  22.554  1.00  0.00     0.286 C 
BRANCH  19  20
HETATM   20  O1  UNL     1      26.396  33.428  22.114  1.00  0.00    -0.382 OA
ATOM     21  H1  UNL     1      26.023  33.761  21.307  1.00  0.00     0.211 HD
ENDBRANCH  19  20
ENDBRANCH  17  19
ENDBRANCH  16  17
ENDBRANCH  11  15
BRANCH  11  22
HETATM   22  O2  UNL     1      28.120  32.218  25.315  1.00  0.00    -0.383 OA
ATOM     23  H2  UNL     1      27.879  32.884  24.683  1.00  0.00     0.211 HD
ENDBRANCH  11  22
BRANCH  12  24
HETATM   24  O15 UNL     1      29.206  32.626  22.654  1.00  0.00    -0.390 OA
ATOM     25  H15 UNL     1      28.603  33.333  22.848  1.00  0.00     0.210 HD
ENDBRANCH  12  24
BRANCH  13  26
HETATM   26  O14 UNL     1      29.651  34.143  25.189  1.00  0.00    -0.390 OA
ATOM     27  H14 UNL     1      28.900  33.648  25.493  1.00  0.00     0.210 HD
ENDBRANCH  13  26
BRANCH  14  28
HETATM   28  O13 UNL     1      32.288  31.856  24.624  1.00  0.00    -0.388 OA
ATOM     29  H13 UNL     1      33.054  31.449  25.012  1.00  0.00     0.210 HD
ENDBRANCH  14  28
ENDBRANCH   8   9
ENDBRANCH   7   8
ENDBRANCH   1   7
BRANCH   6  30
HETATM   30  O12 UNL     1      34.844  30.371  28.679  1.00  0.00    -0.390 OA
ATOM     31  H12 UNL     1      35.185  31.160  28.275  1.00  0.00     0.210 HD
ENDBRANCH   6  30
BRANCH   4  32
HETATM   32  O6  UNL     1      33.842  27.528  25.953  1.00  0.00    -0.362 OA
ATOM     33  H6  UNL     1      34.635  27.050  25.742  1.00  0.00     0.213 HD
ENDBRANCH   4  32
BRANCH   4  34
HETATM   34  C10 UNL     1      33.542  25.792  27.517  1.00  0.00     0.242 C 
BRANCH  34  35
HETATM   35  O7  UNL     1      34.032  25.541  28.796  1.00  0.00    -0.353 OA
BRANCH  35  36
HETATM   36  C11 UNL     1      34.170  24.178  29.036  1.00  0.00     0.291 C 
HETATM   37  O8  UNL     1      35.349  23.774  28.403  1.00  0.00    -0.356 OA
HETATM   38  C12 UNL     1      35.748  22.530  28.890  1.00  0.00     0.205 C 
HETATM   39  C13 UNL     1      34.655  21.497  28.743  1.00  0.00     0.173 C 
HETATM   40  C14 UNL     1      33.459  22.033  28.006  1.00  0.00     0.182 C 
HETATM   41  C15 UNL     1      33.018  23.383  28.472  1.00  0.00     0.204 C 
BRANCH  39  42
HETATM   42  O9  UNL     1      34.330  20.965  29.988  1.00  0.00    -0.391 OA
ATOM     43  H9  UNL     1      34.993  20.342  30.260  1.00  0.00     0.210 HD
ENDBRANCH  39  42
BRANCH  40  44
HETATM   44  O10 UNL     1      32.423  21.108  28.171  1.00  0.00    -0.390 OA
ATOM     45  H10 UNL     1      32.536  20.440  27.506  1.00  0.00     0.210 HD
ENDBRANCH  40  44
BRANCH  41  46
HETATM   46  O11 UNL     1      32.000  23.228  29.420  1.00  0.00    -0.388 OA
ATOM     47  H11 UNL     1      31.676  22.335  29.432  1.00  0.00     0.210 HD
ENDBRANCH  41  46
ENDBRANCH  35  36
ENDBRANCH  34  35
ENDBRANCH   4  34
TORSDOF 19
ENDMDL
MODEL 5
REMARK VINA RESULT: -6.212534506      3.534      8.111
REMARK  19 active torsions:
REMARK  status: ('A' for Active; 'I' for Inactive)
REMARK    1  A    between atoms: O1_1  and  C1_3 
REMARK    2  A    between atoms: C1_3  and  N1_4 
REMARK    3  A    between atoms: N1_4  and  C2_6 
REMARK    4  A    between atoms: C3_7  and  C4_8 
REMARK    5  A    between atoms: C4_8  and  O2_9 
REMARK    6  A    between atoms: C6_12  and  C7_13 
REMARK    7  A    between atoms: C7_13  and  O3_14 
REMARK    8  A    between atoms: O3_14  and  C8_15 
REMARK    9  A    between atoms: C9_18  and  O6_19 
REMARK   10  A    between atoms: C9_18  and  C10_21 
REMARK   11  A    between atoms: C10_21  and  O7_22 
REMARK   12  A    between atoms: O7_22  and  C11_23 
REMARK   13  A    between atoms: C13_26  and  O9_27 
REMARK   14  A    between atoms: C14_29  and  O10_30 
REMARK   15  A    between atoms: C15_32  and  O11_33 
REMARK   16  A    between atoms: C17_36  and  O12_37 
REMARK   17  A    between atoms: C18_39  and  O13_40 
REMARK   18  A    between atoms: C19_42  and  O14_43 
REMARK   19  A    between atoms: C20_45  and  O15_46 
ROOT
HETATM    1  C8  UNL     1      30.748  32.922  24.066  1.00  0.00     0.330 C 
HETATM    2  O4  UNL     1      31.719  33.873  23.650  1.00  0.00    -0.202 OA
HETATM    3  O5  UNL     1      32.655  33.258  22.923  1.00  0.00    -0.196 OA
HETATM    4  C9  UNL     1      32.093  32.663  21.798  1.00  0.00     0.219 C 
HETATM    5  C16 UNL     1      30.697  33.231  21.648  1.00  0.00     0.110 C 
HETATM    6  C17 UNL     1      29.875  32.743  22.821  1.00  0.00     0.181 C 
ENDROOT
BRANCH   1   7
HETATM    7  O3  UNL     1      30.089  33.458  25.104  1.00  0.00    -0.326 OA
BRANCH   7   8
HETATM    8  C7  UNL     1      30.173  33.007  26.358  1.00  0.00     0.143 C 
BRANCH   8   9
HETATM    9  C6  UNL     1      31.381  32.390  26.904  1.00  0.00    -0.024 C 
HETATM   10  C5  UNL     1      31.372  30.870  26.988  1.00  0.00     0.083 C 
HETATM   11  C4  UNL     1      32.826  30.442  27.083  1.00  0.00     0.109 C 
HETATM   12  C20 UNL     1      33.465  31.086  28.263  1.00  0.00     0.188 C 
HETATM   13  C19 UNL     1      33.516  32.587  28.054  1.00  0.00     0.183 C 
HETATM   14  C18 UNL     1      32.009  33.005  28.100  1.00  0.00     0.180 C 
BRANCH  11  15
HETATM   15  C3  UNL     1      32.890  28.960  27.208  1.00  0.00     0.030 C 
HETATM   16  C2  UNL     1      32.516  28.132  26.256  1.00  0.00     0.084 C 
BRANCH  16  17
HETATM   17  N1  UNL     1      32.015  28.583  25.021  1.00  0.00    -0.378 N 
ATOM     18  H1  UNL     1      31.189  29.181  25.015  1.00  0.00     0.161 HD
BRANCH  17  19
HETATM   19  C1  UNL     1      32.633  28.226  23.748  1.00  0.00     0.286 C 
BRANCH  19  20
HETATM   20  O1  UNL     1      33.899  28.774  23.655  1.00  0.00    -0.382 OA
ATOM     21  H1  UNL     1      34.354  28.433  22.894  1.00  0.00     0.211 HD
ENDBRANCH  19  20
ENDBRANCH  17  19
ENDBRANCH  16  17
ENDBRANCH  11  15
BRANCH  11  22
HETATM   22  O2  UNL     1      33.506  30.794  25.922  1.00  0.00    -0.383 OA
ATOM     23  H2  UNL     1      34.132  31.472  26.151  1.00  0.00     0.211 HD
ENDBRANCH  11  22
BRANCH  12  24
HETATM   24  O15 UNL     1      34.731  30.571  28.545  1.00  0.00    -0.390 OA
ATOM     25  H15 UNL     1      35.037  30.796  29.415  1.00  0.00     0.210 HD
ENDBRANCH  12  24
BRANCH  13  26
HETATM   26  O14 UNL     1      34.110  32.978  26.887  1.00  0.00    -0.390 OA
ATOM     27  H14 UNL     1      33.879  33.872  26.661  1.00  0.00     0.210 HD
ENDBRANCH  13  26
BRANCH  14  28
HETATM   28  O13 UNL     1      31.600  32.459  29.324  1.00  0.00    -0.388 OA
ATOM     29  H13 UNL     1      32.139  32.702  30.068  1.00  0.00     0.210 HD
ENDBRANCH  14  28
ENDBRANCH   8   9
ENDBRANCH   7   8
ENDBRANCH   1   7
BRANCH   6  30
HETATM   30  O12 UNL     1      28.668  33.409  22.937  1.00  0.00    -0.390 OA
ATOM     31  H12 UNL     1      27.935  32.857  22.692  1.00  0.00     0.210 HD
ENDBRANCH   6  30
BRANCH   4  32
HETATM   32  O6  UNL     1      31.983  31.279  21.941  1.00  0.00    -0.362 OA
ATOM     33  H6  UNL     1      31.742  30.857  21.125  1.00  0.00     0.213 HD
ENDBRANCH   4  32
BRANCH   4  34
HETATM   34  C10 UNL     1      32.927  32.939  20.561  1.00  0.00     0.242 C 
BRANCH  34  35
HETATM   35  O7  UNL     1      32.683  34.216  20.063  1.00  0.00    -0.353 OA
BRANCH  35  36
HETATM   36  C11 UNL     1      33.827  34.778  19.508  1.00  0.00     0.291 C 
HETATM   37  O8  UNL     1      34.027  34.151  18.275  1.00  0.00    -0.356 OA
HETATM   38  C12 UNL     1      34.919  34.894  17.501  1.00  0.00     0.205 C 
HETATM   39  C13 UNL     1      36.224  35.128  18.226  1.00  0.00     0.173 C 
HETATM   40  C14 UNL     1      36.282  34.407  19.544  1.00  0.00     0.182 C 
HETATM   41  C15 UNL     1      35.045  34.557  20.370  1.00  0.00     0.204 C 
BRANCH  39  42
HETATM   42  O9  UNL     1      36.465  36.494  18.345  1.00  0.00    -0.391 OA
ATOM     43  H9  UNL     1      35.909  36.977  17.746  1.00  0.00     0.210 HD
ENDBRANCH  39  42
BRANCH  40  44
HETATM   44  O10 UNL     1      37.386  34.909  20.241  1.00  0.00    -0.390 OA
ATOM     45  H10 UNL     1      37.052  35.493  20.912  1.00  0.00     0.210 HD
ENDBRANCH  40  44
BRANCH  41  46
HETATM   46  O11 UNL     1      35.225  35.615  21.271  1.00  0.00    -0.388 OA
ATOM     47  H11 UNL     1      35.745  36.309  20.884  1.00  0.00     0.210 HD
ENDBRANCH  41  46
ENDBRANCH  35  36
ENDBRANCH  34  35
ENDBRANCH   4  34
TORSDOF 19
ENDMDL
