MODEL 1
REMARK VINA RESULT: -6.817419424      0.000      0.000
REMARK  15 active torsions:
REMARK  status: ('A' for Active; 'I' for Inactive)
REMARK    1  A    between atoms: N1_1  and  C1_4 
REMARK    2  A    between atoms: C1_4  and  N2_5 
REMARK    3  A    between atoms: C1_4  and  C9_24 
REMARK    4  A    between atoms: N2_5  and  C2_7 
REMARK    5  A    between atoms: C4_9  and  N3_10 
REMARK    6  A    between atoms: C5_14  and  N4_15 
REMARK    7  A    between atoms: C7_20  and  C8_21 
REMARK    8  A    between atoms: C8_21  and  O1_22 
REMARK    9  A    between atoms: C9_24  and  C10_25 
REMARK   10  A    between atoms: C9_24  and  N10_45 
REMARK   11  A    between atoms: C11_31  and  O2_32 
REMARK   12  A    between atoms: O2_32  and  C12_33 
REMARK   13  A    between atoms: C15_38  and  N8_39 
REMARK   14  A    between atoms: C17_49  and  C18_50 
REMARK   15  A    between atoms: C19_53  and  O8_54 
ROOT
HETATM    1  C9  UNL     1      31.553  29.240  27.801  1.00  0.00     0.206 C 
ENDROOT
BRANCH   1   2
HETATM    2  C1  UNL     1      32.797  28.498  28.005  1.00  0.00     0.099 C 
BRANCH   2   3
HETATM    3  N1  UNL     1      33.900  29.099  28.180  1.00  0.00    -0.387 N 
ATOM      4  H12 UNL     1      34.756  28.774  27.731  1.00  0.00     0.157 HD
ATOM      5  H11 UNL     1      33.912  29.917  28.789  1.00  0.00     0.157 HD
ENDBRANCH   2   3
BRANCH   2   6
HETATM    6  N2  UNL     1      32.797  27.076  28.003  1.00  0.00    -0.373 N 
ATOM      7  H2  UNL     1      31.937  26.586  27.757  1.00  0.00     0.161 HD
BRANCH   6   8
HETATM    8  C2  UNL     1      33.967  26.299  28.335  1.00  0.00     0.091 C 
HETATM    9  C3  UNL     1      34.387  25.410  27.172  1.00  0.00     0.060 C 
HETATM   10  C4  UNL     1      34.873  24.056  27.646  1.00  0.00     0.215 C 
HETATM   11  C5  UNL     1      33.852  23.259  28.387  1.00  0.00     0.214 C 
HETATM   12  C6  UNL     1      32.932  24.176  29.130  1.00  0.00     0.043 C 
HETATM   13  C7  UNL     1      33.743  25.420  29.511  1.00  0.00     0.034 C 
BRANCH  10  14
HETATM   14  N3  UNL     1      35.321  23.307  26.472  1.00  0.00    -0.073 N 
ATOM     15  H33 UNL     1      34.815  23.562  25.624  1.00  0.00     0.274 HD
ATOM     16  H32 UNL     1      36.253  23.579  26.161  1.00  0.00     0.274 HD
ATOM     17  H31 UNL     1      35.250  22.314  26.692  1.00  0.00     0.274 HD
ENDBRANCH  10  14
BRANCH  11  18
HETATM   18  N4  UNL     1      34.569  22.417  29.357  1.00  0.00    -0.073 N 
ATOM     19  H43 UNL     1      34.892  22.937  30.173  1.00  0.00     0.274 HD
ATOM     20  H42 UNL     1      33.955  21.767  29.849  1.00  0.00     0.274 HD
ATOM     21  H41 UNL     1      35.325  21.949  28.858  1.00  0.00     0.274 HD
ENDBRANCH  11  18
BRANCH  13  22
HETATM   22  C8  UNL     1      33.096  26.046  30.697  1.00  0.00     0.170 C 
BRANCH  22  23
HETATM   23  O1  UNL     1      31.707  26.079  30.415  1.00  0.00    -0.400 OA
ATOM     24  H1  UNL     1      31.386  26.903  30.763  1.00  0.00     0.209 HD
ENDBRANCH  22  23
ENDBRANCH  13  22
ENDBRANCH   6   8
ENDBRANCH   2   6
ENDBRANCH   1   2
BRANCH   1  25
HETATM   25  C10 UNL     1      31.736  30.683  27.384  1.00  0.00     0.277 C 
HETATM   26  N5  UNL     1      31.780  31.582  28.503  1.00  0.00    -0.090 NA
HETATM   27  N6  UNL     1      32.714  32.613  28.296  1.00  0.00    -0.241 N 
HETATM   28  N7  UNL     1      33.100  33.074  27.082  1.00  0.00    -0.247 N 
ATOM     29  H6  UNL     1      33.131  33.045  29.120  1.00  0.00     0.204 HD
HETATM   30  C11 UNL     1      33.134  32.136  26.071  1.00  0.00     0.289 C 
ATOM     31  H7  UNL     1      33.350  34.051  26.927  1.00  0.00     0.192 HD
HETATM   32  O5  UNL     1      32.770  30.886  26.463  1.00  0.00    -0.288 OA
BRANCH  30  33
HETATM   33  O2  UNL     1      33.513  32.758  25.033  1.00  0.00    -0.255 OA
BRANCH  33  34
HETATM   34  C12 UNL     1      33.886  33.368  24.015  1.00  0.00     0.160 A 
HETATM   35  C13 UNL     1      34.697  34.524  24.046  1.00  0.00     0.139 A 
HETATM   36  C14 UNL     1      35.047  35.131  22.893  1.00  0.00     0.294 A 
HETATM   37  O3  UNL     1      35.777  36.180  22.854  1.00  0.00    -0.260 OA
HETATM   38  O4  UNL     1      34.660  34.683  21.725  1.00  0.00    -0.242 OA
HETATM   39  C15 UNL     1      33.920  33.630  21.643  1.00  0.00     0.226 A 
HETATM   40  N9  UNL     1      33.530  32.973  22.724  1.00  0.00    -0.302 N 
ATOM     41  H9  UNL     1      32.946  32.145  22.609  1.00  0.00     0.171 HD
BRANCH  39  42
HETATM   42  N8  UNL     1      33.540  33.189  20.470  1.00  0.00    -0.365 N 
ATOM     43  H82 UNL     1      34.114  33.409  19.656  1.00  0.00     0.159 HD
ATOM     44  H81 UNL     1      32.686  32.638  20.386  1.00  0.00     0.159 HD
ENDBRANCH  39  42
ENDBRANCH  33  34
ENDBRANCH  30  33
ENDBRANCH   1  25
BRANCH   1  45
HETATM   45  N10 UNL     1      30.613  28.638  26.893  1.00  0.00    -0.306 N 
HETATM   46  C16 UNL     1      30.297  29.023  25.637  1.00  0.00     0.186 A 
HETATM   47  N11 UNL     1      29.369  28.207  25.125  1.00  0.00    -0.343 N 
HETATM   48  C17 UNL     1      29.062  27.269  26.049  1.00  0.00     0.162 A 
ATOM     49  H11 UNL     1      28.962  28.280  24.193  1.00  0.00     0.167 HD
HETATM   50  C19 UNL     1      29.844  27.558  27.131  1.00  0.00     0.178 A 
BRANCH  48  51
HETATM   51  C18 UNL     1      28.124  26.184  25.957  1.00  0.00     0.231 C 
HETATM   52  O6  UNL     1      27.905  25.636  24.857  1.00  0.00    -0.643 OA
HETATM   53  O7  UNL     1      27.459  25.741  27.078  1.00  0.00    -0.643 OA
ENDBRANCH  48  51
BRANCH  50  54
HETATM   54  O8  UNL     1      29.868  26.856  28.328  1.00  0.00    -0.344 OA
ATOM     55  H8  UNL     1      29.084  26.548  28.767  1.00  0.00     0.219 HD
ENDBRANCH  50  54
ENDBRANCH   1  45
TORSDOF 15
ENDMDL
MODEL 2
REMARK VINA RESULT: -6.766229352      3.227      8.532
REMARK  15 active torsions:
REMARK  status: ('A' for Active; 'I' for Inactive)
REMARK    1  A    between atoms: N1_1  and  C1_4 
REMARK    2  A    between atoms: C1_4  and  N2_5 
REMARK    3  A    between atoms: C1_4  and  C9_24 
REMARK    4  A    between atoms: N2_5  and  C2_7 
REMARK    5  A    between atoms: C4_9  and  N3_10 
REMARK    6  A    between atoms: C5_14  and  N4_15 
REMARK    7  A    between atoms: C7_20  and  C8_21 
REMARK    8  A    between atoms: C8_21  and  O1_22 
REMARK    9  A    between atoms: C9_24  and  C10_25 
REMARK   10  A    between atoms: C9_24  and  N10_45 
REMARK   11  A    between atoms: C11_31  and  O2_32 
REMARK   12  A    between atoms: O2_32  and  C12_33 
REMARK   13  A    between atoms: C15_38  and  N8_39 
REMARK   14  A    between atoms: C17_49  and  C18_50 
REMARK   15  A    between atoms: C19_53  and  O8_54 
ROOT
HETATM    1  C9  UNL     1      31.245  27.624  27.436  1.00  0.00     0.206 C 
ENDROOT
BRANCH   1   2
HETATM    2  C1  UNL     1      31.534  26.749  28.572  1.00  0.00     0.099 C 
BRANCH   2   3
HETATM    3  N1  UNL     1      30.760  26.695  29.574  1.00  0.00    -0.387 N 
ATOM      4  H12 UNL     1      31.114  26.816  30.524  1.00  0.00     0.157 HD
ATOM      5  H11 UNL     1      29.768  26.521  29.410  1.00  0.00     0.157 HD
ENDBRANCH   2   3
BRANCH   2   6
HETATM    6  N2  UNL     1      32.703  25.939  28.578  1.00  0.00    -0.373 N 
ATOM      7  H2  UNL     1      33.583  26.351  28.886  1.00  0.00     0.161 HD
BRANCH   6   8
HETATM    8  C2  UNL     1      32.691  24.555  28.167  1.00  0.00     0.091 C 
HETATM    9  C3  UNL     1      33.164  23.642  29.290  1.00  0.00     0.060 C 
HETATM   10  C4  UNL     1      34.018  22.504  28.768  1.00  0.00     0.215 C 
HETATM   11  C5  UNL     1      35.266  22.937  28.076  1.00  0.00     0.214 C 
HETATM   12  C6  UNL     1      35.043  24.254  27.401  1.00  0.00     0.043 C 
HETATM   13  C7  UNL     1      33.566  24.310  26.992  1.00  0.00     0.034 C 
BRANCH  10  14
HETATM   14  N3  UNL     1      34.359  21.646  29.902  1.00  0.00    -0.073 N 
ATOM     15  H33 UNL     1      34.649  22.174  30.725  1.00  0.00     0.274 HD
ATOM     16  H32 UNL     1      33.544  21.192  30.314  1.00  0.00     0.274 HD
ATOM     17  H31 UNL     1      35.066  20.983  29.588  1.00  0.00     0.274 HD
ENDBRANCH  10  14
BRANCH  11  18
HETATM   18  N4  UNL     1      35.577  21.927  27.052  1.00  0.00    -0.073 N 
ATOM     19  H43 UNL     1      34.856  21.211  26.968  1.00  0.00     0.274 HD
ATOM     20  H42 UNL     1      35.515  22.291  26.102  1.00  0.00     0.274 HD
ATOM     21  H41 UNL     1      36.496  21.541  27.271  1.00  0.00     0.274 HD
ENDBRANCH  11  18
BRANCH  13  22
HETATM   22  C8  UNL     1      33.439  25.264  25.856  1.00  0.00     0.170 C 
BRANCH  22  23
HETATM   23  O1  UNL     1      34.224  26.392  26.200  1.00  0.00    -0.400 OA
ATOM     24  H1  UNL     1      34.764  26.580  25.441  1.00  0.00     0.209 HD
ENDBRANCH  22  23
ENDBRANCH  13  22
ENDBRANCH   6   8
ENDBRANCH   2   6
ENDBRANCH   1   2
BRANCH   1  25
HETATM   25  C10 UNL     1      29.849  27.490  26.870  1.00  0.00     0.277 C 
HETATM   26  N5  UNL     1      29.814  27.627  25.441  1.00  0.00    -0.090 NA
HETATM   27  N6  UNL     1      28.884  26.744  24.865  1.00  0.00    -0.241 N 
HETATM   28  N7  UNL     1      27.787  26.257  25.493  1.00  0.00    -0.247 N 
ATOM     29  H6  UNL     1      29.047  26.449  23.902  1.00  0.00     0.204 HD
HETATM   30  C11 UNL     1      27.920  26.052  26.850  1.00  0.00     0.289 C 
ATOM     31  H7  UNL     1      26.920  26.055  24.994  1.00  0.00     0.192 HD
HETATM   32  O5  UNL     1      29.145  26.375  27.342  1.00  0.00    -0.288 OA
BRANCH  30  33
HETATM   33  O2  UNL     1      26.802  25.601  27.244  1.00  0.00    -0.255 OA
BRANCH  33  34
HETATM   34  C12 UNL     1      25.706  25.158  27.630  1.00  0.00     0.160 A 
HETATM   35  C13 UNL     1      24.464  25.755  27.319  1.00  0.00     0.139 A 
HETATM   36  C14 UNL     1      23.321  25.214  27.788  1.00  0.00     0.294 A 
HETATM   37  O3  UNL     1      22.166  25.708  27.543  1.00  0.00    -0.260 OA
HETATM   38  O4  UNL     1      23.314  24.137  28.532  1.00  0.00    -0.242 OA
HETATM   39  C15 UNL     1      24.421  23.552  28.843  1.00  0.00     0.226 A 
HETATM   40  N9  UNL     1      25.589  24.016  28.426  1.00  0.00    -0.302 N 
ATOM     41  H9  UNL     1      26.437  23.520  28.697  1.00  0.00     0.171 HD
BRANCH  39  42
HETATM   42  N8  UNL     1      24.404  22.475  29.587  1.00  0.00    -0.365 N 
ATOM     43  H82 UNL     1      23.996  21.623  29.203  1.00  0.00     0.159 HD
ATOM     44  H81 UNL     1      24.794  22.500  30.528  1.00  0.00     0.159 HD
ENDBRANCH  39  42
ENDBRANCH  33  34
ENDBRANCH  30  33
ENDBRANCH   1  25
BRANCH   1  45
HETATM   45  N10 UNL     1      31.497  29.025  27.652  1.00  0.00    -0.306 N 
HETATM   46  C16 UNL     1      30.601  30.028  27.773  1.00  0.00     0.186 A 
HETATM   47  N11 UNL     1      31.234  31.192  27.957  1.00  0.00    -0.343 N 
HETATM   48  C17 UNL     1      32.566  30.962  27.958  1.00  0.00     0.162 A 
ATOM     49  H11 UNL     1      30.787  32.100  28.077  1.00  0.00     0.167 HD
HETATM   50  C19 UNL     1      32.702  29.616  27.768  1.00  0.00     0.178 A 
BRANCH  48  51
HETATM   51  C18 UNL     1      33.644  31.900  28.121  1.00  0.00     0.231 C 
HETATM   52  O6  UNL     1      34.537  31.687  28.966  1.00  0.00    -0.643 OA
HETATM   53  O7  UNL     1      33.700  33.038  27.348  1.00  0.00    -0.643 OA
ENDBRANCH  48  51
BRANCH  50  54
HETATM   54  O8  UNL     1      33.900  28.921  27.699  1.00  0.00    -0.344 OA
ATOM     55  H8  UNL     1      34.492  28.977  26.957  1.00  0.00     0.219 HD
ENDBRANCH  50  54
ENDBRANCH   1  45
TORSDOF 15
ENDMDL
MODEL 3
REMARK VINA RESULT: -6.729920436      3.066      4.887
REMARK  15 active torsions:
REMARK  status: ('A' for Active; 'I' for Inactive)
REMARK    1  A    between atoms: N1_1  and  C1_4 
REMARK    2  A    between atoms: C1_4  and  N2_5 
REMARK    3  A    between atoms: C1_4  and  C9_24 
REMARK    4  A    between atoms: N2_5  and  C2_7 
REMARK    5  A    between atoms: C4_9  and  N3_10 
REMARK    6  A    between atoms: C5_14  and  N4_15 
REMARK    7  A    between atoms: C7_20  and  C8_21 
REMARK    8  A    between atoms: C8_21  and  O1_22 
REMARK    9  A    between atoms: C9_24  and  C10_25 
REMARK   10  A    between atoms: C9_24  and  N10_45 
REMARK   11  A    between atoms: C11_31  and  O2_32 
REMARK   12  A    between atoms: O2_32  and  C12_33 
REMARK   13  A    between atoms: C15_38  and  N8_39 
REMARK   14  A    between atoms: C17_49  and  C18_50 
REMARK   15  A    between atoms: C19_53  and  O8_54 
ROOT
HETATM    1  C9  UNL     1      30.985  29.413  25.859  1.00  0.00     0.206 C 
ENDROOT
BRANCH   1   2
HETATM    2  C1  UNL     1      30.441  28.163  26.390  1.00  0.00     0.099 C 
BRANCH   2   3
HETATM    3  N1  UNL     1      29.357  27.677  25.948  1.00  0.00    -0.387 N 
ATOM      4  H12 UNL     1      28.596  27.420  26.578  1.00  0.00     0.157 HD
ATOM      5  H11 UNL     1      29.262  27.543  24.941  1.00  0.00     0.157 HD
ENDBRANCH   2   3
BRANCH   2   6
HETATM    6  N2  UNL     1      31.120  27.464  27.426  1.00  0.00    -0.373 N 
ATOM      7  H2  UNL     1      31.028  27.799  28.385  1.00  0.00     0.161 HD
BRANCH   6   8
HETATM    8  C2  UNL     1      31.933  26.299  27.174  1.00  0.00     0.091 C 
HETATM    9  C3  UNL     1      31.250  25.032  27.672  1.00  0.00     0.060 C 
HETATM   10  C4  UNL     1      32.240  24.064  28.286  1.00  0.00     0.215 C 
HETATM   11  C5  UNL     1      32.968  24.597  29.474  1.00  0.00     0.214 C 
HETATM   12  C6  UNL     1      33.150  26.076  29.337  1.00  0.00     0.043 C 
HETATM   13  C7  UNL     1      33.259  26.383  27.839  1.00  0.00     0.034 C 
BRANCH  10  14
HETATM   14  N3  UNL     1      31.507  22.856  28.663  1.00  0.00    -0.073 N 
ATOM     15  H33 UNL     1      31.708  22.551  29.615  1.00  0.00     0.274 HD
ATOM     16  H32 UNL     1      30.507  23.020  28.783  1.00  0.00     0.274 HD
ATOM     17  H31 UNL     1      31.710  22.139  27.967  1.00  0.00     0.274 HD
ENDBRANCH  10  14
BRANCH  11  18
HETATM   18  N4  UNL     1      34.293  23.957  29.503  1.00  0.00    -0.073 N 
ATOM     19  H43 UNL     1      34.243  22.941  29.569  1.00  0.00     0.274 HD
ATOM     20  H42 UNL     1      34.780  24.009  28.609  1.00  0.00     0.274 HD
ATOM     21  H41 UNL     1      34.820  24.379  30.268  1.00  0.00     0.274 HD
ENDBRANCH  11  18
BRANCH  13  22
HETATM   22  C8  UNL     1      34.001  27.664  27.684  1.00  0.00     0.170 C 
BRANCH  22  23
HETATM   23  O1  UNL     1      34.680  27.875  28.909  1.00  0.00    -0.400 OA
ATOM     24  H1  UNL     1      34.015  27.855  29.588  1.00  0.00     0.209 HD
ENDBRANCH  22  23
ENDBRANCH  13  22
ENDBRANCH   6   8
ENDBRANCH   2   6
ENDBRANCH   1   2
BRANCH   1  25
HETATM   25  C10 UNL     1      30.062  30.158  24.920  1.00  0.00     0.277 C 
HETATM   26  N5  UNL     1      28.849  30.586  25.558  1.00  0.00    -0.090 NA
HETATM   27  N6  UNL     1      28.449  31.853  25.099  1.00  0.00    -0.241 N 
HETATM   28  N7  UNL     1      28.756  32.369  23.885  1.00  0.00    -0.247 N 
ATOM     29  H6  UNL     1      27.886  32.427  25.727  1.00  0.00     0.204 HD
HETATM   30  C11 UNL     1      29.982  31.998  23.373  1.00  0.00     0.289 C 
ATOM     31  H7  UNL     1      28.122  32.991  23.383  1.00  0.00     0.192 HD
HETATM   32  O5  UNL     1      30.691  31.167  24.181  1.00  0.00    -0.288 OA
BRANCH  30  33
HETATM   33  O2  UNL     1      30.077  32.576  22.248  1.00  0.00    -0.255 OA
BRANCH  33  34
HETATM   34  C12 UNL     1      30.171  33.143  21.145  1.00  0.00     0.160 A 
HETATM   35  C13 UNL     1      31.394  33.573  20.585  1.00  0.00     0.139 A 
HETATM   36  C14 UNL     1      31.405  34.190  19.385  1.00  0.00     0.294 A 
HETATM   37  O3  UNL     1      32.478  34.604  18.825  1.00  0.00    -0.260 OA
HETATM   38  O4  UNL     1      30.308  34.408  18.704  1.00  0.00    -0.242 OA
HETATM   39  C15 UNL     1      29.165  34.032  19.171  1.00  0.00     0.226 A 
HETATM   40  N9  UNL     1      29.064  33.421  20.341  1.00  0.00    -0.302 N 
ATOM     41  H9  UNL     1      28.139  33.142  20.668  1.00  0.00     0.171 HD
BRANCH  39  42
HETATM   42  N8  UNL     1      28.074  34.253  18.482  1.00  0.00    -0.365 N 
ATOM     43  H82 UNL     1      27.414  34.951  18.823  1.00  0.00     0.159 HD
ATOM     44  H81 UNL     1      27.900  33.731  17.623  1.00  0.00     0.159 HD
ENDBRANCH  39  42
ENDBRANCH  33  34
ENDBRANCH  30  33
ENDBRANCH   1  25
BRANCH   1  45
HETATM   45  N10 UNL     1      31.458  30.351  26.843  1.00  0.00    -0.306 N 
HETATM   46  C16 UNL     1      30.883  30.698  28.015  1.00  0.00     0.186 A 
HETATM   47  N11 UNL     1      31.632  31.611  28.642  1.00  0.00    -0.343 N 
HETATM   48  C17 UNL     1      32.717  31.876  27.881  1.00  0.00     0.162 A 
ATOM     49  H11 UNL     1      31.420  32.036  29.545  1.00  0.00     0.167 HD
HETATM   50  C19 UNL     1      32.586  31.085  26.776  1.00  0.00     0.178 A 
BRANCH  48  51
HETATM   51  C18 UNL     1      33.801  32.785  28.139  1.00  0.00     0.231 C 
HETATM   52  O6  UNL     1      34.219  33.536  27.234  1.00  0.00    -0.643 OA
HETATM   53  O7  UNL     1      34.387  32.835  29.384  1.00  0.00    -0.643 OA
ENDBRANCH  48  51
BRANCH  50  54
HETATM   54  O8  UNL     1      33.473  31.021  25.711  1.00  0.00    -0.344 OA
ATOM     55  H8  UNL     1      34.417  31.049  25.816  1.00  0.00     0.219 HD
ENDBRANCH  50  54
ENDBRANCH   1  45
TORSDOF 15
ENDMDL
MODEL 4
REMARK VINA RESULT: -6.655484442      3.270      8.569
REMARK  15 active torsions:
REMARK  status: ('A' for Active; 'I' for Inactive)
REMARK    1  A    between atoms: N1_1  and  C1_4 
REMARK    2  A    between atoms: C1_4  and  N2_5 
REMARK    3  A    between atoms: C1_4  and  C9_24 
REMARK    4  A    between atoms: N2_5  and  C2_7 
REMARK    5  A    between atoms: C4_9  and  N3_10 
REMARK    6  A    between atoms: C5_14  and  N4_15 
REMARK    7  A    between atoms: C7_20  and  C8_21 
REMARK    8  A    between atoms: C8_21  and  O1_22 
REMARK    9  A    between atoms: C9_24  and  C10_25 
REMARK   10  A    between atoms: C9_24  and  N10_45 
REMARK   11  A    between atoms: C11_31  and  O2_32 
REMARK   12  A    between atoms: O2_32  and  C12_33 
REMARK   13  A    between atoms: C15_38  and  N8_39 
REMARK   14  A    between atoms: C17_49  and  C18_50 
REMARK   15  A    between atoms: C19_53  and  O8_54 
ROOT
HETATM    1  C9  UNL     1      31.711  27.137  27.558  1.00  0.00     0.206 C 
ENDROOT
BRANCH   1   2
HETATM    2  C1  UNL     1      31.878  26.362  28.787  1.00  0.00     0.099 C 
BRANCH   2   3
HETATM    3  N1  UNL     1      31.068  26.481  29.755  1.00  0.00    -0.387 N 
ATOM      4  H12 UNL     1      30.821  25.682  30.340  1.00  0.00     0.157 HD
ATOM      5  H11 UNL     1      30.661  27.399  29.934  1.00  0.00     0.157 HD
ENDBRANCH   2   3
BRANCH   2   6
HETATM    6  N2  UNL     1      32.966  25.457  28.926  1.00  0.00    -0.373 N 
ATOM      7  H2  UNL     1      33.818  25.780  29.385  1.00  0.00     0.161 HD
BRANCH   6   8
HETATM    8  C2  UNL     1      32.913  24.097  28.444  1.00  0.00     0.091 C 
HETATM    9  C3  UNL     1      33.104  23.101  29.580  1.00  0.00     0.060 C 
HETATM   10  C4  UNL     1      33.938  21.912  29.150  1.00  0.00     0.215 C 
HETATM   11  C5  UNL     1      35.320  22.256  28.708  1.00  0.00     0.214 C 
HETATM   12  C6  UNL     1      35.329  23.613  28.077  1.00  0.00     0.043 C 
HETATM   13  C7  UNL     1      33.957  23.820  27.425  1.00  0.00     0.034 C 
BRANCH  10  14
HETATM   14  N3  UNL     1      34.002  20.982  30.278  1.00  0.00    -0.073 N 
ATOM     15  H33 UNL     1      34.937  20.912  30.680  1.00  0.00     0.274 HD
ATOM     16  H32 UNL     1      33.524  21.332  31.108  1.00  0.00     0.274 HD
ATOM     17  H31 UNL     1      33.639  20.084  29.961  1.00  0.00     0.274 HD
ENDBRANCH  10  14
BRANCH  11  18
HETATM   18  N4  UNL     1      35.721  21.262  27.699  1.00  0.00    -0.073 N 
ATOM     19  H43 UNL     1      36.710  21.021  27.750  1.00  0.00     0.274 HD
ATOM     20  H42 UNL     1      35.346  20.332  27.886  1.00  0.00     0.274 HD
ATOM     21  H41 UNL     1      35.447  21.625  26.786  1.00  0.00     0.274 HD
ENDBRANCH  11  18
BRANCH  13  22
HETATM   22  C8  UNL     1      34.111  24.825  26.338  1.00  0.00     0.170 C 
BRANCH  22  23
HETATM   23  O1  UNL     1      34.947  25.843  26.860  1.00  0.00    -0.400 OA
ATOM     24  H1  UNL     1      34.709  25.937  27.775  1.00  0.00     0.209 HD
ENDBRANCH  22  23
ENDBRANCH  13  22
ENDBRANCH   6   8
ENDBRANCH   2   6
ENDBRANCH   1   2
BRANCH   1  25
HETATM   25  C10 UNL     1      30.448  26.832  26.783  1.00  0.00     0.277 C 
HETATM   26  N5  UNL     1      30.674  26.744  25.367  1.00  0.00    -0.090 NA
HETATM   27  N6  UNL     1      29.895  25.728  24.786  1.00  0.00    -0.241 N 
HETATM   28  N7  UNL     1      28.718  25.279  25.280  1.00  0.00    -0.247 N 
ATOM     29  H6  UNL     1      30.243  25.299  23.929  1.00  0.00     0.204 HD
HETATM   30  C11 UNL     1      28.603  25.294  26.655  1.00  0.00     0.289 C 
ATOM     31  H7  UNL     1      27.965  24.950  24.675  1.00  0.00     0.192 HD
HETATM   32  O5  UNL     1      29.705  25.763  27.297  1.00  0.00    -0.288 OA
BRANCH  30  33
HETATM   33  O2  UNL     1      27.446  24.843  26.912  1.00  0.00    -0.255 OA
BRANCH  33  34
HETATM   34  C12 UNL     1      26.311  24.400  27.165  1.00  0.00     0.160 A 
HETATM   35  C13 UNL     1      25.620  23.490  26.335  1.00  0.00     0.139 A 
HETATM   36  C14 UNL     1      24.386  23.069  26.681  1.00  0.00     0.294 A 
HETATM   37  O3  UNL     1      23.708  22.247  25.972  1.00  0.00    -0.260 OA
HETATM   38  O4  UNL     1      23.792  23.475  27.774  1.00  0.00    -0.242 OA
HETATM   39  C15 UNL     1      24.381  24.304  28.567  1.00  0.00     0.226 A 
HETATM   40  N9  UNL     1      25.593  24.769  28.305  1.00  0.00    -0.302 N 
ATOM     41  H9  UNL     1      26.019  25.422  28.962  1.00  0.00     0.171 HD
BRANCH  39  42
HETATM   42  N8  UNL     1      23.780  24.703  29.660  1.00  0.00    -0.365 N 
ATOM     43  H82 UNL     1      23.993  25.632  30.023  1.00  0.00     0.159 HD
ATOM     44  H81 UNL     1      23.115  24.088  30.128  1.00  0.00     0.159 HD
ENDBRANCH  39  42
ENDBRANCH  33  34
ENDBRANCH  30  33
ENDBRANCH   1  25
BRANCH   1  45
HETATM   45  N10 UNL     1      31.799  28.565  27.708  1.00  0.00    -0.306 N 
HETATM   46  C16 UNL     1      30.792  29.461  27.799  1.00  0.00     0.186 A 
HETATM   47  N11 UNL     1      31.286  30.698  27.921  1.00  0.00    -0.343 N 
HETATM   48  C17 UNL     1      32.636  30.626  27.911  1.00  0.00     0.162 A 
ATOM     49  H11 UNL     1      30.736  31.553  28.008  1.00  0.00     0.167 HD
HETATM   50  C19 UNL     1      32.927  29.299  27.779  1.00  0.00     0.178 A 
BRANCH  48  51
HETATM   51  C18 UNL     1      33.597  31.690  28.016  1.00  0.00     0.231 C 
HETATM   52  O6  UNL     1      34.461  31.668  28.916  1.00  0.00    -0.643 OA
HETATM   53  O7  UNL     1      33.574  32.740  27.126  1.00  0.00    -0.643 OA
ENDBRANCH  48  51
BRANCH  50  54
HETATM   54  O8  UNL     1      34.198  28.746  27.721  1.00  0.00    -0.344 OA
ATOM     55  H8  UNL     1      34.365  27.814  27.806  1.00  0.00     0.219 HD
ENDBRANCH  50  54
ENDBRANCH   1  45
TORSDOF 15
ENDMDL
MODEL 5
REMARK VINA RESULT: -6.589442476      2.869      8.089
REMARK  15 active torsions:
REMARK  status: ('A' for Active; 'I' for Inactive)
REMARK    1  A    between atoms: N1_1  and  C1_4 
REMARK    2  A    between atoms: C1_4  and  N2_5 
REMARK    3  A    between atoms: C1_4  and  C9_24 
REMARK    4  A    between atoms: N2_5  and  C2_7 
REMARK    5  A    between atoms: C4_9  and  N3_10 
REMARK    6  A    between atoms: C5_14  and  N4_15 
REMARK    7  A    between atoms: C7_20  and  C8_21 
REMARK    8  A    between atoms: C8_21  and  O1_22 
REMARK    9  A    between atoms: C9_24  and  C10_25 
REMARK   10  A    between atoms: C9_24  and  N10_45 
REMARK   11  A    between atoms: C11_31  and  O2_32 
REMARK   12  A    between atoms: O2_32  and  C12_33 
REMARK   13  A    between atoms: C15_38  and  N8_39 
REMARK   14  A    between atoms: C17_49  and  C18_50 
REMARK   15  A    between atoms: C19_53  and  O8_54 
ROOT
HETATM    1  C9  UNL     1      30.949  29.572  25.525  1.00  0.00     0.206 C 
ENDROOT
BRANCH   1   2
HETATM    2  C1  UNL     1      31.777  28.412  25.196  1.00  0.00     0.099 C 
BRANCH   2   3
HETATM    3  N1  UNL     1      32.502  28.396  24.155  1.00  0.00    -0.387 N 
ATOM      4  H12 UNL     1      33.152  27.630  23.976  1.00  0.00     0.157 HD
ATOM      5  H11 UNL     1      32.424  29.173  23.500  1.00  0.00     0.157 HD
ENDBRANCH   2   3
BRANCH   2   6
HETATM    6  N2  UNL     1      31.780  27.267  26.038  1.00  0.00    -0.373 N 
ATOM      7  H2  UNL     1      31.036  26.578  25.933  1.00  0.00     0.161 HD
BRANCH   6   8
HETATM    8  C2  UNL     1      32.798  27.040  27.037  1.00  0.00     0.091 C 
HETATM    9  C3  UNL     1      33.846  26.053  26.542  1.00  0.00     0.060 C 
HETATM   10  C4  UNL     1      34.306  25.120  27.643  1.00  0.00     0.215 C 
HETATM   11  C5  UNL     1      33.225  24.271  28.222  1.00  0.00     0.214 C 
HETATM   12  C6  UNL     1      31.921  25.003  28.173  1.00  0.00     0.043 C 
HETATM   13  C7  UNL     1      32.235  26.498  28.300  1.00  0.00     0.034 C 
BRANCH  10  14
HETATM   14  N3  UNL     1      35.358  24.266  27.094  1.00  0.00    -0.073 N 
ATOM     15  H33 UNL     1      35.258  24.109  26.091  1.00  0.00     0.274 HD
ATOM     16  H32 UNL     1      36.268  24.726  27.068  1.00  0.00     0.274 HD
ATOM     17  H31 UNL     1      35.368  23.400  27.632  1.00  0.00     0.274 HD
ENDBRANCH  10  14
BRANCH  11  18
HETATM   18  N4  UNL     1      33.571  24.013  29.629  1.00  0.00    -0.073 N 
ATOM     19  H43 UNL     1      34.192  23.213  29.746  1.00  0.00     0.274 HD
ATOM     20  H42 UNL     1      34.191  24.721  30.022  1.00  0.00     0.274 HD
ATOM     21  H41 UNL     1      32.698  23.918  30.147  1.00  0.00     0.274 HD
ENDBRANCH  11  18
BRANCH  13  22
HETATM   22  C8  UNL     1      31.025  27.179  28.836  1.00  0.00     0.170 C 
BRANCH  22  23
HETATM   23  O1  UNL     1      29.923  26.634  28.132  1.00  0.00    -0.400 OA
ATOM     24  H1  UNL     1      29.191  27.218  28.293  1.00  0.00     0.209 HD
ENDBRANCH  22  23
ENDBRANCH  13  22
ENDBRANCH   6   8
ENDBRANCH   2   6
ENDBRANCH   1   2
BRANCH   1  25
HETATM   25  C10 UNL     1      29.491  29.259  25.780  1.00  0.00     0.277 C 
HETATM   26  N5  UNL     1      28.603  30.120  25.050  1.00  0.00    -0.090 NA
HETATM   27  N6  UNL     1      27.476  29.418  24.586  1.00  0.00    -0.241 N 
HETATM   28  N7  UNL     1      26.965  28.306  25.166  1.00  0.00    -0.247 N 
ATOM     29  H6  UNL     1      27.009  29.772  23.752  1.00  0.00     0.204 HD
HETATM   30  C11 UNL     1      27.884  27.469  25.764  1.00  0.00     0.289 C 
ATOM     31  H7  UNL     1      25.966  28.101  25.161  1.00  0.00     0.192 HD
HETATM   32  O5  UNL     1      29.169  27.901  25.670  1.00  0.00    -0.288 OA
BRANCH  30  33
HETATM   33  O2  UNL     1      27.216  26.503  26.240  1.00  0.00    -0.255 OA
BRANCH  33  34
HETATM   34  C12 UNL     1      26.561  25.554  26.708  1.00  0.00     0.160 A 
HETATM   35  C13 UNL     1      26.494  24.276  26.111  1.00  0.00     0.139 A 
HETATM   36  C14 UNL     1      25.750  23.305  26.681  1.00  0.00     0.294 A 
HETATM   37  O3  UNL     1      25.648  22.129  26.190  1.00  0.00    -0.260 OA
HETATM   38  O4  UNL     1      25.077  23.502  27.786  1.00  0.00    -0.242 OA
HETATM   39  C15 UNL     1      25.106  24.651  28.372  1.00  0.00     0.226 A 
HETATM   40  N9  UNL     1      25.810  25.659  27.881  1.00  0.00    -0.302 N 
ATOM     41  H9  UNL     1      25.803  26.549  28.380  1.00  0.00     0.171 HD
BRANCH  39  42
HETATM   42  N8  UNL     1      24.431  24.838  29.478  1.00  0.00    -0.365 N 
ATOM     43  H82 UNL     1      23.416  24.741  29.453  1.00  0.00     0.159 HD
ATOM     44  H81 UNL     1      24.921  25.075  30.340  1.00  0.00     0.159 HD
ENDBRANCH  39  42
ENDBRANCH  33  34
ENDBRANCH  30  33
ENDBRANCH   1  25
BRANCH   1  45
HETATM   45  N10 UNL     1      31.421  30.381  26.617  1.00  0.00    -0.306 N 
HETATM   46  C16 UNL     1      30.839  30.589  27.819  1.00  0.00     0.186 A 
HETATM   47  N11 UNL     1      31.589  31.415  28.557  1.00  0.00    -0.343 N 
HETATM   48  C17 UNL     1      32.681  31.762  27.840  1.00  0.00     0.162 A 
ATOM     49  H11 UNL     1      31.373  31.729  29.503  1.00  0.00     0.167 HD
HETATM   50  C19 UNL     1      32.554  31.111  26.647  1.00  0.00     0.178 A 
BRANCH  48  51
HETATM   51  C18 UNL     1      33.769  32.626  28.214  1.00  0.00     0.231 C 
HETATM   52  O6  UNL     1      34.268  32.548  29.355  1.00  0.00    -0.643 OA
HETATM   53  O7  UNL     1      34.268  33.544  27.318  1.00  0.00    -0.643 OA
ENDBRANCH  48  51
BRANCH  50  54
HETATM   54  O8  UNL     1      33.448  31.169  25.588  1.00  0.00    -0.344 OA
ATOM     55  H8  UNL     1      34.353  30.887  25.655  1.00  0.00     0.219 HD
ENDBRANCH  50  54
ENDBRANCH   1  45
TORSDOF 15
ENDMDL
