MODEL 1
REMARK VINA RESULT: -5.957914384      0.000      0.000
REMARK  8 active torsions:
REMARK  status: ('A' for Active; 'I' for Inactive)
REMARK    1  A    between atoms: C1_2  and  N1_3 
REMARK    2  A    between atoms: N1_3  and  C2_5 
REMARK    3  A    between atoms: C2_5  and  C3_6 
REMARK    4  A    between atoms: C3_6  and  N2_7 
REMARK       I    between atoms: N2_7  and  C4_9 
REMARK    5  A    between atoms: C4_9  and  C5_11 
REMARK    6  A    between atoms: C5_11  and  N3_12 
REMARK       I    between atoms: N3_12  and  C6_14 
REMARK       I    between atoms: C6_14  and  N4_16 
REMARK    7  A    between atoms: N4_16  and  C7_18 
REMARK    8  A    between atoms: C7_18  and  C8_19 
ROOT
HETATM    1  C5  UNL     1      80.794 188.879 134.026  1.00  0.00     0.227 C 
ENDROOT
BRANCH   1   2
HETATM    2  C4  UNL     1      81.946 189.441 134.737  1.00  0.00     0.235 C 
HETATM    3  N2  UNL     1      82.665 188.742 135.703  1.00  0.00    -0.358 N 
ATOM      4  H2  UNL     1      82.390 187.793 135.957  1.00  0.00     0.162 HD
HETATM    5  O2  UNL     1      82.285 190.632 134.437  1.00  0.00    -0.272 OA
BRANCH   3   6
HETATM    6  C3  UNL     1      83.821 189.374 136.359  1.00  0.00     0.142 C 
BRANCH   6   7
HETATM    7  C2  UNL     1      84.131 188.622 137.618  1.00  0.00     0.141 C 
BRANCH   7   8
HETATM    8  N1  UNL     1      85.031 189.394 138.435  1.00  0.00    -0.367 N 
ATOM      9  H1  UNL     1      84.903 190.404 138.501  1.00  0.00     0.161 HD
BRANCH   8  10
HETATM   10  C1  UNL     1      86.083 188.788 139.142  1.00  0.00     0.348 C 
HETATM   11  O1  UNL     1      86.468 187.640 138.888  1.00  0.00    -0.284 OA
ENDBRANCH   8  10
ENDBRANCH   7   8
ENDBRANCH   6   7
ENDBRANCH   3   6
ENDBRANCH   1   2
BRANCH   1  12
HETATM   12  N3  UNL     1      80.751 187.452 134.074  1.00  0.00    -0.334 N 
HETATM   13  C6  UNL     1      79.640 186.804 133.397  1.00  0.00     0.316 C 
HETATM   14  O3  UNL     1      78.802 187.508 132.823  1.00  0.00    -0.247 OA
HETATM   15  N4  UNL     1      79.546 185.404 133.412  1.00  0.00    -0.338 N 
ATOM     16  H4  UNL     1      80.276 184.909 133.923  1.00  0.00     0.164 HD
ATOM     17  H3  UNL     1      81.467 186.913 134.560  1.00  0.00     0.164 HD
BRANCH  15  18
HETATM   18  C7  UNL     1      78.554 184.600 132.796  1.00  0.00     0.195 C 
BRANCH  18  19
HETATM   19  C8  UNL     1      78.665 184.324 131.344  1.00  0.00     0.370 C 
HETATM   20  F1  UNL     1      78.149 183.154 130.880  1.00  0.00    -0.213 F 
HETATM   21  F2  UNL     1      80.043 184.275 131.057  1.00  0.00    -0.213 F 
ENDBRANCH  18  19
ENDBRANCH  15  18
ENDBRANCH   1  12
TORSDOF 8
ENDMDL
MODEL 2
REMARK VINA RESULT: -5.937378306      1.124      1.283
REMARK  8 active torsions:
REMARK  status: ('A' for Active; 'I' for Inactive)
REMARK    1  A    between atoms: C1_2  and  N1_3 
REMARK    2  A    between atoms: N1_3  and  C2_5 
REMARK    3  A    between atoms: C2_5  and  C3_6 
REMARK    4  A    between atoms: C3_6  and  N2_7 
REMARK       I    between atoms: N2_7  and  C4_9 
REMARK    5  A    between atoms: C4_9  and  C5_11 
REMARK    6  A    between atoms: C5_11  and  N3_12 
REMARK       I    between atoms: N3_12  and  C6_14 
REMARK       I    between atoms: C6_14  and  N4_16 
REMARK    7  A    between atoms: N4_16  and  C7_18 
REMARK    8  A    between atoms: C7_18  and  C8_19 
ROOT
HETATM    1  C5  UNL     1      80.394 189.203 134.397  1.00  0.00     0.227 C 
ENDROOT
BRANCH   1   2
HETATM    2  C4  UNL     1      81.742 189.500 134.889  1.00  0.00     0.235 C 
HETATM    3  N2  UNL     1      82.428 188.683 135.783  1.00  0.00    -0.358 N 
ATOM      4  H2  UNL     1      81.988 187.834 136.139  1.00  0.00     0.162 HD
HETATM    5  O2  UNL     1      82.292 190.567 134.461  1.00  0.00    -0.272 OA
BRANCH   3   6
HETATM    6  C3  UNL     1      83.787 189.044 136.215  1.00  0.00     0.142 C 
BRANCH   6   7
HETATM    7  C2  UNL     1      84.044 188.434 137.560  1.00  0.00     0.141 C 
BRANCH   7   8
HETATM    8  N1  UNL     1      84.920 189.287 138.321  1.00  0.00    -0.367 N 
ATOM      9  H1  UNL     1      84.746 190.292 138.337  1.00  0.00     0.161 HD
BRANCH   8  10
HETATM   10  C1  UNL     1      86.008 188.766 139.041  1.00  0.00     0.348 C 
HETATM   11  O1  UNL     1      86.443 187.625 138.840  1.00  0.00    -0.284 OA
ENDBRANCH   8  10
ENDBRANCH   7   8
ENDBRANCH   6   7
ENDBRANCH   3   6
ENDBRANCH   1   2
BRANCH   1  12
HETATM   12  N3  UNL     1      80.383 188.737 133.047  1.00  0.00    -0.334 N 
HETATM   13  C6  UNL     1      79.637 187.520 132.777  1.00  0.00     0.316 C 
HETATM   14  O3  UNL     1      79.057 186.958 133.713  1.00  0.00    -0.247 OA
HETATM   15  N4  UNL     1      79.592 187.015 131.469  1.00  0.00    -0.338 N 
ATOM     16  H4  UNL     1      80.112 187.539 130.766  1.00  0.00     0.164 HD
ATOM     17  H3  UNL     1      80.876 189.236 132.307  1.00  0.00     0.164 HD
BRANCH  15  18
HETATM   18  C7  UNL     1      78.905 185.861 131.013  1.00  0.00     0.195 C 
BRANCH  18  19
HETATM   19  C8  UNL     1      79.493 184.529 131.293  1.00  0.00     0.370 C 
HETATM   20  F1  UNL     1      80.599 184.478 132.084  1.00  0.00    -0.213 F 
HETATM   21  F2  UNL     1      79.889 184.004 130.048  1.00  0.00    -0.213 F 
ENDBRANCH  18  19
ENDBRANCH  15  18
ENDBRANCH   1  12
TORSDOF 8
ENDMDL
MODEL 3
REMARK VINA RESULT: -5.867184337      4.866      8.504
REMARK  8 active torsions:
REMARK  status: ('A' for Active; 'I' for Inactive)
REMARK    1  A    between atoms: C1_2  and  N1_3 
REMARK    2  A    between atoms: N1_3  and  C2_5 
REMARK    3  A    between atoms: C2_5  and  C3_6 
REMARK    4  A    between atoms: C3_6  and  N2_7 
REMARK       I    between atoms: N2_7  and  C4_9 
REMARK    5  A    between atoms: C4_9  and  C5_11 
REMARK    6  A    between atoms: C5_11  and  N3_12 
REMARK       I    between atoms: N3_12  and  C6_14 
REMARK       I    between atoms: C6_14  and  N4_16 
REMARK    7  A    between atoms: N4_16  and  C7_18 
REMARK    8  A    between atoms: C7_18  and  C8_19 
ROOT
HETATM    1  C5  UNL     1      81.925 189.028 135.384  1.00  0.00     0.227 C 
ENDROOT
BRANCH   1   2
HETATM    2  C4  UNL     1      81.050 188.183 134.564  1.00  0.00     0.235 C 
HETATM    3  N2  UNL     1      80.473 188.609 133.372  1.00  0.00    -0.358 N 
ATOM      4  H2  UNL     1      80.641 189.557 133.033  1.00  0.00     0.162 HD
HETATM    5  O2  UNL     1      80.823 187.003 134.989  1.00  0.00    -0.272 OA
BRANCH   3   6
HETATM    6  C3  UNL     1      79.620 187.692 132.599  1.00  0.00     0.142 C 
BRANCH   6   7
HETATM    7  C2  UNL     1      79.695 188.069 131.151  1.00  0.00     0.141 C 
BRANCH   7   8
HETATM    8  N1  UNL     1      79.470 186.904 130.334  1.00  0.00    -0.367 N 
ATOM      9  H1  UNL     1      78.800 186.199 130.645  1.00  0.00     0.161 HD
BRANCH   8  10
HETATM   10  C1  UNL     1      80.150 186.717 129.119  1.00  0.00     0.348 C 
HETATM   11  O1  UNL     1      80.603 185.615 128.784  1.00  0.00    -0.284 OA
ENDBRANCH   8  10
ENDBRANCH   7   8
ENDBRANCH   6   7
ENDBRANCH   3   6
ENDBRANCH   1   2
BRANCH   1  12
HETATM   12  N3  UNL     1      82.395 188.367 136.559  1.00  0.00    -0.334 N 
HETATM   13  C6  UNL     1      83.782 188.593 136.932  1.00  0.00     0.316 C 
HETATM   14  O3  UNL     1      84.473 189.335 136.225  1.00  0.00    -0.247 OA
HETATM   15  N4  UNL     1      84.298 187.970 138.077  1.00  0.00    -0.338 N 
ATOM     16  H4  UNL     1      83.657 187.364 138.589  1.00  0.00     0.164 HD
ATOM     17  H3  UNL     1      81.786 187.764 137.112  1.00  0.00     0.164 HD
BRANCH  15  18
HETATM   18  C7  UNL     1      85.610 188.084 138.604  1.00  0.00     0.195 C 
BRANCH  18  19
HETATM   19  C8  UNL     1      85.853 189.061 139.693  1.00  0.00     0.370 C 
HETATM   20  F1  UNL     1      85.899 190.380 139.363  1.00  0.00    -0.213 F 
HETATM   21  F2  UNL     1      87.122 188.753 140.221  1.00  0.00    -0.213 F 
ENDBRANCH  18  19
ENDBRANCH  15  18
ENDBRANCH   1  12
TORSDOF 8
ENDMDL
MODEL 4
REMARK VINA RESULT: -5.846611476      4.900      5.936
REMARK  8 active torsions:
REMARK  status: ('A' for Active; 'I' for Inactive)
REMARK    1  A    between atoms: C1_2  and  N1_3 
REMARK    2  A    between atoms: N1_3  and  C2_5 
REMARK    3  A    between atoms: C2_5  and  C3_6 
REMARK    4  A    between atoms: C3_6  and  N2_7 
REMARK       I    between atoms: N2_7  and  C4_9 
REMARK    5  A    between atoms: C4_9  and  C5_11 
REMARK    6  A    between atoms: C5_11  and  N3_12 
REMARK       I    between atoms: N3_12  and  C6_14 
REMARK       I    between atoms: C6_14  and  N4_16 
REMARK    7  A    between atoms: N4_16  and  C7_18 
REMARK    8  A    between atoms: C7_18  and  C8_19 
ROOT
HETATM    1  C5  UNL     1      80.544 188.758 133.434  1.00  0.00     0.227 C 
ENDROOT
BRANCH   1   2
HETATM    2  C4  UNL     1      81.182 188.241 134.648  1.00  0.00     0.235 C 
HETATM    3  N2  UNL     1      82.107 188.965 135.394  1.00  0.00    -0.358 N 
ATOM      4  H2  UNL     1      82.382 189.902 135.097  1.00  0.00     0.162 HD
HETATM    5  O2  UNL     1      80.857 187.066 135.016  1.00  0.00    -0.272 OA
BRANCH   3   6
HETATM    6  C3  UNL     1      82.690 188.379 136.612  1.00  0.00     0.142 C 
BRANCH   6   7
HETATM    7  C2  UNL     1      84.134 188.772 136.692  1.00  0.00     0.141 C 
BRANCH   7   8
HETATM    8  N1  UNL     1      84.506 188.972 138.069  1.00  0.00    -0.367 N 
ATOM      9  H1  UNL     1      84.071 189.728 138.599  1.00  0.00     0.161 HD
BRANCH   8  10
HETATM   10  C1  UNL     1      85.456 188.150 138.700  1.00  0.00     0.348 C 
HETATM   11  O1  UNL     1      86.074 187.272 138.085  1.00  0.00    -0.284 OA
ENDBRANCH   8  10
ENDBRANCH   7   8
ENDBRANCH   6   7
ENDBRANCH   3   6
ENDBRANCH   1   2
BRANCH   1  12
HETATM   12  N3  UNL     1      80.566 190.184 133.356  1.00  0.00    -0.334 N 
HETATM   13  C6  UNL     1      79.415 190.890 133.893  1.00  0.00     0.316 C 
HETATM   14  O3  UNL     1      78.490 190.233 134.384  1.00  0.00    -0.247 OA
HETATM   15  N4  UNL     1      79.381 192.292 133.844  1.00  0.00    -0.338 N 
ATOM     16  H4  UNL     1      80.184 192.747 133.408  1.00  0.00     0.164 HD
ATOM     17  H3  UNL     1      81.353 190.683 132.943  1.00  0.00     0.164 HD
BRANCH  15  18
HETATM   18  C7  UNL     1      78.361 193.148 134.330  1.00  0.00     0.195 C 
BRANCH  18  19
HETATM   19  C8  UNL     1      78.577 194.614 134.270  1.00  0.00     0.370 C 
HETATM   20  F1  UNL     1      79.623 195.130 134.970  1.00  0.00    -0.213 F 
HETATM   21  F2  UNL     1      77.422 195.204 134.817  1.00  0.00    -0.213 F 
ENDBRANCH  18  19
ENDBRANCH  15  18
ENDBRANCH   1  12
TORSDOF 8
ENDMDL
MODEL 5
REMARK VINA RESULT: -5.783770290      5.281      8.111
REMARK  8 active torsions:
REMARK  status: ('A' for Active; 'I' for Inactive)
REMARK    1  A    between atoms: C1_2  and  N1_3 
REMARK    2  A    between atoms: N1_3  and  C2_5 
REMARK    3  A    between atoms: C2_5  and  C3_6 
REMARK    4  A    between atoms: C3_6  and  N2_7 
REMARK       I    between atoms: N2_7  and  C4_9 
REMARK    5  A    between atoms: C4_9  and  C5_11 
REMARK    6  A    between atoms: C5_11  and  N3_12 
REMARK       I    between atoms: N3_12  and  C6_14 
REMARK       I    between atoms: C6_14  and  N4_16 
REMARK    7  A    between atoms: N4_16  and  C7_18 
REMARK    8  A    between atoms: C7_18  and  C8_19 
ROOT
HETATM    1  C5  UNL     1      81.967 188.371 135.320  1.00  0.00     0.227 C 
ENDROOT
BRANCH   1   2
HETATM    2  C4  UNL     1      81.408 189.579 134.706  1.00  0.00     0.235 C 
HETATM    3  N2  UNL     1      80.057 189.734 134.412  1.00  0.00    -0.358 N 
ATOM      4  H2  UNL     1      79.401 188.979 134.614  1.00  0.00     0.162 HD
HETATM    5  O2  UNL     1      82.224 190.520 134.437  1.00  0.00    -0.272 OA
BRANCH   3   6
HETATM    6  C3  UNL     1      79.574 190.987 133.810  1.00  0.00     0.142 C 
BRANCH   6   7
HETATM    7  C2  UNL     1      78.186 191.256 134.306  1.00  0.00     0.141 C 
BRANCH   7   8
HETATM    8  N1  UNL     1      78.140 192.549 134.940  1.00  0.00    -0.367 N 
ATOM      9  H1  UNL     1      77.737 192.632 135.874  1.00  0.00     0.161 HD
BRANCH   8  10
HETATM   10  C1  UNL     1      78.636 193.698 134.302  1.00  0.00     0.348 C 
HETATM   11  O1  UNL     1      78.869 194.743 134.921  1.00  0.00    -0.284 OA
ENDBRANCH   8  10
ENDBRANCH   7   8
ENDBRANCH   6   7
ENDBRANCH   3   6
ENDBRANCH   1   2
BRANCH   1  12
HETATM   12  N3  UNL     1      82.441 188.590 136.650  1.00  0.00    -0.334 N 
HETATM   13  C6  UNL     1      83.815 188.207 136.930  1.00  0.00     0.316 C 
HETATM   14  O3  UNL     1      84.494 187.721 136.019  1.00  0.00    -0.247 OA
HETATM   15  N4  UNL     1      84.334 188.399 138.219  1.00  0.00    -0.338 N 
ATOM     16  H4  UNL     1      83.694 188.793 138.909  1.00  0.00     0.164 HD
ATOM     17  H3  UNL     1      81.842 188.996 137.369  1.00  0.00     0.164 HD
BRANCH  15  18
HETATM   18  C7  UNL     1      85.645 188.107 138.673  1.00  0.00     0.195 C 
BRANCH  18  19
HETATM   19  C8  UNL     1      86.434 189.193 139.304  1.00  0.00     0.370 C 
HETATM   20  F1  UNL     1      87.088 188.910 140.463  1.00  0.00    -0.213 F 
HETATM   21  F2  UNL     1      85.517 190.213 139.620  1.00  0.00    -0.213 F 
ENDBRANCH  18  19
ENDBRANCH  15  18
ENDBRANCH   1  12
TORSDOF 8
ENDMDL
