MODEL 1
REMARK VINA RESULT: -5.936050984      0.000      0.000
REMARK  8 active torsions:
REMARK  status: ('A' for Active; 'I' for Inactive)
REMARK    1  A    between atoms: N1_2  and  C2_5 
REMARK    2  A    between atoms: C2_5  and  C3_7 
REMARK    3  A    between atoms: C3_7  and  C4_8 
REMARK    4  A    between atoms: C3_7  and  N4_19 
REMARK    5  A    between atoms: C4_8  and  N2_9 
REMARK       I    between atoms: N2_9  and  C5_11 
REMARK       I    between atoms: C5_11  and  N3_13 
REMARK    6  A    between atoms: N3_13  and  C6_15 
REMARK    7  A    between atoms: C6_15  and  C7_16 
REMARK    8  A    between atoms: N4_19  and  C8_21 
ROOT
HETATM    1  C3  UNL     1      81.131 189.055 135.027  1.00  0.00     0.163 C 
ENDROOT
BRANCH   1   2
HETATM    2  C2  UNL     1      79.962 189.676 134.377  1.00  0.00     0.391 C 
HETATM    3  F1  UNL     1      78.934 189.716 135.338  1.00  0.00    -0.217 F 
BRANCH   2   4
HETATM    4  N1  UNL     1      80.104 190.954 133.786  1.00  0.00    -0.046 N 
HETATM    5  C1  UNL     1      78.990 191.849 134.058  1.00  0.00     0.270 C 
ATOM      6  H12 UNL     1      80.263 190.872 132.782  1.00  0.00     0.280 HD
ATOM      7  H11 UNL     1      80.986 191.384 134.063  1.00  0.00     0.280 HD
ENDBRANCH   2   4
ENDBRANCH   1   2
BRANCH   1   8
HETATM    8  C4  UNL     1      82.446 189.708 134.919  1.00  0.00     0.154 C 
BRANCH   8   9
HETATM    9  N2  UNL     1      83.188 190.035 136.077  1.00  0.00    -0.341 N 
HETATM   10  C5  UNL     1      83.946 188.957 136.689  1.00  0.00     0.316 C 
HETATM   11  O1  UNL     1      83.925 187.818 136.199  1.00  0.00    -0.247 OA
HETATM   12  N3  UNL     1      84.691 189.248 137.836  1.00  0.00    -0.338 N 
ATOM     13  H3  UNL     1      84.670 190.217 138.153  1.00  0.00     0.164 HD
ATOM     14  H2  UNL     1      83.191 190.979 136.464  1.00  0.00     0.164 HD
BRANCH  12  15
HETATM   15  C6  UNL     1      85.469 188.355 138.608  1.00  0.00     0.195 C 
BRANCH  15  16
HETATM   16  C7  UNL     1      86.227 188.975 139.731  1.00  0.00     0.370 C 
HETATM   17  F2  UNL     1      87.061 190.008 139.221  1.00  0.00    -0.213 F 
HETATM   18  F3  UNL     1      87.102 188.114 140.312  1.00  0.00    -0.213 F 
ENDBRANCH  15  16
ENDBRANCH  12  15
ENDBRANCH   8   9
ENDBRANCH   1   8
BRANCH   1  19
HETATM   19  N4  UNL     1      81.285 187.718 134.426  1.00  0.00    -0.357 N 
ATOM     20  H4  UNL     1      82.227 187.384 134.226  1.00  0.00     0.162 HD
BRANCH  19  21
HETATM   21  C8  UNL     1      80.199 186.877 134.114  1.00  0.00     0.349 C 
HETATM   22  O2  UNL     1      80.137 185.685 134.512  1.00  0.00    -0.284 OA
ENDBRANCH  19  21
ENDBRANCH   1  19
TORSDOF 8
ENDMDL
MODEL 2
REMARK VINA RESULT: -5.881172201      1.329      1.475
REMARK  8 active torsions:
REMARK  status: ('A' for Active; 'I' for Inactive)
REMARK    1  A    between atoms: N1_2  and  C2_5 
REMARK    2  A    between atoms: C2_5  and  C3_7 
REMARK    3  A    between atoms: C3_7  and  C4_8 
REMARK    4  A    between atoms: C3_7  and  N4_19 
REMARK    5  A    between atoms: C4_8  and  N2_9 
REMARK       I    between atoms: N2_9  and  C5_11 
REMARK       I    between atoms: C5_11  and  N3_13 
REMARK    6  A    between atoms: N3_13  and  C6_15 
REMARK    7  A    between atoms: C6_15  and  C7_16 
REMARK    8  A    between atoms: N4_19  and  C8_21 
ROOT
HETATM    1  C3  UNL     1      80.786 188.911 134.835  1.00  0.00     0.163 C 
ENDROOT
BRANCH   1   2
HETATM    2  C2  UNL     1      80.795 190.225 134.164  1.00  0.00     0.391 C 
HETATM    3  F1  UNL     1      82.144 190.604 134.030  1.00  0.00    -0.217 F 
BRANCH   2   4
HETATM    4  N1  UNL     1      80.141 190.363 132.917  1.00  0.00    -0.046 N 
HETATM    5  C1  UNL     1      78.902 191.122 132.990  1.00  0.00     0.270 C 
ATOM      6  H12 UNL     1      79.980 189.451 132.492  1.00  0.00     0.280 HD
ATOM      7  H11 UNL     1      80.770 190.766 132.223  1.00  0.00     0.280 HD
ENDBRANCH   2   4
ENDBRANCH   1   2
BRANCH   1   8
HETATM    8  C4  UNL     1      82.055 188.337 135.311  1.00  0.00     0.154 C 
BRANCH   8   9
HETATM    9  N2  UNL     1      82.492 188.551 136.639  1.00  0.00    -0.341 N 
HETATM   10  C5  UNL     1      83.873 188.204 136.932  1.00  0.00     0.316 C 
HETATM   11  O1  UNL     1      84.608 187.747 136.044  1.00  0.00    -0.247 OA
HETATM   12  N3  UNL     1      84.335 188.403 138.236  1.00  0.00    -0.338 N 
ATOM     13  H3  UNL     1      83.669 188.808 138.894  1.00  0.00     0.164 HD
ATOM     14  H2  UNL     1      81.870 188.928 137.354  1.00  0.00     0.164 HD
BRANCH  12  15
HETATM   15  C6  UNL     1      85.620 188.109 138.750  1.00  0.00     0.195 C 
BRANCH  15  16
HETATM   16  C7  UNL     1      86.373 189.274 139.294  1.00  0.00     0.370 C 
HETATM   17  F2  UNL     1      87.084 188.871 140.458  1.00  0.00    -0.213 F 
HETATM   18  F3  UNL     1      85.558 190.264 139.742  1.00  0.00    -0.213 F 
ENDBRANCH  15  16
ENDBRANCH  12  15
ENDBRANCH   8   9
ENDBRANCH   1   8
BRANCH   1  19
HETATM   19  N4  UNL     1      80.237 187.948 133.864  1.00  0.00    -0.357 N 
ATOM     20  H4  UNL     1      80.171 188.231 132.887  1.00  0.00     0.162 HD
BRANCH  19  21
HETATM   21  C8  UNL     1      79.799 186.655 134.215  1.00  0.00     0.349 C 
HETATM   22  O2  UNL     1      80.346 185.615 133.765  1.00  0.00    -0.284 OA
ENDBRANCH  19  21
ENDBRANCH   1  19
TORSDOF 8
ENDMDL
MODEL 3
REMARK VINA RESULT: -5.556649476      1.337      1.524
REMARK  8 active torsions:
REMARK  status: ('A' for Active; 'I' for Inactive)
REMARK    1  A    between atoms: N1_2  and  C2_5 
REMARK    2  A    between atoms: C2_5  and  C3_7 
REMARK    3  A    between atoms: C3_7  and  C4_8 
REMARK    4  A    between atoms: C3_7  and  N4_19 
REMARK    5  A    between atoms: C4_8  and  N2_9 
REMARK       I    between atoms: N2_9  and  C5_11 
REMARK       I    between atoms: C5_11  and  N3_13 
REMARK    6  A    between atoms: N3_13  and  C6_15 
REMARK    7  A    between atoms: C6_15  and  C7_16 
REMARK    8  A    between atoms: N4_19  and  C8_21 
ROOT
HETATM    1  C3  UNL     1      80.662 188.519 134.872  1.00  0.00     0.163 C 
ENDROOT
BRANCH   1   2
HETATM    2  C2  UNL     1      80.093 189.733 134.254  1.00  0.00     0.391 C 
HETATM    3  F1  UNL     1      80.661 189.841 132.971  1.00  0.00    -0.217 F 
BRANCH   2   4
HETATM    4  N1  UNL     1      78.686 189.859 134.159  1.00  0.00    -0.046 N 
HETATM    5  C1  UNL     1      77.996 189.658 135.423  1.00  0.00     0.270 C 
ATOM      6  H12 UNL     1      78.316 189.234 133.443  1.00  0.00     0.280 HD
ATOM      7  H11 UNL     1      78.432 190.757 133.748  1.00  0.00     0.280 HD
ENDBRANCH   2   4
ENDBRANCH   1   2
BRANCH   1   8
HETATM    8  C4  UNL     1      82.082 188.506 135.255  1.00  0.00     0.154 C 
BRANCH   8   9
HETATM    9  N2  UNL     1      82.465 188.579 136.615  1.00  0.00    -0.341 N 
HETATM   10  C5  UNL     1      83.842 188.229 136.921  1.00  0.00     0.316 C 
HETATM   11  O1  UNL     1      84.619 187.888 136.017  1.00  0.00    -0.247 OA
HETATM   12  N3  UNL     1      84.252 188.290 138.257  1.00  0.00    -0.338 N 
ATOM     13  H3  UNL     1      83.552 188.606 138.929  1.00  0.00     0.164 HD
ATOM     14  H2  UNL     1      81.809 188.862 137.342  1.00  0.00     0.164 HD
BRANCH  12  15
HETATM   15  C6  UNL     1      85.523 187.966 138.784  1.00  0.00     0.195 C 
BRANCH  15  16
HETATM   16  C7  UNL     1      86.348 189.126 139.223  1.00  0.00     0.370 C 
HETATM   17  F2  UNL     1      87.066 188.773 140.399  1.00  0.00    -0.213 F 
HETATM   18  F3  UNL     1      85.597 190.188 139.613  1.00  0.00    -0.213 F 
ENDBRANCH  15  16
ENDBRANCH  12  15
ENDBRANCH   8   9
ENDBRANCH   1   8
BRANCH   1  19
HETATM   19  N4  UNL     1      80.489 187.430 133.895  1.00  0.00    -0.357 N 
ATOM     20  H4  UNL     1      81.046 187.453 133.042  1.00  0.00     0.162 HD
BRANCH  19  21
HETATM   21  C8  UNL     1      79.593 186.357 134.077  1.00  0.00     0.349 C 
HETATM   22  O2  UNL     1      79.952 185.262 134.581  1.00  0.00    -0.284 OA
ENDBRANCH  19  21
ENDBRANCH   1  19
TORSDOF 8
ENDMDL
MODEL 4
REMARK VINA RESULT: -5.377736522      3.632      5.166
REMARK  8 active torsions:
REMARK  status: ('A' for Active; 'I' for Inactive)
REMARK    1  A    between atoms: N1_2  and  C2_5 
REMARK    2  A    between atoms: C2_5  and  C3_7 
REMARK    3  A    between atoms: C3_7  and  C4_8 
REMARK    4  A    between atoms: C3_7  and  N4_19 
REMARK    5  A    between atoms: C4_8  and  N2_9 
REMARK       I    between atoms: N2_9  and  C5_11 
REMARK       I    between atoms: C5_11  and  N3_13 
REMARK    6  A    between atoms: N3_13  and  C6_15 
REMARK    7  A    between atoms: C6_15  and  C7_16 
REMARK    8  A    between atoms: N4_19  and  C8_21 
ROOT
HETATM    1  C3  UNL     1      79.672 186.385 131.635  1.00  0.00     0.163 C 
ENDROOT
BRANCH   1   2
HETATM    2  C2  UNL     1      79.253 185.005 131.949  1.00  0.00     0.391 C 
HETATM    3  F1  UNL     1      80.241 184.150 131.426  1.00  0.00    -0.217 F 
BRANCH   2   4
HETATM    4  N1  UNL     1      78.994 184.657 133.296  1.00  0.00    -0.046 N 
HETATM    5  C1  UNL     1      77.635 184.191 133.527  1.00  0.00     0.270 C 
ATOM      6  H12 UNL     1      79.219 185.433 133.919  1.00  0.00     0.280 HD
ATOM      7  H11 UNL     1      79.671 183.971 133.628  1.00  0.00     0.280 HD
ENDBRANCH   2   4
ENDBRANCH   1   2
BRANCH   1   8
HETATM    8  C4  UNL     1      79.204 187.490 132.486  1.00  0.00     0.154 C 
BRANCH   8   9
HETATM    9  N2  UNL     1      80.127 188.354 133.120  1.00  0.00    -0.341 N 
HETATM   10  C5  UNL     1      80.787 187.840 134.309  1.00  0.00     0.316 C 
HETATM   11  O1  UNL     1      80.534 186.700 134.724  1.00  0.00    -0.247 OA
HETATM   12  N3  UNL     1      81.705 188.670 134.959  1.00  0.00    -0.338 N 
ATOM     13  H3  UNL     1      81.870 189.582 134.532  1.00  0.00     0.164 HD
ATOM     14  H2  UNL     1      80.320 189.289 132.761  1.00  0.00     0.164 HD
BRANCH  12  15
HETATM   15  C6  UNL     1      82.432 188.393 136.140  1.00  0.00     0.195 C 
BRANCH  15  16
HETATM   16  C7  UNL     1      83.697 189.164 136.307  1.00  0.00     0.370 C 
HETATM   17  F2  UNL     1      84.116 189.088 137.665  1.00  0.00    -0.213 F 
HETATM   18  F3  UNL     1      83.533 190.495 136.096  1.00  0.00    -0.213 F 
ENDBRANCH  15  16
ENDBRANCH  12  15
ENDBRANCH   8   9
ENDBRANCH   1   8
BRANCH   1  19
HETATM   19  N4  UNL     1      79.177 186.674 130.277  1.00  0.00    -0.357 N 
ATOM     20  H4  UNL     1      78.183 186.862 130.154  1.00  0.00     0.162 HD
BRANCH  19  21
HETATM   21  C8  UNL     1      80.007 186.705 129.138  1.00  0.00     0.349 C 
HETATM   22  O2  UNL     1      80.574 185.674 128.693  1.00  0.00    -0.284 OA
ENDBRANCH  19  21
ENDBRANCH   1  19
TORSDOF 8
ENDMDL
MODEL 5
REMARK VINA RESULT: -5.360828108      2.132      3.105
REMARK  8 active torsions:
REMARK  status: ('A' for Active; 'I' for Inactive)
REMARK    1  A    between atoms: N1_2  and  C2_5 
REMARK    2  A    between atoms: C2_5  and  C3_7 
REMARK    3  A    between atoms: C3_7  and  C4_8 
REMARK    4  A    between atoms: C3_7  and  N4_19 
REMARK    5  A    between atoms: C4_8  and  N2_9 
REMARK       I    between atoms: N2_9  and  C5_11 
REMARK       I    between atoms: C5_11  and  N3_13 
REMARK    6  A    between atoms: N3_13  and  C6_15 
REMARK    7  A    between atoms: C6_15  and  C7_16 
REMARK    8  A    between atoms: N4_19  and  C8_21 
ROOT
HETATM    1  C3  UNL     1      81.127 188.900 133.921  1.00  0.00     0.163 C 
ENDROOT
BRANCH   1   2
HETATM    2  C2  UNL     1      80.051 187.956 133.564  1.00  0.00     0.391 C 
HETATM    3  F1  UNL     1      80.135 187.748 132.174  1.00  0.00    -0.217 F 
BRANCH   2   4
HETATM    4  N1  UNL     1      79.988 186.705 134.224  1.00  0.00    -0.046 N 
HETATM    5  C1  UNL     1      79.791 185.580 133.323  1.00  0.00     0.270 C 
ATOM      6  H12 UNL     1      79.272 186.716 134.949  1.00  0.00     0.280 HD
ATOM      7  H11 UNL     1      80.815 186.562 134.804  1.00  0.00     0.280 HD
ENDBRANCH   2   4
ENDBRANCH   1   2
BRANCH   1   8
HETATM    8  C4  UNL     1      81.508 189.055 135.334  1.00  0.00     0.154 C 
BRANCH   8   9
HETATM    9  N2  UNL     1      82.864 189.203 135.705  1.00  0.00    -0.341 N 
HETATM   10  C5  UNL     1      83.266 188.588 136.959  1.00  0.00     0.316 C 
HETATM   11  O1  UNL     1      82.440 187.972 137.649  1.00  0.00    -0.247 OA
HETATM   12  N3  UNL     1      84.601 188.717 137.354  1.00  0.00    -0.338 N 
ATOM     13  H3  UNL     1      85.214 189.218 136.712  1.00  0.00     0.164 HD
ATOM     14  H2  UNL     1      83.527 189.715 135.122  1.00  0.00     0.164 HD
BRANCH  12  15
HETATM   15  C6  UNL     1      85.199 188.233 138.540  1.00  0.00     0.195 C 
BRANCH  15  16
HETATM   16  C7  UNL     1      86.202 189.140 139.167  1.00  0.00     0.370 C 
HETATM   17  F2  UNL     1      86.771 188.497 140.301  1.00  0.00    -0.213 F 
HETATM   18  F3  UNL     1      85.643 190.265 139.682  1.00  0.00    -0.213 F 
ENDBRANCH  15  16
ENDBRANCH  12  15
ENDBRANCH   8   9
ENDBRANCH   1   8
BRANCH   1  19
HETATM   19  N4  UNL     1      80.687 190.230 133.465  1.00  0.00    -0.357 N 
ATOM     20  H4  UNL     1      81.283 190.738 132.812  1.00  0.00     0.162 HD
BRANCH  19  21
HETATM   21  C8  UNL     1      79.486 190.838 133.883  1.00  0.00     0.349 C 
HETATM   22  O2  UNL     1      79.331 192.086 133.886  1.00  0.00    -0.284 OA
ENDBRANCH  19  21
ENDBRANCH   1  19
TORSDOF 8
ENDMDL
