MODEL 1
REMARK VINA RESULT: -6.947857406      0.000      0.000
REMARK  11 active torsions:
REMARK  status: ('A' for Active; 'I' for Inactive)
REMARK    1  A    between atoms: C2_2  and  N1_5 
REMARK       I    between atoms: N1_5  and  C5_7 
REMARK    2  A    between atoms: C5_7  and  C6_9 
REMARK    3  A    between atoms: C6_9  and  C7_10 
REMARK    4  A    between atoms: N2_12  and  C8_14 
REMARK    5  A    between atoms: N3_17  and  C11_18 
REMARK    6  A    between atoms: C11_18  and  N4_20 
REMARK    7  A    between atoms: N4_20  and  C12_22 
REMARK    8  A    between atoms: C15_25  and  O2_26 
REMARK    9  A    between atoms: O2_26  and  C16_27 
REMARK   10  A    between atoms: C16_27  and  O4_29 
REMARK   11  A    between atoms: O4_29  and  C17_30 
ROOT
HETATM    1  C8  UNL     1     -11.819 -38.368 -12.966  1.00  0.00     0.155 C 
HETATM    2  C9  UNL     1     -10.565 -38.594 -12.115  1.00  0.00     0.057 C 
HETATM    3  C10 UNL     1      -9.526 -37.560 -12.395  1.00  0.00     0.138 C 
HETATM    4  N3  UNL     1      -8.974 -37.671 -13.752  1.00  0.00    -0.285 N 
HETATM    5  C23 UNL     1      -9.519 -38.607 -14.669  1.00  0.00     0.290 C 
HETATM    6  O5  UNL     1      -8.816 -39.250 -15.468  1.00  0.00    -0.260 OA
HETATM    7  S2  UNL     1     -11.317 -38.874 -14.666  1.00  0.00    -0.043 SA
ENDROOT
BRANCH   4   8
HETATM    8  C11 UNL     1      -7.910 -36.818 -14.116  1.00  0.00     0.177 C 
HETATM    9  S1  UNL     1      -7.465 -35.668 -13.017  1.00  0.00    -0.041 SA
BRANCH   8  10
HETATM   10  N4  UNL     1      -7.246 -36.855 -15.367  1.00  0.00    -0.362 N 
ATOM     11  H4  UNL     1      -7.746 -36.604 -16.220  1.00  0.00     0.162 HD
BRANCH  10  12
HETATM   12  C12 UNL     1      -5.858 -37.246 -15.431  1.00  0.00     0.084 C 
HETATM   13  C13 UNL     1      -5.296 -37.034 -16.828  1.00  0.00     0.028 C 
HETATM   14  C14 UNL     1      -4.472 -38.184 -17.322  1.00  0.00     0.034 C 
HETATM   15  C15 UNL     1      -3.464 -38.680 -16.307  1.00  0.00     0.134 C 
HETATM   16  C21 UNL     1      -4.161 -38.929 -15.015  1.00  0.00     0.034 C 
HETATM   17  C22 UNL     1      -5.671 -38.729 -15.104  1.00  0.00     0.028 C 
BRANCH  15  18
HETATM   18  O2  UNL     1      -2.892 -39.850 -16.863  1.00  0.00    -0.293 OA
BRANCH  18  19
HETATM   19  C16 UNL     1      -3.221 -41.090 -16.343  1.00  0.00     0.407 C 
HETATM   20  O3  UNL     1      -2.323 -41.778 -15.837  1.00  0.00    -0.229 OA
BRANCH  19  21
HETATM   21  O4  UNL     1      -4.511 -41.598 -16.363  1.00  0.00    -0.288 OA
BRANCH  21  22
HETATM   22  C17 UNL     1      -5.187 -42.052 -17.491  1.00  0.00     0.062 C 
HETATM   23  C18 UNL     1      -6.594 -41.487 -17.483  1.00  0.00     0.046 C 
HETATM   24  C19 UNL     1      -4.535 -41.678 -18.795  1.00  0.00     0.046 C 
HETATM   25  C20 UNL     1      -5.280 -43.565 -17.395  1.00  0.00     0.046 C 
ENDBRANCH  21  22
ENDBRANCH  19  21
ENDBRANCH  18  19
ENDBRANCH  15  18
ENDBRANCH  10  12
ENDBRANCH   8  10
ENDBRANCH   4   8
BRANCH   1  26
HETATM   26  N2  UNL     1     -12.889 -39.195 -12.508  1.00  0.00    -0.374 N 
HETATM   27  C6  UNL     1     -14.129 -38.899 -12.472  1.00  0.00     0.088 C 
ATOM     28  H2  UNL     1     -12.633 -40.125 -12.173  1.00  0.00     0.160 HD
BRANCH  27  29
HETATM   29  C5  UNL     1     -15.112 -39.851 -11.975  1.00  0.00     0.265 C 
HETATM   30  N1  UNL     1     -14.763 -40.926 -11.128  1.00  0.00    -0.348 N 
ATOM     31  H1  UNL     1     -13.795 -41.062 -10.837  1.00  0.00     0.163 HD
HETATM   32  O1  UNL     1     -16.326 -39.684 -12.338  1.00  0.00    -0.266 OA
BRANCH  30  33
HETATM   33  C2  UNL     1     -15.795 -41.828 -10.682  1.00  0.00     0.022 C 
HETATM   34  C1  UNL     1     -17.024 -41.090 -10.202  1.00  0.00     0.037 C 
HETATM   35  C3  UNL     1     -16.209 -42.807 -11.755  1.00  0.00     0.037 C 
HETATM   36  C4  UNL     1     -15.262 -42.612  -9.501  1.00  0.00     0.037 C 
ENDBRANCH  30  33
ENDBRANCH  27  29
BRANCH  27  37
HETATM   37  C7  UNL     1     -14.575 -37.580 -12.928  1.00  0.00     0.177 C 
HETATM   38 CL1  UNL     1     -14.921 -37.535 -14.690  1.00  0.00    -0.124 Cl
ENDBRANCH  27  37
ENDBRANCH   1  26
TORSDOF 11
ENDMDL
MODEL 2
REMARK VINA RESULT: -6.820772693      4.464      7.974
REMARK  11 active torsions:
REMARK  status: ('A' for Active; 'I' for Inactive)
REMARK    1  A    between atoms: C2_2  and  N1_5 
REMARK       I    between atoms: N1_5  and  C5_7 
REMARK    2  A    between atoms: C5_7  and  C6_9 
REMARK    3  A    between atoms: C6_9  and  C7_10 
REMARK    4  A    between atoms: N2_12  and  C8_14 
REMARK    5  A    between atoms: N3_17  and  C11_18 
REMARK    6  A    between atoms: C11_18  and  N4_20 
REMARK    7  A    between atoms: N4_20  and  C12_22 
REMARK    8  A    between atoms: C15_25  and  O2_26 
REMARK    9  A    between atoms: O2_26  and  C16_27 
REMARK   10  A    between atoms: C16_27  and  O4_29 
REMARK   11  A    between atoms: O4_29  and  C17_30 
ROOT
HETATM    1  C8  UNL     1     -15.400 -43.821 -11.022  1.00  0.00     0.155 C 
HETATM    2  C9  UNL     1     -16.323 -43.370 -12.159  1.00  0.00     0.057 C 
HETATM    3  C10 UNL     1     -15.713 -42.259 -12.946  1.00  0.00     0.138 C 
HETATM    4  N3  UNL     1     -15.593 -41.019 -12.166  1.00  0.00    -0.285 N 
HETATM    5  C23 UNL     1     -15.930 -41.008 -10.788  1.00  0.00     0.290 C 
HETATM    6  O5  UNL     1     -16.505 -40.048 -10.246  1.00  0.00    -0.260 OA
HETATM    7  S2  UNL     1     -15.502 -42.460  -9.782  1.00  0.00    -0.043 SA
ENDROOT
BRANCH   4   8
HETATM    8  C11 UNL     1     -15.125 -39.858 -12.819  1.00  0.00     0.177 C 
HETATM    9  S1  UNL     1     -15.293 -39.806 -14.462  1.00  0.00    -0.041 SA
BRANCH   8  10
HETATM   10  N4  UNL     1     -14.483 -38.776 -12.168  1.00  0.00    -0.362 N 
ATOM     11  H4  UNL     1     -15.020 -38.146 -11.571  1.00  0.00     0.162 HD
BRANCH  10  12
HETATM   12  C12 UNL     1     -13.067 -38.568 -12.352  1.00  0.00     0.084 C 
HETATM   13  C13 UNL     1     -12.340 -38.558 -11.015  1.00  0.00     0.028 C 
HETATM   14  C14 UNL     1     -11.339 -37.450 -10.886  1.00  0.00     0.034 C 
HETATM   15  C15 UNL     1     -10.437 -37.314 -12.095  1.00  0.00     0.134 C 
HETATM   16  C21 UNL     1     -11.277 -37.248 -13.322  1.00  0.00     0.034 C 
HETATM   17  C22 UNL     1     -12.772 -37.223 -13.020  1.00  0.00     0.028 C 
BRANCH  15  18
HETATM   18  O2  UNL     1      -9.672 -36.141 -11.882  1.00  0.00    -0.293 OA
BRANCH  18  19
HETATM   19  C16 UNL     1      -8.332 -36.122 -12.230  1.00  0.00     0.407 C 
HETATM   20  O3  UNL     1      -7.698 -35.067 -12.086  1.00  0.00    -0.229 OA
BRANCH  19  21
HETATM   21  O4  UNL     1      -7.667 -37.230 -12.732  1.00  0.00    -0.288 OA
BRANCH  21  22
HETATM   22  C17 UNL     1      -7.369 -37.461 -14.070  1.00  0.00     0.062 C 
HETATM   23  C18 UNL     1      -7.950 -38.799 -14.480  1.00  0.00     0.046 C 
HETATM   24  C19 UNL     1      -7.894 -36.410 -15.010  1.00  0.00     0.046 C 
HETATM   25  C20 UNL     1      -5.857 -37.538 -14.200  1.00  0.00     0.046 C 
ENDBRANCH  21  22
ENDBRANCH  19  21
ENDBRANCH  18  19
ENDBRANCH  15  18
ENDBRANCH  10  12
ENDBRANCH   8  10
ENDBRANCH   4   8
BRANCH   1  26
HETATM   26  N2  UNL     1     -15.873 -45.039 -10.448  1.00  0.00    -0.374 N 
HETATM   27  C6  UNL     1     -15.355 -46.199 -10.571  1.00  0.00     0.088 C 
ATOM     28  H2  UNL     1     -16.716 -44.975  -9.877  1.00  0.00     0.160 HD
BRANCH  27  29
HETATM   29  C5  UNL     1     -15.953 -47.357  -9.922  1.00  0.00     0.265 C 
HETATM   30  N1  UNL     1     -15.771 -47.633  -8.550  1.00  0.00    -0.348 N 
ATOM     31  H1  UNL     1     -15.207 -47.014  -7.968  1.00  0.00     0.163 HD
HETATM   32  O1  UNL     1     -16.661 -48.135 -10.648  1.00  0.00    -0.266 OA
BRANCH  30  33
HETATM   33  C2  UNL     1     -16.395 -48.803  -7.982  1.00  0.00     0.022 C 
HETATM   34  C1  UNL     1     -16.504 -48.712  -6.477  1.00  0.00     0.037 C 
HETATM   35  C3  UNL     1     -17.771 -49.056  -8.551  1.00  0.00     0.037 C 
HETATM   36  C4  UNL     1     -15.523 -50.002  -8.291  1.00  0.00     0.037 C 
ENDBRANCH  30  33
ENDBRANCH  27  29
BRANCH  27  37
HETATM   37  C7  UNL     1     -14.148 -46.374 -11.382  1.00  0.00     0.177 C 
HETATM   38 CL1  UNL     1     -13.311 -47.930 -11.054  1.00  0.00    -0.124 Cl
ENDBRANCH  27  37
ENDBRANCH   1  26
TORSDOF 11
ENDMDL
MODEL 3
REMARK VINA RESULT: -6.739546252      4.044     10.951
REMARK  11 active torsions:
REMARK  status: ('A' for Active; 'I' for Inactive)
REMARK    1  A    between atoms: C2_2  and  N1_5 
REMARK       I    between atoms: N1_5  and  C5_7 
REMARK    2  A    between atoms: C5_7  and  C6_9 
REMARK    3  A    between atoms: C6_9  and  C7_10 
REMARK    4  A    between atoms: N2_12  and  C8_14 
REMARK    5  A    between atoms: N3_17  and  C11_18 
REMARK    6  A    between atoms: C11_18  and  N4_20 
REMARK    7  A    between atoms: N4_20  and  C12_22 
REMARK    8  A    between atoms: C15_25  and  O2_26 
REMARK    9  A    between atoms: O2_26  and  C16_27 
REMARK   10  A    between atoms: C16_27  and  O4_29 
REMARK   11  A    between atoms: O4_29  and  C17_30 
ROOT
HETATM    1  C8  UNL     1     -12.455 -38.728 -13.081  1.00  0.00     0.155 C 
HETATM    2  C9  UNL     1     -13.574 -37.681 -13.053  1.00  0.00     0.057 C 
HETATM    3  C10 UNL     1     -14.831 -38.244 -12.480  1.00  0.00     0.138 C 
HETATM    4  N3  UNL     1     -15.427 -39.276 -13.341  1.00  0.00    -0.285 N 
HETATM    5  C23 UNL     1     -14.746 -39.713 -14.506  1.00  0.00     0.290 C 
HETATM    6  O5  UNL     1     -15.338 -39.984 -15.566  1.00  0.00    -0.260 OA
HETATM    7  S2  UNL     1     -12.937 -39.877 -14.440  1.00  0.00    -0.043 SA
ENDROOT
BRANCH   4   8
HETATM    8  C11 UNL     1     -16.674 -39.822 -12.968  1.00  0.00     0.177 C 
HETATM    9  S1  UNL     1     -17.907 -38.755 -12.701  1.00  0.00    -0.041 SA
BRANCH   8  10
HETATM   10  N4  UNL     1     -16.915 -41.203 -12.762  1.00  0.00    -0.362 N 
ATOM     11  H4  UNL     1     -17.661 -41.674 -13.274  1.00  0.00     0.162 HD
BRANCH  10  12
HETATM   12  C12 UNL     1     -16.101 -41.940 -11.826  1.00  0.00     0.084 C 
HETATM   13  C13 UNL     1     -16.086 -43.423 -12.168  1.00  0.00     0.028 C 
HETATM   14  C14 UNL     1     -16.266 -44.313 -10.976  1.00  0.00     0.034 C 
HETATM   15  C15 UNL     1     -15.391 -43.928  -9.802  1.00  0.00     0.134 C 
HETATM   16  C21 UNL     1     -15.567 -42.477  -9.521  1.00  0.00     0.034 C 
HETATM   17  C22 UNL     1     -16.634 -41.826 -10.397  1.00  0.00     0.028 C 
BRANCH  15  18
HETATM   18  O2  UNL     1     -15.796 -44.755  -8.725  1.00  0.00    -0.293 OA
BRANCH  18  19
HETATM   19  C16 UNL     1     -14.996 -45.816  -8.336  1.00  0.00     0.407 C 
HETATM   20  O3  UNL     1     -14.326 -45.705  -7.300  1.00  0.00    -0.229 OA
BRANCH  19  21
HETATM   21  O4  UNL     1     -14.913 -47.000  -9.053  1.00  0.00    -0.288 OA
BRANCH  21  22
HETATM   22  C17 UNL     1     -15.840 -48.037  -9.019  1.00  0.00     0.062 C 
HETATM   23  C18 UNL     1     -15.103 -49.359  -9.080  1.00  0.00     0.046 C 
HETATM   24  C19 UNL     1     -16.718 -48.040  -7.796  1.00  0.00     0.046 C 
HETATM   25  C20 UNL     1     -16.711 -47.918 -10.259  1.00  0.00     0.046 C 
ENDBRANCH  21  22
ENDBRANCH  19  21
ENDBRANCH  18  19
ENDBRANCH  15  18
ENDBRANCH  10  12
ENDBRANCH   8  10
ENDBRANCH   4   8
BRANCH   1  26
HETATM   26  N2  UNL     1     -11.203 -38.114 -13.384  1.00  0.00    -0.374 N 
HETATM   27  C6  UNL     1     -10.291 -37.778 -12.557  1.00  0.00     0.088 C 
ATOM     28  H2  UNL     1     -11.017 -37.922 -14.369  1.00  0.00     0.160 HD
BRANCH  27  29
HETATM   29  C5  UNL     1      -9.057 -37.156 -13.015  1.00  0.00     0.265 C 
HETATM   30  N1  UNL     1      -8.712 -37.078 -14.382  1.00  0.00    -0.348 N 
ATOM     31  H1  UNL     1      -9.333 -37.461 -15.095  1.00  0.00     0.163 HD
HETATM   32  O1  UNL     1      -8.277 -36.674 -12.125  1.00  0.00    -0.266 OA
BRANCH  30  33
HETATM   33  C2  UNL     1      -7.470 -36.448 -14.756  1.00  0.00     0.022 C 
HETATM   34  C1  UNL     1      -7.425 -34.995 -14.341  1.00  0.00     0.037 C 
HETATM   35  C3  UNL     1      -6.268 -37.153 -14.172  1.00  0.00     0.037 C 
HETATM   36  C4  UNL     1      -7.357 -36.480 -16.265  1.00  0.00     0.037 C 
ENDBRANCH  30  33
ENDBRANCH  27  29
BRANCH  27  37
HETATM   37  C7  UNL     1     -10.487 -38.012 -11.124  1.00  0.00     0.177 C 
HETATM   38 CL1  UNL     1     -11.328 -36.651 -10.307  1.00  0.00    -0.124 Cl
ENDBRANCH  27  37
ENDBRANCH   1  26
TORSDOF 11
ENDMDL
MODEL 4
REMARK VINA RESULT: -6.727329372      0.965      1.416
REMARK  11 active torsions:
REMARK  status: ('A' for Active; 'I' for Inactive)
REMARK    1  A    between atoms: C2_2  and  N1_5 
REMARK       I    between atoms: N1_5  and  C5_7 
REMARK    2  A    between atoms: C5_7  and  C6_9 
REMARK    3  A    between atoms: C6_9  and  C7_10 
REMARK    4  A    between atoms: N2_12  and  C8_14 
REMARK    5  A    between atoms: N3_17  and  C11_18 
REMARK    6  A    between atoms: C11_18  and  N4_20 
REMARK    7  A    between atoms: N4_20  and  C12_22 
REMARK    8  A    between atoms: C15_25  and  O2_26 
REMARK    9  A    between atoms: O2_26  and  C16_27 
REMARK   10  A    between atoms: C16_27  and  O4_29 
REMARK   11  A    between atoms: O4_29  and  C17_30 
ROOT
HETATM    1  C8  UNL     1     -11.997 -38.322 -12.744  1.00  0.00     0.155 C 
HETATM    2  C9  UNL     1     -10.785 -38.421 -11.812  1.00  0.00     0.057 C 
HETATM    3  C10 UNL     1      -9.787 -37.349 -12.101  1.00  0.00     0.138 C 
HETATM    4  N3  UNL     1      -9.151 -37.515 -13.416  1.00  0.00    -0.285 N 
HETATM    5  C23 UNL     1      -9.590 -38.537 -14.296  1.00  0.00     0.290 C 
HETATM    6  O5  UNL     1      -8.808 -39.189 -15.010  1.00  0.00    -0.260 OA
HETATM    7  S2  UNL     1     -11.369 -38.905 -14.376  1.00  0.00    -0.043 SA
ENDROOT
BRANCH   4   8
HETATM    8  C11 UNL     1      -8.114 -36.629 -13.776  1.00  0.00     0.177 C 
HETATM    9  S1  UNL     1      -7.541 -35.629 -12.592  1.00  0.00    -0.041 SA
BRANCH   8  10
HETATM   10  N4  UNL     1      -7.580 -36.509 -15.083  1.00  0.00    -0.362 N 
ATOM     11  H4  UNL     1      -8.129 -36.072 -15.823  1.00  0.00     0.162 HD
BRANCH  10  12
HETATM   12  C12 UNL     1      -6.254 -37.009 -15.363  1.00  0.00     0.084 C 
HETATM   13  C13 UNL     1      -6.181 -37.600 -16.762  1.00  0.00     0.028 C 
HETATM   14  C14 UNL     1      -5.461 -38.913 -16.820  1.00  0.00     0.034 C 
HETATM   15  C15 UNL     1      -4.147 -38.910 -16.067  1.00  0.00     0.134 C 
HETATM   16  C21 UNL     1      -4.378 -38.391 -14.691  1.00  0.00     0.034 C 
HETATM   17  C22 UNL     1      -5.850 -38.122 -14.395  1.00  0.00     0.028 C 
BRANCH  15  18
HETATM   18  O2  UNL     1      -3.683 -40.248 -16.085  1.00  0.00    -0.293 OA
BRANCH  18  19
HETATM   19  C16 UNL     1      -2.642 -40.603 -16.927  1.00  0.00     0.407 C 
HETATM   20  O3  UNL     1      -1.821 -41.443 -16.532  1.00  0.00    -0.229 OA
BRANCH  19  21
HETATM   21  O4  UNL     1      -2.477 -40.061 -18.192  1.00  0.00    -0.288 OA
BRANCH  21  22
HETATM   22  C17 UNL     1      -3.167 -40.447 -19.337  1.00  0.00     0.062 C 
HETATM   23  C18 UNL     1      -4.203 -41.486 -18.960  1.00  0.00     0.046 C 
HETATM   24  C19 UNL     1      -3.865 -39.318 -20.047  1.00  0.00     0.046 C 
HETATM   25  C20 UNL     1      -2.167 -41.090 -20.283  1.00  0.00     0.046 C 
ENDBRANCH  21  22
ENDBRANCH  19  21
ENDBRANCH  18  19
ENDBRANCH  15  18
ENDBRANCH  10  12
ENDBRANCH   8  10
ENDBRANCH   4   8
BRANCH   1  26
HETATM   26  N2  UNL     1     -13.046 -39.177 -12.292  1.00  0.00    -0.374 N 
HETATM   27  C6  UNL     1     -14.302 -38.981 -12.405  1.00  0.00     0.088 C 
ATOM     28  H2  UNL     1     -12.761 -40.040 -11.827  1.00  0.00     0.160 HD
BRANCH  27  29
HETATM   29  C5  UNL     1     -15.260 -39.949 -11.892  1.00  0.00     0.265 C 
HETATM   30  N1  UNL     1     -14.872 -41.047 -11.093  1.00  0.00    -0.348 N 
ATOM     31  H1  UNL     1     -13.892 -41.189 -10.850  1.00  0.00     0.163 HD
HETATM   32  O1  UNL     1     -16.489 -39.774 -12.194  1.00  0.00    -0.266 OA
BRANCH  30  33
HETATM   33  C2  UNL     1     -15.882 -41.964 -10.627  1.00  0.00     0.022 C 
HETATM   34  C1  UNL     1     -17.121 -41.244 -10.144  1.00  0.00     0.037 C 
HETATM   35  C3  UNL     1     -16.287 -42.964 -11.685  1.00  0.00     0.037 C 
HETATM   36  C4  UNL     1     -15.322 -42.723  -9.442  1.00  0.00     0.037 C 
ENDBRANCH  30  33
ENDBRANCH  27  29
BRANCH  27  37
HETATM   37  C7  UNL     1     -14.791 -37.761 -13.053  1.00  0.00     0.177 C 
HETATM   38 CL1  UNL     1     -14.997 -37.952 -14.827  1.00  0.00    -0.124 Cl
ENDBRANCH  27  37
ENDBRANCH   1  26
TORSDOF 11
ENDMDL
MODEL 5
REMARK VINA RESULT: -6.702532224      4.194      6.830
REMARK  11 active torsions:
REMARK  status: ('A' for Active; 'I' for Inactive)
REMARK    1  A    between atoms: C2_2  and  N1_5 
REMARK       I    between atoms: N1_5  and  C5_7 
REMARK    2  A    between atoms: C5_7  and  C6_9 
REMARK    3  A    between atoms: C6_9  and  C7_10 
REMARK    4  A    between atoms: N2_12  and  C8_14 
REMARK    5  A    between atoms: N3_17  and  C11_18 
REMARK    6  A    between atoms: C11_18  and  N4_20 
REMARK    7  A    between atoms: N4_20  and  C12_22 
REMARK    8  A    between atoms: C15_25  and  O2_26 
REMARK    9  A    between atoms: O2_26  and  C16_27 
REMARK   10  A    between atoms: C16_27  and  O4_29 
REMARK   11  A    between atoms: O4_29  and  C17_30 
ROOT
HETATM    1  C8  UNL     1     -15.448 -42.149 -12.494  1.00  0.00     0.155 C 
HETATM    2  C9  UNL     1     -14.706 -41.273 -11.479  1.00  0.00     0.057 C 
HETATM    3  C10 UNL     1     -15.089 -39.838 -11.617  1.00  0.00     0.138 C 
HETATM    4  N3  UNL     1     -14.632 -39.255 -12.886  1.00  0.00    -0.285 N 
HETATM    5  C23 UNL     1     -14.013 -40.074 -13.865  1.00  0.00     0.290 C 
HETATM    6  O5  UNL     1     -13.056 -39.684 -14.558  1.00  0.00    -0.260 OA
HETATM    7  S2  UNL     1     -14.647 -41.761 -14.108  1.00  0.00    -0.043 SA
ENDROOT
BRANCH   4   8
HETATM    8  C11 UNL     1     -14.838 -37.876 -13.104  1.00  0.00     0.177 C 
HETATM    9  S1  UNL     1     -15.347 -37.425 -14.609  1.00  0.00    -0.041 SA
BRANCH   8  10
HETATM   10  N4  UNL     1     -14.588 -36.866 -12.141  1.00  0.00    -0.362 N 
ATOM     11  H4  UNL     1     -15.352 -36.504 -11.570  1.00  0.00     0.162 HD
BRANCH  10  12
HETATM   12  C12 UNL     1     -13.250 -36.352 -11.973  1.00  0.00     0.084 C 
HETATM   13  C13 UNL     1     -12.469 -36.429 -13.276  1.00  0.00     0.028 C 
HETATM   14  C14 UNL     1     -11.075 -36.952 -13.108  1.00  0.00     0.034 C 
HETATM   15  C15 UNL     1     -10.326 -36.306 -11.962  1.00  0.00     0.134 C 
HETATM   16  C21 UNL     1     -11.164 -36.376 -10.734  1.00  0.00     0.034 C 
HETATM   17  C22 UNL     1     -12.458 -37.157 -10.940  1.00  0.00     0.028 C 
BRANCH  15  18
HETATM   18  O2  UNL     1      -9.106 -37.015 -11.842  1.00  0.00    -0.293 OA
BRANCH  18  19
HETATM   19  C16 UNL     1      -7.928 -36.435 -12.280  1.00  0.00     0.407 C 
HETATM   20  O3  UNL     1      -7.797 -35.207 -12.176  1.00  0.00    -0.229 OA
BRANCH  19  21
HETATM   21  O4  UNL     1      -6.886 -37.166 -12.830  1.00  0.00    -0.288 OA
BRANCH  21  22
HETATM   22  C17 UNL     1      -6.799 -37.586 -14.153  1.00  0.00     0.062 C 
HETATM   23  C18 UNL     1      -7.825 -38.675 -14.393  1.00  0.00     0.046 C 
HETATM   24  C19 UNL     1      -7.023 -36.494 -15.164  1.00  0.00     0.046 C 
HETATM   25  C20 UNL     1      -5.416 -38.181 -14.358  1.00  0.00     0.046 C 
ENDBRANCH  21  22
ENDBRANCH  19  21
ENDBRANCH  18  19
ENDBRANCH  15  18
ENDBRANCH  10  12
ENDBRANCH   8  10
ENDBRANCH   4   8
BRANCH   1  26
HETATM   26  N2  UNL     1     -15.274 -43.531 -12.183  1.00  0.00    -0.374 N 
HETATM   27  C6  UNL     1     -15.620 -44.128 -11.110  1.00  0.00     0.088 C 
ATOM     28  H2  UNL     1     -14.822 -44.104 -12.897  1.00  0.00     0.160 HD
BRANCH  27  29
HETATM   29  C5  UNL     1     -15.376 -45.553 -10.934  1.00  0.00     0.265 C 
HETATM   30  N1  UNL     1     -14.239 -46.197 -11.469  1.00  0.00    -0.348 N 
ATOM     31  H1  UNL     1     -13.548 -45.669 -12.000  1.00  0.00     0.163 HD
HETATM   32  O1  UNL     1     -16.241 -46.218 -10.268  1.00  0.00    -0.266 OA
BRANCH  30  33
HETATM   33  C2  UNL     1     -14.071 -47.613 -11.253  1.00  0.00     0.022 C 
HETATM   34  C1  UNL     1     -12.641 -48.052 -11.469  1.00  0.00     0.037 C 
HETATM   35  C3  UNL     1     -14.503 -48.040  -9.870  1.00  0.00     0.037 C 
HETATM   36  C4  UNL     1     -14.918 -48.351 -12.267  1.00  0.00     0.037 C 
ENDBRANCH  30  33
ENDBRANCH  27  29
BRANCH  27  37
HETATM   37  C7  UNL     1     -16.266 -43.373 -10.034  1.00  0.00     0.177 C 
HETATM   38 CL1  UNL     1     -15.375 -43.481  -8.478  1.00  0.00    -0.124 Cl
ENDBRANCH  27  37
ENDBRANCH   1  26
TORSDOF 11
ENDMDL
