MODEL 1
REMARK VINA RESULT: -7.746632292      0.000      0.000
REMARK  8 active torsions:
REMARK  status: ('A' for Active; 'I' for Inactive)
REMARK    1  A    between atoms: C6_6  and  C8_8 
REMARK    2  A    between atoms: C8_8  and  O1_9 
REMARK    3  A    between atoms: C9_11  and  O2_12 
REMARK    4  A    between atoms: O2_12  and  C10_13 
REMARK    5  A    between atoms: C13_17  and  O4_18 
REMARK    6  A    between atoms: C14_20  and  O5_21 
REMARK    7  A    between atoms: O5_21  and  C15_22 
REMARK    8  A    between atoms: C15_22  and  C16_24 
ROOT
HETATM    1  C1  UNL     1     -15.662 -43.093  -9.249  1.00  0.00     0.043 C 
HETATM    2  C2  UNL     1     -16.049 -42.784 -10.650  1.00  0.00    -0.081 C 
HETATM    3  C3  UNL     1     -16.914 -41.801 -10.766  1.00  0.00    -0.023 C 
HETATM    4  C4  UNL     1     -17.469 -41.286 -12.045  1.00  0.00     0.033 C 
HETATM    5  C5  UNL     1     -16.466 -40.906 -13.055  1.00  0.00     0.012 C 
HETATM    6  C6  UNL     1     -16.636 -39.404 -13.316  1.00  0.00     0.008 C 
HETATM    7  C7  UNL     1     -16.741 -38.586 -12.085  1.00  0.00     0.020 C 
HETATM    8  C9  UNL     1     -15.570 -38.867 -14.189  1.00  0.00     0.135 C 
HETATM    9  C20 UNL     1     -15.126 -40.015 -15.084  1.00  0.00     0.034 C 
HETATM   10  C21 UNL     1     -14.334 -40.937 -14.203  1.00  0.00     0.014 C 
HETATM   11  C22 UNL     1     -15.073 -41.342 -12.916  1.00  0.00    -0.012 C 
HETATM   12  C23 UNL     1     -14.279 -40.739 -11.794  1.00  0.00     0.018 C 
HETATM   13  C24 UNL     1     -14.870 -42.841 -12.863  1.00  0.00     0.140 C 
HETATM   14  O7  UNL     1     -15.053 -43.436 -14.126  1.00  0.00    -0.370 OA
HETATM   15  C25 UNL     1     -14.330 -44.595 -14.310  1.00  0.00     0.072 C 
HETATM   16  C26 UNL     1     -12.891 -44.547 -13.949  1.00  0.00     0.050 C 
HETATM   17  C27 UNL     1     -14.418 -44.920 -15.803  1.00  0.00     0.050 C 
HETATM   18  C28 UNL     1     -14.929 -45.758 -13.598  1.00  0.00     0.006 C 
HETATM   19  C29 UNL     1     -15.884 -45.773 -12.677  1.00  0.00    -0.027 C 
HETATM   20  C30 UNL     1     -16.569 -44.555 -12.159  1.00  0.00     0.038 C 
HETATM   21  C31 UNL     1     -15.452 -43.580 -11.736  1.00  0.00     0.047 C 
ENDROOT
BRANCH   8  22
HETATM   22  O2  UNL     1     -15.847 -37.733 -14.903  1.00  0.00    -0.352 OA
BRANCH  22  23
HETATM   23  C10 UNL     1     -14.738 -37.094 -15.393  1.00  0.00     0.297 C 
HETATM   24  O3  UNL     1     -15.243 -35.943 -16.074  1.00  0.00    -0.351 OA
HETATM   25  C11 UNL     1     -16.124 -35.339 -15.207  1.00  0.00     0.152 C 
HETATM   26  C12 UNL     1     -16.846 -34.177 -15.862  1.00  0.00     0.042 C 
HETATM   27  C13 UNL     1     -15.396 -34.772 -13.997  1.00  0.00     0.179 C 
HETATM   28  C14 UNL     1     -14.507 -35.770 -13.332  1.00  0.00     0.202 C 
HETATM   29  C19 UNL     1     -13.807 -36.615 -14.361  1.00  0.00     0.257 C 
HETATM   30  F1  UNL     1     -13.073 -37.613 -13.731  1.00  0.00    -0.241 F 
BRANCH  27  31
HETATM   31  O4  UNL     1     -14.655 -33.681 -14.390  1.00  0.00    -0.390 OA
ATOM     32  H4  UNL     1     -14.065 -33.437 -13.687  1.00  0.00     0.210 HD
ENDBRANCH  27  31
BRANCH  28  33
HETATM   33  O5  UNL     1     -13.461 -34.994 -12.701  1.00  0.00    -0.310 OA
BRANCH  33  34
HETATM   34  C15 UNL     1     -13.379 -34.928 -11.335  1.00  0.00     0.262 C 
HETATM   35  O6  UNL     1     -14.116 -34.192 -10.657  1.00  0.00    -0.265 OA
BRANCH  34  36
HETATM   36  C16 UNL     1     -12.373 -35.764 -10.633  1.00  0.00     0.077 C 
HETATM   37  C17 UNL     1     -11.796 -34.928  -9.486  1.00  0.00     0.020 C 
HETATM   38  C18 UNL     1     -11.184 -36.053 -11.556  1.00  0.00     0.020 C 
ENDBRANCH  34  36
ENDBRANCH  33  34
ENDBRANCH  28  33
ENDBRANCH  22  23
ENDBRANCH   8  22
BRANCH   6  39
HETATM   39  C8  UNL     1     -17.969 -39.305 -14.070  1.00  0.00     0.176 C 
BRANCH  39  40
HETATM   40  O1  UNL     1     -18.535 -38.053 -13.996  1.00  0.00    -0.400 OA
ATOM     41  H1  UNL     1     -19.310 -38.029 -13.447  1.00  0.00     0.209 HD
ENDBRANCH  39  40
ENDBRANCH   6  39
TORSDOF 8
ENDMDL
MODEL 2
REMARK VINA RESULT: -7.663128147      5.976      9.000
REMARK  8 active torsions:
REMARK  status: ('A' for Active; 'I' for Inactive)
REMARK    1  A    between atoms: C6_6  and  C8_8 
REMARK    2  A    between atoms: C8_8  and  O1_9 
REMARK    3  A    between atoms: C9_11  and  O2_12 
REMARK    4  A    between atoms: O2_12  and  C10_13 
REMARK    5  A    between atoms: C13_17  and  O4_18 
REMARK    6  A    between atoms: C14_20  and  O5_21 
REMARK    7  A    between atoms: O5_21  and  C15_22 
REMARK    8  A    between atoms: C15_22  and  C16_24 
ROOT
HETATM    1  C1  UNL     1      -3.893 -36.793 -18.529  1.00  0.00     0.043 C 
HETATM    2  C2  UNL     1      -4.589 -37.516 -17.433  1.00  0.00    -0.081 C 
HETATM    3  C3  UNL     1      -4.764 -36.803 -16.343  1.00  0.00    -0.023 C 
HETATM    4  C4  UNL     1      -5.428 -37.275 -15.100  1.00  0.00     0.033 C 
HETATM    5  C5  UNL     1      -6.773 -37.847 -15.287  1.00  0.00     0.012 C 
HETATM    6  C6  UNL     1      -7.752 -36.961 -14.506  1.00  0.00     0.008 C 
HETATM    7  C7  UNL     1      -7.565 -35.508 -14.736  1.00  0.00     0.020 C 
HETATM    8  C9  UNL     1      -9.161 -37.334 -14.757  1.00  0.00     0.135 C 
HETATM    9  C20 UNL     1      -9.163 -38.822 -15.076  1.00  0.00     0.034 C 
HETATM   10  C21 UNL     1      -8.588 -38.944 -16.457  1.00  0.00     0.014 C 
HETATM   11  C22 UNL     1      -7.236 -38.227 -16.625  1.00  0.00    -0.012 C 
HETATM   12  C23 UNL     1      -7.494 -37.115 -17.600  1.00  0.00     0.018 C 
HETATM   13  C24 UNL     1      -6.386 -39.263 -17.330  1.00  0.00     0.140 C 
HETATM   14  O7  UNL     1      -6.562 -40.544 -16.777  1.00  0.00    -0.370 OA
HETATM   15  C25 UNL     1      -6.350 -41.575 -17.668  1.00  0.00     0.072 C 
HETATM   16  C26 UNL     1      -7.028 -41.467 -18.984  1.00  0.00     0.050 C 
HETATM   17  C27 UNL     1      -6.869 -42.842 -16.986  1.00  0.00     0.050 C 
HETATM   18  C28 UNL     1      -4.903 -41.810 -17.931  1.00  0.00     0.006 C 
HETATM   19  C29 UNL     1      -3.861 -41.053 -17.614  1.00  0.00    -0.027 C 
HETATM   20  C30 UNL     1      -3.959 -39.751 -16.895  1.00  0.00     0.038 C 
HETATM   21  C31 UNL     1      -5.000 -38.911 -17.662  1.00  0.00     0.047 C 
ENDROOT
BRANCH   8  22
HETATM   22  O2  UNL     1     -10.082 -37.010 -13.798  1.00  0.00    -0.352 OA
BRANCH  22  23
HETATM   23  C10 UNL     1     -11.180 -37.830 -13.776  1.00  0.00     0.297 C 
HETATM   24  O3  UNL     1     -11.069 -38.565 -12.554  1.00  0.00    -0.351 OA
HETATM   25  C11 UNL     1     -10.814 -37.639 -11.570  1.00  0.00     0.152 C 
HETATM   26  C12 UNL     1     -10.530 -38.302 -10.236  1.00  0.00     0.042 C 
HETATM   27  C13 UNL     1     -12.015 -36.729 -11.354  1.00  0.00     0.179 C 
HETATM   28  C14 UNL     1     -12.518 -36.119 -12.621  1.00  0.00     0.202 C 
HETATM   29  C19 UNL     1     -12.467 -37.121 -13.740  1.00  0.00     0.257 C 
HETATM   30  F1  UNL     1     -12.827 -36.511 -14.936  1.00  0.00    -0.241 F 
BRANCH  27  31
HETATM   31  O4  UNL     1     -13.023 -37.451 -10.756  1.00  0.00    -0.390 OA
ATOM     32  H4  UNL     1     -13.235 -38.199 -11.301  1.00  0.00     0.210 HD
ENDBRANCH  27  31
BRANCH  28  33
HETATM   33  O5  UNL     1     -13.926 -35.870 -12.396  1.00  0.00    -0.310 OA
BRANCH  33  34
HETATM   34  C15 UNL     1     -14.384 -34.588 -12.242  1.00  0.00     0.262 C 
HETATM   35  O6  UNL     1     -13.904 -33.802 -11.408  1.00  0.00    -0.265 OA
BRANCH  34  36
HETATM   36  C16 UNL     1     -15.498 -34.114 -13.103  1.00  0.00     0.077 C 
HETATM   37  C17 UNL     1     -15.842 -35.244 -14.078  1.00  0.00     0.020 C 
HETATM   38  C18 UNL     1     -15.029 -32.952 -13.986  1.00  0.00     0.020 C 
ENDBRANCH  34  36
ENDBRANCH  33  34
ENDBRANCH  28  33
ENDBRANCH  22  23
ENDBRANCH   8  22
BRANCH   6  39
HETATM   39  C8  UNL     1      -7.432 -37.255 -13.036  1.00  0.00     0.176 C 
BRANCH  39  40
HETATM   40  O1  UNL     1      -7.748 -36.211 -12.198  1.00  0.00    -0.400 OA
ATOM     41  H1  UNL     1      -8.684 -36.091 -12.092  1.00  0.00     0.209 HD
ENDBRANCH  39  40
ENDBRANCH   6  39
TORSDOF 8
ENDMDL
MODEL 3
REMARK VINA RESULT: -7.496751602      6.946     10.082
REMARK  8 active torsions:
REMARK  status: ('A' for Active; 'I' for Inactive)
REMARK    1  A    between atoms: C6_6  and  C8_8 
REMARK    2  A    between atoms: C8_8  and  O1_9 
REMARK    3  A    between atoms: C9_11  and  O2_12 
REMARK    4  A    between atoms: O2_12  and  C10_13 
REMARK    5  A    between atoms: C13_17  and  O4_18 
REMARK    6  A    between atoms: C14_20  and  O5_21 
REMARK    7  A    between atoms: O5_21  and  C15_22 
REMARK    8  A    between atoms: C15_22  and  C16_24 
ROOT
HETATM    1  C1  UNL     1      -4.489 -36.367 -20.030  1.00  0.00     0.043 C 
HETATM    2  C2  UNL     1      -4.553 -36.799 -18.610  1.00  0.00    -0.081 C 
HETATM    3  C3  UNL     1      -5.087 -35.912 -17.800  1.00  0.00    -0.023 C 
HETATM    4  C4  UNL     1      -5.273 -36.082 -16.335  1.00  0.00     0.033 C 
HETATM    5  C5  UNL     1      -5.991 -37.305 -15.933  1.00  0.00     0.012 C 
HETATM    6  C6  UNL     1      -7.277 -36.860 -15.225  1.00  0.00     0.008 C 
HETATM    7  C7  UNL     1      -8.029 -35.805 -15.947  1.00  0.00     0.020 C 
HETATM    8  C9  UNL     1      -8.170 -38.000 -14.925  1.00  0.00     0.135 C 
HETATM    9  C20 UNL     1      -7.271 -39.214 -14.741  1.00  0.00     0.034 C 
HETATM   10  C21 UNL     1      -6.795 -39.582 -16.117  1.00  0.00     0.014 C 
HETATM   11  C22 UNL     1      -6.175 -38.402 -16.887  1.00  0.00    -0.012 C 
HETATM   12  C23 UNL     1      -7.097 -38.153 -18.045  1.00  0.00     0.018 C 
HETATM   13  C24 UNL     1      -4.896 -38.994 -17.443  1.00  0.00     0.140 C 
HETATM   14  O7  UNL     1      -4.228 -39.780 -16.486  1.00  0.00    -0.370 OA
HETATM   15  C25 UNL     1      -3.463 -40.791 -17.027  1.00  0.00     0.072 C 
HETATM   16  C26 UNL     1      -4.115 -41.643 -18.053  1.00  0.00     0.050 C 
HETATM   17  C27 UNL     1      -3.069 -41.699 -15.859  1.00  0.00     0.050 C 
HETATM   18  C28 UNL     1      -2.187 -40.291 -17.609  1.00  0.00     0.006 C 
HETATM   19  C29 UNL     1      -1.817 -39.042 -17.864  1.00  0.00    -0.027 C 
HETATM   20  C30 UNL     1      -2.665 -37.846 -17.598  1.00  0.00     0.038 C 
HETATM   21  C31 UNL     1      -4.031 -38.130 -18.255  1.00  0.00     0.047 C 
ENDROOT
BRANCH   8  22
HETATM   22  O2  UNL     1      -9.059 -37.855 -13.895  1.00  0.00    -0.352 OA
BRANCH  22  23
HETATM   23  C10 UNL     1     -10.010 -38.839 -13.832  1.00  0.00     0.297 C 
HETATM   24  O3  UNL     1     -10.233 -39.051 -12.435  1.00  0.00    -0.351 OA
HETATM   25  C11 UNL     1     -10.417 -37.806 -11.882  1.00  0.00     0.152 C 
HETATM   26  C12 UNL     1     -10.521 -37.874 -10.371  1.00  0.00     0.042 C 
HETATM   27  C13 UNL     1     -11.710 -37.174 -12.378  1.00  0.00     0.179 C 
HETATM   28  C14 UNL     1     -11.826 -37.181 -13.867  1.00  0.00     0.202 C 
HETATM   29  C19 UNL     1     -11.303 -38.474 -14.427  1.00  0.00     0.257 C 
HETATM   30  F1  UNL     1     -11.309 -38.423 -15.816  1.00  0.00    -0.241 F 
BRANCH  27  31
HETATM   31  O4  UNL     1     -12.777 -37.846 -11.828  1.00  0.00    -0.390 OA
ATOM     32  H4  UNL     1     -13.569 -37.342 -11.974  1.00  0.00     0.210 HD
ENDBRANCH  27  31
BRANCH  28  33
HETATM   33  O5  UNL     1     -13.247 -37.193 -14.142  1.00  0.00    -0.310 OA
BRANCH  33  34
HETATM   34  C15 UNL     1     -13.846 -36.109 -14.728  1.00  0.00     0.262 C 
HETATM   35  O6  UNL     1     -13.985 -36.007 -15.958  1.00  0.00    -0.265 OA
BRANCH  34  36
HETATM   36  C16 UNL     1     -14.352 -35.012 -13.864  1.00  0.00     0.077 C 
HETATM   37  C17 UNL     1     -15.346 -35.625 -12.874  1.00  0.00     0.020 C 
HETATM   38  C18 UNL     1     -15.174 -34.019 -14.694  1.00  0.00     0.020 C 
ENDBRANCH  34  36
ENDBRANCH  33  34
ENDBRANCH  28  33
ENDBRANCH  22  23
ENDBRANCH   8  22
BRANCH   6  39
HETATM   39  C8  UNL     1      -6.787 -36.271 -13.896  1.00  0.00     0.176 C 
BRANCH  39  40
HETATM   40  O1  UNL     1      -7.552 -35.212 -13.464  1.00  0.00    -0.400 OA
ATOM     41  H1  UNL     1      -7.874 -35.326 -12.577  1.00  0.00     0.209 HD
ENDBRANCH  39  40
ENDBRANCH   6  39
TORSDOF 8
ENDMDL
MODEL 4
REMARK VINA RESULT: -7.252722776      2.989      5.542
REMARK  8 active torsions:
REMARK  status: ('A' for Active; 'I' for Inactive)
REMARK    1  A    between atoms: C6_6  and  C8_8 
REMARK    2  A    between atoms: C8_8  and  O1_9 
REMARK    3  A    between atoms: C9_11  and  O2_12 
REMARK    4  A    between atoms: O2_12  and  C10_13 
REMARK    5  A    between atoms: C13_17  and  O4_18 
REMARK    6  A    between atoms: C14_20  and  O5_21 
REMARK    7  A    between atoms: O5_21  and  C15_22 
REMARK    8  A    between atoms: C15_22  and  C16_24 
ROOT
HETATM    1  C1  UNL     1     -19.740 -35.663 -14.928  1.00  0.00     0.043 C 
HETATM    2  C2  UNL     1     -18.724 -36.730 -15.128  1.00  0.00    -0.081 C 
HETATM    3  C3  UNL     1     -17.644 -36.333 -15.764  1.00  0.00    -0.023 C 
HETATM    4  C4  UNL     1     -16.476 -37.189 -16.096  1.00  0.00     0.033 C 
HETATM    5  C5  UNL     1     -15.887 -37.916 -14.958  1.00  0.00     0.012 C 
HETATM    6  C6  UNL     1     -14.446 -37.413 -14.799  1.00  0.00     0.008 C 
HETATM    7  C7  UNL     1     -14.314 -35.937 -14.837  1.00  0.00     0.020 C 
HETATM    8  C9  UNL     1     -13.803 -37.945 -13.578  1.00  0.00     0.135 C 
HETATM    9  C20 UNL     1     -14.450 -39.295 -13.303  1.00  0.00     0.034 C 
HETATM   10  C21 UNL     1     -15.827 -38.991 -12.789  1.00  0.00     0.014 C 
HETATM   11  C22 UNL     1     -16.626 -38.041 -13.698  1.00  0.00    -0.012 C 
HETATM   12  C23 UNL     1     -16.820 -36.788 -12.893  1.00  0.00     0.018 C 
HETATM   13  C24 UNL     1     -17.972 -38.725 -13.807  1.00  0.00     0.140 C 
HETATM   14  O7  UNL     1     -17.837 -40.112 -14.001  1.00  0.00    -0.370 OA
HETATM   15  C25 UNL     1     -18.893 -40.853 -13.515  1.00  0.00     0.072 C 
HETATM   16  C26 UNL     1     -19.336 -40.552 -12.131  1.00  0.00     0.050 C 
HETATM   17  C27 UNL     1     -18.438 -42.314 -13.544  1.00  0.00     0.050 C 
HETATM   18  C28 UNL     1     -20.093 -40.776 -14.394  1.00  0.00     0.006 C 
HETATM   19  C29 UNL     1     -20.339 -39.953 -15.404  1.00  0.00    -0.027 C 
HETATM   20  C30 UNL     1     -19.401 -38.892 -15.869  1.00  0.00     0.038 C 
HETATM   21  C31 UNL     1     -19.013 -38.080 -14.616  1.00  0.00     0.047 C 
ENDROOT
BRANCH   8  22
HETATM   22  O2  UNL     1     -12.437 -38.014 -13.560  1.00  0.00    -0.352 OA
BRANCH  22  23
HETATM   23  C10 UNL     1     -11.921 -38.631 -12.451  1.00  0.00     0.297 C 
HETATM   24  O3  UNL     1     -10.553 -38.897 -12.775  1.00  0.00    -0.351 OA
HETATM   25  C11 UNL     1     -10.042 -37.722 -13.277  1.00  0.00     0.152 C 
HETATM   26  C12 UNL     1      -8.630 -37.904 -13.798  1.00  0.00     0.042 C 
HETATM   27  C13 UNL     1      -9.971 -36.654 -12.196  1.00  0.00     0.179 C 
HETATM   28  C14 UNL     1     -11.265 -36.471 -11.472  1.00  0.00     0.202 C 
HETATM   29  C19 UNL     1     -11.925 -37.801 -11.237  1.00  0.00     0.257 C 
HETATM   30  F1  UNL     1     -13.179 -37.612 -10.668  1.00  0.00    -0.241 F 
BRANCH  27  31
HETATM   31  O4  UNL     1      -8.982 -36.987 -11.299  1.00  0.00    -0.390 OA
ATOM     32  H4  UNL     1      -8.325 -36.302 -11.292  1.00  0.00     0.210 HD
ENDBRANCH  27  31
BRANCH  28  33
HETATM   33  O5  UNL     1     -10.905 -35.986 -10.157  1.00  0.00    -0.310 OA
BRANCH  33  34
HETATM   34  C15 UNL     1     -11.663 -35.024  -9.545  1.00  0.00     0.262 C 
HETATM   35  O6  UNL     1     -12.574 -34.416 -10.133  1.00  0.00    -0.265 OA
BRANCH  34  36
HETATM   36  C16 UNL     1     -11.391 -34.689  -8.124  1.00  0.00     0.077 C 
HETATM   37  C17 UNL     1     -12.539 -33.804  -7.630  1.00  0.00     0.020 C 
HETATM   38  C18 UNL     1     -10.136 -33.815  -8.014  1.00  0.00     0.020 C 
ENDBRANCH  34  36
ENDBRANCH  33  34
ENDBRANCH  28  33
ENDBRANCH  22  23
ENDBRANCH   8  22
BRANCH   6  39
HETATM   39  C8  UNL     1     -13.713 -37.989 -16.017  1.00  0.00     0.176 C 
BRANCH  39  40
HETATM   40  O1  UNL     1     -12.708 -37.170 -16.475  1.00  0.00    -0.400 OA
ATOM     41  H1  UNL     1     -12.371 -37.435 -17.324  1.00  0.00     0.209 HD
ENDBRANCH  39  40
ENDBRANCH   6  39
TORSDOF 8
ENDMDL
MODEL 5
REMARK VINA RESULT: -7.249786047      2.668      8.314
REMARK  8 active torsions:
REMARK  status: ('A' for Active; 'I' for Inactive)
REMARK    1  A    between atoms: C6_6  and  C8_8 
REMARK    2  A    between atoms: C8_8  and  O1_9 
REMARK    3  A    between atoms: C9_11  and  O2_12 
REMARK    4  A    between atoms: O2_12  and  C10_13 
REMARK    5  A    between atoms: C13_17  and  O4_18 
REMARK    6  A    between atoms: C14_20  and  O5_21 
REMARK    7  A    between atoms: O5_21  and  C15_22 
REMARK    8  A    between atoms: C15_22  and  C16_24 
ROOT
HETATM    1  C1  UNL     1     -15.030 -32.897 -13.695  1.00  0.00     0.043 C 
HETATM    2  C2  UNL     1     -15.007 -34.182 -14.440  1.00  0.00    -0.081 C 
HETATM    3  C3  UNL     1     -14.133 -35.053 -13.986  1.00  0.00    -0.023 C 
HETATM    4  C4  UNL     1     -13.901 -36.412 -14.540  1.00  0.00     0.033 C 
HETATM    5  C5  UNL     1     -15.104 -37.253 -14.664  1.00  0.00     0.012 C 
HETATM    6  C6  UNL     1     -14.898 -38.471 -13.756  1.00  0.00     0.008 C 
HETATM    7  C7  UNL     1     -14.408 -38.135 -12.397  1.00  0.00     0.020 C 
HETATM    8  C9  UNL     1     -16.115 -39.307 -13.661  1.00  0.00     0.135 C 
HETATM    9  C20 UNL     1     -16.864 -39.126 -14.973  1.00  0.00     0.034 C 
HETATM   10  C21 UNL     1     -17.461 -37.750 -14.916  1.00  0.00     0.014 C 
HETATM   11  C22 UNL     1     -16.439 -36.652 -14.575  1.00  0.00    -0.012 C 
HETATM   12  C23 UNL     1     -16.859 -36.117 -13.236  1.00  0.00     0.018 C 
HETATM   13  C24 UNL     1     -16.732 -35.581 -15.605  1.00  0.00     0.140 C 
HETATM   14  O7  UNL     1     -16.936 -36.132 -16.884  1.00  0.00    -0.370 OA
HETATM   15  C25 UNL     1     -17.767 -35.383 -17.691  1.00  0.00     0.072 C 
HETATM   16  C26 UNL     1     -19.051 -34.937 -17.094  1.00  0.00     0.050 C 
HETATM   17  C27 UNL     1     -18.103 -36.268 -18.894  1.00  0.00     0.050 C 
HETATM   18  C28 UNL     1     -17.089 -34.178 -18.242  1.00  0.00     0.006 C 
HETATM   19  C29 UNL     1     -15.927 -33.639 -17.894  1.00  0.00    -0.027 C 
HETATM   20  C30 UNL     1     -15.041 -34.176 -16.824  1.00  0.00     0.038 C 
HETATM   21  C31 UNL     1     -15.929 -34.353 -15.576  1.00  0.00     0.047 C 
ENDROOT
BRANCH   8  22
HETATM   22  O2  UNL     1     -15.953 -40.626 -13.335  1.00  0.00    -0.352 OA
BRANCH  22  23
HETATM   23  C10 UNL     1     -17.118 -41.270 -13.012  1.00  0.00     0.297 C 
HETATM   24  O3  UNL     1     -17.146 -42.430 -13.848  1.00  0.00    -0.351 OA
HETATM   25  C11 UNL     1     -15.911 -43.023 -13.723  1.00  0.00     0.152 C 
HETATM   26  C12 UNL     1     -15.753 -44.193 -14.674  1.00  0.00     0.042 C 
HETATM   27  C13 UNL     1     -15.711 -43.576 -12.319  1.00  0.00     0.179 C 
HETATM   28  C14 UNL     1     -15.992 -42.569 -11.252  1.00  0.00     0.202 C 
HETATM   29  C19 UNL     1     -17.189 -41.737 -11.620  1.00  0.00     0.257 C 
HETATM   30  F1  UNL     1     -17.371 -40.730 -10.679  1.00  0.00    -0.241 F 
BRANCH  27  31
HETATM   31  O4  UNL     1     -16.527 -44.671 -12.147  1.00  0.00    -0.390 OA
ATOM     32  H4  UNL     1     -16.983 -44.591 -11.318  1.00  0.00     0.210 HD
ENDBRANCH  27  31
BRANCH  28  33
HETATM   33  O5  UNL     1     -16.401 -43.336 -10.096  1.00  0.00    -0.310 OA
BRANCH  33  34
HETATM   34  C15 UNL     1     -15.519 -43.570  -9.074  1.00  0.00     0.262 C 
HETATM   35  O6  UNL     1     -14.655 -42.745  -8.736  1.00  0.00    -0.265 OA
BRANCH  34  36
HETATM   36  C16 UNL     1     -15.595 -44.858  -8.338  1.00  0.00     0.077 C 
HETATM   37  C17 UNL     1     -14.653 -44.758  -7.135  1.00  0.00     0.020 C 
HETATM   38  C18 UNL     1     -15.030 -45.995  -9.197  1.00  0.00     0.020 C 
ENDBRANCH  34  36
ENDBRANCH  33  34
ENDBRANCH  28  33
ENDBRANCH  22  23
ENDBRANCH   8  22
BRANCH   6  39
HETATM   39  C8  UNL     1     -13.810 -39.286 -14.466  1.00  0.00     0.176 C 
BRANCH  39  40
HETATM   40  O1  UNL     1     -13.171 -40.172 -13.630  1.00  0.00    -0.400 OA
ATOM     41  H1  UNL     1     -12.272 -39.925 -13.446  1.00  0.00     0.209 HD
ENDBRANCH  39  40
ENDBRANCH   6  39
TORSDOF 8
ENDMDL
