MODEL 1
REMARK VINA RESULT: -8.099097948      0.000      0.000
REMARK  7 active torsions:
REMARK  status: ('A' for Active; 'I' for Inactive)
REMARK    1  A    between atoms: C3_3  and  C5_6 
REMARK    2  A    between atoms: C5_6  and  S1_7 
REMARK    3  A    between atoms: S1_7  and  S2_8 
REMARK    4  A    between atoms: S2_8  and  C6_9 
REMARK    5  A    between atoms: C13_16  and  C14_17 
REMARK    6  A    between atoms: C17_20  and  O1_21 
REMARK    7  A    between atoms: C18_23  and  O2_24 
ROOT
HETATM    1  C1  UNL     1     -15.763 -43.893  -8.384  1.00  0.00     0.013 C 
HETATM    2  C2  UNL     1     -15.696 -43.081  -9.287  1.00  0.00    -0.095 C 
HETATM    3  C3  UNL     1     -15.599 -42.127 -10.377  1.00  0.00     0.086 C 
HETATM    4  C4  UNL     1     -16.901 -41.262 -10.239  1.00  0.00     0.042 C 
HETATM    5 BR1  UNL     1     -15.748 -42.991 -12.068  1.00  0.00    -0.071 Br
ENDROOT
BRANCH   3   6
HETATM    6  C5  UNL     1     -14.481 -41.160 -10.235  1.00  0.00     0.120 C 
BRANCH   6   7
HETATM    7  S1  UNL     1     -14.363 -39.817 -11.378  1.00  0.00    -0.094 SA
BRANCH   7   8
HETATM    8  S2  UNL     1     -12.608 -38.670 -11.294  1.00  0.00    -0.087 SA
BRANCH   8   9
HETATM    9  C6  UNL     1     -12.301 -37.655 -12.722  1.00  0.00     0.099 C 
HETATM   10  C7  UNL     1     -11.843 -38.429 -13.934  1.00  0.00    -0.033 A 
HETATM   11  C8  UNL     1     -12.689 -39.397 -14.411  1.00  0.00     0.048 A 
HETATM   12  C12 UNL     1     -10.640 -38.211 -14.556  1.00  0.00    -0.038 A 
HETATM   13  C9  UNL     1     -12.356 -40.165 -15.511  1.00  0.00     0.105 A 
HETATM   14  C10 UNL     1     -11.156 -39.955 -16.139  1.00  0.00     0.105 A 
HETATM   15  O6  UNL     1     -13.020 -41.195 -16.189  1.00  0.00    -0.323 OA
HETATM   16  C11 UNL     1     -10.308 -38.972 -15.648  1.00  0.00     0.048 A 
HETATM   17  O5  UNL     1     -11.082 -40.851 -17.195  1.00  0.00    -0.323 OA
HETATM   18  C24 UNL     1     -12.244 -41.646 -17.281  1.00  0.00     0.352 A 
HETATM   19  C13 UNL     1      -9.704 -37.166 -14.083  1.00  0.00     0.066 C 
HETATM   20  C20 UNL     1      -9.894 -37.053 -12.599  1.00  0.00     0.106 C 
HETATM   21  C21 UNL     1      -9.189 -35.926 -11.982  1.00  0.00     0.264 C 
HETATM   22  C23 UNL     1     -11.340 -36.537 -12.468  1.00  0.00     0.043 C 
HETATM   23  O3  UNL     1      -8.068 -35.422 -12.213  1.00  0.00    -0.265 OA
HETATM   24  O4  UNL     1     -10.029 -35.429 -10.988  1.00  0.00    -0.321 OA
HETATM   25  C22 UNL     1     -11.312 -36.033 -11.072  1.00  0.00     0.185 C 
BRANCH  19  26
HETATM   26  C14 UNL     1      -8.313 -37.348 -14.510  1.00  0.00    -0.046 A 
HETATM   27  C15 UNL     1      -7.822 -36.466 -15.469  1.00  0.00     0.011 A 
HETATM   28  C16 UNL     1      -6.559 -36.523 -15.951  1.00  0.00     0.040 A 
HETATM   29  C17 UNL     1      -5.706 -37.517 -15.461  1.00  0.00     0.098 A 
HETATM   30  C18 UNL     1      -6.158 -38.400 -14.518  1.00  0.00     0.099 A 
HETATM   31  C19 UNL     1      -7.474 -38.316 -14.036  1.00  0.00     0.047 A 
BRANCH  29  32
HETATM   32  O1  UNL     1      -4.409 -37.621 -15.917  1.00  0.00    -0.358 OA
ATOM     33  H1  UNL     1      -4.226 -37.932 -16.796  1.00  0.00     0.217 HD
ENDBRANCH  29  32
BRANCH  30  34
HETATM   34  O2  UNL     1      -5.367 -39.414 -13.984  1.00  0.00    -0.358 OA
ATOM     35  H2  UNL     1      -4.421 -39.351 -13.912  1.00  0.00     0.217 HD
ENDBRANCH  30  34
ENDBRANCH  19  26
ENDBRANCH   8   9
ENDBRANCH   7   8
ENDBRANCH   6   7
ENDBRANCH   3   6
TORSDOF 7
ENDMDL
MODEL 2
REMARK VINA RESULT: -7.934028388      1.869      4.534
REMARK  7 active torsions:
REMARK  status: ('A' for Active; 'I' for Inactive)
REMARK    1  A    between atoms: C3_3  and  C5_6 
REMARK    2  A    between atoms: C5_6  and  S1_7 
REMARK    3  A    between atoms: S1_7  and  S2_8 
REMARK    4  A    between atoms: S2_8  and  C6_9 
REMARK    5  A    between atoms: C13_16  and  C14_17 
REMARK    6  A    between atoms: C17_20  and  O1_21 
REMARK    7  A    between atoms: C18_23  and  O2_24 
ROOT
HETATM    1  C1  UNL     1     -14.290 -40.323 -10.612  1.00  0.00     0.013 C 
HETATM    2  C2  UNL     1     -15.222 -40.192 -11.384  1.00  0.00    -0.095 C 
HETATM    3  C3  UNL     1     -16.315 -40.035 -12.326  1.00  0.00     0.086 C 
HETATM    4  C4  UNL     1     -17.565 -40.579 -11.548  1.00  0.00     0.042 C 
HETATM    5 BR1  UNL     1     -16.113 -41.196 -13.823  1.00  0.00    -0.071 Br
ENDROOT
BRANCH   3   6
HETATM    6  C5  UNL     1     -16.645 -38.622 -12.637  1.00  0.00     0.120 C 
BRANCH   6   7
HETATM    7  S1  UNL     1     -16.359 -38.017 -14.274  1.00  0.00    -0.094 SA
BRANCH   7   8
HETATM    8  S2  UNL     1     -14.354 -37.799 -14.852  1.00  0.00    -0.087 SA
BRANCH   8   9
HETATM    9  C6  UNL     1     -13.185 -38.727 -13.886  1.00  0.00     0.099 C 
HETATM   10  C7  UNL     1     -12.359 -37.881 -12.948  1.00  0.00    -0.033 A 
HETATM   11  C8  UNL     1     -13.039 -37.152 -12.006  1.00  0.00     0.048 A 
HETATM   12  C12 UNL     1     -10.990 -37.809 -13.006  1.00  0.00    -0.038 A 
HETATM   13  C9  UNL     1     -12.373 -36.339 -11.108  1.00  0.00     0.105 A 
HETATM   14  C10 UNL     1     -11.005 -36.261 -11.158  1.00  0.00     0.105 A 
HETATM   15  O6  UNL     1     -12.812 -35.507 -10.070  1.00  0.00    -0.323 OA
HETATM   16  C11 UNL     1     -10.328 -37.004 -12.114  1.00  0.00     0.048 A 
HETATM   17  O5  UNL     1     -10.607 -35.387 -10.158  1.00  0.00    -0.323 OA
HETATM   18  C24 UNL     1     -11.710 -34.896  -9.429  1.00  0.00     0.352 A 
HETATM   19  C13 UNL     1     -10.218 -38.592 -13.997  1.00  0.00     0.066 C 
HETATM   20  C20 UNL     1     -11.085 -38.730 -15.213  1.00  0.00     0.106 C 
HETATM   21  C21 UNL     1     -10.561 -39.646 -16.229  1.00  0.00     0.264 C 
HETATM   22  C23 UNL     1     -12.268 -39.578 -14.707  1.00  0.00     0.043 C 
HETATM   23  O3  UNL     1      -9.396 -39.868 -16.626  1.00  0.00    -0.265 OA
HETATM   24  O4  UNL     1     -11.659 -40.319 -16.761  1.00  0.00    -0.321 OA
HETATM   25  C22 UNL     1     -12.827 -40.043 -16.000  1.00  0.00     0.185 C 
BRANCH  19  26
HETATM   26  C14 UNL     1      -8.867 -38.085 -14.262  1.00  0.00    -0.046 A 
HETATM   27  C15 UNL     1      -8.765 -36.818 -14.830  1.00  0.00     0.011 A 
HETATM   28  C16 UNL     1      -7.581 -36.232 -15.126  1.00  0.00     0.040 A 
HETATM   29  C17 UNL     1      -6.405 -36.935 -14.849  1.00  0.00     0.098 A 
HETATM   30  C18 UNL     1      -6.472 -38.184 -14.291  1.00  0.00     0.099 A 
HETATM   31  C19 UNL     1      -7.714 -38.766 -13.994  1.00  0.00     0.047 A 
BRANCH  29  32
HETATM   32  O1  UNL     1      -5.172 -36.387 -15.130  1.00  0.00    -0.358 OA
ATOM     33  H1  UNL     1      -4.379 -36.761 -14.765  1.00  0.00     0.217 HD
ENDBRANCH  29  32
BRANCH  30  34
HETATM   34  O2  UNL     1      -5.344 -38.943 -13.987  1.00  0.00    -0.358 OA
ATOM     35  H2  UNL     1      -4.684 -39.172 -14.632  1.00  0.00     0.217 HD
ENDBRANCH  30  34
ENDBRANCH  19  26
ENDBRANCH   8   9
ENDBRANCH   7   8
ENDBRANCH   6   7
ENDBRANCH   3   6
TORSDOF 7
ENDMDL
MODEL 3
REMARK VINA RESULT: -7.753595882      3.358      9.056
REMARK  7 active torsions:
REMARK  status: ('A' for Active; 'I' for Inactive)
REMARK    1  A    between atoms: C3_3  and  C5_6 
REMARK    2  A    between atoms: C5_6  and  S1_7 
REMARK    3  A    between atoms: S1_7  and  S2_8 
REMARK    4  A    between atoms: S2_8  and  C6_9 
REMARK    5  A    between atoms: C13_16  and  C14_17 
REMARK    6  A    between atoms: C17_20  and  O1_21 
REMARK    7  A    between atoms: C18_23  and  O2_24 
ROOT
HETATM    1  C1  UNL     1      -6.828 -34.176 -16.237  1.00  0.00     0.013 C 
HETATM    2  C2  UNL     1      -6.584 -35.368 -16.247  1.00  0.00    -0.095 C 
HETATM    3  C3  UNL     1      -6.317 -36.795 -16.254  1.00  0.00     0.086 C 
HETATM    4  C4  UNL     1      -4.962 -36.923 -17.036  1.00  0.00     0.042 C 
HETATM    5 BR1  UNL     1      -7.595 -37.733 -17.311  1.00  0.00    -0.071 Br
ENDROOT
BRANCH   3   6
HETATM    6  C5  UNL     1      -6.039 -37.364 -14.912  1.00  0.00     0.120 C 
BRANCH   6   7
HETATM    7  S1  UNL     1      -7.203 -37.089 -13.609  1.00  0.00    -0.094 SA
BRANCH   7   8
HETATM    8  S2  UNL     1      -8.930 -38.281 -13.633  1.00  0.00    -0.087 SA
BRANCH   8   9
HETATM    9  C6  UNL     1     -10.444 -37.408 -13.961  1.00  0.00     0.099 C 
HETATM   10  C7  UNL     1     -11.136 -36.897 -12.721  1.00  0.00    -0.033 A 
HETATM   11  C8  UNL     1     -10.433 -36.024 -11.931  1.00  0.00     0.048 A 
HETATM   12  C12 UNL     1     -12.406 -37.270 -12.359  1.00  0.00    -0.038 A 
HETATM   13  C9  UNL     1     -10.977 -35.508 -10.770  1.00  0.00     0.105 A 
HETATM   14  C10 UNL     1     -12.245 -35.875 -10.400  1.00  0.00     0.105 A 
HETATM   15  O6  UNL     1     -10.488 -34.620  -9.802  1.00  0.00    -0.323 OA
HETATM   16  C11 UNL     1     -12.947 -36.758 -11.208  1.00  0.00     0.048 A 
HETATM   17  O5  UNL     1     -12.533 -35.218  -9.213  1.00  0.00    -0.323 OA
HETATM   18  C24 UNL     1     -11.462 -34.397  -8.802  1.00  0.00     0.352 A 
HETATM   19  C13 UNL     1     -13.204 -38.198 -13.192  1.00  0.00     0.066 C 
HETATM   20  C20 UNL     1     -12.234 -39.127 -13.859  1.00  0.00     0.106 C 
HETATM   21  C21 UNL     1     -12.829 -39.994 -14.880  1.00  0.00     0.264 C 
HETATM   22  C23 UNL     1     -11.424 -38.191 -14.777  1.00  0.00     0.043 C 
HETATM   23  O3  UNL     1     -13.935 -40.575 -14.933  1.00  0.00    -0.265 OA
HETATM   24  O4  UNL     1     -11.892 -40.100 -15.906  1.00  0.00    -0.321 OA
HETATM   25  C22 UNL     1     -10.824 -39.185 -15.701  1.00  0.00     0.185 C 
BRANCH  19  26
HETATM   26  C14 UNL     1     -14.304 -38.865 -12.487  1.00  0.00    -0.046 A 
HETATM   27  C15 UNL     1     -13.961 -39.755 -11.472  1.00  0.00     0.011 A 
HETATM   28  C16 UNL     1     -14.876 -40.436 -10.744  1.00  0.00     0.040 A 
HETATM   29  C17 UNL     1     -16.231 -40.237 -11.026  1.00  0.00     0.098 A 
HETATM   30  C18 UNL     1     -16.600 -39.368 -12.018  1.00  0.00     0.099 A 
HETATM   31  C19 UNL     1     -15.629 -38.675 -12.756  1.00  0.00     0.047 A 
BRANCH  29  32
HETATM   32  O1  UNL     1     -17.205 -40.905 -10.316  1.00  0.00    -0.358 OA
ATOM     33  H1  UNL     1     -17.315 -41.844 -10.407  1.00  0.00     0.217 HD
ENDBRANCH  29  32
BRANCH  30  34
HETATM   34  O2  UNL     1     -17.929 -39.118 -12.354  1.00  0.00    -0.358 OA
ATOM     35  H2  UNL     1     -18.184 -38.540 -13.062  1.00  0.00     0.217 HD
ENDBRANCH  30  34
ENDBRANCH  19  26
ENDBRANCH   8   9
ENDBRANCH   7   8
ENDBRANCH   6   7
ENDBRANCH   3   6
TORSDOF 7
ENDMDL
MODEL 4
REMARK VINA RESULT: -7.675101636      2.902      4.610
REMARK  7 active torsions:
REMARK  status: ('A' for Active; 'I' for Inactive)
REMARK    1  A    between atoms: C3_3  and  C5_6 
REMARK    2  A    between atoms: C5_6  and  S1_7 
REMARK    3  A    between atoms: S1_7  and  S2_8 
REMARK    4  A    between atoms: S2_8  and  C6_9 
REMARK    5  A    between atoms: C13_16  and  C14_17 
REMARK    6  A    between atoms: C17_20  and  O1_21 
REMARK    7  A    between atoms: C18_23  and  O2_24 
ROOT
HETATM    1  C1  UNL     1     -15.821 -43.544  -8.696  1.00  0.00     0.013 C 
HETATM    2  C2  UNL     1     -15.773 -42.841  -9.688  1.00  0.00    -0.095 C 
HETATM    3  C3  UNL     1     -15.717 -41.981 -10.855  1.00  0.00     0.086 C 
HETATM    4  C4  UNL     1     -15.146 -42.911 -11.983  1.00  0.00     0.042 C 
HETATM    5 BR1  UNL     1     -14.419 -40.603 -10.639  1.00  0.00    -0.071 Br
ENDROOT
BRANCH   3   6
HETATM    6  C5  UNL     1     -17.047 -41.551 -11.353  1.00  0.00     0.120 C 
BRANCH   6   7
HETATM    7  S1  UNL     1     -17.346 -39.828 -11.614  1.00  0.00    -0.094 SA
BRANCH   7   8
HETATM    8  S2  UNL     1     -18.095 -39.284 -13.497  1.00  0.00    -0.087 SA
BRANCH   8   9
HETATM    9  C6  UNL     1     -16.869 -38.754 -14.672  1.00  0.00     0.099 C 
HETATM   10  C7  UNL     1     -15.680 -39.679 -14.774  1.00  0.00    -0.033 A 
HETATM   11  C8  UNL     1     -15.931 -40.976 -15.143  1.00  0.00     0.048 A 
HETATM   12  C12 UNL     1     -14.393 -39.284 -14.511  1.00  0.00    -0.038 A 
HETATM   13  C9  UNL     1     -14.910 -41.901 -15.256  1.00  0.00     0.105 A 
HETATM   14  C10 UNL     1     -13.622 -41.516 -14.995  1.00  0.00     0.105 A 
HETATM   15  O6  UNL     1     -14.890 -43.258 -15.607  1.00  0.00    -0.323 OA
HETATM   16  C11 UNL     1     -13.380 -40.201 -14.623  1.00  0.00     0.048 A 
HETATM   17  O5  UNL     1     -12.814 -42.628 -15.183  1.00  0.00    -0.323 OA
HETATM   18  C24 UNL     1     -13.565 -43.751 -15.588  1.00  0.00     0.352 A 
HETATM   19  C13 UNL     1     -14.078 -37.890 -14.124  1.00  0.00     0.066 C 
HETATM   20  C20 UNL     1     -15.267 -37.367 -13.374  1.00  0.00     0.106 C 
HETATM   21  C21 UNL     1     -15.216 -35.933 -13.082  1.00  0.00     0.264 C 
HETATM   22  C23 UNL     1     -16.379 -37.359 -14.440  1.00  0.00     0.043 C 
HETATM   23  O3  UNL     1     -14.266 -35.184 -12.762  1.00  0.00    -0.265 OA
HETATM   24  O4  UNL     1     -16.516 -35.452 -13.223  1.00  0.00    -0.321 OA
HETATM   25  C22 UNL     1     -17.355 -36.447 -13.793  1.00  0.00     0.185 C 
BRANCH  19  26
HETATM   26  C14 UNL     1     -12.795 -37.720 -13.434  1.00  0.00    -0.046 A 
HETATM   27  C15 UNL     1     -12.768 -37.991 -12.068  1.00  0.00     0.011 A 
HETATM   28  C16 UNL     1     -11.652 -37.873 -11.312  1.00  0.00     0.040 A 
HETATM   29  C17 UNL     1     -10.470 -37.458 -11.932  1.00  0.00     0.098 A 
HETATM   30  C18 UNL     1     -10.464 -37.183 -13.273  1.00  0.00     0.099 A 
HETATM   31  C19 UNL     1     -11.637 -37.315 -14.033  1.00  0.00     0.047 A 
BRANCH  29  32
HETATM   32  O1  UNL     1      -9.304 -37.321 -11.210  1.00  0.00    -0.358 OA
ATOM     33  H1  UNL     1      -9.151 -36.550 -10.676  1.00  0.00     0.217 HD
ENDBRANCH  29  32
BRANCH  30  34
HETATM   34  O2  UNL     1      -9.326 -36.766 -13.959  1.00  0.00    -0.358 OA
ATOM     35  H2  UNL     1      -8.498 -36.586 -13.529  1.00  0.00     0.217 HD
ENDBRANCH  30  34
ENDBRANCH  19  26
ENDBRANCH   8   9
ENDBRANCH   7   8
ENDBRANCH   6   7
ENDBRANCH   3   6
TORSDOF 7
ENDMDL
MODEL 5
REMARK VINA RESULT: -7.635034674      7.789     10.301
REMARK  7 active torsions:
REMARK  status: ('A' for Active; 'I' for Inactive)
REMARK    1  A    between atoms: C3_3  and  C5_6 
REMARK    2  A    between atoms: C5_6  and  S1_7 
REMARK    3  A    between atoms: S1_7  and  S2_8 
REMARK    4  A    between atoms: S2_8  and  C6_9 
REMARK    5  A    between atoms: C13_16  and  C14_17 
REMARK    6  A    between atoms: C17_20  and  O1_21 
REMARK    7  A    between atoms: C18_23  and  O2_24 
ROOT
HETATM    1  C1  UNL     1     -17.932 -37.387 -13.160  1.00  0.00     0.013 C 
HETATM    2  C2  UNL     1     -18.201 -38.549 -12.918  1.00  0.00    -0.095 C 
HETATM    3  C3  UNL     1     -18.539 -39.926 -12.612  1.00  0.00     0.086 C 
HETATM    4  C4  UNL     1     -18.078 -40.721 -13.884  1.00  0.00     0.042 C 
HETATM    5 BR1  UNL     1     -20.426 -40.173 -12.524  1.00  0.00    -0.071 Br
ENDROOT
BRANCH   3   6
HETATM    6  C5  UNL     1     -17.754 -40.506 -11.494  1.00  0.00     0.120 C 
BRANCH   6   7
HETATM    7  S1  UNL     1     -15.988 -40.455 -11.574  1.00  0.00    -0.094 SA
BRANCH   7   8
HETATM    8  S2  UNL     1     -15.025 -42.242 -12.106  1.00  0.00    -0.087 SA
BRANCH   8   9
HETATM    9  C6  UNL     1     -16.035 -43.702 -12.004  1.00  0.00     0.099 C 
HETATM   10  C7  UNL     1     -15.696 -44.600 -10.839  1.00  0.00    -0.033 A 
HETATM   11  C8  UNL     1     -15.800 -44.056  -9.584  1.00  0.00     0.048 A 
HETATM   12  C12 UNL     1     -15.291 -45.902 -10.984  1.00  0.00    -0.038 A 
HETATM   13  C9  UNL     1     -15.503 -44.795  -8.454  1.00  0.00     0.105 A 
HETATM   14  C10 UNL     1     -15.097 -46.097  -8.589  1.00  0.00     0.105 A 
HETATM   15  O6  UNL     1     -15.524 -44.492  -7.086  1.00  0.00    -0.323 OA
HETATM   16  C11 UNL     1     -14.996 -46.636  -9.864  1.00  0.00     0.048 A 
HETATM   17  O5  UNL     1     -14.869 -46.591  -7.313  1.00  0.00    -0.323 OA
HETATM   18  C24 UNL     1     -15.142 -45.621  -6.326  1.00  0.00     0.352 A 
HETATM   19  C13 UNL     1     -15.180 -46.532 -12.320  1.00  0.00     0.066 C 
HETATM   20  C20 UNL     1     -14.809 -45.444 -13.283  1.00  0.00     0.106 C 
HETATM   21  C21 UNL     1     -14.848 -45.844 -14.693  1.00  0.00     0.264 C 
HETATM   22  C23 UNL     1     -16.040 -44.517 -13.259  1.00  0.00     0.043 C 
HETATM   23  O3  UNL     1     -14.533 -46.912 -15.261  1.00  0.00    -0.265 OA
HETATM   24  O4  UNL     1     -15.339 -44.750 -15.402  1.00  0.00    -0.321 OA
HETATM   25  C22 UNL     1     -15.815 -43.751 -14.510  1.00  0.00     0.185 C 
BRANCH  19  26
HETATM   26  C14 UNL     1     -14.317 -47.716 -12.371  1.00  0.00    -0.046 A 
HETATM   27  C15 UNL     1     -14.944 -48.958 -12.418  1.00  0.00     0.011 A 
HETATM   28  C16 UNL     1     -14.267 -50.129 -12.467  1.00  0.00     0.040 A 
HETATM   29  C17 UNL     1     -12.870 -50.088 -12.470  1.00  0.00     0.098 A 
HETATM   30  C18 UNL     1     -12.223 -48.882 -12.423  1.00  0.00     0.099 A 
HETATM   31  C19 UNL     1     -12.951 -47.684 -12.373  1.00  0.00     0.047 A 
BRANCH  29  32
HETATM   32  O1  UNL     1     -12.130 -51.250 -12.518  1.00  0.00    -0.358 OA
ATOM     33  H1  UNL     1     -11.315 -51.327 -12.037  1.00  0.00     0.217 HD
ENDBRANCH  29  32
BRANCH  30  34
HETATM   34  O2  UNL     1     -10.835 -48.764 -12.423  1.00  0.00    -0.358 OA
ATOM     35  H2  UNL     1     -10.363 -48.199 -13.024  1.00  0.00     0.217 HD
ENDBRANCH  30  34
ENDBRANCH  19  26
ENDBRANCH   8   9
ENDBRANCH   7   8
ENDBRANCH   6   7
ENDBRANCH   3   6
TORSDOF 7
ENDMDL
