MODEL 1
REMARK VINA RESULT: -8.238081631      0.000      0.000
REMARK  8 active torsions:
REMARK  status: ('A' for Active; 'I' for Inactive)
REMARK    1  A    between atoms: C2_2  and  C3_3 
REMARK    2  A    between atoms: C6_6  and  C7_7 
REMARK    3  A    between atoms: C7_7  and  O2_9 
REMARK    4  A    between atoms: O2_9  and  C8_10 
REMARK    5  A    between atoms: C10_12  and  O3_14 
REMARK    6  A    between atoms: C20_24  and  O4_25 
REMARK    7  A    between atoms: C22_29  and  O5_30 
REMARK    8  A    between atoms: C24_32  and  O6_33 
ROOT
HETATM    1  C8  UNL     1      -6.695 -37.599 -14.185  1.00  0.00     0.279 C 
HETATM    2  C9  UNL     1      -5.760 -38.747 -14.224  1.00  0.00     0.099 C 
HETATM    3  C10 UNL     1      -5.984 -39.639 -15.415  1.00  0.00     0.063 C 
HETATM    4  C11 UNL     1      -7.390 -39.725 -15.906  1.00  0.00     0.046 C 
HETATM    5  C12 UNL     1      -5.061 -39.426 -16.519  1.00  0.00     0.029 C 
HETATM    6  C13 UNL     1      -3.619 -39.136 -16.041  1.00  0.00     0.009 C 
HETATM    7  C14 UNL     1      -2.987 -39.393 -17.397  1.00  0.00     0.005 C 
HETATM    8  C15 UNL     1      -3.845 -38.377 -18.199  1.00  0.00    -0.010 C 
HETATM    9  C16 UNL     1      -3.175 -37.072 -17.928  1.00  0.00     0.010 C 
HETATM   10  C17 UNL     1      -5.260 -38.489 -17.602  1.00  0.00     0.035 C 
HETATM   11  C18 UNL     1      -5.788 -37.168 -17.422  1.00  0.00     0.019 A 
HETATM   12  C19 UNL     1      -6.171 -36.325 -16.357  1.00  0.00     0.116 A 
HETATM   13  C20 UNL     1      -6.580 -35.025 -16.553  1.00  0.00     0.120 A 
HETATM   14  C21 UNL     1      -6.635 -34.491 -17.808  1.00  0.00     0.083 A 
HETATM   15 BR1  UNL     1      -7.206 -32.677 -18.061  1.00  0.00    -0.045 Br
HETATM   16  C22 UNL     1      -6.273 -35.288 -18.861  1.00  0.00     0.122 A 
HETATM   17  C24 UNL     1      -5.854 -36.614 -18.683  1.00  0.00     0.112 A 
HETATM   18  O7  UNL     1      -6.224 -36.585 -15.017  1.00  0.00    -0.316 OA
ENDROOT
BRANCH   1  19
HETATM   19  O2  UNL     1      -6.842 -37.114 -12.843  1.00  0.00    -0.285 OA
BRANCH  19  20
HETATM   20  C7  UNL     1      -7.893 -36.316 -12.436  1.00  0.00     0.297 C 
HETATM   21  O1  UNL     1      -7.606 -35.119 -12.137  1.00  0.00    -0.259 OA
BRANCH  20  22
HETATM   22  C6  UNL     1      -9.260 -36.802 -12.347  1.00  0.00     0.061 A 
HETATM   23  C5  UNL     1      -9.646 -38.109 -12.841  1.00  0.00     0.018 A 
HETATM   24  C4  UNL     1     -10.911 -38.478 -12.724  1.00  0.00     0.006 A 
HETATM   25  C3  UNL     1     -11.958 -37.640 -12.120  1.00  0.00     0.150 A 
HETATM   26  O8  UNL     1     -11.503 -36.397 -11.670  1.00  0.00    -0.353 OA
HETATM   27  C26 UNL     1     -10.171 -36.029 -11.803  1.00  0.00     0.153 A 
BRANCH  25  28
HETATM   28  C2  UNL     1     -12.642 -38.328 -10.956  1.00  0.00     0.032 C 
HETATM   29  C1  UNL     1     -13.684 -39.296 -11.469  1.00  0.00     0.008 C 
ENDBRANCH  25  28
ENDBRANCH  20  22
ENDBRANCH  19  20
ENDBRANCH   1  19
BRANCH   3  30
HETATM   30  O3  UNL     1      -5.718 -40.951 -14.900  1.00  0.00    -0.390 OA
ATOM     31  H3  UNL     1      -4.773 -40.961 -14.801  1.00  0.00     0.210 HD
ENDBRANCH   3  30
BRANCH  13  32
HETATM   32  O4  UNL     1      -6.949 -34.216 -15.485  1.00  0.00    -0.357 OA
ATOM     33  H4  UNL     1      -7.652 -33.582 -15.566  1.00  0.00     0.218 HD
ENDBRANCH  13  32
BRANCH  17  34
HETATM   34  O6  UNL     1      -5.541 -37.252 -19.870  1.00  0.00    -0.352 OA
HETATM   35  C25 UNL     1      -6.498 -37.986 -20.592  1.00  0.00     0.210 C 
ENDBRANCH  17  34
BRANCH  16  36
HETATM   36  O5  UNL     1      -6.339 -34.724 -20.115  1.00  0.00    -0.352 OA
HETATM   37  C23 UNL     1      -7.459 -34.595 -20.930  1.00  0.00     0.210 C 
ENDBRANCH  16  36
TORSDOF 8
ENDMDL
MODEL 2
REMARK VINA RESULT: -8.183933548      7.966     10.590
REMARK  8 active torsions:
REMARK  status: ('A' for Active; 'I' for Inactive)
REMARK    1  A    between atoms: C2_2  and  C3_3 
REMARK    2  A    between atoms: C6_6  and  C7_7 
REMARK    3  A    between atoms: C7_7  and  O2_9 
REMARK    4  A    between atoms: O2_9  and  C8_10 
REMARK    5  A    between atoms: C10_12  and  O3_14 
REMARK    6  A    between atoms: C20_24  and  O4_25 
REMARK    7  A    between atoms: C22_29  and  O5_30 
REMARK    8  A    between atoms: C24_32  and  O6_33 
ROOT
HETATM    1  C8  UNL     1     -15.803 -39.734 -12.068  1.00  0.00     0.279 C 
HETATM    2  C9  UNL     1     -14.416 -39.407 -11.663  1.00  0.00     0.099 C 
HETATM    3  C10 UNL     1     -13.566 -38.945 -12.814  1.00  0.00     0.063 C 
HETATM    4  C11 UNL     1     -13.902 -39.533 -14.145  1.00  0.00     0.046 C 
HETATM    5  C12 UNL     1     -13.401 -37.503 -12.912  1.00  0.00     0.029 C 
HETATM    6  C13 UNL     1     -13.246 -36.828 -11.529  1.00  0.00     0.009 C 
HETATM    7  C14 UNL     1     -12.712 -35.522 -12.090  1.00  0.00     0.005 C 
HETATM    8  C15 UNL     1     -13.894 -35.236 -13.055  1.00  0.00    -0.010 C 
HETATM    9  C16 UNL     1     -14.932 -34.643 -12.163  1.00  0.00     0.010 C 
HETATM   10  C17 UNL     1     -14.279 -36.611 -13.634  1.00  0.00     0.035 C 
HETATM   11  C18 UNL     1     -15.708 -36.727 -13.628  1.00  0.00     0.019 A 
HETATM   12  C19 UNL     1     -16.698 -37.507 -12.991  1.00  0.00     0.116 A 
HETATM   13  C20 UNL     1     -18.044 -37.283 -13.171  1.00  0.00     0.120 A 
HETATM   14  C21 UNL     1     -18.485 -36.284 -13.989  1.00  0.00     0.083 A 
HETATM   15 BR1  UNL     1     -20.366 -35.988 -14.225  1.00  0.00    -0.045 Br
HETATM   16  C22 UNL     1     -17.546 -35.514 -14.623  1.00  0.00     0.122 A 
HETATM   17  C24 UNL     1     -16.171 -35.724 -14.454  1.00  0.00     0.112 A 
HETATM   18  O7  UNL     1     -16.557 -38.564 -12.138  1.00  0.00    -0.316 OA
ENDROOT
BRANCH   1  19
HETATM   19  O2  UNL     1     -16.395 -40.653 -11.139  1.00  0.00    -0.285 OA
BRANCH  19  20
HETATM   20  C7  UNL     1     -16.578 -41.995 -11.414  1.00  0.00     0.297 C 
HETATM   21  O1  UNL     1     -17.218 -42.268 -12.473  1.00  0.00    -0.259 OA
BRANCH  20  22
HETATM   22  C6  UNL     1     -16.074 -43.049 -10.551  1.00  0.00     0.061 A 
HETATM   23  C5  UNL     1     -15.786 -42.824  -9.148  1.00  0.00     0.018 A 
HETATM   24  C4  UNL     1     -15.328 -43.836  -8.428  1.00  0.00     0.006 A 
HETATM   25  C3  UNL     1     -15.094 -45.185  -8.965  1.00  0.00     0.150 A 
HETATM   26  O8  UNL     1     -15.397 -45.318 -10.324  1.00  0.00    -0.353 OA
HETATM   27  C26 UNL     1     -15.875 -44.242 -11.061  1.00  0.00     0.153 A 
BRANCH  25  28
HETATM   28  C2  UNL     1     -15.874 -46.244  -8.215  1.00  0.00     0.032 C 
HETATM   29  C1  UNL     1     -15.503 -46.218  -6.749  1.00  0.00     0.008 C 
ENDBRANCH  25  28
ENDBRANCH  20  22
ENDBRANCH  19  20
ENDBRANCH   1  19
BRANCH   3  30
HETATM   30  O3  UNL     1     -12.275 -39.491 -12.513  1.00  0.00    -0.390 OA
ATOM     31  H3  UNL     1     -12.118 -40.092 -13.232  1.00  0.00     0.210 HD
ENDBRANCH   3  30
BRANCH  13  32
HETATM   32  O4  UNL     1     -18.997 -38.066 -12.528  1.00  0.00    -0.357 OA
ATOM     33  H4  UNL     1     -19.827 -38.271 -12.942  1.00  0.00     0.218 HD
ENDBRANCH  13  32
BRANCH  17  34
HETATM   34  O6  UNL     1     -15.391 -34.848 -15.188  1.00  0.00    -0.352 OA
HETATM   35  C25 UNL     1     -14.967 -35.148 -16.494  1.00  0.00     0.210 C 
ENDBRANCH  17  34
BRANCH  16  36
HETATM   36  O5  UNL     1     -18.019 -34.514 -15.442  1.00  0.00    -0.352 OA
HETATM   37  C23 UNL     1     -18.440 -34.626 -16.764  1.00  0.00     0.210 C 
ENDBRANCH  16  36
TORSDOF 8
ENDMDL
MODEL 3
REMARK VINA RESULT: -7.953767403      1.185      1.526
REMARK  8 active torsions:
REMARK  status: ('A' for Active; 'I' for Inactive)
REMARK    1  A    between atoms: C2_2  and  C3_3 
REMARK    2  A    between atoms: C6_6  and  C7_7 
REMARK    3  A    between atoms: C7_7  and  O2_9 
REMARK    4  A    between atoms: O2_9  and  C8_10 
REMARK    5  A    between atoms: C10_12  and  O3_14 
REMARK    6  A    between atoms: C20_24  and  O4_25 
REMARK    7  A    between atoms: C22_29  and  O5_30 
REMARK    8  A    between atoms: C24_32  and  O6_33 
ROOT
HETATM    1  C8  UNL     1      -7.586 -37.380 -14.360  1.00  0.00     0.279 C 
HETATM    2  C9  UNL     1      -6.855 -38.618 -14.720  1.00  0.00     0.099 C 
HETATM    3  C10 UNL     1      -7.249 -39.154 -16.069  1.00  0.00     0.063 C 
HETATM    4  C11 UNL     1      -8.660 -38.900 -16.482  1.00  0.00     0.046 C 
HETATM    5  C12 UNL     1      -6.327 -38.830 -17.148  1.00  0.00     0.029 C 
HETATM    6  C13 UNL     1      -4.847 -38.890 -16.703  1.00  0.00     0.009 C 
HETATM    7  C14 UNL     1      -4.296 -38.912 -18.118  1.00  0.00     0.005 C 
HETATM    8  C15 UNL     1      -4.991 -37.613 -18.609  1.00  0.00    -0.010 C 
HETATM    9  C16 UNL     1      -4.109 -36.531 -18.083  1.00  0.00     0.010 C 
HETATM   10  C17 UNL     1      -6.392 -37.643 -17.970  1.00  0.00     0.035 C 
HETATM   11  C18 UNL     1      -6.690 -36.337 -17.457  1.00  0.00     0.019 A 
HETATM   12  C19 UNL     1      -6.905 -35.723 -16.205  1.00  0.00     0.116 A 
HETATM   13  C20 UNL     1      -7.098 -34.367 -16.070  1.00  0.00     0.120 A 
HETATM   14  C21 UNL     1      -7.091 -33.547 -17.161  1.00  0.00     0.083 A 
HETATM   15 BR1  UNL     1      -7.360 -31.659 -16.952  1.00  0.00    -0.045 Br
HETATM   16  C22 UNL     1      -6.889 -34.117 -18.390  1.00  0.00     0.122 A 
HETATM   17  C24 UNL     1      -6.690 -35.495 -18.549  1.00  0.00     0.112 A 
HETATM   18  O7  UNL     1      -6.972 -36.283 -14.960  1.00  0.00    -0.316 OA
ENDROOT
BRANCH   1  19
HETATM   19  O2  UNL     1      -7.621 -37.213 -12.935  1.00  0.00    -0.285 OA
BRANCH  19  20
HETATM   20  C7  UNL     1      -8.559 -36.433 -12.287  1.00  0.00     0.297 C 
HETATM   21  O1  UNL     1      -8.231 -35.228 -12.069  1.00  0.00    -0.259 OA
BRANCH  20  22
HETATM   22  C6  UNL     1      -9.853 -36.943 -11.869  1.00  0.00     0.061 A 
HETATM   23  C5  UNL     1     -10.899 -36.073 -11.368  1.00  0.00     0.018 A 
HETATM   24  C4  UNL     1     -12.051 -36.615 -11.007  1.00  0.00     0.006 A 
HETATM   25  C3  UNL     1     -12.339 -38.056 -11.083  1.00  0.00     0.150 A 
HETATM   26  O8  UNL     1     -11.280 -38.824 -11.576  1.00  0.00    -0.353 OA
HETATM   27  C26 UNL     1     -10.079 -38.234 -11.949  1.00  0.00     0.153 A 
BRANCH  25  28
HETATM   28  C2  UNL     1     -13.556 -38.352 -11.934  1.00  0.00     0.032 C 
HETATM   29  C1  UNL     1     -14.164 -39.674 -11.524  1.00  0.00     0.008 C 
ENDBRANCH  25  28
ENDBRANCH  20  22
ENDBRANCH  19  20
ENDBRANCH   1  19
BRANCH   3  30
HETATM   30  O3  UNL     1      -7.193 -40.575 -15.889  1.00  0.00    -0.390 OA
ATOM     31  H3  UNL     1      -6.405 -40.700 -15.372  1.00  0.00     0.210 HD
ENDBRANCH   3  30
BRANCH  13  32
HETATM   32  O4  UNL     1      -7.305 -33.788 -14.822  1.00  0.00    -0.357 OA
ATOM     33  H4  UNL     1      -6.713 -33.128 -14.481  1.00  0.00     0.218 HD
ENDBRANCH  13  32
BRANCH  17  34
HETATM   34  O6  UNL     1      -6.514 -35.872 -19.868  1.00  0.00    -0.352 OA
HETATM   35  C25 UNL     1      -7.596 -36.245 -20.685  1.00  0.00     0.210 C 
ENDBRANCH  17  34
BRANCH  16  36
HETATM   36  O5  UNL     1      -6.887 -33.267 -19.472  1.00  0.00    -0.352 OA
HETATM   37  C23 UNL     1      -7.988 -32.777 -20.169  1.00  0.00     0.210 C 
ENDBRANCH  16  36
TORSDOF 8
ENDMDL
MODEL 4
REMARK VINA RESULT: -7.918828529      2.754      4.603
REMARK  8 active torsions:
REMARK  status: ('A' for Active; 'I' for Inactive)
REMARK    1  A    between atoms: C2_2  and  C3_3 
REMARK    2  A    between atoms: C6_6  and  C7_7 
REMARK    3  A    between atoms: C7_7  and  O2_9 
REMARK    4  A    between atoms: O2_9  and  C8_10 
REMARK    5  A    between atoms: C10_12  and  O3_14 
REMARK    6  A    between atoms: C20_24  and  O4_25 
REMARK    7  A    between atoms: C22_29  and  O5_30 
REMARK    8  A    between atoms: C24_32  and  O6_33 
ROOT
HETATM    1  C8  UNL     1      -8.209 -38.685 -14.853  1.00  0.00     0.279 C 
HETATM    2  C9  UNL     1      -8.174 -37.214 -15.024  1.00  0.00     0.099 C 
HETATM    3  C10 UNL     1      -6.812 -36.630 -14.770  1.00  0.00     0.063 C 
HETATM    4  C11 UNL     1      -5.977 -37.347 -13.762  1.00  0.00     0.046 C 
HETATM    5  C12 UNL     1      -6.040 -36.337 -15.968  1.00  0.00     0.029 C 
HETATM    6  C13 UNL     1      -6.912 -35.773 -17.114  1.00  0.00     0.009 C 
HETATM    7  C14 UNL     1      -5.734 -35.255 -17.920  1.00  0.00     0.005 C 
HETATM    8  C15 UNL     1      -4.965 -36.601 -18.013  1.00  0.00    -0.010 C 
HETATM    9  C16 UNL     1      -5.653 -37.314 -19.127  1.00  0.00     0.010 C 
HETATM   10  C17 UNL     1      -5.154 -37.265 -16.635  1.00  0.00     0.035 C 
HETATM   11  C18 UNL     1      -5.459 -38.652 -16.833  1.00  0.00     0.019 A 
HETATM   12  C19 UNL     1      -6.541 -39.532 -16.618  1.00  0.00     0.116 A 
HETATM   13  C20 UNL     1      -6.515 -40.848 -17.020  1.00  0.00     0.120 A 
HETATM   14  C21 UNL     1      -5.421 -41.365 -17.651  1.00  0.00     0.083 A 
HETATM   15 BR1  UNL     1      -5.405 -43.203 -18.205  1.00  0.00    -0.045 Br
HETATM   16  C22 UNL     1      -4.354 -40.535 -17.868  1.00  0.00     0.122 A 
HETATM   17  C24 UNL     1      -4.360 -39.193 -17.468  1.00  0.00     0.112 A 
HETATM   18  O7  UNL     1      -7.745 -39.300 -16.014  1.00  0.00    -0.316 OA
ENDROOT
BRANCH   1  19
HETATM   19  O2  UNL     1      -9.542 -39.126 -14.555  1.00  0.00    -0.285 OA
BRANCH  19  20
HETATM   20  C7  UNL     1     -10.611 -38.264 -14.415  1.00  0.00     0.297 C 
HETATM   21  O1  UNL     1     -11.187 -37.905 -15.486  1.00  0.00    -0.259 OA
BRANCH  20  22
HETATM   22  C6  UNL     1     -11.068 -37.782 -13.122  1.00  0.00     0.061 A 
HETATM   23  C5  UNL     1     -10.444 -38.197 -11.881  1.00  0.00     0.018 A 
HETATM   24  C4  UNL     1     -10.919 -37.714 -10.745  1.00  0.00     0.006 A 
HETATM   25  C3  UNL     1     -12.048 -36.775 -10.661  1.00  0.00     0.150 A 
HETATM   26  O8  UNL     1     -12.592 -36.425 -11.900  1.00  0.00    -0.353 OA
HETATM   27  C26 UNL     1     -12.079 -36.944 -13.081  1.00  0.00     0.153 A 
BRANCH  25  28
HETATM   28  C2  UNL     1     -11.675 -35.493  -9.945  1.00  0.00     0.032 C 
HETATM   29  C1  UNL     1     -12.873 -34.573  -9.873  1.00  0.00     0.008 C 
ENDBRANCH  25  28
ENDBRANCH  20  22
ENDBRANCH  19  20
ENDBRANCH   1  19
BRANCH   3  30
HETATM   30  O3  UNL     1      -7.101 -35.372 -14.146  1.00  0.00    -0.390 OA
ATOM     31  H3  UNL     1      -6.252 -35.080 -13.837  1.00  0.00     0.210 HD
ENDBRANCH   3  30
BRANCH  13  32
HETATM   32  O4  UNL     1      -7.598 -41.692 -16.798  1.00  0.00    -0.357 OA
ATOM     33  H4  UNL     1      -7.474 -42.582 -16.491  1.00  0.00     0.218 HD
ENDBRANCH  13  32
BRANCH  17  34
HETATM   34  O6  UNL     1      -3.186 -38.527 -17.770  1.00  0.00    -0.352 OA
HETATM   35  C25 UNL     1      -1.993 -38.769 -17.066  1.00  0.00     0.210 C 
ENDBRANCH  17  34
BRANCH  16  36
HETATM   36  O5  UNL     1      -3.264 -41.084 -18.506  1.00  0.00    -0.352 OA
HETATM   37  C23 UNL     1      -2.949 -41.016 -19.859  1.00  0.00     0.210 C 
ENDBRANCH  16  36
TORSDOF 8
ENDMDL
MODEL 5
REMARK VINA RESULT: -7.815389536      2.725      4.604
REMARK  8 active torsions:
REMARK  status: ('A' for Active; 'I' for Inactive)
REMARK    1  A    between atoms: C2_2  and  C3_3 
REMARK    2  A    between atoms: C6_6  and  C7_7 
REMARK    3  A    between atoms: C7_7  and  O2_9 
REMARK    4  A    between atoms: O2_9  and  C8_10 
REMARK    5  A    between atoms: C10_12  and  O3_14 
REMARK    6  A    between atoms: C20_24  and  O4_25 
REMARK    7  A    between atoms: C22_29  and  O5_30 
REMARK    8  A    between atoms: C24_32  and  O6_33 
ROOT
HETATM    1  C8  UNL     1      -7.959 -38.271 -15.181  1.00  0.00     0.279 C 
HETATM    2  C9  UNL     1      -7.909 -36.837 -15.552  1.00  0.00     0.099 C 
HETATM    3  C10 UNL     1      -6.530 -36.251 -15.426  1.00  0.00     0.063 C 
HETATM    4  C11 UNL     1      -5.670 -36.840 -14.358  1.00  0.00     0.046 C 
HETATM    5  C12 UNL     1      -5.797 -36.139 -16.678  1.00  0.00     0.029 C 
HETATM    6  C13 UNL     1      -6.701 -35.719 -17.860  1.00  0.00     0.009 C 
HETATM    7  C14 UNL     1      -5.546 -35.338 -18.769  1.00  0.00     0.005 C 
HETATM    8  C15 UNL     1      -4.800 -36.699 -18.702  1.00  0.00    -0.010 C 
HETATM    9  C16 UNL     1      -5.538 -37.544 -19.685  1.00  0.00     0.010 C 
HETATM   10  C17 UNL     1      -4.949 -37.166 -17.241  1.00  0.00     0.035 C 
HETATM   11  C18 UNL     1      -5.281 -38.560 -17.237  1.00  0.00     0.019 A 
HETATM   12  C19 UNL     1      -6.368 -39.382 -16.868  1.00  0.00     0.116 A 
HETATM   13  C20 UNL     1      -6.375 -40.741 -17.087  1.00  0.00     0.120 A 
HETATM   14  C21 UNL     1      -5.311 -41.360 -17.677  1.00  0.00     0.083 A 
HETATM   15 BR1  UNL     1      -5.342 -43.256 -17.975  1.00  0.00    -0.045 Br
HETATM   16  C22 UNL     1      -4.241 -40.588 -18.041  1.00  0.00     0.122 A 
HETATM   17  C24 UNL     1      -4.213 -39.203 -17.828  1.00  0.00     0.112 A 
HETATM   18  O7  UNL     1      -7.545 -39.047 -16.261  1.00  0.00    -0.316 OA
ENDROOT
BRANCH   1  19
HETATM   19  O2  UNL     1      -9.286 -38.641 -14.781  1.00  0.00    -0.285 OA
BRANCH  19  20
HETATM   20  C7  UNL     1      -9.682 -38.732 -13.461  1.00  0.00     0.297 C 
HETATM   21  O1  UNL     1      -9.397 -39.813 -12.863  1.00  0.00    -0.259 OA
BRANCH  20  22
HETATM   22  C6  UNL     1     -10.386 -37.661 -12.776  1.00  0.00     0.061 A 
HETATM   23  C5  UNL     1     -11.787 -37.380 -13.022  1.00  0.00     0.018 A 
HETATM   24  C4  UNL     1     -12.356 -36.388 -12.359  1.00  0.00     0.006 A 
HETATM   25  C3  UNL     1     -11.653 -35.545 -11.379  1.00  0.00     0.150 A 
HETATM   26  O8  UNL     1     -10.308 -35.881 -11.201  1.00  0.00    -0.353 OA
HETATM   27  C26 UNL     1      -9.729 -36.927 -11.908  1.00  0.00     0.153 A 
BRANCH  25  28
HETATM   28  C2  UNL     1     -12.318 -35.571 -10.019  1.00  0.00     0.032 C 
HETATM   29  C1  UNL     1     -11.570 -34.672  -9.061  1.00  0.00     0.008 C 
ENDBRANCH  25  28
ENDBRANCH  20  22
ENDBRANCH  19  20
ENDBRANCH   1  19
BRANCH   3  30
HETATM   30  O3  UNL     1      -6.778 -34.914 -14.970  1.00  0.00    -0.390 OA
ATOM     31  H3  UNL     1      -6.208 -34.830 -14.216  1.00  0.00     0.210 HD
ENDBRANCH   3  30
BRANCH  13  32
HETATM   32  O4  UNL     1      -7.461 -41.525 -16.716  1.00  0.00    -0.357 OA
ATOM     33  H4  UNL     1      -8.090 -41.831 -17.359  1.00  0.00     0.218 HD
ENDBRANCH  13  32
BRANCH  17  34
HETATM   34  O6  UNL     1      -3.041 -38.608 -18.258  1.00  0.00    -0.352 OA
HETATM   35  C25 UNL     1      -1.879 -38.598 -17.465  1.00  0.00     0.210 C 
ENDBRANCH  17  34
BRANCH  16  36
HETATM   36  O5  UNL     1      -3.183 -41.239 -18.634  1.00  0.00    -0.352 OA
HETATM   37  C23 UNL     1      -2.865 -41.286 -19.988  1.00  0.00     0.210 C 
ENDBRANCH  16  36
TORSDOF 8
ENDMDL
