MODEL 1
REMARK VINA RESULT: -7.959081997      0.000      0.000
REMARK  6 active torsions:
REMARK  status: ('A' for Active; 'I' for Inactive)
REMARK    1  A    between atoms: N2_17  and  C12_18 
REMARK    2  A    between atoms: C12_18  and  C13_19 
REMARK    3  A    between atoms: C16_22  and  S1_23 
REMARK    4  A    between atoms: S1_23  and  C17_26 
REMARK    5  A    between atoms: C17_26  and  C18_27 
REMARK    6  A    between atoms: C18_27  and  O6_28 
ROOT
HETATM    1  C1  UNL     1     -22.563 -37.189 -16.079  1.00  0.00     0.038 C 
HETATM    2  C2  UNL     1     -21.244 -37.054 -16.033  1.00  0.00    -0.001 C 
HETATM    3  N1  UNL     1     -20.721 -35.825 -15.548  1.00  0.00    -0.393 N 
ATOM      4  H1  UNL     1     -21.242 -34.976 -15.768  1.00  0.00     0.159 HD
HETATM    5  C3  UNL     1     -19.512 -35.677 -14.768  1.00  0.00     0.121 C 
HETATM    6  C4  UNL     1     -18.311 -35.329 -15.621  1.00  0.00     0.046 C 
HETATM    7  C5  UNL     1     -17.080 -35.642 -14.786  1.00  0.00     0.169 C 
HETATM    8  O1  UNL     1     -16.006 -35.748 -15.628  1.00  0.00    -0.389 OA
HETATM    9  C6  UNL     1     -14.786 -35.870 -15.012  1.00  0.00     0.193 C 
HETATM   10  C7  UNL     1     -14.882 -36.227 -13.548  1.00  0.00     0.193 C 
HETATM   11  O2  UNL     1     -13.569 -36.406 -13.090  1.00  0.00    -0.387 OA
HETATM   12  C8  UNL     1     -13.562 -37.384 -12.111  1.00  0.00     0.193 C 
HETATM   13  C9  UNL     1     -12.949 -38.678 -12.576  1.00  0.00     0.193 C 
HETATM   14  O3  UNL     1     -13.658 -39.782 -12.163  1.00  0.00    -0.387 OA
HETATM   15  C10 UNL     1     -14.184 -40.532 -13.215  1.00  0.00     0.198 C 
HETATM   16  C11 UNL     1     -15.676 -40.375 -13.235  1.00  0.00     0.299 C 
HETATM   17  N2  UNL     1     -16.374 -41.498 -12.604  1.00  0.00     0.094 N 
HETATM   18  C21 UNL     1     -17.778 -41.289 -12.829  1.00  0.00     0.273 C 
HETATM   19  C22 UNL     1     -18.389 -40.195 -11.993  1.00  0.00     0.030 C 
HETATM   20  C23 UNL     1     -19.877 -40.125 -12.112  1.00  0.00     0.002 C 
HETATM   21  C24 UNL     1     -20.443 -40.469 -13.443  1.00  0.00     0.000 C 
HETATM   22  C25 UNL     1     -20.851 -39.253 -14.254  1.00  0.00     0.001 C 
HETATM   23  C26 UNL     1     -19.892 -39.064 -15.388  1.00  0.00     0.010 C 
HETATM   24  C27 UNL     1     -20.412 -38.190 -16.495  1.00  0.00     0.030 C 
HETATM   25  C28 UNL     1     -21.167 -39.070 -17.466  1.00  0.00     0.016 C 
ENDROOT
BRANCH  17  26
HETATM   26  C12 UNL     1     -15.967 -41.588 -11.240  1.00  0.00     0.311 C 
BRANCH  26  27
HETATM   27  C13 UNL     1     -15.876 -42.968 -10.707  1.00  0.00    -0.030 A 
HETATM   28  C14 UNL     1     -15.779 -43.177  -9.348  1.00  0.00     0.010 A 
HETATM   29  C15 UNL     1     -15.684 -44.468  -8.824  1.00  0.00     0.024 A 
HETATM   30  C16 UNL     1     -15.684 -45.572  -9.655  1.00  0.00     0.059 A 
HETATM   31  C19 UNL     1     -15.780 -45.362 -11.004  1.00  0.00     0.024 A 
HETATM   32  C20 UNL     1     -15.874 -44.074 -11.514  1.00  0.00     0.010 A 
BRANCH  30  33
HETATM   33  S1  UNL     1     -15.559 -47.147  -8.930  1.00  0.00     0.177 S 
HETATM   34  O4  UNL     1     -15.030 -47.022  -7.532  1.00  0.00    -0.223 OA
HETATM   35  O5  UNL     1     -16.948 -47.747  -8.865  1.00  0.00    -0.223 OA
BRANCH  33  36
HETATM   36  C17 UNL     1     -14.557 -48.248  -9.857  1.00  0.00     0.171 C 
BRANCH  36  37
HETATM   37  C18 UNL     1     -14.839 -49.704  -9.487  1.00  0.00     0.179 C 
BRANCH  37  38
HETATM   38  O6  UNL     1     -15.029 -49.829  -8.110  1.00  0.00    -0.400 OA
ATOM     39  H6  UNL     1     -14.375 -50.408  -7.735  1.00  0.00     0.209 HD
ENDBRANCH  37  38
ENDBRANCH  36  37
ENDBRANCH  33  36
ENDBRANCH  30  33
ENDBRANCH  26  27
ENDBRANCH  17  26
TORSDOF 6
ENDMDL
MODEL 2
REMARK VINA RESULT: -7.937790760      0.959      1.105
REMARK  6 active torsions:
REMARK  status: ('A' for Active; 'I' for Inactive)
REMARK    1  A    between atoms: N2_17  and  C12_18 
REMARK    2  A    between atoms: C12_18  and  C13_19 
REMARK    3  A    between atoms: C16_22  and  S1_23 
REMARK    4  A    between atoms: S1_23  and  C17_26 
REMARK    5  A    between atoms: C17_26  and  C18_27 
REMARK    6  A    between atoms: C18_27  and  O6_28 
ROOT
HETATM    1  C1  UNL     1     -22.268 -37.220 -16.257  1.00  0.00     0.038 C 
HETATM    2  C2  UNL     1     -20.952 -37.086 -16.164  1.00  0.00    -0.001 C 
HETATM    3  N1  UNL     1     -20.445 -35.848 -15.685  1.00  0.00    -0.393 N 
ATOM      4  H1  UNL     1     -20.955 -35.003 -15.942  1.00  0.00     0.159 HD
HETATM    5  C3  UNL     1     -19.266 -35.685 -14.863  1.00  0.00     0.121 C 
HETATM    6  C4  UNL     1     -18.033 -35.357 -15.678  1.00  0.00     0.046 C 
HETATM    7  C5  UNL     1     -16.834 -35.654 -14.791  1.00  0.00     0.169 C 
HETATM    8  O1  UNL     1     -15.730 -35.779 -15.589  1.00  0.00    -0.389 OA
HETATM    9  C6  UNL     1     -14.534 -35.891 -14.925  1.00  0.00     0.193 C 
HETATM   10  C7  UNL     1     -14.686 -36.217 -13.458  1.00  0.00     0.193 C 
HETATM   11  O2  UNL     1     -13.391 -36.388 -12.947  1.00  0.00    -0.387 OA
HETATM   12  C8  UNL     1     -13.424 -37.345 -11.949  1.00  0.00     0.193 C 
HETATM   13  C9  UNL     1     -12.796 -38.649 -12.363  1.00  0.00     0.193 C 
HETATM   14  O3  UNL     1     -13.523 -39.744 -11.954  1.00  0.00    -0.387 OA
HETATM   15  C10 UNL     1     -14.011 -40.515 -13.010  1.00  0.00     0.198 C 
HETATM   16  C11 UNL     1     -15.500 -40.356 -13.089  1.00  0.00     0.299 C 
HETATM   17  N2  UNL     1     -16.224 -41.465 -12.462  1.00  0.00     0.094 N 
HETATM   18  C21 UNL     1     -17.619 -41.258 -12.744  1.00  0.00     0.273 C 
HETATM   19  C22 UNL     1     -18.258 -40.146 -11.955  1.00  0.00     0.030 C 
HETATM   20  C23 UNL     1     -19.740 -40.076 -12.131  1.00  0.00     0.002 C 
HETATM   21  C24 UNL     1     -20.257 -40.447 -13.476  1.00  0.00     0.000 C 
HETATM   22  C25 UNL     1     -20.630 -39.248 -14.326  1.00  0.00     0.001 C 
HETATM   23  C26 UNL     1     -19.629 -39.084 -15.427  1.00  0.00     0.010 C 
HETATM   24  C27 UNL     1     -20.106 -38.233 -16.570  1.00  0.00     0.030 C 
HETATM   25  C28 UNL     1     -20.825 -39.132 -17.551  1.00  0.00     0.016 C 
ENDROOT
BRANCH  17  26
HETATM   26  C12 UNL     1     -15.869 -41.527 -11.082  1.00  0.00     0.311 C 
BRANCH  26  27
HETATM   27  C13 UNL     1     -15.804 -42.895 -10.516  1.00  0.00    -0.030 A 
HETATM   28  C14 UNL     1     -15.691 -43.073  -9.155  1.00  0.00     0.010 A 
HETATM   29  C15 UNL     1     -15.619 -44.354  -8.600  1.00  0.00     0.024 A 
HETATM   30  C16 UNL     1     -15.658 -45.477  -9.405  1.00  0.00     0.059 A 
HETATM   31  C19 UNL     1     -15.770 -45.297 -10.757  1.00  0.00     0.024 A 
HETATM   32  C20 UNL     1     -15.841 -44.020 -11.297  1.00  0.00     0.010 A 
BRANCH  30  33
HETATM   33  S1  UNL     1     -15.560 -47.036  -8.643  1.00  0.00     0.177 S 
HETATM   34  O4  UNL     1     -14.646 -47.930  -9.428  1.00  0.00    -0.223 OA
HETATM   35  O5  UNL     1     -14.975 -46.849  -7.258  1.00  0.00    -0.223 OA
BRANCH  33  36
HETATM   36  C17 UNL     1     -17.126 -47.801  -8.449  1.00  0.00     0.171 C 
BRANCH  36  37
HETATM   37  C18 UNL     1     -17.112 -48.820  -7.310  1.00  0.00     0.179 C 
BRANCH  37  38
HETATM   38  O6  UNL     1     -17.250 -48.178  -6.078  1.00  0.00    -0.400 OA
ATOM     39  H6  UNL     1     -18.169 -48.080  -5.855  1.00  0.00     0.209 HD
ENDBRANCH  37  38
ENDBRANCH  36  37
ENDBRANCH  33  36
ENDBRANCH  30  33
ENDBRANCH  26  27
ENDBRANCH  17  26
TORSDOF 6
ENDMDL
MODEL 3
REMARK VINA RESULT: -7.810704535      0.972      1.409
REMARK  6 active torsions:
REMARK  status: ('A' for Active; 'I' for Inactive)
REMARK    1  A    between atoms: N2_17  and  C12_18 
REMARK    2  A    between atoms: C12_18  and  C13_19 
REMARK    3  A    between atoms: C16_22  and  S1_23 
REMARK    4  A    between atoms: S1_23  and  C17_26 
REMARK    5  A    between atoms: C17_26  and  C18_27 
REMARK    6  A    between atoms: C18_27  and  O6_28 
ROOT
HETATM    1  C1  UNL     1     -22.478 -37.367 -16.155  1.00  0.00     0.038 C 
HETATM    2  C2  UNL     1     -21.165 -37.182 -16.115  1.00  0.00    -0.001 C 
HETATM    3  N1  UNL     1     -20.688 -35.926 -15.652  1.00  0.00    -0.393 N 
ATOM      4  H1  UNL     1     -21.241 -35.101 -15.885  1.00  0.00     0.159 HD
HETATM    5  C3  UNL     1     -19.483 -35.719 -14.878  1.00  0.00     0.121 C 
HETATM    6  C4  UNL     1     -18.299 -35.341 -15.741  1.00  0.00     0.046 C 
HETATM    7  C5  UNL     1     -17.054 -35.592 -14.905  1.00  0.00     0.169 C 
HETATM    8  O1  UNL     1     -15.979 -35.672 -15.748  1.00  0.00    -0.389 OA
HETATM    9  C6  UNL     1     -14.754 -35.738 -15.134  1.00  0.00     0.193 C 
HETATM   10  C7  UNL     1     -14.833 -36.074 -13.663  1.00  0.00     0.193 C 
HETATM   11  O2  UNL     1     -13.513 -36.195 -13.207  1.00  0.00    -0.387 OA
HETATM   12  C8  UNL     1     -13.467 -37.155 -12.212  1.00  0.00     0.193 C 
HETATM   13  C9  UNL     1     -12.806 -38.432 -12.656  1.00  0.00     0.193 C 
HETATM   14  O3  UNL     1     -13.472 -39.556 -12.222  1.00  0.00    -0.387 OA
HETATM   15  C10 UNL     1     -13.972 -40.343 -13.260  1.00  0.00     0.198 C 
HETATM   16  C11 UNL     1     -15.468 -40.242 -13.278  1.00  0.00     0.299 C 
HETATM   17  N2  UNL     1     -16.122 -41.380 -12.626  1.00  0.00     0.094 N 
HETATM   18  C21 UNL     1     -17.534 -41.228 -12.850  1.00  0.00     0.273 C 
HETATM   19  C22 UNL     1     -18.183 -40.143 -12.031  1.00  0.00     0.030 C 
HETATM   20  C23 UNL     1     -19.673 -40.132 -12.146  1.00  0.00     0.002 C 
HETATM   21  C24 UNL     1     -20.230 -40.519 -13.470  1.00  0.00     0.000 C 
HETATM   22  C25 UNL     1     -20.685 -39.333 -14.300  1.00  0.00     0.001 C 
HETATM   23  C26 UNL     1     -19.737 -39.128 -15.440  1.00  0.00     0.010 C 
HETATM   24  C27 UNL     1     -20.292 -38.293 -16.560  1.00  0.00     0.030 C 
HETATM   25  C28 UNL     1     -21.015 -39.218 -17.514  1.00  0.00     0.016 C 
ENDROOT
BRANCH  17  26
HETATM   26  C12 UNL     1     -15.708 -41.432 -11.262  1.00  0.00     0.311 C 
BRANCH  26  27
HETATM   27  C13 UNL     1     -15.716 -42.785 -10.660  1.00  0.00    -0.030 A 
HETATM   28  C14 UNL     1     -15.777 -43.899 -11.468  1.00  0.00     0.010 A 
HETATM   29  C15 UNL     1     -15.794 -45.185 -10.922  1.00  0.00     0.024 A 
HETATM   30  C16 UNL     1     -15.751 -45.374  -9.554  1.00  0.00     0.059 A 
HETATM   31  C19 UNL     1     -15.691 -44.266  -8.753  1.00  0.00     0.024 A 
HETATM   32  C20 UNL     1     -15.674 -42.993  -9.306  1.00  0.00     0.010 A 
BRANCH  30  33
HETATM   33  S1  UNL     1     -15.780 -47.003  -8.949  1.00  0.00     0.177 S 
HETATM   34  O4  UNL     1     -16.983 -47.723  -9.482  1.00  0.00    -0.223 OA
HETATM   35  O5  UNL     1     -14.537 -47.712  -9.446  1.00  0.00    -0.223 OA
BRANCH  33  36
HETATM   36  C17 UNL     1     -15.759 -47.081  -7.197  1.00  0.00     0.171 C 
BRANCH  36  37
HETATM   37  C18 UNL     1     -16.469 -48.335  -6.686  1.00  0.00     0.179 C 
BRANCH  37  38
HETATM   38  O6  UNL     1     -17.839 -48.102  -6.560  1.00  0.00    -0.400 OA
ATOM     39  H6  UNL     1     -18.252 -48.074  -7.416  1.00  0.00     0.209 HD
ENDBRANCH  37  38
ENDBRANCH  36  37
ENDBRANCH  33  36
ENDBRANCH  30  33
ENDBRANCH  26  27
ENDBRANCH  17  26
TORSDOF 6
ENDMDL
MODEL 4
REMARK VINA RESULT: -7.801739966      1.358      1.715
REMARK  6 active torsions:
REMARK  status: ('A' for Active; 'I' for Inactive)
REMARK    1  A    between atoms: N2_17  and  C12_18 
REMARK    2  A    between atoms: C12_18  and  C13_19 
REMARK    3  A    between atoms: C16_22  and  S1_23 
REMARK    4  A    between atoms: S1_23  and  C17_26 
REMARK    5  A    between atoms: C17_26  and  C18_27 
REMARK    6  A    between atoms: C18_27  and  O6_28 
ROOT
HETATM    1  C1  UNL     1     -22.079 -36.156 -17.203  1.00  0.00     0.038 C 
HETATM    2  C2  UNL     1     -20.759 -36.229 -17.092  1.00  0.00    -0.001 C 
HETATM    3  N1  UNL     1     -20.061 -35.051 -16.712  1.00  0.00    -0.393 N 
ATOM      4  H1  UNL     1     -20.424 -34.162 -17.054  1.00  0.00     0.159 HD
HETATM    5  C3  UNL     1     -18.878 -35.008 -15.882  1.00  0.00     0.121 C 
HETATM    6  C4  UNL     1     -17.601 -34.959 -16.694  1.00  0.00     0.046 C 
HETATM    7  C5  UNL     1     -16.475 -35.365 -15.757  1.00  0.00     0.169 C 
HETATM    8  O1  UNL     1     -15.399 -35.739 -16.515  1.00  0.00    -0.389 OA
HETATM    9  C6  UNL     1     -14.243 -35.982 -15.817  1.00  0.00     0.193 C 
HETATM   10  C7  UNL     1     -14.459 -36.145 -14.331  1.00  0.00     0.193 C 
HETATM   11  O2  UNL     1     -13.213 -36.477 -13.778  1.00  0.00    -0.387 OA
HETATM   12  C8  UNL     1     -13.410 -37.322 -12.701  1.00  0.00     0.193 C 
HETATM   13  C9  UNL     1     -13.000 -38.742 -12.984  1.00  0.00     0.193 C 
HETATM   14  O3  UNL     1     -13.899 -39.664 -12.497  1.00  0.00    -0.387 OA
HETATM   15  C10 UNL     1     -14.498 -40.438 -13.491  1.00  0.00     0.198 C 
HETATM   16  C11 UNL     1     -15.940 -40.047 -13.619  1.00  0.00     0.299 C 
HETATM   17  N2  UNL     1     -16.841 -40.963 -12.913  1.00  0.00     0.094 N 
HETATM   18  C21 UNL     1     -18.181 -40.560 -13.244  1.00  0.00     0.273 C 
HETATM   19  C22 UNL     1     -18.636 -39.292 -12.570  1.00  0.00     0.030 C 
HETATM   20  C23 UNL     1     -20.086 -38.999 -12.785  1.00  0.00     0.002 C 
HETATM   21  C24 UNL     1     -20.645 -39.401 -14.104  1.00  0.00     0.000 C 
HETATM   22  C25 UNL     1     -20.811 -38.239 -15.065  1.00  0.00     0.001 C 
HETATM   23  C26 UNL     1     -19.787 -38.340 -16.153  1.00  0.00     0.010 C 
HETATM   24  C27 UNL     1     -20.109 -37.530 -17.377  1.00  0.00     0.030 C 
HETATM   25  C28 UNL     1     -20.957 -38.385 -18.291  1.00  0.00     0.016 C 
ENDROOT
BRANCH  17  26
HETATM   26  C12 UNL     1     -16.512 -40.957 -11.525  1.00  0.00     0.311 C 
BRANCH  26  27
HETATM   27  C13 UNL     1     -16.232 -42.291 -10.946  1.00  0.00    -0.030 A 
HETATM   28  C14 UNL     1     -16.205 -43.404 -11.758  1.00  0.00     0.010 A 
HETATM   29  C15 UNL     1     -15.952 -44.674 -11.233  1.00  0.00     0.024 A 
HETATM   30  C16 UNL     1     -15.722 -44.847  -9.881  1.00  0.00     0.059 A 
HETATM   31  C19 UNL     1     -15.749 -43.741  -9.076  1.00  0.00     0.024 A 
HETATM   32  C20 UNL     1     -16.002 -42.484  -9.609  1.00  0.00     0.010 A 
BRANCH  30  33
HETATM   33  S1  UNL     1     -15.417 -46.457  -9.300  1.00  0.00     0.177 S 
HETATM   34  O4  UNL     1     -16.570 -47.350  -9.649  1.00  0.00    -0.223 OA
HETATM   35  O5  UNL     1     -14.177 -46.982  -9.995  1.00  0.00    -0.223 OA
BRANCH  33  36
HETATM   36  C17 UNL     1     -15.113 -46.514  -7.574  1.00  0.00     0.171 C 
BRANCH  36  37
HETATM   37  C18 UNL     1     -16.205 -47.291  -6.841  1.00  0.00     0.179 C 
BRANCH  37  38
HETATM   38  O6  UNL     1     -15.901 -47.396  -5.482  1.00  0.00    -0.400 OA
ATOM     39  H6  UNL     1     -16.594 -47.013  -4.956  1.00  0.00     0.209 HD
ENDBRANCH  37  38
ENDBRANCH  36  37
ENDBRANCH  33  36
ENDBRANCH  30  33
ENDBRANCH  26  27
ENDBRANCH  17  26
TORSDOF 6
ENDMDL
MODEL 5
REMARK VINA RESULT: -7.645799490      1.517      1.744
REMARK  6 active torsions:
REMARK  status: ('A' for Active; 'I' for Inactive)
REMARK    1  A    between atoms: N2_17  and  C12_18 
REMARK    2  A    between atoms: C12_18  and  C13_19 
REMARK    3  A    between atoms: C16_22  and  S1_23 
REMARK    4  A    between atoms: S1_23  and  C17_26 
REMARK    5  A    between atoms: C17_26  and  C18_27 
REMARK    6  A    between atoms: C18_27  and  O6_28 
ROOT
HETATM    1  C1  UNL     1     -24.117 -37.816 -15.703  1.00  0.00     0.038 C 
HETATM    2  C2  UNL     1     -22.842 -37.471 -15.815  1.00  0.00    -0.001 C 
HETATM    3  N1  UNL     1     -22.468 -36.169 -15.385  1.00  0.00    -0.393 N 
ATOM      4  H1  UNL     1     -23.142 -35.417 -15.533  1.00  0.00     0.159 HD
HETATM    5  C3  UNL     1     -21.213 -35.820 -14.756  1.00  0.00     0.121 C 
HETATM    6  C4  UNL     1     -20.196 -35.293 -15.746  1.00  0.00     0.046 C 
HETATM    7  C5  UNL     1     -18.839 -35.395 -15.069  1.00  0.00     0.169 C 
HETATM    8  O1  UNL     1     -17.872 -35.336 -16.036  1.00  0.00    -0.389 OA
HETATM    9  C6  UNL     1     -16.582 -35.254 -15.573  1.00  0.00     0.193 C 
HETATM   10  C7  UNL     1     -16.442 -35.607 -14.111  1.00  0.00     0.193 C 
HETATM   11  O2  UNL     1     -15.071 -35.568 -13.817  1.00  0.00    -0.387 OA
HETATM   12  C8  UNL     1     -14.789 -36.522 -12.857  1.00  0.00     0.193 C 
HETATM   13  C9  UNL     1     -14.037 -37.705 -13.404  1.00  0.00     0.193 C 
HETATM   14  O3  UNL     1     -14.503 -38.905 -12.919  1.00  0.00    -0.387 OA
HETATM   15  C10 UNL     1     -15.026 -39.741 -13.906  1.00  0.00     0.198 C 
HETATM   16  C11 UNL     1     -16.514 -39.825 -13.744  1.00  0.00     0.299 C 
HETATM   17  N2  UNL     1     -16.941 -41.039 -13.044  1.00  0.00     0.094 N 
HETATM   18  C21 UNL     1     -18.378 -41.061 -13.095  1.00  0.00     0.273 C 
HETATM   19  C22 UNL     1     -19.051 -40.071 -12.181  1.00  0.00     0.030 C 
HETATM   20  C23 UNL     1     -20.534 -40.242 -12.118  1.00  0.00     0.002 C 
HETATM   21  C24 UNL     1     -21.195 -40.686 -13.375  1.00  0.00     0.000 C 
HETATM   22  C25 UNL     1     -21.887 -39.560 -14.118  1.00  0.00     0.001 C 
HETATM   23  C26 UNL     1     -21.116 -39.231 -15.359  1.00  0.00     0.010 C 
HETATM   24  C27 UNL     1     -21.900 -38.463 -16.386  1.00  0.00     0.030 C 
HETATM   25  C28 UNL     1     -22.615 -39.463 -17.267  1.00  0.00     0.016 C 
ENDROOT
BRANCH  17  26
HETATM   26  C12 UNL     1     -16.363 -41.049 -11.740  1.00  0.00     0.311 C 
BRANCH  26  27
HETATM   27  C13 UNL     1     -16.157 -42.397 -11.160  1.00  0.00    -0.030 A 
HETATM   28  C14 UNL     1     -16.039 -42.550  -9.796  1.00  0.00     0.010 A 
HETATM   29  C15 UNL     1     -15.835 -43.810  -9.228  1.00  0.00     0.024 A 
HETATM   30  C16 UNL     1     -15.746 -44.939 -10.021  1.00  0.00     0.059 A 
HETATM   31  C19 UNL     1     -15.864 -44.784 -11.375  1.00  0.00     0.024 A 
HETATM   32  C20 UNL     1     -16.066 -43.527 -11.929  1.00  0.00     0.010 A 
BRANCH  30  33
HETATM   33  S1  UNL     1     -15.489 -46.471  -9.242  1.00  0.00     0.177 S 
HETATM   34  O4  UNL     1     -16.613 -47.406  -9.577  1.00  0.00    -0.223 OA
HETATM   35  O5  UNL     1     -14.200 -47.060  -9.776  1.00  0.00    -0.223 OA
BRANCH  33  36
HETATM   36  C17 UNL     1     -15.319 -46.333  -7.503  1.00  0.00     0.171 C 
BRANCH  36  37
HETATM   37  C18 UNL     1     -16.238 -47.312  -6.773  1.00  0.00     0.179 C 
BRANCH  37  38
HETATM   38  O6  UNL     1     -15.854 -47.438  -5.437  1.00  0.00    -0.400 OA
ATOM     39  H6  UNL     1     -16.223 -48.228  -5.059  1.00  0.00     0.209 HD
ENDBRANCH  37  38
ENDBRANCH  36  37
ENDBRANCH  33  36
ENDBRANCH  30  33
ENDBRANCH  26  27
ENDBRANCH  17  26
TORSDOF 6
ENDMDL
