MODEL 1
REMARK VINA RESULT: -7.666863639      0.000      0.000
REMARK  8 active torsions:
REMARK  status: ('A' for Active; 'I' for Inactive)
REMARK    1  A    between atoms: C2_2  and  O1_3 
REMARK    2  A    between atoms: O1_3  and  C3_4 
REMARK       I    between atoms: C3_4  and  N1_6 
REMARK    3  A    between atoms: N1_6  and  C4_8 
REMARK    4  A    between atoms: C4_8  and  C5_9 
REMARK    5  A    between atoms: C4_8  and  C9_16 
REMARK    6  A    between atoms: C8_13  and  O3_14 
REMARK    7  A    between atoms: N2_23  and  C15_24 
REMARK    8  A    between atoms: C19_28  and  C20_29 
ROOT
HETATM    1  C9  UNL     1     -15.478 -37.325 -13.890  1.00  0.00     0.054 C 
HETATM    2  C10 UNL     1     -15.546 -37.045 -15.386  1.00  0.00     0.036 C 
HETATM    3  C11 UNL     1     -14.198 -37.138 -16.055  1.00  0.00     0.168 C 
HETATM    4  O4  UNL     1     -13.232 -36.597 -15.202  1.00  0.00    -0.388 OA
HETATM    5  C12 UNL     1     -13.770 -35.714 -14.292  1.00  0.00     0.208 C 
HETATM    6  C13 UNL     1     -14.489 -36.518 -13.144  1.00  0.00     0.110 C 
HETATM    7  C14 UNL     1     -13.433 -37.410 -12.584  1.00  0.00     0.168 C 
HETATM    8  N2  UNL     1     -12.432 -36.839 -11.702  1.00  0.00    -0.334 N 
HETATM    9  C26 UNL     1     -12.590 -35.842 -10.698  1.00  0.00     0.285 C 
HETATM   10  O5  UNL     1     -11.902 -35.927  -9.710  1.00  0.00    -0.265 OA
HETATM   11  C27 UNL     1     -13.523 -34.706 -10.738  1.00  0.00     0.205 C 
HETATM   12  F1  UNL     1     -13.216 -33.675  -9.880  1.00  0.00    -0.198 F 
HETATM   13  C28 UNL     1     -14.594 -34.565 -11.483  1.00  0.00     0.184 C 
HETATM   14  O6  UNL     1     -15.027 -35.533 -12.398  1.00  0.00    -0.344 OA
ENDROOT
BRANCH   1  15
HETATM   15  C4  UNL     1     -16.877 -37.539 -13.430  1.00  0.00     0.137 C 
BRANCH  15  16
HETATM   16  N1  UNL     1     -17.823 -37.180 -14.431  1.00  0.00    -0.327 N 
HETATM   17  C3  UNL     1     -18.715 -36.136 -14.503  1.00  0.00     0.361 C 
HETATM   18  O2  UNL     1     -18.879 -35.221 -13.605  1.00  0.00    -0.238 OA
ATOM     19  H1  UNL     1     -17.843 -37.807 -15.236  1.00  0.00     0.165 HD
BRANCH  17  20
HETATM   20  O1  UNL     1     -19.574 -35.944 -15.591  1.00  0.00    -0.304 OA
BRANCH  20  21
HETATM   21  C2  UNL     1     -19.548 -34.817 -16.430  1.00  0.00     0.176 C 
HETATM   22  C1  UNL     1     -18.161 -34.596 -16.962  1.00  0.00     0.034 C 
ENDBRANCH  20  21
ENDBRANCH  17  20
ENDBRANCH  15  16
BRANCH  15  23
HETATM   23  C5  UNL     1     -17.102 -38.937 -12.865  1.00  0.00     0.039 A 
HETATM   24  S1  UNL     1     -15.949 -40.181 -12.696  1.00  0.00    -0.101 SA
HETATM   25  C6  UNL     1     -16.935 -41.459 -12.193  1.00  0.00     0.053 A 
HETATM   26  C7  UNL     1     -18.167 -40.882 -12.161  1.00  0.00     0.044 A 
HETATM   27  C8  UNL     1     -18.251 -39.571 -12.508  1.00  0.00     0.081 A 
BRANCH  27  28
HETATM   28  O3  UNL     1     -19.532 -38.927 -12.467  1.00  0.00    -0.360 OA
ATOM     29  H3  UNL     1     -20.058 -38.854 -11.679  1.00  0.00     0.217 HD
ENDBRANCH  27  28
ENDBRANCH  15  23
ENDBRANCH   1  15
BRANCH   8  30
HETATM   30  C15 UNL     1     -11.109 -37.326 -11.840  1.00  0.00     0.032 C 
HETATM   31  C16 UNL     1     -10.762 -38.435 -10.816  1.00  0.00     0.039 C 
HETATM   32  C17 UNL     1     -11.080 -38.122 -13.168  1.00  0.00     0.031 C 
HETATM   33  C18 UNL     1      -9.737 -38.792 -13.364  1.00  0.00     0.008 C 
HETATM   34  C19 UNL     1      -8.572 -37.853 -13.339  1.00  0.00    -0.007 C 
HETATM   35  C24 UNL     1      -9.178 -36.441 -13.193  1.00  0.00     0.008 C 
HETATM   36  C25 UNL     1      -9.973 -36.427 -11.899  1.00  0.00     0.031 C 
BRANCH  34  37
HETATM   37  C20 UNL     1      -7.745 -37.911 -14.604  1.00  0.00    -0.048 C 
HETATM   38  C21 UNL     1      -6.354 -38.349 -14.238  1.00  0.00     0.015 C 
HETATM   39  C22 UNL     1      -8.309 -38.864 -15.634  1.00  0.00     0.015 C 
HETATM   40  C23 UNL     1      -7.677 -36.555 -15.230  1.00  0.00     0.015 C 
ENDBRANCH  34  37
ENDBRANCH   8  30
TORSDOF 8
ENDMDL
MODEL 2
REMARK VINA RESULT: -7.329835343      3.545      6.997
REMARK  8 active torsions:
REMARK  status: ('A' for Active; 'I' for Inactive)
REMARK    1  A    between atoms: C2_2  and  O1_3 
REMARK    2  A    between atoms: O1_3  and  C3_4 
REMARK       I    between atoms: C3_4  and  N1_6 
REMARK    3  A    between atoms: N1_6  and  C4_8 
REMARK    4  A    between atoms: C4_8  and  C5_9 
REMARK    5  A    between atoms: C4_8  and  C9_16 
REMARK    6  A    between atoms: C8_13  and  O3_14 
REMARK    7  A    between atoms: N2_23  and  C15_24 
REMARK    8  A    between atoms: C19_28  and  C20_29 
ROOT
HETATM    1  C9  UNL     1     -14.846 -36.918 -15.234  1.00  0.00     0.054 C 
HETATM    2  C10 UNL     1     -13.519 -36.597 -14.559  1.00  0.00     0.036 C 
HETATM    3  C11 UNL     1     -13.170 -37.580 -13.471  1.00  0.00     0.168 C 
HETATM    4  O4  UNL     1     -14.335 -37.921 -12.779  1.00  0.00    -0.388 OA
HETATM    5  C12 UNL     1     -15.317 -36.962 -12.900  1.00  0.00     0.208 C 
HETATM    6  C13 UNL     1     -15.994 -37.081 -14.317  1.00  0.00     0.110 C 
HETATM    7  C14 UNL     1     -16.494 -38.485 -14.385  1.00  0.00     0.168 C 
HETATM    8  N2  UNL     1     -17.703 -38.830 -13.661  1.00  0.00    -0.334 N 
HETATM    9  C26 UNL     1     -18.891 -38.063 -13.486  1.00  0.00     0.285 C 
HETATM   10  O5  UNL     1     -19.939 -38.658 -13.435  1.00  0.00    -0.265 OA
HETATM   11  C27 UNL     1     -18.972 -36.601 -13.366  1.00  0.00     0.205 C 
HETATM   12  F1  UNL     1     -20.137 -36.130 -12.803  1.00  0.00    -0.198 F 
HETATM   13  C28 UNL     1     -18.080 -35.709 -13.727  1.00  0.00     0.184 C 
HETATM   14  O6  UNL     1     -16.852 -36.042 -14.313  1.00  0.00    -0.344 OA
ENDROOT
BRANCH   1  15
HETATM   15  C4  UNL     1     -14.900 -36.105 -16.481  1.00  0.00     0.137 C 
BRANCH  15  16
HETATM   16  N1  UNL     1     -14.712 -34.719 -16.216  1.00  0.00    -0.327 N 
HETATM   17  C3  UNL     1     -15.595 -33.664 -16.236  1.00  0.00     0.361 C 
HETATM   18  O2  UNL     1     -16.852 -33.738 -16.527  1.00  0.00    -0.238 OA
ATOM     19  H1  UNL     1     -13.756 -34.463 -15.969  1.00  0.00     0.165 HD
BRANCH  17  20
HETATM   20  O1  UNL     1     -15.216 -32.351 -15.936  1.00  0.00    -0.304 OA
BRANCH  20  21
HETATM   21  C2  UNL     1     -15.077 -31.847 -14.631  1.00  0.00     0.176 C 
HETATM   22  C1  UNL     1     -15.065 -32.972 -13.637  1.00  0.00     0.034 C 
ENDBRANCH  20  21
ENDBRANCH  17  20
ENDBRANCH  15  16
BRANCH  15  23
HETATM   23  C5  UNL     1     -13.977 -36.639 -17.570  1.00  0.00     0.039 A 
HETATM   24  S1  UNL     1     -13.648 -38.270 -17.937  1.00  0.00    -0.101 SA
HETATM   25  C6  UNL     1     -12.429 -38.093 -19.095  1.00  0.00     0.053 A 
HETATM   26  C7  UNL     1     -12.302 -36.741 -19.181  1.00  0.00     0.044 A 
HETATM   27  C8  UNL     1     -13.109 -35.988 -18.389  1.00  0.00     0.081 A 
BRANCH  27  28
HETATM   28  O3  UNL     1     -13.014 -34.558 -18.468  1.00  0.00    -0.360 OA
ATOM     29  H3  UNL     1     -12.218 -34.098 -18.706  1.00  0.00     0.217 HD
ENDBRANCH  27  28
ENDBRANCH  15  23
ENDBRANCH   1  15
BRANCH   8  30
HETATM   30  C15 UNL     1     -17.730 -40.101 -13.035  1.00  0.00     0.032 C 
HETATM   31  C16 UNL     1     -18.534 -41.154 -13.837  1.00  0.00     0.039 C 
HETATM   32  C17 UNL     1     -16.293 -40.667 -13.149  1.00  0.00     0.031 C 
HETATM   33  C18 UNL     1     -16.228 -42.081 -12.614  1.00  0.00     0.008 C 
HETATM   34  C19 UNL     1     -16.692 -42.225 -11.199  1.00  0.00    -0.007 C 
HETATM   35  C24 UNL     1     -17.020 -40.795 -10.720  1.00  0.00     0.008 C 
HETATM   36  C25 UNL     1     -18.099 -40.251 -11.641  1.00  0.00     0.031 C 
BRANCH  34  37
HETATM   37  C20 UNL     1     -15.637 -42.821 -10.294  1.00  0.00    -0.048 C 
HETATM   38  C21 UNL     1     -14.559 -41.794 -10.085  1.00  0.00     0.015 C 
HETATM   39  C22 UNL     1     -16.185 -43.243  -8.949  1.00  0.00     0.015 C 
HETATM   40  C23 UNL     1     -15.037 -44.029 -10.938  1.00  0.00     0.015 C 
ENDBRANCH  34  37
ENDBRANCH   8  30
TORSDOF 8
ENDMDL
MODEL 3
REMARK VINA RESULT: -7.277871379      2.198      4.119
REMARK  8 active torsions:
REMARK  status: ('A' for Active; 'I' for Inactive)
REMARK    1  A    between atoms: C2_2  and  O1_3 
REMARK    2  A    between atoms: O1_3  and  C3_4 
REMARK       I    between atoms: C3_4  and  N1_6 
REMARK    3  A    between atoms: N1_6  and  C4_8 
REMARK    4  A    between atoms: C4_8  and  C5_9 
REMARK    5  A    between atoms: C4_8  and  C9_16 
REMARK    6  A    between atoms: C8_13  and  O3_14 
REMARK    7  A    between atoms: N2_23  and  C15_24 
REMARK    8  A    between atoms: C19_28  and  C20_29 
ROOT
HETATM    1  C9  UNL     1     -14.429 -38.361 -14.195  1.00  0.00     0.054 C 
HETATM    2  C10 UNL     1     -14.976 -37.596 -15.393  1.00  0.00     0.036 C 
HETATM    3  C11 UNL     1     -13.889 -37.123 -16.323  1.00  0.00     0.168 C 
HETATM    4  O4  UNL     1     -12.793 -36.703 -15.563  1.00  0.00    -0.388 OA
HETATM    5  C12 UNL     1     -13.149 -36.354 -14.279  1.00  0.00     0.208 C 
HETATM    6  C13 UNL     1     -13.380 -37.659 -13.426  1.00  0.00     0.110 C 
HETATM    7  C14 UNL     1     -12.096 -38.411 -13.525  1.00  0.00     0.168 C 
HETATM    8  N2  UNL     1     -10.964 -37.967 -12.734  1.00  0.00    -0.334 N 
HETATM    9  C26 UNL     1     -10.948 -37.457 -11.404  1.00  0.00     0.285 C 
HETATM   10  O5  UNL     1      -9.992 -37.719 -10.715  1.00  0.00    -0.265 OA
HETATM   11  C27 UNL     1     -11.992 -36.638 -10.773  1.00  0.00     0.205 C 
HETATM   12  F1  UNL     1     -11.585 -35.935  -9.663  1.00  0.00    -0.198 F 
HETATM   13  C28 UNL     1     -13.246 -36.504 -11.139  1.00  0.00     0.184 C 
HETATM   14  O6  UNL     1     -13.799 -37.160 -12.246  1.00  0.00    -0.344 OA
ENDROOT
BRANCH   1  15
HETATM   15  C4  UNL     1     -15.587 -39.052 -13.563  1.00  0.00     0.137 C 
BRANCH  15  16
HETATM   16  N1  UNL     1     -15.291 -39.473 -12.236  1.00  0.00    -0.327 N 
HETATM   17  C3  UNL     1     -14.744 -40.640 -11.756  1.00  0.00     0.361 C 
HETATM   18  O2  UNL     1     -14.374 -41.650 -12.471  1.00  0.00    -0.238 OA
ATOM     19  H1  UNL     1     -15.527 -38.790 -11.515  1.00  0.00     0.165 HD
BRANCH  17  20
HETATM   20  O1  UNL     1     -14.521 -40.870 -10.393  1.00  0.00    -0.304 OA
BRANCH  20  21
HETATM   21  C2  UNL     1     -14.804 -42.082  -9.740  1.00  0.00     0.176 C 
HETATM   22  C1  UNL     1     -16.281 -42.354  -9.763  1.00  0.00     0.034 C 
ENDBRANCH  20  21
ENDBRANCH  17  20
ENDBRANCH  15  16
BRANCH  15  23
HETATM   23  C5  UNL     1     -16.877 -38.245 -13.664  1.00  0.00     0.039 A 
HETATM   24  S1  UNL     1     -18.240 -38.593 -14.626  1.00  0.00    -0.101 SA
HETATM   25  C6  UNL     1     -19.168 -37.202 -14.372  1.00  0.00     0.053 A 
HETATM   26  C7  UNL     1     -18.386 -36.481 -13.523  1.00  0.00     0.044 A 
HETATM   27  C8  UNL     1     -17.198 -37.026 -13.154  1.00  0.00     0.081 A 
BRANCH  27  28
HETATM   28  O3  UNL     1     -16.359 -36.301 -12.244  1.00  0.00    -0.360 OA
ATOM     29  H3  UNL     1     -15.987 -36.681 -11.457  1.00  0.00     0.217 HD
ENDBRANCH  27  28
ENDBRANCH  15  23
ENDBRANCH   1  15
BRANCH   8  30
HETATM   30  C15 UNL     1      -9.689 -38.043 -13.347  1.00  0.00     0.032 C 
HETATM   31  C16 UNL     1      -9.097 -39.474 -13.336  1.00  0.00     0.039 C 
HETATM   32  C17 UNL     1      -9.926 -37.826 -14.861  1.00  0.00     0.031 C 
HETATM   33  C18 UNL     1      -8.640 -38.003 -15.639  1.00  0.00     0.008 C 
HETATM   34  C19 UNL     1      -7.525 -37.111 -15.193  1.00  0.00    -0.007 C 
HETATM   35  C24 UNL     1      -8.124 -36.214 -14.089  1.00  0.00     0.008 C 
HETATM   36  C25 UNL     1      -8.619 -37.134 -12.985  1.00  0.00     0.031 C 
BRANCH  34  37
HETATM   37  C20 UNL     1      -6.992 -36.238 -16.306  1.00  0.00    -0.048 C 
HETATM   38  C21 UNL     1      -5.541 -36.574 -16.516  1.00  0.00     0.015 C 
HETATM   39  C22 UNL     1      -7.735 -36.425 -17.610  1.00  0.00     0.015 C 
HETATM   40  C23 UNL     1      -7.104 -34.797 -15.923  1.00  0.00     0.015 C 
ENDBRANCH  34  37
ENDBRANCH   8  30
TORSDOF 8
ENDMDL
MODEL 4
REMARK VINA RESULT: -7.123604032      3.589      6.937
REMARK  8 active torsions:
REMARK  status: ('A' for Active; 'I' for Inactive)
REMARK    1  A    between atoms: C2_2  and  O1_3 
REMARK    2  A    between atoms: O1_3  and  C3_4 
REMARK       I    between atoms: C3_4  and  N1_6 
REMARK    3  A    between atoms: N1_6  and  C4_8 
REMARK    4  A    between atoms: C4_8  and  C5_9 
REMARK    5  A    between atoms: C4_8  and  C9_16 
REMARK    6  A    between atoms: C8_13  and  O3_14 
REMARK    7  A    between atoms: N2_23  and  C15_24 
REMARK    8  A    between atoms: C19_28  and  C20_29 
ROOT
HETATM    1  C9  UNL     1     -16.676 -37.506 -14.568  1.00  0.00     0.054 C 
HETATM    2  C10 UNL     1     -16.873 -37.793 -16.051  1.00  0.00     0.036 C 
HETATM    3  C11 UNL     1     -17.240 -39.230 -16.320  1.00  0.00     0.168 C 
HETATM    4  O4  UNL     1     -16.510 -40.052 -15.456  1.00  0.00    -0.388 OA
HETATM    5  C12 UNL     1     -15.361 -39.444 -15.000  1.00  0.00     0.208 C 
HETATM    6  C13 UNL     1     -15.729 -38.405 -13.875  1.00  0.00     0.110 C 
HETATM    7  C14 UNL     1     -16.455 -39.200 -12.843  1.00  0.00     0.168 C 
HETATM    8  N2  UNL     1     -15.690 -40.053 -11.953  1.00  0.00    -0.334 N 
HETATM    9  C26 UNL     1     -14.422 -39.807 -11.350  1.00  0.00     0.285 C 
HETATM   10  O5  UNL     1     -14.231 -40.254 -10.246  1.00  0.00    -0.265 OA
HETATM   11  C27 UNL     1     -13.309 -39.051 -11.942  1.00  0.00     0.205 C 
HETATM   12  F1  UNL     1     -12.079 -39.293 -11.375  1.00  0.00    -0.198 F 
HETATM   13  C28 UNL     1     -13.353 -38.189 -12.930  1.00  0.00     0.184 C 
HETATM   14  O6  UNL     1     -14.534 -37.845 -13.600  1.00  0.00    -0.344 OA
ENDROOT
BRANCH   1  15
HETATM   15  C4  UNL     1     -16.664 -36.025 -14.416  1.00  0.00     0.137 C 
BRANCH  15  16
HETATM   16  N1  UNL     1     -15.894 -35.615 -13.291  1.00  0.00    -0.327 N 
HETATM   17  C3  UNL     1     -15.502 -34.367 -12.867  1.00  0.00     0.361 C 
HETATM   18  O2  UNL     1     -15.772 -33.250 -13.457  1.00  0.00    -0.238 OA
ATOM     19  H1  UNL     1     -15.578 -36.381 -12.695  1.00  0.00     0.165 HD
BRANCH  17  20
HETATM   20  O1  UNL     1     -14.739 -34.163 -11.711  1.00  0.00    -0.304 OA
BRANCH  20  21
HETATM   21  C2  UNL     1     -13.591 -34.903 -11.381  1.00  0.00     0.176 C 
HETATM   22  C1  UNL     1     -13.120 -34.547 -10.001  1.00  0.00     0.034 C 
ENDBRANCH  20  21
ENDBRANCH  17  20
ENDBRANCH  15  16
BRANCH  15  23
HETATM   23  C5  UNL     1     -16.275 -35.306 -15.703  1.00  0.00     0.039 A 
HETATM   24  S1  UNL     1     -17.312 -34.508 -16.794  1.00  0.00    -0.101 SA
HETATM   25  C6  UNL     1     -16.232 -34.132 -18.039  1.00  0.00     0.053 A 
HETATM   26  C7  UNL     1     -15.059 -34.641 -17.571  1.00  0.00     0.044 A 
HETATM   27  C8  UNL     1     -15.084 -35.248 -16.356  1.00  0.00     0.081 A 
BRANCH  27  28
HETATM   28  O3  UNL     1     -13.862 -35.779 -15.825  1.00  0.00    -0.360 OA
ATOM     29  H3  UNL     1     -13.004 -35.582 -16.184  1.00  0.00     0.217 HD
ENDBRANCH  27  28
ENDBRANCH  15  23
ENDBRANCH   1  15
BRANCH   8  30
HETATM   30  C15 UNL     1     -16.263 -41.305 -11.621  1.00  0.00     0.032 C 
HETATM   31  C16 UNL     1     -17.618 -41.556 -12.327  1.00  0.00     0.039 C 
HETATM   32  C17 UNL     1     -15.370 -42.378 -12.290  1.00  0.00     0.031 C 
HETATM   33  C18 UNL     1     -15.956 -43.760 -12.101  1.00  0.00     0.008 C 
HETATM   34  C19 UNL     1     -16.179 -44.142 -10.671  1.00  0.00    -0.007 C 
HETATM   35  C24 UNL     1     -15.634 -42.965  -9.835  1.00  0.00     0.008 C 
HETATM   36  C25 UNL     1     -16.414 -41.727 -10.242  1.00  0.00     0.031 C 
BRANCH  34  37
HETATM   37  C20 UNL     1     -15.450 -45.408 -10.282  1.00  0.00    -0.048 C 
HETATM   38  C21 UNL     1     -14.844 -45.204  -8.920  1.00  0.00     0.015 C 
HETATM   39  C22 UNL     1     -16.352 -46.621 -10.244  1.00  0.00     0.015 C 
HETATM   40  C23 UNL     1     -14.356 -45.688 -11.261  1.00  0.00     0.015 C 
ENDBRANCH  34  37
ENDBRANCH   8  30
TORSDOF 8
ENDMDL
MODEL 5
REMARK VINA RESULT: -6.956905841      3.032      8.551
REMARK  8 active torsions:
REMARK  status: ('A' for Active; 'I' for Inactive)
REMARK    1  A    between atoms: C2_2  and  O1_3 
REMARK    2  A    between atoms: O1_3  and  C3_4 
REMARK       I    between atoms: C3_4  and  N1_6 
REMARK    3  A    between atoms: N1_6  and  C4_8 
REMARK    4  A    between atoms: C4_8  and  C5_9 
REMARK    5  A    between atoms: C4_8  and  C9_16 
REMARK    6  A    between atoms: C8_13  and  O3_14 
REMARK    7  A    between atoms: N2_23  and  C15_24 
REMARK    8  A    between atoms: C19_28  and  C20_29 
ROOT
HETATM    1  C9  UNL     1     -13.342 -38.494 -13.143  1.00  0.00     0.054 C 
HETATM    2  C10 UNL     1     -12.438 -38.898 -14.302  1.00  0.00     0.036 C 
HETATM    3  C11 UNL     1     -13.216 -39.349 -15.512  1.00  0.00     0.168 C 
HETATM    4  O4  UNL     1     -14.322 -40.091 -15.088  1.00  0.00    -0.388 OA
HETATM    5  C12 UNL     1     -14.144 -40.628 -13.832  1.00  0.00     0.208 C 
HETATM    6  C13 UNL     1     -14.347 -39.503 -12.748  1.00  0.00     0.110 C 
HETATM    7  C14 UNL     1     -15.717 -38.973 -13.000  1.00  0.00     0.168 C 
HETATM    8  N2  UNL     1     -16.859 -39.751 -12.560  1.00  0.00    -0.334 N 
HETATM    9  C26 UNL     1     -17.014 -40.515 -11.367  1.00  0.00     0.285 C 
HETATM   10  O5  UNL     1     -18.113 -40.562 -10.871  1.00  0.00    -0.265 OA
HETATM   11  C27 UNL     1     -15.958 -41.257 -10.666  1.00  0.00     0.205 C 
HETATM   12  F1  UNL     1     -16.408 -42.229  -9.802  1.00  0.00    -0.198 F 
HETATM   13  C28 UNL     1     -14.658 -41.103 -10.766  1.00  0.00     0.184 C 
HETATM   14  O6  UNL     1     -14.058 -40.153 -11.603  1.00  0.00    -0.344 OA
ENDROOT
BRANCH   1  15
HETATM   15  C4  UNL     1     -12.486 -37.762 -12.169  1.00  0.00     0.137 C 
BRANCH  15  16
HETATM   16  N1  UNL     1     -11.147 -37.635 -12.633  1.00  0.00    -0.327 N 
HETATM   17  C3  UNL     1      -9.949 -37.634 -11.956  1.00  0.00     0.361 C 
HETATM   18  O2  UNL     1      -9.805 -37.750 -10.678  1.00  0.00    -0.238 OA
ATOM     19  H1  UNL     1     -11.060 -37.525 -13.643  1.00  0.00     0.165 HD
BRANCH  17  20
HETATM   20  O1  UNL     1      -8.713 -37.500 -12.600  1.00  0.00    -0.304 OA
BRANCH  20  21
HETATM   21  C2  UNL     1      -7.985 -36.300 -12.671  1.00  0.00     0.176 C 
HETATM   22  C1  UNL     1      -7.578 -36.021 -14.089  1.00  0.00     0.034 C 
ENDBRANCH  20  21
ENDBRANCH  17  20
ENDBRANCH  15  16
BRANCH  15  23
HETATM   23  C5  UNL     1     -13.098 -36.436 -11.731  1.00  0.00     0.039 A 
HETATM   24  S1  UNL     1     -14.260 -35.509 -12.565  1.00  0.00    -0.101 SA
HETATM   25  C6  UNL     1     -14.313 -34.124 -11.596  1.00  0.00     0.053 A 
HETATM   26  C7  UNL     1     -13.411 -34.416 -10.620  1.00  0.00     0.044 A 
HETATM   27  C8  UNL     1     -12.784 -35.619 -10.691  1.00  0.00     0.081 A 
BRANCH  27  28
HETATM   28  O3  UNL     1     -11.841 -35.966  -9.667  1.00  0.00    -0.360 OA
ATOM     29  H3  UNL     1     -10.899 -35.909  -9.779  1.00  0.00     0.217 HD
ENDBRANCH  27  28
ENDBRANCH  15  23
ENDBRANCH   1  15
BRANCH   8  30
HETATM   30  C15 UNL     1     -17.988 -39.767 -13.416  1.00  0.00     0.032 C 
HETATM   31  C16 UNL     1     -18.719 -41.133 -13.429  1.00  0.00     0.039 C 
HETATM   32  C17 UNL     1     -19.050 -38.863 -12.745  1.00  0.00     0.031 C 
HETATM   33  C18 UNL     1     -20.351 -38.897 -13.517  1.00  0.00     0.008 C 
HETATM   34  C19 UNL     1     -20.223 -38.505 -14.955  1.00  0.00    -0.007 C 
HETATM   35  C24 UNL     1     -18.746 -38.103 -15.148  1.00  0.00     0.008 C 
HETATM   36  C25 UNL     1     -17.902 -39.315 -14.791  1.00  0.00     0.031 C 
BRANCH  34  37
HETATM   37  C20 UNL     1     -21.108 -37.336 -15.325  1.00  0.00    -0.048 C 
HETATM   38  C21 UNL     1     -22.535 -37.716 -15.040  1.00  0.00     0.015 C 
HETATM   39  C22 UNL     1     -20.770 -36.075 -14.560  1.00  0.00     0.015 C 
HETATM   40  C23 UNL     1     -20.969 -37.032 -16.782  1.00  0.00     0.015 C 
ENDBRANCH  34  37
ENDBRANCH   8  30
TORSDOF 8
ENDMDL
