MODEL 1
REMARK VINA RESULT: -8.587231865      0.000      0.000
REMARK  7 active torsions:
REMARK  status: ('A' for Active; 'I' for Inactive)
REMARK    1  A    between atoms: C4_4  and  C5_5 
REMARK    2  A    between atoms: C5_5  and  C6_6 
REMARK    3  A    between atoms: C6_6  and  O1_7 
REMARK    4  A    between atoms: O1_7  and  C7_8 
REMARK    5  A    between atoms: C19_22  and  O2_23 
REMARK    6  A    between atoms: C20_25  and  N2_27 
REMARK    7  A    between atoms: C27_38  and  O3_40 
ROOT
HETATM    1  N2  UNL     1     -14.815 -35.907 -14.941  1.00  0.00    -0.254 N 
HETATM    2  N3  UNL     1     -14.039 -35.062 -14.241  1.00  0.00    -0.239 N 
ATOM      3  H3  UNL     1     -13.070 -35.262 -13.991  1.00  0.00     0.208 HD
HETATM    4  N4  UNL     1     -14.651 -33.969 -13.918  1.00  0.00    -0.294 N 
ATOM      5  H4  UNL     1     -14.261 -33.188 -13.390  1.00  0.00     0.187 HD
HETATM    6  C22 UNL     1     -15.901 -34.057 -14.411  1.00  0.00     0.151 A 
HETATM    7  C23 UNL     1     -15.991 -35.283 -15.054  1.00  0.00     0.150 A 
HETATM    8  C24 UNL     1     -17.167 -35.748 -15.713  1.00  0.00     0.120 C 
HETATM    9  N5  UNL     1     -18.121 -36.142 -16.235  1.00  0.00    -0.190 NA
ENDROOT
BRANCH   1  10
HETATM   10  C20 UNL     1     -14.402 -37.205 -15.445  1.00  0.00     0.084 C 
HETATM   11  C19 UNL     1     -14.794 -38.351 -14.579  1.00  0.00     0.095 C 
HETATM   12  C18 UNL     1     -15.686 -37.950 -13.446  1.00  0.00     0.042 C 
HETATM   13  C29 UNL     1     -13.680 -39.251 -14.103  1.00  0.00     0.025 C 
HETATM   14  C17 UNL     1     -16.107 -39.064 -12.525  1.00  0.00     0.011 C 
HETATM   15  C16 UNL     1     -14.964 -39.912 -12.092  1.00  0.00     0.036 C 
HETATM   16  C15 UNL     1     -14.269 -40.411 -13.377  1.00  0.00     0.011 C 
HETATM   17  C31 UNL     1     -15.183 -41.043 -11.230  1.00  0.00     0.134 C 
HETATM   18  C14 UNL     1     -15.177 -41.353 -13.984  1.00  0.00     0.033 C 
HETATM   19  C13 UNL     1     -15.273 -42.559 -13.108  1.00  0.00    -0.020 C 
HETATM   20  C12 UNL     1     -15.281 -42.382 -11.820  1.00  0.00    -0.040 C 
HETATM   21  C4  UNL     1     -15.364 -43.266 -10.607  1.00  0.00     0.020 C 
HETATM   22  C3  UNL     1     -15.977 -42.381  -9.541  1.00  0.00     0.017 C 
HETATM   23  C2  UNL     1     -16.342 -41.077 -10.281  1.00  0.00     0.027 C 
HETATM   24  C1  UNL     1     -17.665 -41.328 -10.909  1.00  0.00     0.014 C 
HETATM   25  F1  UNL     1     -14.062 -41.155 -10.366  1.00  0.00    -0.237 F 
HETATM   26  C27 UNL     1     -12.665 -39.576 -15.139  1.00  0.00     0.065 C 
HETATM   27  C30 UNL     1     -12.833 -38.570 -13.004  1.00  0.00     0.022 C 
HETATM   28  C26 UNL     1     -12.118 -38.314 -15.730  1.00  0.00     0.041 C 
HETATM   29  C28 UNL     1     -12.976 -40.565 -16.191  1.00  0.00     0.047 C 
HETATM   30  C25 UNL     1     -12.875 -37.073 -15.582  1.00  0.00     0.039 C 
HETATM   31  C21 UNL     1     -14.832 -37.380 -16.914  1.00  0.00     0.044 C 
BRANCH  11  32
HETATM   32  O2  UNL     1     -15.594 -39.177 -15.411  1.00  0.00    -0.386 OA
ATOM     33  H2  UNL     1     -14.982 -39.617 -15.990  1.00  0.00     0.210 HD
ENDBRANCH  11  32
BRANCH  21  34
HETATM   34  C5  UNL     1     -16.147 -44.510 -10.864  1.00  0.00     0.036 C 
BRANCH  34  35
HETATM   35  C6  UNL     1     -15.298 -45.708 -10.517  1.00  0.00     0.176 C 
BRANCH  35  36
HETATM   36  O1  UNL     1     -15.904 -46.427  -9.475  1.00  0.00    -0.350 OA
BRANCH  36  37
HETATM   37  C7  UNL     1     -15.532 -46.219  -8.160  1.00  0.00     0.084 A 
HETATM   38  C8  UNL     1     -14.606 -45.279  -7.804  1.00  0.00     0.039 A 
HETATM   39  C9  UNL     1     -14.271 -45.113  -6.470  1.00  0.00     0.020 A 
HETATM   40  C10 UNL     1     -14.877 -45.899  -5.527  1.00  0.00     0.088 A 
HETATM   41  N1  UNL     1     -15.773 -46.807  -5.880  1.00  0.00    -0.373 N 
HETATM   42  C11 UNL     1     -16.108 -46.980  -7.167  1.00  0.00     0.124 A 
ATOM     43  H1  UNL     1     -16.214 -47.384  -5.164  1.00  0.00     0.164 HD
ENDBRANCH  36  37
ENDBRANCH  35  36
ENDBRANCH  34  35
ENDBRANCH  21  34
BRANCH  26  44
HETATM   44  O3  UNL     1     -11.590 -40.179 -14.415  1.00  0.00    -0.389 OA
ATOM     45  H3  UNL     1     -11.498 -41.060 -14.758  1.00  0.00     0.210 HD
ENDBRANCH  26  44
ENDBRANCH   1  10
TORSDOF 7
ENDMDL
MODEL 2
REMARK VINA RESULT: -8.520283701      5.260      8.158
REMARK  7 active torsions:
REMARK  status: ('A' for Active; 'I' for Inactive)
REMARK    1  A    between atoms: C4_4  and  C5_5 
REMARK    2  A    between atoms: C5_5  and  C6_6 
REMARK    3  A    between atoms: C6_6  and  O1_7 
REMARK    4  A    between atoms: O1_7  and  C7_8 
REMARK    5  A    between atoms: C19_22  and  O2_23 
REMARK    6  A    between atoms: C20_25  and  N2_27 
REMARK    7  A    between atoms: C27_38  and  O3_40 
ROOT
HETATM    1  N2  UNL     1     -18.797 -36.871 -14.394  1.00  0.00    -0.254 N 
HETATM    2  N3  UNL     1     -19.477 -35.947 -13.695  1.00  0.00    -0.239 N 
ATOM      3  H3  UNL     1     -19.257 -34.951 -13.712  1.00  0.00     0.208 HD
HETATM    4  N4  UNL     1     -20.441 -36.456 -12.997  1.00  0.00    -0.294 N 
ATOM      5  H4  UNL     1     -21.087 -35.947 -12.393  1.00  0.00     0.187 HD
HETATM    6  C22 UNL     1     -20.430 -37.784 -13.219  1.00  0.00     0.151 A 
HETATM    7  C23 UNL     1     -19.389 -38.033 -14.102  1.00  0.00     0.150 A 
HETATM    8  C24 UNL     1     -19.054 -39.331 -14.587  1.00  0.00     0.120 C 
HETATM    9  N5  UNL     1     -18.764 -40.382 -14.972  1.00  0.00    -0.190 NA
ENDROOT
BRANCH   1  10
HETATM   10  C20 UNL     1     -17.669 -36.600 -15.270  1.00  0.00     0.084 C 
HETATM   11  C19 UNL     1     -16.338 -36.793 -14.632  1.00  0.00     0.095 C 
HETATM   12  C18 UNL     1     -16.426 -37.393 -13.264  1.00  0.00     0.042 C 
HETATM   13  C29 UNL     1     -15.403 -35.608 -14.648  1.00  0.00     0.025 C 
HETATM   14  C17 UNL     1     -15.112 -37.600 -12.559  1.00  0.00     0.011 C 
HETATM   15  C16 UNL     1     -14.239 -36.396 -12.610  1.00  0.00     0.036 C 
HETATM   16  C15 UNL     1     -14.082 -36.024 -14.100  1.00  0.00     0.011 C 
HETATM   17  C31 UNL     1     -12.931 -36.421 -12.012  1.00  0.00     0.134 C 
HETATM   18  C14 UNL     1     -13.266 -37.058 -14.688  1.00  0.00     0.033 C 
HETATM   19  C13 UNL     1     -11.887 -36.961 -14.122  1.00  0.00    -0.020 C 
HETATM   20  C12 UNL     1     -11.761 -36.667 -12.862  1.00  0.00    -0.040 C 
HETATM   21  C4  UNL     1     -10.618 -36.475 -11.904  1.00  0.00     0.020 C 
HETATM   22  C3  UNL     1     -11.205 -36.816 -10.550  1.00  0.00     0.017 C 
HETATM   23  C2  UNL     1     -12.627 -37.329 -10.859  1.00  0.00     0.027 C 
HETATM   24  C1  UNL     1     -12.469 -38.764 -11.210  1.00  0.00     0.014 C 
HETATM   25  F1  UNL     1     -12.672 -35.132 -11.477  1.00  0.00    -0.237 F 
HETATM   26  C27 UNL     1     -15.373 -34.864 -15.935  1.00  0.00     0.065 C 
HETATM   27  C30 UNL     1     -15.850 -34.522 -13.642  1.00  0.00     0.022 C 
HETATM   28  C26 UNL     1     -16.760 -34.457 -16.321  1.00  0.00     0.041 C 
HETATM   29  C28 UNL     1     -14.640 -35.422 -17.090  1.00  0.00     0.047 C 
HETATM   30  C25 UNL     1     -17.898 -35.146 -15.717  1.00  0.00     0.039 C 
HETATM   31  C21 UNL     1     -17.820 -37.361 -16.601  1.00  0.00     0.044 C 
BRANCH  11  32
HETATM   32  O2  UNL     1     -15.692 -37.772 -15.429  1.00  0.00    -0.386 OA
ATOM     33  H2  UNL     1     -15.644 -37.395 -16.300  1.00  0.00     0.210 HD
ENDBRANCH  11  32
BRANCH  21  34
HETATM   34  C5  UNL     1      -9.434 -37.310 -12.261  1.00  0.00     0.036 C 
BRANCH  34  35
HETATM   35  C6  UNL     1      -8.288 -36.404 -12.641  1.00  0.00     0.176 C 
BRANCH  35  36
HETATM   36  O1  UNL     1      -7.099 -37.149 -12.696  1.00  0.00    -0.350 OA
BRANCH  36  37
HETATM   37  C7  UNL     1      -6.399 -37.280 -13.880  1.00  0.00     0.084 A 
HETATM   38  C8  UNL     1      -6.500 -36.369 -14.893  1.00  0.00     0.039 A 
HETATM   39  C9  UNL     1      -5.775 -36.551 -16.059  1.00  0.00     0.020 A 
HETATM   40  C10 UNL     1      -4.964 -37.648 -16.176  1.00  0.00     0.088 A 
HETATM   41  N1  UNL     1      -4.871 -38.527 -15.190  1.00  0.00    -0.373 N 
HETATM   42  C11 UNL     1      -5.567 -38.365 -14.056  1.00  0.00     0.124 A 
ATOM     43  H1  UNL     1      -4.263 -39.338 -15.296  1.00  0.00     0.164 HD
ENDBRANCH  36  37
ENDBRANCH  35  36
ENDBRANCH  34  35
ENDBRANCH  21  34
BRANCH  26  44
HETATM   44  O3  UNL     1     -14.667 -33.657 -15.637  1.00  0.00    -0.389 OA
ATOM     45  H3  UNL     1     -14.317 -33.761 -14.760  1.00  0.00     0.210 HD
ENDBRANCH  26  44
ENDBRANCH   1  10
TORSDOF 7
ENDMDL
MODEL 3
REMARK VINA RESULT: -8.341282724      3.917      8.153
REMARK  7 active torsions:
REMARK  status: ('A' for Active; 'I' for Inactive)
REMARK    1  A    between atoms: C4_4  and  C5_5 
REMARK    2  A    between atoms: C5_5  and  C6_6 
REMARK    3  A    between atoms: C6_6  and  O1_7 
REMARK    4  A    between atoms: O1_7  and  C7_8 
REMARK    5  A    between atoms: C19_22  and  O2_23 
REMARK    6  A    between atoms: C20_25  and  N2_27 
REMARK    7  A    between atoms: C27_38  and  O3_40 
ROOT
HETATM    1  N2  UNL     1     -18.974 -39.906 -14.395  1.00  0.00    -0.254 N 
HETATM    2  N3  UNL     1     -19.033 -40.549 -15.573  1.00  0.00    -0.239 N 
ATOM      3  H3  UNL     1     -18.585 -41.448 -15.748  1.00  0.00     0.208 HD
HETATM    4  N4  UNL     1     -19.719 -39.905 -16.462  1.00  0.00    -0.294 N 
ATOM      5  H4  UNL     1     -19.897 -40.201 -17.422  1.00  0.00     0.187 HD
HETATM    6  C22 UNL     1     -20.152 -38.771 -15.880  1.00  0.00     0.151 A 
HETATM    7  C23 UNL     1     -19.676 -38.784 -14.577  1.00  0.00     0.150 A 
HETATM    8  C24 UNL     1     -19.930 -37.747 -13.630  1.00  0.00     0.120 C 
HETATM    9  N5  UNL     1     -20.114 -36.903 -12.861  1.00  0.00    -0.190 NA
ENDROOT
BRANCH   1  10
HETATM   10  C20 UNL     1     -18.283 -40.385 -13.210  1.00  0.00     0.084 C 
HETATM   11  C19 UNL     1     -16.931 -39.795 -13.010  1.00  0.00     0.095 C 
HETATM   12  C18 UNL     1     -16.622 -38.697 -13.979  1.00  0.00     0.042 C 
HETATM   13  C29 UNL     1     -15.780 -40.765 -12.902  1.00  0.00     0.025 C 
HETATM   14  C17 UNL     1     -15.261 -38.068 -13.837  1.00  0.00     0.011 C 
HETATM   15  C16 UNL     1     -14.172 -39.078 -13.736  1.00  0.00     0.036 C 
HETATM   16  C15 UNL     1     -14.540 -40.012 -12.564  1.00  0.00     0.011 C 
HETATM   17  C31 UNL     1     -12.806 -38.658 -13.567  1.00  0.00     0.134 C 
HETATM   18  C14 UNL     1     -14.386 -39.229 -11.363  1.00  0.00     0.033 C 
HETATM   19  C13 UNL     1     -12.936 -38.926 -11.170  1.00  0.00    -0.020 C 
HETATM   20  C12 UNL     1     -12.222 -38.655 -12.222  1.00  0.00    -0.040 C 
HETATM   21  C4  UNL     1     -10.785 -38.302 -12.493  1.00  0.00     0.020 C 
HETATM   22  C3  UNL     1     -10.835 -37.501 -13.778  1.00  0.00     0.017 C 
HETATM   23  C2  UNL     1     -12.339 -37.327 -14.072  1.00  0.00     0.027 C 
HETATM   24  C1  UNL     1     -12.774 -36.158 -13.264  1.00  0.00     0.014 C 
HETATM   25  F1  UNL     1     -11.980 -39.573 -14.272  1.00  0.00    -0.237 F 
HETATM   26  C27 UNL     1     -16.062 -41.966 -12.072  1.00  0.00     0.065 C 
HETATM   27  C30 UNL     1     -15.428 -41.381 -14.275  1.00  0.00     0.022 C 
HETATM   28  C26 UNL     1     -17.295 -42.651 -12.570  1.00  0.00     0.041 C 
HETATM   29  C28 UNL     1     -16.072 -41.857 -10.598  1.00  0.00     0.047 C 
HETATM   30  C25 UNL     1     -18.232 -41.909 -13.410  1.00  0.00     0.039 C 
HETATM   31  C21 UNL     1     -19.187 -40.265 -11.967  1.00  0.00     0.044 C 
BRANCH  11  32
HETATM   32  O2  UNL     1     -16.993 -39.166 -11.739  1.00  0.00    -0.386 OA
ATOM     33  H2  UNL     1     -17.693 -38.527 -11.810  1.00  0.00     0.210 HD
ENDBRANCH  11  32
BRANCH  21  34
HETATM   34  C5  UNL     1     -10.160 -37.561 -11.360  1.00  0.00     0.036 C 
BRANCH  34  35
HETATM   35  C6  UNL     1      -9.349 -36.412 -11.908  1.00  0.00     0.176 C 
BRANCH  35  36
HETATM   36  O1  UNL     1      -8.004 -36.799 -12.022  1.00  0.00    -0.350 OA
BRANCH  36  37
HETATM   37  C7  UNL     1      -7.318 -36.633 -13.210  1.00  0.00     0.084 A 
HETATM   38  C8  UNL     1      -6.428 -37.561 -13.674  1.00  0.00     0.039 A 
HETATM   39  C9  UNL     1      -5.768 -37.342 -14.872  1.00  0.00     0.020 A 
HETATM   40  C10 UNL     1      -6.019 -36.194 -15.573  1.00  0.00     0.088 A 
HETATM   41  N1  UNL     1      -6.882 -35.300 -15.117  1.00  0.00    -0.373 N 
HETATM   42  C11 UNL     1      -7.529 -35.496 -13.959  1.00  0.00     0.124 A 
ATOM     43  H1  UNL     1      -7.057 -34.450 -15.653  1.00  0.00     0.164 HD
ENDBRANCH  36  37
ENDBRANCH  35  36
ENDBRANCH  34  35
ENDBRANCH  21  34
BRANCH  26  44
HETATM   44  O3  UNL     1     -14.973 -42.852 -12.337  1.00  0.00    -0.389 OA
ATOM     45  H3  UNL     1     -14.311 -42.668 -11.681  1.00  0.00     0.210 HD
ENDBRANCH  26  44
ENDBRANCH   1  10
TORSDOF 7
ENDMDL
MODEL 4
REMARK VINA RESULT: -8.218818602      2.083      3.459
REMARK  7 active torsions:
REMARK  status: ('A' for Active; 'I' for Inactive)
REMARK    1  A    between atoms: C4_4  and  C5_5 
REMARK    2  A    between atoms: C5_5  and  C6_6 
REMARK    3  A    between atoms: C6_6  and  O1_7 
REMARK    4  A    between atoms: O1_7  and  C7_8 
REMARK    5  A    between atoms: C19_22  and  O2_23 
REMARK    6  A    between atoms: C20_25  and  N2_27 
REMARK    7  A    between atoms: C27_38  and  O3_40 
ROOT
HETATM    1  N2  UNL     1     -16.696 -36.034 -17.063  1.00  0.00    -0.254 N 
HETATM    2  N3  UNL     1     -17.901 -35.448 -16.976  1.00  0.00    -0.239 N 
ATOM      3  H3  UNL     1     -18.191 -34.868 -16.189  1.00  0.00     0.208 HD
HETATM    4  N4  UNL     1     -18.655 -35.698 -17.998  1.00  0.00    -0.294 N 
ATOM      5  H4  UNL     1     -19.606 -35.359 -18.147  1.00  0.00     0.187 HD
HETATM    6  C22 UNL     1     -17.947 -36.489 -18.826  1.00  0.00     0.151 A 
HETATM    7  C23 UNL     1     -16.714 -36.693 -18.225  1.00  0.00     0.150 A 
HETATM    8  C24 UNL     1     -15.673 -37.481 -18.799  1.00  0.00     0.120 C 
HETATM    9  N5  UNL     1     -14.830 -38.133 -19.249  1.00  0.00    -0.190 NA
ENDROOT
BRANCH   1  10
HETATM   10  C20 UNL     1     -15.638 -35.930 -16.072  1.00  0.00     0.084 C 
HETATM   11  C19 UNL     1     -15.598 -37.056 -15.098  1.00  0.00     0.095 C 
HETATM   12  C18 UNL     1     -16.552 -38.158 -15.438  1.00  0.00     0.042 C 
HETATM   13  C29 UNL     1     -15.690 -36.688 -13.637  1.00  0.00     0.025 C 
HETATM   14  C17 UNL     1     -16.570 -39.320 -14.481  1.00  0.00     0.011 C 
HETATM   15  C16 UNL     1     -16.662 -38.890 -13.059  1.00  0.00     0.036 C 
HETATM   16  C15 UNL     1     -15.492 -37.913 -12.814  1.00  0.00     0.011 C 
HETATM   17  C31 UNL     1     -16.663 -39.867 -12.003  1.00  0.00     0.134 C 
HETATM   18  C14 UNL     1     -14.291 -38.711 -12.848  1.00  0.00     0.033 C 
HETATM   19  C13 UNL     1     -14.284 -39.620 -11.664  1.00  0.00    -0.020 C 
HETATM   20  C12 UNL     1     -15.411 -40.154 -11.295  1.00  0.00    -0.040 C 
HETATM   21  C4  UNL     1     -15.860 -41.093 -10.210  1.00  0.00     0.020 C 
HETATM   22  C3  UNL     1     -17.091 -41.764 -10.783  1.00  0.00     0.017 C 
HETATM   23  C2  UNL     1     -17.169 -41.257 -12.238  1.00  0.00     0.027 C 
HETATM   24  C1  UNL     1     -16.261 -42.136 -13.020  1.00  0.00     0.014 C 
HETATM   25  F1  UNL     1     -17.513 -39.390 -10.971  1.00  0.00    -0.237 F 
HETATM   26  C27 UNL     1     -14.881 -35.502 -13.249  1.00  0.00     0.065 C 
HETATM   27  C30 UNL     1     -17.123 -36.259 -13.250  1.00  0.00     0.022 C 
HETATM   28  C26 UNL     1     -15.236 -34.337 -14.117  1.00  0.00     0.041 C 
HETATM   29  C28 UNL     1     -13.417 -35.627 -13.097  1.00  0.00     0.047 C 
HETATM   30  C25 UNL     1     -15.908 -34.578 -15.392  1.00  0.00     0.039 C 
HETATM   31  C21 UNL     1     -14.280 -35.670 -16.752  1.00  0.00     0.044 C 
BRANCH  11  32
HETATM   32  O2  UNL     1     -14.305 -37.621 -15.247  1.00  0.00    -0.386 OA
ATOM     33  H2  UNL     1     -13.703 -36.951 -14.944  1.00  0.00     0.210 HD
ENDBRANCH  11  32
BRANCH  21  34
HETATM   34  C5  UNL     1     -14.792 -42.056  -9.815  1.00  0.00     0.036 C 
BRANCH  34  35
HETATM   35  C6  UNL     1     -15.427 -43.372  -9.439  1.00  0.00     0.176 C 
BRANCH  35  36
HETATM   36  O1  UNL     1     -14.954 -43.779  -8.181  1.00  0.00    -0.350 OA
BRANCH  36  37
HETATM   37  C7  UNL     1     -15.312 -45.005  -7.652  1.00  0.00     0.084 A 
HETATM   38  C8  UNL     1     -15.704 -46.052  -8.438  1.00  0.00     0.039 A 
HETATM   39  C9  UNL     1     -16.052 -47.259  -7.853  1.00  0.00     0.020 A 
HETATM   40  C10 UNL     1     -15.997 -47.381  -6.491  1.00  0.00     0.088 A 
HETATM   41  N1  UNL     1     -15.616 -46.362  -5.737  1.00  0.00    -0.373 N 
HETATM   42  C11 UNL     1     -15.277 -45.187  -6.287  1.00  0.00     0.124 A 
ATOM     43  H1  UNL     1     -15.581 -46.471  -4.724  1.00  0.00     0.164 HD
ENDBRANCH  36  37
ENDBRANCH  35  36
ENDBRANCH  34  35
ENDBRANCH  21  34
BRANCH  26  44
HETATM   44  O3  UNL     1     -15.331 -35.175 -11.932  1.00  0.00    -0.389 OA
ATOM     45  H3  UNL     1     -15.557 -35.997 -11.514  1.00  0.00     0.210 HD
ENDBRANCH  26  44
ENDBRANCH   1  10
TORSDOF 7
ENDMDL
MODEL 5
REMARK VINA RESULT: -8.106481655      1.142      1.723
REMARK  7 active torsions:
REMARK  status: ('A' for Active; 'I' for Inactive)
REMARK    1  A    between atoms: C4_4  and  C5_5 
REMARK    2  A    between atoms: C5_5  and  C6_6 
REMARK    3  A    between atoms: C6_6  and  O1_7 
REMARK    4  A    between atoms: O1_7  and  C7_8 
REMARK    5  A    between atoms: C19_22  and  O2_23 
REMARK    6  A    between atoms: C20_25  and  N2_27 
REMARK    7  A    between atoms: C27_38  and  O3_40 
ROOT
HETATM    1  N2  UNL     1     -14.691 -35.513 -14.138  1.00  0.00    -0.254 N 
HETATM    2  N3  UNL     1     -15.707 -34.894 -14.761  1.00  0.00    -0.239 N 
ATOM      3  H3  UNL     1     -16.102 -35.210 -15.648  1.00  0.00     0.208 HD
HETATM    4  N4  UNL     1     -16.132 -33.855 -14.118  1.00  0.00    -0.294 N 
ATOM      5  H4  UNL     1     -16.891 -33.235 -14.400  1.00  0.00     0.187 HD
HETATM    6  C22 UNL     1     -15.381 -33.746 -13.005  1.00  0.00     0.151 A 
HETATM    7  C23 UNL     1     -14.476 -34.798 -13.030  1.00  0.00     0.150 A 
HETATM    8  C24 UNL     1     -13.505 -35.032 -12.013  1.00  0.00     0.120 C 
HETATM    9  N5  UNL     1     -12.702 -35.219 -11.202  1.00  0.00    -0.190 NA
ENDROOT
BRANCH   1  10
HETATM   10  C20 UNL     1     -14.014 -36.707 -14.616  1.00  0.00     0.084 C 
HETATM   11  C19 UNL     1     -14.459 -37.967 -13.960  1.00  0.00     0.095 C 
HETATM   12  C18 UNL     1     -15.638 -37.773 -13.058  1.00  0.00     0.042 C 
HETATM   13  C29 UNL     1     -13.389 -38.793 -13.288  1.00  0.00     0.025 C 
HETATM   14  C17 UNL     1     -16.128 -39.009 -12.353  1.00  0.00     0.011 C 
HETATM   15  C16 UNL     1     -15.026 -39.777 -11.711  1.00  0.00     0.036 C 
HETATM   16  C15 UNL     1     -13.989 -40.073 -12.816  1.00  0.00     0.011 C 
HETATM   17  C31 UNL     1     -15.305 -41.004 -11.015  1.00  0.00     0.134 C 
HETATM   18  C14 UNL     1     -14.604 -41.036 -13.696  1.00  0.00     0.033 C 
HETATM   19  C13 UNL     1     -14.758 -42.327 -12.961  1.00  0.00    -0.020 C 
HETATM   20  C12 UNL     1     -15.095 -42.281 -11.706  1.00  0.00    -0.040 C 
HETATM   21  C4  UNL     1     -15.357 -43.285 -10.618  1.00  0.00     0.020 C 
HETATM   22  C3  UNL     1     -16.310 -42.577  -9.677  1.00  0.00     0.017 C 
HETATM   23  C2  UNL     1     -16.644 -41.249 -10.389  1.00  0.00     0.027 C 
HETATM   24  C1  UNL     1     -17.738 -41.568 -11.342  1.00  0.00     0.014 C 
HETATM   25  F1  UNL     1     -14.418 -41.089  -9.910  1.00  0.00    -0.237 F 
HETATM   26  C27 UNL     1     -12.125 -38.909 -14.060  1.00  0.00     0.065 C 
HETATM   27  C30 UNL     1     -12.919 -38.143 -11.967  1.00  0.00     0.022 C 
HETATM   28  C26 UNL     1     -11.611 -37.547 -14.404  1.00  0.00     0.041 C 
HETATM   29  C28 UNL     1     -12.053 -39.815 -15.225  1.00  0.00     0.047 C 
HETATM   30  C25 UNL     1     -12.527 -36.409 -14.360  1.00  0.00     0.039 C 
HETATM   31  C21 UNL     1     -14.056 -36.777 -16.155  1.00  0.00     0.044 C 
BRANCH  11  32
HETATM   32  O2  UNL     1     -14.931 -38.782 -15.021  1.00  0.00    -0.386 OA
ATOM     33  H2  UNL     1     -14.158 -39.210 -15.371  1.00  0.00     0.210 HD
ENDBRANCH  11  32
BRANCH  21  34
HETATM   34  C5  UNL     1     -15.898 -44.569 -11.150  1.00  0.00     0.036 C 
BRANCH  34  35
HETATM   35  C6  UNL     1     -15.153 -45.720 -10.518  1.00  0.00     0.176 C 
BRANCH  35  36
HETATM   36  O1  UNL     1     -15.923 -46.262  -9.477  1.00  0.00    -0.350 OA
BRANCH  36  37
HETATM   37  C7  UNL     1     -15.538 -46.113  -8.158  1.00  0.00     0.084 A 
HETATM   38  C8  UNL     1     -14.612 -45.186  -7.769  1.00  0.00     0.039 A 
HETATM   39  C9  UNL     1     -14.264 -45.080  -6.432  1.00  0.00     0.020 A 
HETATM   40  C10 UNL     1     -14.857 -45.911  -5.520  1.00  0.00     0.088 A 
HETATM   41  N1  UNL     1     -15.753 -46.806  -5.905  1.00  0.00    -0.373 N 
HETATM   42  C11 UNL     1     -16.100 -46.921  -7.195  1.00  0.00     0.124 A 
ATOM     43  H1  UNL     1     -16.184 -47.416  -5.211  1.00  0.00     0.164 HD
ENDBRANCH  36  37
ENDBRANCH  35  36
ENDBRANCH  34  35
ENDBRANCH  21  34
BRANCH  26  44
HETATM   44  O3  UNL     1     -11.189 -39.471 -13.137  1.00  0.00    -0.389 OA
ATOM     45  H3  UNL     1     -11.698 -39.971 -12.510  1.00  0.00     0.210 HD
ENDBRANCH  26  44
ENDBRANCH   1  10
TORSDOF 7
ENDMDL
