MODEL 1
REMARK VINA RESULT: -8.174387357      0.000      0.000
REMARK  11 active torsions:
REMARK  status: ('A' for Active; 'I' for Inactive)
REMARK    1  A    between atoms: C7_8  and  O1_9 
REMARK    2  A    between atoms: O1_9  and  C8_10 
REMARK    3  A    between atoms: C8_10  and  C9_11 
REMARK    4  A    between atoms: C9_11  and  O3_13 
REMARK    5  A    between atoms: O3_13  and  C10_14 
REMARK    6  A    between atoms: C10_14  and  C11_15 
REMARK       I    between atoms: C11_15  and  N2_17 
REMARK    7  A    between atoms: N2_17  and  C12_19 
REMARK    8  A    between atoms: C15_24  and  N4_25 
REMARK    9  A    between atoms: C16_28  and  C17_29 
REMARK   10  A    between atoms: C18_30  and  C19_31 
REMARK   11  A    between atoms: C19_31  and  C20_33 
ROOT
HETATM    1  N1  UNL     1      10.975  29.574  60.964  1.00  0.00    -0.191 NA
HETATM    2  C1  UNL     1      10.706  28.457  61.058  1.00  0.00     0.102 C 
HETATM    3  C2  UNL     1      10.348  27.047  61.173  1.00  0.00     0.077 A 
HETATM    4  C3  UNL     1      10.488  26.193  60.101  1.00  0.00     0.025 A 
HETATM    5  C4  UNL     1      10.158  24.861  60.190  1.00  0.00     0.002 A 
HETATM    6  C5  UNL     1       9.669  24.336  61.368  1.00  0.00     0.003 A 
HETATM    7  C6  UNL     1       9.532  25.212  62.439  1.00  0.00     0.038 A 
HETATM    8  C7  UNL     1       9.858  26.542  62.368  1.00  0.00     0.090 A 
ENDROOT
BRANCH   8   9
HETATM    9  O1  UNL     1       9.705  27.362  63.441  1.00  0.00    -0.340 OA
BRANCH   9  10
HETATM   10  C8  UNL     1       8.579  27.946  63.974  1.00  0.00     0.286 C 
BRANCH  10  11
HETATM   11  C9  UNL     1       8.670  28.357  65.391  1.00  0.00     0.283 C 
HETATM   12  O2  UNL     1       7.977  27.785  66.268  1.00  0.00    -0.263 OA
BRANCH  11  13
HETATM   13  O3  UNL     1       9.507  29.373  65.820  1.00  0.00    -0.310 OA
BRANCH  13  14
HETATM   14  C10 UNL     1       9.070  30.692  65.884  1.00  0.00     0.281 C 
BRANCH  14  15
HETATM   15  C11 UNL     1       9.985  31.568  65.075  1.00  0.00     0.246 C 
HETATM   16  O4  UNL     1      10.492  31.060  64.058  1.00  0.00    -0.271 OA
HETATM   17  N2  UNL     1      10.251  32.888  65.450  1.00  0.00    -0.323 N 
ATOM     18  H2  UNL     1       9.780  33.199  66.299  1.00  0.00     0.169 HD
BRANCH  17  19
HETATM   19  C12 UNL     1      11.065  33.850  64.835  1.00  0.00     0.063 A 
HETATM   20  C13 UNL     1      10.687  34.484  63.688  1.00  0.00     0.118 A 
HETATM   21  N3  UNL     1      11.496  35.372  63.059  1.00  0.00    -0.371 N 
HETATM   22  C14 UNL     1      12.681  35.643  63.550  1.00  0.00     0.124 A 
ATOM     23  H3  UNL     1      11.183  35.829  62.203  1.00  0.00     0.164 HD
HETATM   24  C15 UNL     1      13.146  35.023  64.744  1.00  0.00     0.130 A 
HETATM   25  C16 UNL     1      12.349  34.118  65.402  1.00  0.00     0.027 A 
BRANCH  24  26
HETATM   26  N4  UNL     1      14.382  35.531  65.184  1.00  0.00    -0.113 N 
HETATM   27  O5  UNL     1      14.454  36.839  65.301  1.00  0.00    -0.532 OA
HETATM   28  O6  UNL     1      15.527  34.958  65.548  1.00  0.00    -0.532 OA
ENDBRANCH  24  26
BRANCH  25  29
HETATM   29  C17 UNL     1      12.598  33.499  66.672  1.00  0.00     0.020 C 
HETATM   30  C18 UNL     1      13.378  32.541  67.063  1.00  0.00     0.057 C 
BRANCH  30  31
HETATM   31  C19 UNL     1      13.396  32.154  68.470  1.00  0.00     0.189 C 
HETATM   32  O7  UNL     1      14.320  31.436  68.906  1.00  0.00    -0.287 OA
BRANCH  31  33
HETATM   33  C20 UNL     1      12.329  32.599  69.395  1.00  0.00     0.054 A 
HETATM   34  C21 UNL     1      10.975  32.506  69.221  1.00  0.00     0.023 A 
HETATM   35  C22 UNL     1      10.191  32.977  70.197  1.00  0.00     0.009 A 
HETATM   36  C23 UNL     1      10.808  33.515  71.294  1.00  0.00     0.050 A 
HETATM   37  S1  UNL     1      12.465  33.342  70.921  1.00  0.00    -0.098 SA
ENDBRANCH  31  33
ENDBRANCH  30  31
ENDBRANCH  25  29
ENDBRANCH  17  19
ENDBRANCH  14  15
ENDBRANCH  13  14
ENDBRANCH  11  13
ENDBRANCH  10  11
ENDBRANCH   9  10
ENDBRANCH   8   9
TORSDOF 11
ENDMDL
MODEL 2
REMARK VINA RESULT: -8.043574285      1.207      1.817
REMARK  11 active torsions:
REMARK  status: ('A' for Active; 'I' for Inactive)
REMARK    1  A    between atoms: C7_8  and  O1_9 
REMARK    2  A    between atoms: O1_9  and  C8_10 
REMARK    3  A    between atoms: C8_10  and  C9_11 
REMARK    4  A    between atoms: C9_11  and  O3_13 
REMARK    5  A    between atoms: O3_13  and  C10_14 
REMARK    6  A    between atoms: C10_14  and  C11_15 
REMARK       I    between atoms: C11_15  and  N2_17 
REMARK    7  A    between atoms: N2_17  and  C12_19 
REMARK    8  A    between atoms: C15_24  and  N4_25 
REMARK    9  A    between atoms: C16_28  and  C17_29 
REMARK   10  A    between atoms: C18_30  and  C19_31 
REMARK   11  A    between atoms: C19_31  and  C20_33 
ROOT
HETATM    1  N1  UNL     1      10.974  29.572  60.962  1.00  0.00    -0.191 NA
HETATM    2  C1  UNL     1      10.700  28.457  61.051  1.00  0.00     0.102 C 
HETATM    3  C2  UNL     1      10.336  27.048  61.161  1.00  0.00     0.077 A 
HETATM    4  C3  UNL     1      10.467  26.198  60.084  1.00  0.00     0.025 A 
HETATM    5  C4  UNL     1      10.131  24.867  60.168  1.00  0.00     0.002 A 
HETATM    6  C5  UNL     1       9.645  24.339  61.346  1.00  0.00     0.003 A 
HETATM    7  C6  UNL     1       9.517  25.210  62.422  1.00  0.00     0.038 A 
HETATM    8  C7  UNL     1       9.849  26.539  62.356  1.00  0.00     0.090 A 
ENDROOT
BRANCH   8   9
HETATM    9  O1  UNL     1       9.705  27.354  63.433  1.00  0.00    -0.340 OA
BRANCH   9  10
HETATM   10  C8  UNL     1       8.594  27.989  63.940  1.00  0.00     0.286 C 
BRANCH  10  11
HETATM   11  C9  UNL     1       8.663  28.379  65.364  1.00  0.00     0.283 C 
HETATM   12  O2  UNL     1       7.974  27.778  66.225  1.00  0.00    -0.263 OA
BRANCH  11  13
HETATM   13  O3  UNL     1       9.472  29.407  65.817  1.00  0.00    -0.310 OA
BRANCH  13  14
HETATM   14  C10 UNL     1       9.039  30.728  65.805  1.00  0.00     0.281 C 
BRANCH  14  15
HETATM   15  C11 UNL     1      10.022  31.576  65.046  1.00  0.00     0.246 C 
HETATM   16  O4  UNL     1      10.582  31.045  64.069  1.00  0.00    -0.271 OA
HETATM   17  N2  UNL     1      10.291  32.895  65.422  1.00  0.00    -0.323 N 
ATOM     18  H2  UNL     1       9.774  33.225  66.237  1.00  0.00     0.169 HD
BRANCH  17  19
HETATM   19  C12 UNL     1      11.163  33.832  64.850  1.00  0.00     0.063 A 
HETATM   20  C13 UNL     1      10.914  34.394  63.632  1.00  0.00     0.118 A 
HETATM   21  N3  UNL     1      11.783  35.257  63.049  1.00  0.00    -0.371 N 
HETATM   22  C14 UNL     1      12.901  35.573  63.657  1.00  0.00     0.124 A 
ATOM     23  H3  UNL     1      11.567  35.659  62.138  1.00  0.00     0.164 HD
HETATM   24  C15 UNL     1      13.230  35.030  64.931  1.00  0.00     0.130 A 
HETATM   25  C16 UNL     1      12.370  34.152  65.545  1.00  0.00     0.027 A 
BRANCH  24  26
HETATM   26  N4  UNL     1      14.402  35.582  65.480  1.00  0.00    -0.113 N 
HETATM   27  O5  UNL     1      15.474  34.822  65.422  1.00  0.00    -0.532 OA
HETATM   28  O6  UNL     1      14.681  36.756  66.042  1.00  0.00    -0.532 OA
ENDBRANCH  24  26
BRANCH  25  29
HETATM   29  C17 UNL     1      12.475  33.611  66.869  1.00  0.00     0.020 C 
HETATM   30  C18 UNL     1      13.271  32.752  67.424  1.00  0.00     0.057 C 
BRANCH  30  31
HETATM   31  C19 UNL     1      13.106  32.423  68.836  1.00  0.00     0.189 C 
HETATM   32  O7  UNL     1      11.965  32.199  69.293  1.00  0.00    -0.287 OA
BRANCH  31  33
HETATM   33  C20 UNL     1      14.273  32.354  69.743  1.00  0.00     0.054 A 
HETATM   34  C21 UNL     1      15.590  32.198  69.406  1.00  0.00     0.023 A 
HETATM   35  C22 UNL     1      16.484  32.161  70.400  1.00  0.00     0.009 A 
HETATM   36  C23 UNL     1      16.009  32.283  71.678  1.00  0.00     0.050 A 
HETATM   37  S1  UNL     1      14.326  32.445  71.443  1.00  0.00    -0.098 SA
ENDBRANCH  31  33
ENDBRANCH  30  31
ENDBRANCH  25  29
ENDBRANCH  17  19
ENDBRANCH  14  15
ENDBRANCH  13  14
ENDBRANCH  11  13
ENDBRANCH  10  11
ENDBRANCH   9  10
ENDBRANCH   8   9
TORSDOF 11
ENDMDL
MODEL 3
REMARK VINA RESULT: -7.878009935      2.046      2.765
REMARK  11 active torsions:
REMARK  status: ('A' for Active; 'I' for Inactive)
REMARK    1  A    between atoms: C7_8  and  O1_9 
REMARK    2  A    between atoms: O1_9  and  C8_10 
REMARK    3  A    between atoms: C8_10  and  C9_11 
REMARK    4  A    between atoms: C9_11  and  O3_13 
REMARK    5  A    between atoms: O3_13  and  C10_14 
REMARK    6  A    between atoms: C10_14  and  C11_15 
REMARK       I    between atoms: C11_15  and  N2_17 
REMARK    7  A    between atoms: N2_17  and  C12_19 
REMARK    8  A    between atoms: C15_24  and  N4_25 
REMARK    9  A    between atoms: C16_28  and  C17_29 
REMARK   10  A    between atoms: C18_30  and  C19_31 
REMARK   11  A    between atoms: C19_31  and  C20_33 
ROOT
HETATM    1  N1  UNL     1       9.844  31.438  61.713  1.00  0.00    -0.191 NA
HETATM    2  C1  UNL     1       9.926  30.290  61.653  1.00  0.00     0.102 C 
HETATM    3  C2  UNL     1      10.014  28.836  61.568  1.00  0.00     0.077 A 
HETATM    4  C3  UNL     1      10.600  28.225  60.481  1.00  0.00     0.025 A 
HETATM    5  C4  UNL     1      10.694  26.856  60.384  1.00  0.00     0.002 A 
HETATM    6  C5  UNL     1      10.197  26.046  61.384  1.00  0.00     0.003 A 
HETATM    7  C6  UNL     1       9.608  26.679  62.473  1.00  0.00     0.038 A 
HETATM    8  C7  UNL     1       9.507  28.042  62.586  1.00  0.00     0.090 A 
ENDROOT
BRANCH   8   9
HETATM    9  O1  UNL     1       8.921  28.616  63.669  1.00  0.00    -0.340 OA
BRANCH   9  10
HETATM   10  C8  UNL     1       9.169  28.462  65.014  1.00  0.00     0.286 C 
BRANCH  10  11
HETATM   11  C9  UNL     1       9.455  29.702  65.767  1.00  0.00     0.283 C 
HETATM   12  O2  UNL     1       9.648  29.665  67.007  1.00  0.00    -0.263 OA
BRANCH  11  13
HETATM   13  O3  UNL     1       9.524  30.944  65.159  1.00  0.00    -0.310 OA
BRANCH  13  14
HETATM   14  C10 UNL     1      10.742  31.582  64.954  1.00  0.00     0.281 C 
BRANCH  14  15
HETATM   15  C11 UNL     1      10.523  33.066  64.841  1.00  0.00     0.246 C 
HETATM   16  O4  UNL     1       9.924  33.617  65.783  1.00  0.00    -0.271 OA
HETATM   17  N2  UNL     1      10.971  33.786  63.730  1.00  0.00    -0.323 N 
ATOM     18  H2  UNL     1      11.450  33.232  63.020  1.00  0.00     0.169 HD
BRANCH  17  19
HETATM   19  C12 UNL     1      10.864  35.154  63.444  1.00  0.00     0.063 A 
HETATM   20  C13 UNL     1       9.772  35.671  62.811  1.00  0.00     0.118 A 
HETATM   21  N3  UNL     1       9.689  36.984  62.480  1.00  0.00    -0.371 N 
HETATM   22  C14 UNL     1      10.676  37.797  62.768  1.00  0.00     0.124 A 
ATOM     23  H3  UNL     1       8.858  37.339  62.007  1.00  0.00     0.164 HD
HETATM   24  C15 UNL     1      11.848  37.333  63.429  1.00  0.00     0.130 A 
HETATM   25  C16 UNL     1      11.961  36.007  63.775  1.00  0.00     0.027 A 
BRANCH  24  26
HETATM   26  N4  UNL     1      12.739  38.369  63.767  1.00  0.00    -0.113 N 
HETATM   27  O5  UNL     1      12.723  38.748  65.026  1.00  0.00    -0.532 OA
HETATM   28  O6  UNL     1      13.644  39.055  63.074  1.00  0.00    -0.532 OA
ENDBRANCH  24  26
BRANCH  25  29
HETATM   29  C17 UNL     1      13.001  35.395  64.550  1.00  0.00     0.020 C 
HETATM   30  C18 UNL     1      13.277  35.371  65.816  1.00  0.00     0.057 C 
BRANCH  30  31
HETATM   31  C19 UNL     1      14.437  34.622  66.287  1.00  0.00     0.189 C 
HETATM   32  O7  UNL     1      15.559  34.828  65.777  1.00  0.00    -0.287 OA
BRANCH  31  33
HETATM   33  C20 UNL     1      14.308  33.615  67.363  1.00  0.00     0.054 A 
HETATM   34  C21 UNL     1      13.781  32.355  67.276  1.00  0.00     0.023 A 
HETATM   35  C22 UNL     1      13.765  31.610  68.386  1.00  0.00     0.009 A 
HETATM   36  C23 UNL     1      14.279  32.170  69.525  1.00  0.00     0.050 A 
HETATM   37  S1  UNL     1      14.767  33.719  69.000  1.00  0.00    -0.098 SA
ENDBRANCH  31  33
ENDBRANCH  30  31
ENDBRANCH  25  29
ENDBRANCH  17  19
ENDBRANCH  14  15
ENDBRANCH  13  14
ENDBRANCH  11  13
ENDBRANCH  10  11
ENDBRANCH   9  10
ENDBRANCH   8   9
TORSDOF 11
ENDMDL
MODEL 4
REMARK VINA RESULT: -7.633888012      1.249      1.808
REMARK  11 active torsions:
REMARK  status: ('A' for Active; 'I' for Inactive)
REMARK    1  A    between atoms: C7_8  and  O1_9 
REMARK    2  A    between atoms: O1_9  and  C8_10 
REMARK    3  A    between atoms: C8_10  and  C9_11 
REMARK    4  A    between atoms: C9_11  and  O3_13 
REMARK    5  A    between atoms: O3_13  and  C10_14 
REMARK    6  A    between atoms: C10_14  and  C11_15 
REMARK       I    between atoms: C11_15  and  N2_17 
REMARK    7  A    between atoms: N2_17  and  C12_19 
REMARK    8  A    between atoms: C15_24  and  N4_25 
REMARK    9  A    between atoms: C16_28  and  C17_29 
REMARK   10  A    between atoms: C18_30  and  C19_31 
REMARK   11  A    between atoms: C19_31  and  C20_33 
ROOT
HETATM    1  N1  UNL     1       9.089  23.950  62.289  1.00  0.00    -0.191 NA
HETATM    2  C1  UNL     1       9.384  25.038  62.049  1.00  0.00     0.102 C 
HETATM    3  C2  UNL     1       9.773  26.413  61.754  1.00  0.00     0.077 A 
HETATM    4  C3  UNL     1      10.454  26.723  60.596  1.00  0.00     0.025 A 
HETATM    5  C4  UNL     1      10.828  28.013  60.300  1.00  0.00     0.002 A 
HETATM    6  C5  UNL     1      10.530  29.046  61.165  1.00  0.00     0.003 A 
HETATM    7  C6  UNL     1       9.844  28.716  62.329  1.00  0.00     0.038 A 
HETATM    8  C7  UNL     1       9.463  27.436  62.638  1.00  0.00     0.090 A 
ENDROOT
BRANCH   8   9
HETATM    9  O1  UNL     1       8.795  27.160  63.789  1.00  0.00    -0.340 OA
BRANCH   9  10
HETATM   10  C8  UNL     1       8.017  27.963  64.593  1.00  0.00     0.286 C 
BRANCH  10  11
HETATM   11  C9  UNL     1       8.623  28.377  65.876  1.00  0.00     0.283 C 
HETATM   12  O2  UNL     1       8.328  27.783  66.942  1.00  0.00    -0.263 OA
BRANCH  11  13
HETATM   13  O3  UNL     1       9.528  29.421  65.970  1.00  0.00    -0.310 OA
BRANCH  13  14
HETATM   14  C10 UNL     1       9.103  30.743  66.038  1.00  0.00     0.281 C 
BRANCH  14  15
HETATM   15  C11 UNL     1      10.019  31.611  65.220  1.00  0.00     0.246 C 
HETATM   16  O4  UNL     1      10.542  31.086  64.220  1.00  0.00    -0.271 OA
HETATM   17  N2  UNL     1      10.267  32.941  65.570  1.00  0.00    -0.323 N 
ATOM     18  H2  UNL     1       9.784  33.265  66.408  1.00  0.00     0.169 HD
BRANCH  17  19
HETATM   19  C12 UNL     1      11.079  33.898  64.944  1.00  0.00     0.063 A 
HETATM   20  C13 UNL     1      10.677  34.555  63.818  1.00  0.00     0.118 A 
HETATM   21  N3  UNL     1      11.482  35.438  63.177  1.00  0.00    -0.371 N 
HETATM   22  C14 UNL     1      12.686  35.681  63.635  1.00  0.00     0.124 A 
ATOM     23  H3  UNL     1      11.151  35.913  62.337  1.00  0.00     0.164 HD
HETATM   24  C15 UNL     1      13.177  35.036  64.805  1.00  0.00     0.130 A 
HETATM   25  C16 UNL     1      12.385  34.135  65.475  1.00  0.00     0.027 A 
BRANCH  24  26
HETATM   26  N4  UNL     1      14.435  35.517  65.214  1.00  0.00    -0.113 N 
HETATM   27  O5  UNL     1      14.578  36.824  65.205  1.00  0.00    -0.532 OA
HETATM   28  O6  UNL     1      15.542  34.920  65.649  1.00  0.00    -0.532 OA
ENDBRANCH  24  26
BRANCH  25  29
HETATM   29  C17 UNL     1      12.662  33.494  66.727  1.00  0.00     0.020 C 
HETATM   30  C18 UNL     1      12.731  33.913  67.952  1.00  0.00     0.057 C 
BRANCH  30  31
HETATM   31  C19 UNL     1      13.033  32.969  69.022  1.00  0.00     0.189 C 
HETATM   32  O7  UNL     1      14.060  32.261  68.954  1.00  0.00    -0.287 OA
BRANCH  31  33
HETATM   33  C20 UNL     1      12.138  32.832  70.192  1.00  0.00     0.054 A 
HETATM   34  C21 UNL     1      10.770  32.792  70.202  1.00  0.00     0.023 A 
HETATM   35  C22 UNL     1      10.162  32.662  71.386  1.00  0.00     0.009 A 
HETATM   36  C23 UNL     1      10.960  32.579  72.496  1.00  0.00     0.050 A 
HETATM   37  S1  UNL     1      12.532  32.685  71.841  1.00  0.00    -0.098 SA
ENDBRANCH  31  33
ENDBRANCH  30  31
ENDBRANCH  25  29
ENDBRANCH  17  19
ENDBRANCH  14  15
ENDBRANCH  13  14
ENDBRANCH  11  13
ENDBRANCH  10  11
ENDBRANCH   9  10
ENDBRANCH   8   9
TORSDOF 11
ENDMDL
MODEL 5
REMARK VINA RESULT: -7.542631897      8.315     12.767
REMARK  11 active torsions:
REMARK  status: ('A' for Active; 'I' for Inactive)
REMARK    1  A    between atoms: C7_8  and  O1_9 
REMARK    2  A    between atoms: O1_9  and  C8_10 
REMARK    3  A    between atoms: C8_10  and  C9_11 
REMARK    4  A    between atoms: C9_11  and  O3_13 
REMARK    5  A    between atoms: O3_13  and  C10_14 
REMARK    6  A    between atoms: C10_14  and  C11_15 
REMARK       I    between atoms: C11_15  and  N2_17 
REMARK    7  A    between atoms: N2_17  and  C12_19 
REMARK    8  A    between atoms: C15_24  and  N4_25 
REMARK    9  A    between atoms: C16_28  and  C17_29 
REMARK   10  A    between atoms: C18_30  and  C19_31 
REMARK   11  A    between atoms: C19_31  and  C20_33 
ROOT
HETATM    1  N1  UNL     1       9.460  27.775  61.205  1.00  0.00    -0.191 NA
HETATM    2  C1  UNL     1       9.608  28.602  61.993  1.00  0.00     0.102 C 
HETATM    3  C2  UNL     1       9.811  29.642  62.996  1.00  0.00     0.077 A 
HETATM    4  C3  UNL     1      10.404  30.841  62.662  1.00  0.00     0.025 A 
HETATM    5  C4  UNL     1      10.603  31.834  63.594  1.00  0.00     0.002 A 
HETATM    6  C5  UNL     1      10.210  31.656  64.904  1.00  0.00     0.003 A 
HETATM    7  C6  UNL     1       9.615  30.441  65.224  1.00  0.00     0.038 A 
HETATM    8  C7  UNL     1       9.408  29.441  64.308  1.00  0.00     0.090 A 
ENDROOT
BRANCH   8   9
HETATM    9  O1  UNL     1       8.824  28.269  64.668  1.00  0.00    -0.340 OA
BRANCH   9  10
HETATM   10  C8  UNL     1       7.542  27.994  65.089  1.00  0.00     0.286 C 
BRANCH  10  11
HETATM   11  C9  UNL     1       7.423  27.262  66.369  1.00  0.00     0.283 C 
HETATM   12  O2  UNL     1       8.165  27.549  67.340  1.00  0.00    -0.263 OA
BRANCH  11  13
HETATM   13  O3  UNL     1       6.506  26.243  66.561  1.00  0.00    -0.310 OA
BRANCH  13  14
HETATM   14  C10 UNL     1       5.190  26.512  66.920  1.00  0.00     0.281 C 
BRANCH  14  15
HETATM   15  C11 UNL     1       4.946  26.051  68.331  1.00  0.00     0.246 C 
HETATM   16  O4  UNL     1       5.950  25.885  69.047  1.00  0.00    -0.271 OA
HETATM   17  N2  UNL     1       3.653  25.822  68.809  1.00  0.00    -0.323 N 
ATOM     18  H2  UNL     1       2.906  25.991  68.135  1.00  0.00     0.169 HD
BRANCH  17  19
HETATM   19  C12 UNL     1       3.226  25.394  70.074  1.00  0.00     0.063 A 
HETATM   20  C13 UNL     1       3.754  25.909  71.222  1.00  0.00     0.118 A 
HETATM   21  N3  UNL     1       3.386  25.458  72.447  1.00  0.00    -0.371 N 
HETATM   22  C14 UNL     1       2.498  24.499  72.554  1.00  0.00     0.124 A 
ATOM     23  H3  UNL     1       3.800  25.864  73.285  1.00  0.00     0.164 HD
HETATM   24  C15 UNL     1       1.901  23.913  71.402  1.00  0.00     0.130 A 
HETATM   25  C16 UNL     1       2.255  24.348  70.148  1.00  0.00     0.027 A 
BRANCH  24  26
HETATM   26  N4  UNL     1       0.883  22.994  71.717  1.00  0.00    -0.113 N 
HETATM   27  O5  UNL     1       1.259  21.738  71.825  1.00  0.00    -0.532 OA
HETATM   28  O6  UNL     1      -0.419  23.123  71.964  1.00  0.00    -0.532 OA
ENDBRANCH  24  26
BRANCH  25  29
HETATM   29  C17 UNL     1       1.670  23.967  68.896  1.00  0.00     0.020 C 
HETATM   30  C18 UNL     1       1.579  22.843  68.256  1.00  0.00     0.057 C 
BRANCH  30  31
HETATM   31  C19 UNL     1       0.888  22.800  66.971  1.00  0.00     0.189 C 
HETATM   32  O7  UNL     1       0.735  23.849  66.312  1.00  0.00    -0.287 OA
BRANCH  31  33
HETATM   33  C20 UNL     1       0.361  21.526  66.433  1.00  0.00     0.054 A 
HETATM   34  C21 UNL     1      -0.438  21.344  65.336  1.00  0.00     0.023 A 
HETATM   35  C22 UNL     1      -0.797  20.092  65.032  1.00  0.00     0.009 A 
HETATM   36  C23 UNL     1      -0.336  19.091  65.844  1.00  0.00     0.050 A 
HETATM   37  S1  UNL     1       0.584  19.938  67.005  1.00  0.00    -0.098 SA
ENDBRANCH  31  33
ENDBRANCH  30  31
ENDBRANCH  25  29
ENDBRANCH  17  19
ENDBRANCH  14  15
ENDBRANCH  13  14
ENDBRANCH  11  13
ENDBRANCH  10  11
ENDBRANCH   9  10
ENDBRANCH   8   9
TORSDOF 11
ENDMDL
