MODEL 1
REMARK VINA RESULT: -7.532631934      0.000      0.000
REMARK  11 active torsions:
REMARK  status: ('A' for Active; 'I' for Inactive)
REMARK    1  A    between atoms: O1_2  and  N1_3 
REMARK    2  A    between atoms: C2_5  and  C3_6 
REMARK    3  A    between atoms: C3_6  and  C4_7 
REMARK    4  A    between atoms: C3_6  and  C13_20 
REMARK       I    between atoms: C4_7  and  N2_9 
REMARK    5  A    between atoms: N2_9  and  C5_11 
REMARK    6  A    between atoms: C13_20  and  O5_22 
REMARK    7  A    between atoms: O5_22  and  C14_23 
REMARK    8  A    between atoms: C14_23  and  O6_24 
REMARK    9  A    between atoms: O6_24  and  C15_25 
REMARK   10  A    between atoms: C15_25  and  C16_27 
REMARK   11  A    between atoms: C21_32  and  N3_33 
ROOT
HETATM    1  C3  UNL     1      10.756  28.854  62.100  1.00  0.00     0.218 C 
ENDROOT
BRANCH   1   2
HETATM    2  C2  UNL     1      10.907  27.807  61.063  1.00  0.00     0.111 C 
HETATM    3  N1  UNL     1       9.925  27.077  60.676  1.00  0.00    -0.281 N 
ATOM      4  H1  UNL     1       8.997  27.202  61.081  1.00  0.00     0.193 HD
BRANCH   3   5
HETATM    5  O1  UNL     1      10.140  26.132  59.715  1.00  0.00    -0.286 OA
HETATM    6  C1  UNL     1      10.246  24.776  60.158  1.00  0.00     0.237 C 
ENDBRANCH   3   5
ENDBRANCH   1   2
BRANCH   1   7
HETATM    7  C4  UNL     1      10.429  28.215  63.438  1.00  0.00     0.241 C 
HETATM    8  O2  UNL     1      10.984  27.122  63.648  1.00  0.00    -0.272 OA
HETATM    9  N2  UNL     1       9.551  28.913  64.280  1.00  0.00    -0.324 N 
ATOM     10  H2  UNL     1       9.201  29.801  63.919  1.00  0.00     0.169 HD
BRANCH   9  11
HETATM   11  C5  UNL     1       9.087  28.547  65.561  1.00  0.00     0.069 A 
HETATM   12  C6  UNL     1       9.630  29.007  66.717  1.00  0.00     0.032 A 
HETATM   13  C7  UNL     1       9.138  28.616  67.967  1.00  0.00     0.003 A 
HETATM   14  C8  UNL     1       8.080  27.746  68.025  1.00  0.00     0.014 A 
HETATM   15  C9  UNL     1       7.527  27.276  66.856  1.00  0.00     0.002 A 
HETATM   16  C10 UNL     1       6.486  26.417  66.593  1.00  0.00     0.039 A 
HETATM   17  C12 UNL     1       8.023  27.671  65.642  1.00  0.00     0.112 A 
HETATM   18  C11 UNL     1       6.398  26.327  65.210  1.00  0.00     0.143 A 
HETATM   19  O3  UNL     1       7.327  27.087  64.716  1.00  0.00    -0.320 OA
ENDBRANCH   9  11
ENDBRANCH   1   7
BRANCH   1  20
HETATM   20  C13 UNL     1       9.721  29.834  61.711  1.00  0.00     0.279 C 
HETATM   21  O4  UNL     1       8.524  29.472  61.551  1.00  0.00    -0.264 OA
BRANCH  20  22
HETATM   22  O5  UNL     1      10.030  31.159  61.516  1.00  0.00    -0.294 OA
BRANCH  22  23
HETATM   23  C14 UNL     1       9.952  32.120  62.553  1.00  0.00     0.358 C 
BRANCH  23  24
HETATM   24  O6  UNL     1      10.918  31.844  63.579  1.00  0.00    -0.291 OA
BRANCH  24  25
HETATM   25  C15 UNL     1      10.711  32.161  64.889  1.00  0.00     0.297 C 
HETATM   26  O7  UNL     1       9.506  32.040  65.302  1.00  0.00    -0.259 OA
BRANCH  25  27
HETATM   27  C16 UNL     1      11.712  32.614  65.842  1.00  0.00     0.066 A 
HETATM   28  C17 UNL     1      12.042  31.782  66.919  1.00  0.00     0.020 A 
HETATM   29  C18 UNL     1      12.977  32.142  67.857  1.00  0.00     0.001 A 
HETATM   30  C19 UNL     1      13.620  33.354  67.752  1.00  0.00     0.002 A 
HETATM   31  C20 UNL     1      13.335  34.205  66.718  1.00  0.00     0.031 A 
HETATM   32  C21 UNL     1      12.375  33.819  65.769  1.00  0.00     0.056 A 
BRANCH  32  33
HETATM   33  N3  UNL     1      12.073  34.698  64.691  1.00  0.00    -0.316 N 
HETATM   34  C22 UNL     1      10.897  35.320  64.536  1.00  0.00     0.115 A 
HETATM   35  C23 UNL     1      10.979  36.064  63.366  1.00  0.00     0.106 A 
HETATM   36  N4  UNL     1      12.207  35.871  62.843  1.00  0.00    -0.360 N 
HETATM   37  C24 UNL     1      12.850  35.035  63.672  1.00  0.00     0.188 A 
ATOM     38  H4  UNL     1      12.574  36.282  61.985  1.00  0.00     0.166 HD
ENDBRANCH  32  33
ENDBRANCH  25  27
ENDBRANCH  24  25
ENDBRANCH  23  24
ENDBRANCH  22  23
ENDBRANCH  20  22
ENDBRANCH   1  20
TORSDOF 11
ENDMDL
MODEL 2
REMARK VINA RESULT: -7.434585772      3.921      8.919
REMARK  11 active torsions:
REMARK  status: ('A' for Active; 'I' for Inactive)
REMARK    1  A    between atoms: O1_2  and  N1_3 
REMARK    2  A    between atoms: C2_5  and  C3_6 
REMARK    3  A    between atoms: C3_6  and  C4_7 
REMARK    4  A    between atoms: C3_6  and  C13_20 
REMARK       I    between atoms: C4_7  and  N2_9 
REMARK    5  A    between atoms: N2_9  and  C5_11 
REMARK    6  A    between atoms: C13_20  and  O5_22 
REMARK    7  A    between atoms: O5_22  and  C14_23 
REMARK    8  A    between atoms: C14_23  and  O6_24 
REMARK    9  A    between atoms: O6_24  and  C15_25 
REMARK   10  A    between atoms: C15_25  and  C16_27 
REMARK   11  A    between atoms: C21_32  and  N3_33 
ROOT
HETATM    1  C3  UNL     1       9.214  28.723  65.930  1.00  0.00     0.218 C 
ENDROOT
BRANCH   1   2
HETATM    2  C2  UNL     1       9.247  30.103  66.468  1.00  0.00     0.111 C 
HETATM    3  N1  UNL     1       8.692  31.089  65.863  1.00  0.00    -0.281 N 
ATOM      4  H1  UNL     1       8.205  30.945  64.978  1.00  0.00     0.193 HD
BRANCH   3   5
HETATM    5  O1  UNL     1       8.763  32.333  66.419  1.00  0.00    -0.286 OA
HETATM    6  C1  UNL     1      10.039  32.743  66.920  1.00  0.00     0.237 C 
ENDBRANCH   3   5
ENDBRANCH   1   2
BRANCH   1   7
HETATM    7  C4  UNL     1       9.784  28.702  64.522  1.00  0.00     0.241 C 
HETATM    8  O2  UNL     1      10.455  29.702  64.212  1.00  0.00    -0.272 OA
HETATM    9  N2  UNL     1       9.497  27.576  63.735  1.00  0.00    -0.324 N 
ATOM     10  H2  UNL     1       8.923  26.859  64.179  1.00  0.00     0.169 HD
BRANCH   9  11
HETATM   11  C5  UNL     1       9.898  27.308  62.410  1.00  0.00     0.069 A 
HETATM   12  C6  UNL     1      10.382  28.254  61.564  1.00  0.00     0.032 A 
HETATM   13  C7  UNL     1      10.767  27.942  60.257  1.00  0.00     0.003 A 
HETATM   14  C8  UNL     1      10.656  26.649  59.818  1.00  0.00     0.014 A 
HETATM   15  C9  UNL     1      10.166  25.686  60.671  1.00  0.00     0.002 A 
HETATM   16  C10 UNL     1       9.942  24.337  60.529  1.00  0.00     0.039 A 
HETATM   17  C12 UNL     1       9.793  26.011  61.949  1.00  0.00     0.112 A 
HETATM   18  C11 UNL     1       9.434  23.899  61.745  1.00  0.00     0.143 A 
HETATM   19  O3  UNL     1       9.374  24.930  62.530  1.00  0.00    -0.320 OA
ENDBRANCH   9  11
ENDBRANCH   1   7
BRANCH   1  20
HETATM   20  C13 UNL     1       7.839  28.181  65.956  1.00  0.00     0.279 C 
HETATM   21  O4  UNL     1       6.941  28.678  65.226  1.00  0.00    -0.264 OA
BRANCH  20  22
HETATM   22  O5  UNL     1       7.504  27.125  66.769  1.00  0.00    -0.294 OA
BRANCH  22  23
HETATM   23  C14 UNL     1       7.906  27.050  68.125  1.00  0.00     0.358 C 
BRANCH  23  24
HETATM   24  O6  UNL     1       6.973  26.274  68.892  1.00  0.00    -0.291 OA
BRANCH  24  25
HETATM   25  C15 UNL     1       7.111  26.073  70.234  1.00  0.00     0.297 C 
HETATM   26  O7  UNL     1       7.851  25.085  70.571  1.00  0.00    -0.259 OA
BRANCH  25  27
HETATM   27  C16 UNL     1       6.508  26.862  71.297  1.00  0.00     0.066 A 
HETATM   28  C17 UNL     1       7.287  27.830  71.942  1.00  0.00     0.020 A 
HETATM   29  C18 UNL     1       6.786  28.612  72.953  1.00  0.00     0.001 A 
HETATM   30  C19 UNL     1       5.480  28.452  73.358  1.00  0.00     0.002 A 
HETATM   31  C20 UNL     1       4.676  27.520  72.760  1.00  0.00     0.031 A 
HETATM   32  C21 UNL     1       5.206  26.730  71.728  1.00  0.00     0.056 A 
BRANCH  32  33
HETATM   33  N3  UNL     1       4.376  25.758  71.102  1.00  0.00    -0.316 N 
HETATM   34  C22 UNL     1       3.498  26.034  70.128  1.00  0.00     0.115 A 
HETATM   35  C23 UNL     1       2.868  24.842  69.797  1.00  0.00     0.106 A 
HETATM   36  N4  UNL     1       3.384  23.873  70.581  1.00  0.00    -0.360 N 
HETATM   37  C24 UNL     1       4.300  24.462  71.365  1.00  0.00     0.188 A 
ATOM     38  H4  UNL     1       3.127  22.886  70.578  1.00  0.00     0.166 HD
ENDBRANCH  32  33
ENDBRANCH  25  27
ENDBRANCH  24  25
ENDBRANCH  23  24
ENDBRANCH  22  23
ENDBRANCH  20  22
ENDBRANCH   1  20
TORSDOF 11
ENDMDL
MODEL 3
REMARK VINA RESULT: -7.379486225      4.161      9.010
REMARK  11 active torsions:
REMARK  status: ('A' for Active; 'I' for Inactive)
REMARK    1  A    between atoms: O1_2  and  N1_3 
REMARK    2  A    between atoms: C2_5  and  C3_6 
REMARK    3  A    between atoms: C3_6  and  C4_7 
REMARK    4  A    between atoms: C3_6  and  C13_20 
REMARK       I    between atoms: C4_7  and  N2_9 
REMARK    5  A    between atoms: N2_9  and  C5_11 
REMARK    6  A    between atoms: C13_20  and  O5_22 
REMARK    7  A    between atoms: O5_22  and  C14_23 
REMARK    8  A    between atoms: C14_23  and  O6_24 
REMARK    9  A    between atoms: O6_24  and  C15_25 
REMARK   10  A    between atoms: C15_25  and  C16_27 
REMARK   11  A    between atoms: C21_32  and  N3_33 
ROOT
HETATM    1  C3  UNL     1       9.114  28.444  66.098  1.00  0.00     0.218 C 
ENDROOT
BRANCH   1   2
HETATM    2  C2  UNL     1       9.169  29.759  66.779  1.00  0.00     0.111 C 
HETATM    3  N1  UNL     1      10.276  30.314  67.113  1.00  0.00    -0.281 N 
ATOM      4  H1  UNL     1      11.165  29.854  66.914  1.00  0.00     0.193 HD
BRANCH   3   5
HETATM    5  O1  UNL     1      10.249  31.527  67.737  1.00  0.00    -0.286 OA
HETATM    6  C1  UNL     1       9.801  32.641  66.960  1.00  0.00     0.237 C 
ENDBRANCH   3   5
ENDBRANCH   1   2
BRANCH   1   7
HETATM    7  C4  UNL     1       9.568  28.587  64.656  1.00  0.00     0.241 C 
HETATM    8  O2  UNL     1       9.889  29.741  64.318  1.00  0.00    -0.272 OA
HETATM    9  N2  UNL     1       9.577  27.424  63.873  1.00  0.00    -0.324 N 
ATOM     10  H2  UNL     1       9.274  26.570  64.342  1.00  0.00     0.169 HD
BRANCH   9  11
HETATM   11  C5  UNL     1       9.950  27.281  62.520  1.00  0.00     0.069 A 
HETATM   12  C6  UNL     1      10.408  28.304  61.754  1.00  0.00     0.032 A 
HETATM   13  C7  UNL     1      10.766  28.116  60.415  1.00  0.00     0.003 A 
HETATM   14  C8  UNL     1      10.652  26.867  59.862  1.00  0.00     0.014 A 
HETATM   15  C9  UNL     1      10.188  25.826  60.634  1.00  0.00     0.002 A 
HETATM   16  C10 UNL     1       9.969  24.494  60.374  1.00  0.00     0.039 A 
HETATM   17  C12 UNL     1       9.842  26.031  61.944  1.00  0.00     0.112 A 
HETATM   18  C11 UNL     1       9.492  23.943  61.556  1.00  0.00     0.143 A 
HETATM   19  O3  UNL     1       9.443  24.898  62.433  1.00  0.00    -0.320 OA
ENDBRANCH   9  11
ENDBRANCH   1   7
BRANCH   1  20
HETATM   20  C13 UNL     1       7.755  27.870  66.174  1.00  0.00     0.279 C 
HETATM   21  O4  UNL     1       6.861  28.229  65.361  1.00  0.00    -0.264 OA
BRANCH  20  22
HETATM   22  O5  UNL     1       7.428  26.931  67.124  1.00  0.00    -0.294 OA
BRANCH  22  23
HETATM   23  C14 UNL     1       7.973  26.950  68.431  1.00  0.00     0.358 C 
BRANCH  23  24
HETATM   24  O6  UNL     1       7.386  25.922  69.244  1.00  0.00    -0.291 OA
BRANCH  24  25
HETATM   25  C15 UNL     1       6.710  26.192  70.397  1.00  0.00     0.297 C 
HETATM   26  O7  UNL     1       5.451  25.971  70.363  1.00  0.00    -0.259 OA
BRANCH  25  27
HETATM   27  C16 UNL     1       7.276  26.698  71.638  1.00  0.00     0.066 A 
HETATM   28  C17 UNL     1       7.358  28.083  71.825  1.00  0.00     0.020 A 
HETATM   29  C18 UNL     1       7.878  28.634  72.969  1.00  0.00     0.001 A 
HETATM   30  C19 UNL     1       8.339  27.815  73.974  1.00  0.00     0.002 A 
HETATM   31  C20 UNL     1       8.282  26.453  73.842  1.00  0.00     0.031 A 
HETATM   32  C21 UNL     1       7.746  25.909  72.664  1.00  0.00     0.056 A 
BRANCH  32  33
HETATM   33  N3  UNL     1       7.683  24.494  72.519  1.00  0.00    -0.316 N 
HETATM   34  C22 UNL     1       6.667  23.738  72.955  1.00  0.00     0.115 A 
HETATM   35  C23 UNL     1       6.981  22.420  72.653  1.00  0.00     0.106 A 
HETATM   36  N4  UNL     1       8.182  22.413  72.041  1.00  0.00    -0.360 N 
HETATM   37  C24 UNL     1       8.585  23.692  71.973  1.00  0.00     0.188 A 
ATOM     38  H4  UNL     1       8.686  21.596  71.696  1.00  0.00     0.166 HD
ENDBRANCH  32  33
ENDBRANCH  25  27
ENDBRANCH  24  25
ENDBRANCH  23  24
ENDBRANCH  22  23
ENDBRANCH  20  22
ENDBRANCH   1  20
TORSDOF 11
ENDMDL
MODEL 4
REMARK VINA RESULT: -7.373560788      1.810      4.477
REMARK  11 active torsions:
REMARK  status: ('A' for Active; 'I' for Inactive)
REMARK    1  A    between atoms: O1_2  and  N1_3 
REMARK    2  A    between atoms: C2_5  and  C3_6 
REMARK    3  A    between atoms: C3_6  and  C4_7 
REMARK    4  A    between atoms: C3_6  and  C13_20 
REMARK       I    between atoms: C4_7  and  N2_9 
REMARK    5  A    between atoms: N2_9  and  C5_11 
REMARK    6  A    between atoms: C13_20  and  O5_22 
REMARK    7  A    between atoms: O5_22  and  C14_23 
REMARK    8  A    between atoms: C14_23  and  O6_24 
REMARK    9  A    between atoms: O6_24  and  C15_25 
REMARK   10  A    between atoms: C15_25  and  C16_27 
REMARK   11  A    between atoms: C21_32  and  N3_33 
ROOT
HETATM    1  C3  UNL     1       8.102  28.773  65.427  1.00  0.00     0.218 C 
ENDROOT
BRANCH   1   2
HETATM    2  C2  UNL     1       7.507  27.609  66.123  1.00  0.00     0.111 C 
HETATM    3  N1  UNL     1       6.479  26.990  65.669  1.00  0.00    -0.281 N 
ATOM      4  H1  UNL     1       6.037  27.290  64.799  1.00  0.00     0.193 HD
BRANCH   3   5
HETATM    5  O1  UNL     1       5.985  25.925  66.365  1.00  0.00    -0.286 OA
HETATM    6  C1  UNL     1       4.967  26.204  67.330  1.00  0.00     0.237 C 
ENDBRANCH   3   5
ENDBRANCH   1   2
BRANCH   1   7
HETATM    7  C4  UNL     1       8.381  28.422  63.975  1.00  0.00     0.241 C 
HETATM    8  O2  UNL     1       7.616  28.954  63.150  1.00  0.00    -0.272 OA
HETATM    9  N2  UNL     1       9.452  27.552  63.724  1.00  0.00    -0.324 N 
ATOM     10  H2  UNL     1       9.959  27.223  64.546  1.00  0.00     0.169 HD
BRANCH   9  11
HETATM   11  C5  UNL     1       9.918  27.071  62.483  1.00  0.00     0.069 A 
HETATM   12  C6  UNL     1      10.606  27.831  61.592  1.00  0.00     0.032 A 
HETATM   13  C7  UNL     1      11.049  27.312  60.372  1.00  0.00     0.003 A 
HETATM   14  C8  UNL     1      10.782  26.003  60.066  1.00  0.00     0.014 A 
HETATM   15  C9  UNL     1      10.084  25.228  60.965  1.00  0.00     0.002 A 
HETATM   16  C10 UNL     1       9.673  23.916  60.947  1.00  0.00     0.039 A 
HETATM   17  C12 UNL     1       9.659  25.755  62.156  1.00  0.00     0.112 A 
HETATM   18  C11 UNL     1       9.005  23.704  62.146  1.00  0.00     0.143 A 
HETATM   19  O3  UNL     1       9.035  24.822  62.806  1.00  0.00    -0.320 OA
ENDBRANCH   9  11
ENDBRANCH   1   7
BRANCH   1  20
HETATM   20  C13 UNL     1       9.333  29.221  66.111  1.00  0.00     0.279 C 
HETATM   21  O4  UNL     1       9.469  29.063  67.353  1.00  0.00    -0.264 OA
BRANCH  20  22
HETATM   22  O5  UNL     1      10.359  29.818  65.416  1.00  0.00    -0.294 OA
BRANCH  22  23
HETATM   23  C14 UNL     1      10.254  31.123  64.876  1.00  0.00     0.358 C 
BRANCH  23  24
HETATM   24  O6  UNL     1       9.614  32.011  65.804  1.00  0.00    -0.291 OA
BRANCH  24  25
HETATM   25  C15 UNL     1      10.283  32.611  66.829  1.00  0.00     0.297 C 
HETATM   26  O7  UNL     1       9.554  33.241  67.671  1.00  0.00    -0.259 OA
BRANCH  25  27
HETATM   27  C16 UNL     1      11.721  32.603  67.051  1.00  0.00     0.066 A 
HETATM   28  C17 UNL     1      12.276  31.584  67.834  1.00  0.00     0.020 A 
HETATM   29  C18 UNL     1      13.623  31.511  68.086  1.00  0.00     0.001 A 
HETATM   30  C19 UNL     1      14.469  32.461  67.560  1.00  0.00     0.002 A 
HETATM   31  C20 UNL     1      13.979  33.478  66.787  1.00  0.00     0.031 A 
HETATM   32  C21 UNL     1      12.598  33.535  66.541  1.00  0.00     0.056 A 
BRANCH  32  33
HETATM   33  N3  UNL     1      12.079  34.591  65.738  1.00  0.00    -0.316 N 
HETATM   34  C22 UNL     1      11.918  34.516  64.411  1.00  0.00     0.115 A 
HETATM   35  C23 UNL     1      11.416  35.740  63.991  1.00  0.00     0.106 A 
HETATM   36  N4  UNL     1      11.286  36.526  65.079  1.00  0.00    -0.360 N 
HETATM   37  C24 UNL     1      11.698  35.798  66.129  1.00  0.00     0.188 A 
ATOM     38  H4  UNL     1      10.942  37.486  65.100  1.00  0.00     0.166 HD
ENDBRANCH  32  33
ENDBRANCH  25  27
ENDBRANCH  24  25
ENDBRANCH  23  24
ENDBRANCH  22  23
ENDBRANCH  20  22
ENDBRANCH   1  20
TORSDOF 11
ENDMDL
MODEL 5
REMARK VINA RESULT: -7.353748580      1.748      4.751
REMARK  11 active torsions:
REMARK  status: ('A' for Active; 'I' for Inactive)
REMARK    1  A    between atoms: O1_2  and  N1_3 
REMARK    2  A    between atoms: C2_5  and  C3_6 
REMARK    3  A    between atoms: C3_6  and  C4_7 
REMARK    4  A    between atoms: C3_6  and  C13_20 
REMARK       I    between atoms: C4_7  and  N2_9 
REMARK    5  A    between atoms: N2_9  and  C5_11 
REMARK    6  A    between atoms: C13_20  and  O5_22 
REMARK    7  A    between atoms: O5_22  and  C14_23 
REMARK    8  A    between atoms: C14_23  and  O6_24 
REMARK    9  A    between atoms: O6_24  and  C15_25 
REMARK   10  A    between atoms: C15_25  and  C16_27 
REMARK   11  A    between atoms: C21_32  and  N3_33 
ROOT
HETATM    1  C3  UNL     1       8.269  28.655  66.159  1.00  0.00     0.218 C 
ENDROOT
BRANCH   1   2
HETATM    2  C2  UNL     1       8.476  27.810  67.357  1.00  0.00     0.111 C 
HETATM    3  N1  UNL     1       7.590  26.981  67.774  1.00  0.00    -0.281 N 
ATOM      4  H1  UNL     1       6.702  26.881  67.280  1.00  0.00     0.193 HD
BRANCH   3   5
HETATM    5  O1  UNL     1       7.851  26.235  68.886  1.00  0.00    -0.286 OA
HETATM    6  C1  UNL     1       6.865  26.258  69.922  1.00  0.00     0.237 C 
ENDBRANCH   3   5
ENDBRANCH   1   2
BRANCH   1   7
HETATM    7  C4  UNL     1       8.222  27.787  64.913  1.00  0.00     0.241 C 
HETATM    8  O2  UNL     1       7.130  27.232  64.700  1.00  0.00    -0.272 OA
HETATM    9  N2  UNL     1       9.395  27.706  64.148  1.00  0.00    -0.324 N 
ATOM     10  H2  UNL     1      10.190  28.242  64.497  1.00  0.00     0.169 HD
BRANCH   9  11
HETATM   11  C5  UNL     1       9.619  26.979  62.960  1.00  0.00     0.069 A 
HETATM   12  C6  UNL     1       9.477  25.632  62.865  1.00  0.00     0.032 A 
HETATM   13  C7  UNL     1       9.710  24.952  61.665  1.00  0.00     0.003 A 
HETATM   14  C8  UNL     1      10.089  25.664  60.557  1.00  0.00     0.014 A 
HETATM   15  C9  UNL     1      10.235  27.030  60.648  1.00  0.00     0.002 A 
HETATM   16  C10 UNL     1      10.593  27.995  59.737  1.00  0.00     0.039 A 
HETATM   17  C12 UNL     1      10.002  27.678  61.833  1.00  0.00     0.112 A 
HETATM   18  C11 UNL     1      10.562  29.203  60.421  1.00  0.00     0.143 A 
HETATM   19  O3  UNL     1      10.208  28.944  61.643  1.00  0.00    -0.320 OA
ENDBRANCH   9  11
ENDBRANCH   1   7
BRANCH   1  20
HETATM   20  C13 UNL     1       9.326  29.683  66.051  1.00  0.00     0.279 C 
HETATM   21  O4  UNL     1      10.379  29.592  66.737  1.00  0.00    -0.264 OA
BRANCH  20  22
HETATM   22  O5  UNL     1       9.193  30.758  65.205  1.00  0.00    -0.294 OA
BRANCH  22  23
HETATM   23  C14 UNL     1      10.231  31.179  64.340  1.00  0.00     0.358 C 
BRANCH  23  24
HETATM   24  O6  UNL     1      10.436  32.597  64.439  1.00  0.00    -0.291 OA
BRANCH  24  25
HETATM   25  C15 UNL     1      10.789  33.209  65.606  1.00  0.00     0.297 C 
HETATM   26  O7  UNL     1       9.850  33.840  66.203  1.00  0.00    -0.259 OA
BRANCH  25  27
HETATM   27  C16 UNL     1      12.107  33.211  66.222  1.00  0.00     0.066 A 
HETATM   28  C17 UNL     1      12.437  32.179  67.109  1.00  0.00     0.020 A 
HETATM   29  C18 UNL     1      13.661  32.115  67.727  1.00  0.00     0.001 A 
HETATM   30  C19 UNL     1      14.603  33.086  67.480  1.00  0.00     0.002 A 
HETATM   31  C20 UNL     1      14.332  34.117  66.621  1.00  0.00     0.031 A 
HETATM   32  C21 UNL     1      13.074  34.165  65.998  1.00  0.00     0.056 A 
BRANCH  32  33
HETATM   33  N3  UNL     1      12.784  35.234  65.105  1.00  0.00    -0.316 N 
HETATM   34  C22 UNL     1      12.335  36.436  65.490  1.00  0.00     0.115 A 
HETATM   35  C23 UNL     1      12.149  37.191  64.340  1.00  0.00     0.106 A 
HETATM   36  N4  UNL     1      12.492  36.424  63.286  1.00  0.00    -0.360 N 
HETATM   37  C24 UNL     1      12.874  35.238  63.783  1.00  0.00     0.188 A 
ATOM     38  H4  UNL     1      12.465  36.693  62.302  1.00  0.00     0.166 HD
ENDBRANCH  32  33
ENDBRANCH  25  27
ENDBRANCH  24  25
ENDBRANCH  23  24
ENDBRANCH  22  23
ENDBRANCH  20  22
ENDBRANCH   1  20
TORSDOF 11
ENDMDL
