MODEL 1
REMARK VINA RESULT: -8.751358315      0.000      0.000
REMARK  11 active torsions:
REMARK  status: ('A' for Active; 'I' for Inactive)
REMARK    1  A    between atoms: O1_2  and  C2_3 
REMARK    2  A    between atoms: C6_9  and  C7_10 
REMARK       I    between atoms: C7_10  and  N2_12 
REMARK    3  A    between atoms: N2_12  and  N3_14 
REMARK    4  A    between atoms: C8_16  and  C9_17 
REMARK    5  A    between atoms: C8_16  and  C20_31 
REMARK    6  A    between atoms: C9_17  and  C10_19 
REMARK    7  A    between atoms: C10_19  and  C11_20 
REMARK    8  A    between atoms: C11_20  and  O4_22 
REMARK    9  A    between atoms: O4_22  and  C13_23 
REMARK   10  A    between atoms: C13_23  and  C14_25 
REMARK   11  A    between atoms: C23_34  and  N4_35 
ROOT
HETATM    1  N3  UNL     1       8.014  27.383  65.560  1.00  0.00    -0.292 N 
ATOM      2  H3  UNL     1       7.851  26.643  64.877  1.00  0.00     0.187 HD
HETATM    3  C8  UNL     1       8.846  28.300  65.285  1.00  0.00     0.128 C 
ENDROOT
BRANCH   3   4
HETATM    4  C9  UNL     1       9.122  29.371  66.201  1.00  0.00     0.182 C 
HETATM    5  O3  UNL     1       9.495  29.071  67.370  1.00  0.00    -0.291 OA
BRANCH   4   6
HETATM    6  C10 UNL     1       8.973  30.783  65.773  1.00  0.00     0.117 C 
BRANCH   6   7
HETATM    7  C11 UNL     1       9.788  31.723  66.632  1.00  0.00     0.135 C 
HETATM    8  C12 UNL     1       9.164  33.076  66.776  1.00  0.00     0.040 C 
BRANCH   7   9
HETATM    9  O4  UNL     1      11.094  31.790  66.092  1.00  0.00    -0.312 OA
BRANCH   9  10
HETATM   10  C13 UNL     1      12.151  32.376  66.784  1.00  0.00     0.293 C 
HETATM   11  O5  UNL     1      12.416  31.874  67.906  1.00  0.00    -0.259 OA
BRANCH  10  12
HETATM   12  C14 UNL     1      12.902  33.501  66.238  1.00  0.00     0.039 A 
HETATM   13  C15 UNL     1      12.390  34.258  65.211  1.00  0.00     0.017 A 
HETATM   14  C16 UNL     1      13.078  35.339  64.662  1.00  0.00     0.001 A 
HETATM   15  C17 UNL     1      14.316  35.665  65.166  1.00  0.00     0.000 A 
HETATM   16  C18 UNL     1      14.828  34.913  66.189  1.00  0.00     0.001 A 
HETATM   17  C19 UNL     1      14.142  33.834  66.736  1.00  0.00     0.017 A 
ENDBRANCH  10  12
ENDBRANCH   9  10
ENDBRANCH   7   9
ENDBRANCH   6   7
ENDBRANCH   4   6
ENDBRANCH   3   4
BRANCH   3  18
HETATM   18  C20 UNL     1       9.539  28.247  63.996  1.00  0.00     0.110 A 
HETATM   19  C21 UNL     1      10.585  27.369  63.683  1.00  0.00     0.044 A 
HETATM   20  C22 UNL     1      10.974  27.617  62.392  1.00  0.00     0.066 A 
HETATM   21  C23 UNL     1      10.163  28.633  61.947  1.00  0.00     0.215 A 
HETATM   22  O8  UNL     1       9.336  28.968  62.927  1.00  0.00    -0.286 OA
BRANCH  21  23
HETATM   23  N4  UNL     1      10.217  29.210  60.655  1.00  0.00    -0.090 N 
HETATM   24  O6  UNL     1      10.063  30.424  60.522  1.00  0.00    -0.530 OA
HETATM   25  O7  UNL     1      10.441  28.410  59.563  1.00  0.00    -0.530 OA
ENDBRANCH  21  23
ENDBRANCH   3  18
BRANCH   1  26
HETATM   26  N2  UNL     1       7.306  27.354  66.784  1.00  0.00    -0.265 N 
HETATM   27  C7  UNL     1       6.278  26.399  66.949  1.00  0.00     0.274 C 
HETATM   28  O2  UNL     1       6.050  25.603  65.955  1.00  0.00    -0.266 OA
ATOM     29  H2  UNL     1       7.532  28.010  67.532  1.00  0.00     0.190 HD
BRANCH  27  30
HETATM   30  C6  UNL     1       5.455  26.222  68.120  1.00  0.00     0.084 A 
HETATM   31  C2  UNL     1       5.912  26.065  69.400  1.00  0.00     0.157 A 
HETATM   32  N1  UNL     1       5.020  25.907  70.407  1.00  0.00    -0.346 N 
HETATM   33  C3  UNL     1       3.701  25.896  70.231  1.00  0.00     0.090 A 
ATOM     34  H1  UNL     1       5.380  25.790  71.354  1.00  0.00     0.167 HD
HETATM   35  C4  UNL     1       3.226  26.053  68.950  1.00  0.00     0.018 A 
HETATM   36  C5  UNL     1       4.062  26.214  67.900  1.00  0.00     0.023 A 
BRANCH  31  37
HETATM   37  O1  UNL     1       7.257  26.063  69.666  1.00  0.00    -0.340 OA
HETATM   38  C1  UNL     1       7.859  25.445  70.769  1.00  0.00     0.211 C 
ENDBRANCH  31  37
ENDBRANCH  27  30
ENDBRANCH   1  26
TORSDOF 11
ENDMDL
MODEL 2
REMARK VINA RESULT: -8.577899758      0.866      1.362
REMARK  11 active torsions:
REMARK  status: ('A' for Active; 'I' for Inactive)
REMARK    1  A    between atoms: O1_2  and  C2_3 
REMARK    2  A    between atoms: C6_9  and  C7_10 
REMARK       I    between atoms: C7_10  and  N2_12 
REMARK    3  A    between atoms: N2_12  and  N3_14 
REMARK    4  A    between atoms: C8_16  and  C9_17 
REMARK    5  A    between atoms: C8_16  and  C20_31 
REMARK    6  A    between atoms: C9_17  and  C10_19 
REMARK    7  A    between atoms: C10_19  and  C11_20 
REMARK    8  A    between atoms: C11_20  and  O4_22 
REMARK    9  A    between atoms: O4_22  and  C13_23 
REMARK   10  A    between atoms: C13_23  and  C14_25 
REMARK   11  A    between atoms: C23_34  and  N4_35 
ROOT
HETATM    1  N3  UNL     1       7.894  27.354  65.566  1.00  0.00    -0.292 N 
ATOM      2  H3  UNL     1       7.683  26.620  64.890  1.00  0.00     0.187 HD
HETATM    3  C8  UNL     1       8.750  28.240  65.262  1.00  0.00     0.128 C 
ENDROOT
BRANCH   3   4
HETATM    4  C9  UNL     1       9.093  29.301  66.166  1.00  0.00     0.182 C 
HETATM    5  O3  UNL     1       9.568  28.990  67.295  1.00  0.00    -0.291 OA
BRANCH   4   6
HETATM    6  C10 UNL     1       8.893  30.717  65.774  1.00  0.00     0.117 C 
BRANCH   6   7
HETATM    7  C11 UNL     1       9.734  31.659  66.607  1.00  0.00     0.135 C 
HETATM    8  C12 UNL     1       9.135  33.025  66.731  1.00  0.00     0.040 C 
BRANCH   7   9
HETATM    9  O4  UNL     1      11.035  31.692  66.051  1.00  0.00    -0.312 OA
BRANCH   9  10
HETATM   10  C13 UNL     1      12.115  32.247  66.733  1.00  0.00     0.293 C 
HETATM   11  O5  UNL     1      12.420  31.694  67.819  1.00  0.00    -0.259 OA
BRANCH  10  12
HETATM   12  C14 UNL     1      12.845  33.399  66.214  1.00  0.00     0.039 A 
HETATM   13  C15 UNL     1      14.051  33.773  66.758  1.00  0.00     0.017 A 
HETATM   14  C16 UNL     1      14.777  34.867  66.291  1.00  0.00     0.001 A 
HETATM   15  C17 UNL     1      14.270  35.603  65.243  1.00  0.00     0.000 A 
HETATM   16  C18 UNL     1      13.070  35.232  64.699  1.00  0.00     0.001 A 
HETATM   17  C19 UNL     1      12.346  34.141  65.166  1.00  0.00     0.017 A 
ENDBRANCH  10  12
ENDBRANCH   9  10
ENDBRANCH   7   9
ENDBRANCH   6   7
ENDBRANCH   4   6
ENDBRANCH   3   4
BRANCH   3  18
HETATM   18  C20 UNL     1       9.399  28.160  63.952  1.00  0.00     0.110 A 
HETATM   19  C21 UNL     1      10.219  29.154  63.401  1.00  0.00     0.044 A 
HETATM   20  C22 UNL     1      10.638  28.722  62.169  1.00  0.00     0.066 A 
HETATM   21  C23 UNL     1      10.071  27.482  61.996  1.00  0.00     0.215 A 
HETATM   22  O8  UNL     1       9.352  27.197  63.073  1.00  0.00    -0.286 OA
BRANCH  21  23
HETATM   23  N4  UNL     1      10.239  26.662  60.853  1.00  0.00    -0.090 N 
HETATM   24  O6  UNL     1      10.044  25.451  60.938  1.00  0.00    -0.530 OA
HETATM   25  O7  UNL     1      10.616  27.230  59.662  1.00  0.00    -0.530 OA
ENDBRANCH  21  23
ENDBRANCH   3  18
BRANCH   1  26
HETATM   26  N2  UNL     1       7.224  27.352  66.811  1.00  0.00    -0.265 N 
HETATM   27  C7  UNL     1       6.205  26.399  67.030  1.00  0.00     0.274 C 
HETATM   28  O2  UNL     1       5.947  25.580  66.062  1.00  0.00    -0.266 OA
ATOM     29  H2  UNL     1       7.473  28.025  67.537  1.00  0.00     0.190 HD
BRANCH  27  30
HETATM   30  C6  UNL     1       5.418  26.248  68.230  1.00  0.00     0.084 A 
HETATM   31  C2  UNL     1       5.914  26.041  69.487  1.00  0.00     0.157 A 
HETATM   32  N1  UNL     1       5.055  25.916  70.527  1.00  0.00    -0.346 N 
HETATM   33  C3  UNL     1       3.731  25.984  70.403  1.00  0.00     0.090 A 
ATOM     34  H1  UNL     1       5.444  25.761  71.456  1.00  0.00     0.167 HD
HETATM   35  C4  UNL     1       3.217  26.192  69.145  1.00  0.00     0.018 A 
HETATM   36  C5  UNL     1       4.020  26.324  68.065  1.00  0.00     0.023 A 
BRANCH  31  37
HETATM   37  O1  UNL     1       7.266  25.958  69.700  1.00  0.00    -0.340 OA
HETATM   38  C1  UNL     1       7.871  25.415  70.841  1.00  0.00     0.211 C 
ENDBRANCH  31  37
ENDBRANCH  27  30
ENDBRANCH   1  26
TORSDOF 11
ENDMDL
MODEL 3
REMARK VINA RESULT: -8.566801945      2.440      8.547
REMARK  11 active torsions:
REMARK  status: ('A' for Active; 'I' for Inactive)
REMARK    1  A    between atoms: O1_2  and  C2_3 
REMARK    2  A    between atoms: C6_9  and  C7_10 
REMARK       I    between atoms: C7_10  and  N2_12 
REMARK    3  A    between atoms: N2_12  and  N3_14 
REMARK    4  A    between atoms: C8_16  and  C9_17 
REMARK    5  A    between atoms: C8_16  and  C20_31 
REMARK    6  A    between atoms: C9_17  and  C10_19 
REMARK    7  A    between atoms: C10_19  and  C11_20 
REMARK    8  A    between atoms: C11_20  and  O4_22 
REMARK    9  A    between atoms: O4_22  and  C13_23 
REMARK   10  A    between atoms: C13_23  and  C14_25 
REMARK   11  A    between atoms: C23_34  and  N4_35 
ROOT
HETATM    1  N3  UNL     1       9.589  29.868  66.534  1.00  0.00    -0.292 N 
ATOM      2  H3  UNL     1       9.116  30.009  67.426  1.00  0.00     0.187 HD
HETATM    3  C8  UNL     1       9.189  28.942  65.765  1.00  0.00     0.128 C 
ENDROOT
BRANCH   3   4
HETATM    4  C9  UNL     1       9.810  28.691  64.496  1.00  0.00     0.182 C 
HETATM    5  O3  UNL     1      10.821  27.934  64.469  1.00  0.00    -0.291 OA
BRANCH   4   6
HETATM    6  C10 UNL     1       9.271  29.308  63.260  1.00  0.00     0.117 C 
BRANCH   6   7
HETATM    7  C11 UNL     1      10.311  30.139  62.542  1.00  0.00     0.135 C 
HETATM    8  C12 UNL     1       9.715  31.228  61.706  1.00  0.00     0.040 C 
BRANCH   7   9
HETATM    9  O4  UNL     1      11.124  29.264  61.784  1.00  0.00    -0.312 OA
BRANCH   9  10
HETATM   10  C13 UNL     1      10.625  28.547  60.699  1.00  0.00     0.293 C 
HETATM   11  O5  UNL     1      10.415  29.210  59.653  1.00  0.00    -0.259 OA
BRANCH  10  12
HETATM   12  C14 UNL     1      10.365  27.113  60.776  1.00  0.00     0.039 A 
HETATM   13  C15 UNL     1      10.690  26.280  59.732  1.00  0.00     0.017 A 
HETATM   14  C16 UNL     1      10.456  24.907  59.768  1.00  0.00     0.001 A 
HETATM   15  C17 UNL     1       9.877  24.360  60.891  1.00  0.00     0.000 A 
HETATM   16  C18 UNL     1       9.552  25.187  61.933  1.00  0.00     0.001 A 
HETATM   17  C19 UNL     1       9.786  26.557  61.896  1.00  0.00     0.017 A 
ENDBRANCH  10  12
ENDBRANCH   9  10
ENDBRANCH   7   9
ENDBRANCH   6   7
ENDBRANCH   4   6
ENDBRANCH   3   4
BRANCH   3  18
HETATM   18  C20 UNL     1       8.064  28.113  66.203  1.00  0.00     0.110 A 
HETATM   19  C21 UNL     1       6.980  27.741  65.397  1.00  0.00     0.044 A 
HETATM   20  C22 UNL     1       6.135  26.971  66.152  1.00  0.00     0.066 A 
HETATM   21  C23 UNL     1       6.717  26.888  67.395  1.00  0.00     0.215 A 
HETATM   22  O8  UNL     1       7.849  27.577  67.373  1.00  0.00    -0.286 OA
BRANCH  21  23
HETATM   23  N4  UNL     1       6.180  26.181  68.499  1.00  0.00    -0.090 N 
HETATM   24  O6  UNL     1       5.014  25.791  68.465  1.00  0.00    -0.530 OA
HETATM   25  O7  UNL     1       6.969  25.939  69.596  1.00  0.00    -0.530 OA
ENDBRANCH  21  23
ENDBRANCH   3  18
BRANCH   1  26
HETATM   26  N2  UNL     1      10.672  30.712  66.193  1.00  0.00    -0.265 N 
HETATM   27  C7  UNL     1      10.413  32.077  65.938  1.00  0.00     0.274 C 
HETATM   28  O2  UNL     1       9.184  32.470  66.036  1.00  0.00    -0.266 OA
ATOM     29  H2  UNL     1      11.621  30.342  66.132  1.00  0.00     0.190 HD
BRANCH  27  30
HETATM   30  C6  UNL     1      11.385  33.081  65.580  1.00  0.00     0.084 A 
HETATM   31  C2  UNL     1      12.510  33.391  66.293  1.00  0.00     0.157 A 
HETATM   32  N1  UNL     1      13.338  34.361  65.836  1.00  0.00    -0.346 N 
HETATM   33  C3  UNL     1      13.125  35.045  64.713  1.00  0.00     0.090 A 
ATOM     34  H1  UNL     1      14.171  34.579  66.382  1.00  0.00     0.167 HD
HETATM   35  C4  UNL     1      11.999  34.743  63.985  1.00  0.00     0.018 A 
HETATM   36  C5  UNL     1      11.131  33.787  64.386  1.00  0.00     0.023 A 
BRANCH  31  37
HETATM   37  O1  UNL     1      12.801  32.734  67.461  1.00  0.00    -0.340 OA
HETATM   38  C1  UNL     1      13.900  31.889  67.658  1.00  0.00     0.211 C 
ENDBRANCH  31  37
ENDBRANCH  27  30
ENDBRANCH   1  26
TORSDOF 11
ENDMDL
MODEL 4
REMARK VINA RESULT: -8.543309383      2.631      8.598
REMARK  11 active torsions:
REMARK  status: ('A' for Active; 'I' for Inactive)
REMARK    1  A    between atoms: O1_2  and  C2_3 
REMARK    2  A    between atoms: C6_9  and  C7_10 
REMARK       I    between atoms: C7_10  and  N2_12 
REMARK    3  A    between atoms: N2_12  and  N3_14 
REMARK    4  A    between atoms: C8_16  and  C9_17 
REMARK    5  A    between atoms: C8_16  and  C20_31 
REMARK    6  A    between atoms: C9_17  and  C10_19 
REMARK    7  A    between atoms: C10_19  and  C11_20 
REMARK    8  A    between atoms: C11_20  and  O4_22 
REMARK    9  A    between atoms: O4_22  and  C13_23 
REMARK   10  A    between atoms: C13_23  and  C14_25 
REMARK   11  A    between atoms: C23_34  and  N4_35 
ROOT
HETATM    1  N3  UNL     1      10.243  29.807  67.003  1.00  0.00    -0.292 N 
ATOM      2  H3  UNL     1       9.951  29.363  67.874  1.00  0.00     0.187 HD
HETATM    3  C8  UNL     1       9.566  29.601  65.951  1.00  0.00     0.128 C 
ENDROOT
BRANCH   3   4
HETATM    4  C9  UNL     1       9.922  30.197  64.694  1.00  0.00     0.182 C 
HETATM    5  O3  UNL     1      10.013  31.455  64.637  1.00  0.00    -0.291 OA
BRANCH   4   6
HETATM    6  C10 UNL     1      10.174  29.347  63.505  1.00  0.00     0.117 C 
BRANCH   6   7
HETATM    7  C11 UNL     1      10.625  30.162  62.313  1.00  0.00     0.135 C 
HETATM    8  C12 UNL     1       9.494  30.839  61.605  1.00  0.00     0.040 C 
BRANCH   7   9
HETATM    9  O4  UNL     1      11.363  29.312  61.456  1.00  0.00    -0.312 OA
BRANCH   9  10
HETATM   10  C13 UNL     1      10.746  28.527  60.484  1.00  0.00     0.293 C 
HETATM   11  O5  UNL     1      10.498  29.100  59.393  1.00  0.00    -0.259 OA
BRANCH  10  12
HETATM   12  C14 UNL     1      10.412  27.127  60.722  1.00  0.00     0.039 A 
HETATM   13  C15 UNL     1       9.847  26.728  61.910  1.00  0.00     0.017 A 
HETATM   14  C16 UNL     1       9.515  25.401  62.175  1.00  0.00     0.001 A 
HETATM   15  C17 UNL     1       9.760  24.450  61.210  1.00  0.00     0.000 A 
HETATM   16  C18 UNL     1      10.323  24.844  60.026  1.00  0.00     0.001 A 
HETATM   17  C19 UNL     1      10.654  26.168  59.763  1.00  0.00     0.017 A 
ENDBRANCH  10  12
ENDBRANCH   9  10
ENDBRANCH   7   9
ENDBRANCH   6   7
ENDBRANCH   4   6
ENDBRANCH   3   4
BRANCH   3  18
HETATM   18  C20 UNL     1       8.395  28.726  66.037  1.00  0.00     0.110 A 
HETATM   19  C21 UNL     1       7.435  28.568  65.029  1.00  0.00     0.044 A 
HETATM   20  C22 UNL     1       6.497  27.673  65.474  1.00  0.00     0.066 A 
HETATM   21  C23 UNL     1       6.902  27.304  66.735  1.00  0.00     0.215 A 
HETATM   22  O8  UNL     1       8.023  27.951  67.020  1.00  0.00    -0.286 OA
BRANCH  21  23
HETATM   23  N4  UNL     1       6.222  26.387  67.572  1.00  0.00    -0.090 N 
HETATM   24  O6  UNL     1       5.218  25.810  67.156  1.00  0.00    -0.530 OA
HETATM   25  O7  UNL     1       6.691  26.150  68.840  1.00  0.00    -0.530 OA
ENDBRANCH  21  23
ENDBRANCH   3  18
BRANCH   1  26
HETATM   26  N2  UNL     1      11.391  30.634  67.008  1.00  0.00    -0.265 N 
HETATM   27  C7  UNL     1      11.398  31.777  67.838  1.00  0.00     0.274 C 
HETATM   28  O2  UNL     1      10.339  31.995  68.548  1.00  0.00    -0.266 OA
ATOM     29  H2  UNL     1      12.197  30.409  66.424  1.00  0.00     0.190 HD
BRANCH  27  30
HETATM   30  C6  UNL     1      12.473  32.730  67.973  1.00  0.00     0.084 A 
HETATM   31  C2  UNL     1      12.971  33.517  66.971  1.00  0.00     0.157 A 
HETATM   32  N1  UNL     1      13.987  34.370  67.241  1.00  0.00    -0.346 N 
HETATM   33  C3  UNL     1      14.545  34.497  68.444  1.00  0.00     0.090 A 
ATOM     34  H1  UNL     1      14.345  34.948  66.481  1.00  0.00     0.167 HD
HETATM   35  C4  UNL     1      14.055  33.713  69.461  1.00  0.00     0.018 A 
HETATM   36  C5  UNL     1      13.043  32.840  69.258  1.00  0.00     0.023 A 
BRANCH  31  37
HETATM   37  O1  UNL     1      12.453  33.446  65.703  1.00  0.00    -0.340 OA
HETATM   38  C1  UNL     1      12.198  34.545  64.874  1.00  0.00     0.211 C 
ENDBRANCH  31  37
ENDBRANCH  27  30
ENDBRANCH   1  26
TORSDOF 11
ENDMDL
MODEL 5
REMARK VINA RESULT: -8.524188535      0.871      1.307
REMARK  11 active torsions:
REMARK  status: ('A' for Active; 'I' for Inactive)
REMARK    1  A    between atoms: O1_2  and  C2_3 
REMARK    2  A    between atoms: C6_9  and  C7_10 
REMARK       I    between atoms: C7_10  and  N2_12 
REMARK    3  A    between atoms: N2_12  and  N3_14 
REMARK    4  A    between atoms: C8_16  and  C9_17 
REMARK    5  A    between atoms: C8_16  and  C20_31 
REMARK    6  A    between atoms: C9_17  and  C10_19 
REMARK    7  A    between atoms: C10_19  and  C11_20 
REMARK    8  A    between atoms: C11_20  and  O4_22 
REMARK    9  A    between atoms: O4_22  and  C13_23 
REMARK   10  A    between atoms: C13_23  and  C14_25 
REMARK   11  A    between atoms: C23_34  and  N4_35 
ROOT
HETATM    1  N3  UNL     1       7.942  27.421  65.506  1.00  0.00    -0.292 N 
ATOM      2  H3  UNL     1       7.774  26.685  64.821  1.00  0.00     0.187 HD
HETATM    3  C8  UNL     1       8.798  28.321  65.245  1.00  0.00     0.128 C 
ENDROOT
BRANCH   3   4
HETATM    4  C9  UNL     1       9.081  29.385  66.166  1.00  0.00     0.182 C 
HETATM    5  O3  UNL     1       9.441  29.078  67.337  1.00  0.00    -0.291 OA
BRANCH   4   6
HETATM    6  C10 UNL     1       8.951  30.800  65.742  1.00  0.00     0.117 C 
BRANCH   6   7
HETATM    7  C11 UNL     1       9.927  31.700  66.467  1.00  0.00     0.135 C 
HETATM    8  C12 UNL     1       9.342  33.030  66.827  1.00  0.00     0.040 C 
BRANCH   7   9
HETATM    9  O4  UNL     1      11.088  31.823  65.668  1.00  0.00    -0.312 OA
BRANCH   9  10
HETATM   10  C13 UNL     1      11.099  32.571  64.493  1.00  0.00     0.293 C 
HETATM   11  O5  UNL     1      10.703  31.975  63.460  1.00  0.00    -0.259 OA
BRANCH  10  12
HETATM   12  C14 UNL     1      11.544  33.960  64.468  1.00  0.00     0.039 A 
HETATM   13  C15 UNL     1      10.877  34.901  63.720  1.00  0.00     0.017 A 
HETATM   14  C16 UNL     1      11.271  36.236  63.669  1.00  0.00     0.001 A 
HETATM   15  C17 UNL     1      12.371  36.632  64.397  1.00  0.00     0.000 A 
HETATM   16  C18 UNL     1      13.037  35.699  65.143  1.00  0.00     0.001 A 
HETATM   17  C19 UNL     1      12.643  34.366  65.192  1.00  0.00     0.017 A 
ENDBRANCH  10  12
ENDBRANCH   9  10
ENDBRANCH   7   9
ENDBRANCH   6   7
ENDBRANCH   4   6
ENDBRANCH   3   4
BRANCH   3  18
HETATM   18  C20 UNL     1       9.510  28.254  63.968  1.00  0.00     0.110 A 
HETATM   19  C21 UNL     1      10.561  27.373  63.681  1.00  0.00     0.044 A 
HETATM   20  C22 UNL     1      10.970  27.607  62.394  1.00  0.00     0.066 A 
HETATM   21  C23 UNL     1      10.165  28.617  61.924  1.00  0.00     0.215 A 
HETATM   22  O8  UNL     1       9.323  28.962  62.888  1.00  0.00    -0.286 OA
BRANCH  21  23
HETATM   23  N4  UNL     1      10.238  29.180  60.627  1.00  0.00    -0.090 N 
HETATM   24  O6  UNL     1      10.085  30.391  60.478  1.00  0.00    -0.530 OA
HETATM   25  O7  UNL     1      10.481  28.367  59.548  1.00  0.00    -0.530 OA
ENDBRANCH  21  23
ENDBRANCH   3  18
BRANCH   1  26
HETATM   26  N2  UNL     1       7.213  27.407  66.719  1.00  0.00    -0.265 N 
HETATM   27  C7  UNL     1       6.255  26.389  66.920  1.00  0.00     0.274 C 
HETATM   28  O2  UNL     1       6.105  25.525  65.968  1.00  0.00    -0.266 OA
ATOM     29  H2  UNL     1       7.377  28.117  67.432  1.00  0.00     0.190 HD
BRANCH  27  30
HETATM   30  C6  UNL     1       5.422  26.215  68.085  1.00  0.00     0.084 A 
HETATM   31  C2  UNL     1       5.870  26.088  69.372  1.00  0.00     0.157 A 
HETATM   32  N1  UNL     1       4.971  25.930  70.373  1.00  0.00    -0.346 N 
HETATM   33  C3  UNL     1       3.654  25.891  70.184  1.00  0.00     0.090 A 
ATOM     34  H1  UNL     1       5.324  25.836  71.325  1.00  0.00     0.167 HD
HETATM   35  C4  UNL     1       3.190  26.018  68.896  1.00  0.00     0.018 A 
HETATM   36  C5  UNL     1       4.033  26.178  67.852  1.00  0.00     0.023 A 
BRANCH  31  37
HETATM   37  O1  UNL     1       7.211  26.117  69.652  1.00  0.00    -0.340 OA
HETATM   38  C1  UNL     1       7.816  25.520  70.765  1.00  0.00     0.211 C 
ENDBRANCH  31  37
ENDBRANCH  27  30
ENDBRANCH   1  26
TORSDOF 11
ENDMDL
