MODEL 1
REMARK VINA RESULT: -8.997433595      0.000      0.000
REMARK  10 active torsions:
REMARK  status: ('A' for Active; 'I' for Inactive)
REMARK    1  A    between atoms: O1_2  and  C2_3 
REMARK    2  A    between atoms: C4_5  and  C5_6 
REMARK    3  A    between atoms: N1_7  and  N2_9 
REMARK       I    between atoms: N2_9  and  C6_11 
REMARK    4  A    between atoms: C6_11  and  C7_13 
REMARK    5  A    between atoms: C10_16  and  N3_17 
REMARK    6  A    between atoms: C15_24  and  O5_25 
REMARK    7  A    between atoms: O5_25  and  C16_26 
REMARK    8  A    between atoms: C16_26  and  C17_27 
REMARK    9  A    between atoms: C19_29  and  N4_30 
REMARK   10  A    between atoms: C21_34  and  N5_35 
ROOT
HETATM    1  C2  UNL     1      10.716  32.510  64.938  1.00  0.00     0.102 A 
HETATM    2  C3  UNL     1      11.577  33.467  64.459  1.00  0.00     0.052 A 
HETATM    3  C4  UNL     1      12.452  34.100  65.289  1.00  0.00    -0.017 A 
HETATM    4  C13 UNL     1      12.422  33.720  66.647  1.00  0.00     0.016 A 
HETATM    5  C14 UNL     1      11.550  32.761  67.097  1.00  0.00     0.040 A 
HETATM    6  C15 UNL     1      10.664  32.120  66.260  1.00  0.00     0.102 A 
ENDROOT
BRANCH   3   7
HETATM    7  C5  UNL     1      13.394  35.116  64.881  1.00  0.00     0.118 C 
HETATM    8  N1  UNL     1      13.389  35.858  63.900  1.00  0.00    -0.308 N 
ATOM      9  H1  UNL     1      14.191  36.488  63.862  1.00  0.00     0.186 HD
BRANCH   8  10
HETATM   10  N2  UNL     1      12.539  36.007  62.864  1.00  0.00    -0.266 N 
HETATM   11  C6  UNL     1      11.624  37.100  62.788  1.00  0.00     0.270 C 
HETATM   12  O2  UNL     1      11.594  37.971  63.720  1.00  0.00    -0.266 OA
ATOM     13  H2  UNL     1      12.550  35.319  62.111  1.00  0.00     0.190 HD
BRANCH  11  14
HETATM   14  C7  UNL     1      10.711  37.271  61.690  1.00  0.00     0.033 A 
HETATM   15  C8  UNL     1       9.406  37.633  61.902  1.00  0.00     0.019 A 
HETATM   16  C9  UNL     1       8.545  37.794  60.827  1.00  0.00     0.037 A 
HETATM   17  C10 UNL     1       8.987  37.596  59.552  1.00  0.00     0.102 A 
HETATM   18  C11 UNL     1      10.311  37.227  59.311  1.00  0.00     0.037 A 
HETATM   19  C12 UNL     1      11.133  37.077  60.389  1.00  0.00     0.019 A 
BRANCH  17  20
HETATM   20  N3  UNL     1       8.115  37.759  58.448  1.00  0.00    -0.116 N 
HETATM   21  O3  UNL     1       6.938  38.092  58.656  1.00  0.00    -0.532 OA
HETATM   22  O4  UNL     1       8.584  37.547  57.185  1.00  0.00    -0.532 OA
ENDBRANCH  17  20
ENDBRANCH  11  14
ENDBRANCH   8  10
ENDBRANCH   3   7
BRANCH   1  23
HETATM   23  O1  UNL     1       9.847  31.894  64.068  1.00  0.00    -0.353 OA
HETATM   24  C1  UNL     1      10.287  31.514  62.795  1.00  0.00     0.210 C 
ENDBRANCH   1  23
BRANCH   6  25
HETATM   25  O5  UNL     1       9.775  31.160  66.638  1.00  0.00    -0.344 OA
BRANCH  25  26
HETATM   26  C16 UNL     1       9.997  29.835  66.970  1.00  0.00     0.214 C 
BRANCH  26  27
HETATM   27  C17 UNL     1       9.260  28.947  66.040  1.00  0.00    -0.029 A 
HETATM   28  C18 UNL     1       8.061  28.372  66.394  1.00  0.00     0.045 A 
HETATM   29  C19 UNL     1       7.370  27.557  65.530  1.00  0.00     0.105 A 
HETATM   30  C20 UNL     1       7.862  27.285  64.262  1.00  0.00     0.072 A 
HETATM   31  C21 UNL     1       9.060  27.854  63.893  1.00  0.00     0.105 A 
HETATM   32  C22 UNL     1       9.738  28.671  64.780  1.00  0.00     0.045 A 
BRANCH  29  33
HETATM   33  N4  UNL     1       6.147  26.989  65.933  1.00  0.00    -0.116 N 
HETATM   34  O6  UNL     1       6.080  25.760  66.146  1.00  0.00    -0.532 OA
HETATM   35  O7  UNL     1       5.028  27.781  66.094  1.00  0.00    -0.532 OA
ENDBRANCH  29  33
BRANCH  31  36
HETATM   36  N5  UNL     1       9.575  27.581  62.588  1.00  0.00    -0.116 N 
HETATM   37  O8  UNL     1      10.267  26.560  62.420  1.00  0.00    -0.532 OA
HETATM   38  O9  UNL     1       9.342  28.388  61.520  1.00  0.00    -0.532 OA
ENDBRANCH  31  36
ENDBRANCH  26  27
ENDBRANCH  25  26
ENDBRANCH   6  25
TORSDOF 10
ENDMDL
MODEL 2
REMARK VINA RESULT: -8.975028281      0.086      2.558
REMARK  10 active torsions:
REMARK  status: ('A' for Active; 'I' for Inactive)
REMARK    1  A    between atoms: O1_2  and  C2_3 
REMARK    2  A    between atoms: C4_5  and  C5_6 
REMARK    3  A    between atoms: N1_7  and  N2_9 
REMARK       I    between atoms: N2_9  and  C6_11 
REMARK    4  A    between atoms: C6_11  and  C7_13 
REMARK    5  A    between atoms: C10_16  and  N3_17 
REMARK    6  A    between atoms: C15_24  and  O5_25 
REMARK    7  A    between atoms: O5_25  and  C16_26 
REMARK    8  A    between atoms: C16_26  and  C17_27 
REMARK    9  A    between atoms: C19_29  and  N4_30 
REMARK   10  A    between atoms: C21_34  and  N5_35 
ROOT
HETATM    1  C2  UNL     1      10.732  32.523  64.942  1.00  0.00     0.102 A 
HETATM    2  C3  UNL     1      11.586  33.482  64.453  1.00  0.00     0.052 A 
HETATM    3  C4  UNL     1      12.455  34.130  65.276  1.00  0.00    -0.017 A 
HETATM    4  C13 UNL     1      12.428  33.766  66.638  1.00  0.00     0.016 A 
HETATM    5  C14 UNL     1      11.563  32.806  67.098  1.00  0.00     0.040 A 
HETATM    6  C15 UNL     1      10.683  32.148  66.268  1.00  0.00     0.102 A 
ENDROOT
BRANCH   3   7
HETATM    7  C5  UNL     1      13.390  35.149  64.857  1.00  0.00     0.118 C 
HETATM    8  N1  UNL     1      13.380  35.879  63.866  1.00  0.00    -0.308 N 
ATOM      9  H1  UNL     1      14.176  36.516  63.822  1.00  0.00     0.186 HD
BRANCH   8  10
HETATM   10  N2  UNL     1      12.530  36.009  62.828  1.00  0.00    -0.266 N 
HETATM   11  C6  UNL     1      11.696  37.157  62.672  1.00  0.00     0.270 C 
HETATM   12  O2  UNL     1      11.742  38.099  63.532  1.00  0.00    -0.266 OA
ATOM     13  H2  UNL     1      12.481  35.265  62.132  1.00  0.00     0.190 HD
BRANCH  11  14
HETATM   14  C7  UNL     1      10.784  37.309  61.570  1.00  0.00     0.033 A 
HETATM   15  C8  UNL     1      11.207  37.164  60.274  1.00  0.00     0.019 A 
HETATM   16  C9  UNL     1      10.309  37.312  59.228  1.00  0.00     0.037 A 
HETATM   17  C10 UNL     1       9.000  37.603  59.478  1.00  0.00     0.102 A 
HETATM   18  C11 UNL     1       8.546  37.756  60.789  1.00  0.00     0.037 A 
HETATM   19  C12 UNL     1       9.453  37.603  61.795  1.00  0.00     0.019 A 
BRANCH  17  20
HETATM   20  N3  UNL     1       8.075  37.757  58.416  1.00  0.00    -0.116 N 
HETATM   21  O3  UNL     1       6.913  38.104  58.677  1.00  0.00    -0.532 OA
HETATM   22  O4  UNL     1       8.478  37.521  57.134  1.00  0.00    -0.532 OA
ENDBRANCH  17  20
ENDBRANCH  11  14
ENDBRANCH   8  10
ENDBRANCH   3   7
BRANCH   1  23
HETATM   23  O1  UNL     1       9.868  31.891  64.079  1.00  0.00    -0.353 OA
HETATM   24  C1  UNL     1      10.264  31.629  62.762  1.00  0.00     0.210 C 
ENDBRANCH   1  23
BRANCH   6  25
HETATM   25  O5  UNL     1       9.801  31.185  66.658  1.00  0.00    -0.344 OA
BRANCH  25  26
HETATM   26  C16 UNL     1      10.028  29.856  66.966  1.00  0.00     0.214 C 
BRANCH  26  27
HETATM   27  C17 UNL     1       9.272  28.982  66.038  1.00  0.00    -0.029 A 
HETATM   28  C18 UNL     1       9.742  28.699  64.775  1.00  0.00     0.045 A 
HETATM   29  C19 UNL     1       9.049  27.880  63.915  1.00  0.00     0.105 A 
HETATM   30  C20 UNL     1       7.844  27.309  64.294  1.00  0.00     0.072 A 
HETATM   31  C21 UNL     1       7.362  27.582  65.554  1.00  0.00     0.105 A 
HETATM   32  C22 UNL     1       8.077  28.409  66.402  1.00  0.00     0.045 A 
BRANCH  29  33
HETATM   33  N4  UNL     1       9.566  27.617  62.633  1.00  0.00    -0.116 N 
HETATM   34  O6  UNL     1      10.263  26.597  62.448  1.00  0.00    -0.532 OA
HETATM   35  O7  UNL     1       9.309  28.478  61.585  1.00  0.00    -0.532 OA
ENDBRANCH  29  33
BRANCH  31  36
HETATM   36  N5  UNL     1       6.120  26.997  65.955  1.00  0.00    -0.116 N 
HETATM   37  O8  UNL     1       6.074  25.768  66.148  1.00  0.00    -0.532 OA
HETATM   38  O9  UNL     1       4.987  27.724  66.137  1.00  0.00    -0.532 OA
ENDBRANCH  31  36
ENDBRANCH  26  27
ENDBRANCH  25  26
ENDBRANCH   6  25
TORSDOF 10
ENDMDL
MODEL 3
REMARK VINA RESULT: -8.764300133      1.102      2.047
REMARK  10 active torsions:
REMARK  status: ('A' for Active; 'I' for Inactive)
REMARK    1  A    between atoms: O1_2  and  C2_3 
REMARK    2  A    between atoms: C4_5  and  C5_6 
REMARK    3  A    between atoms: N1_7  and  N2_9 
REMARK       I    between atoms: N2_9  and  C6_11 
REMARK    4  A    between atoms: C6_11  and  C7_13 
REMARK    5  A    between atoms: C10_16  and  N3_17 
REMARK    6  A    between atoms: C15_24  and  O5_25 
REMARK    7  A    between atoms: O5_25  and  C16_26 
REMARK    8  A    between atoms: C16_26  and  C17_27 
REMARK    9  A    between atoms: C19_29  and  N4_30 
REMARK   10  A    between atoms: C21_34  and  N5_35 
ROOT
HETATM    1  C2  UNL     1      12.505  32.923  66.471  1.00  0.00     0.102 A 
HETATM    2  C3  UNL     1      13.173  34.106  66.267  1.00  0.00     0.052 A 
HETATM    3  C4  UNL     1      12.838  34.930  65.236  1.00  0.00    -0.017 A 
HETATM    4  C13 UNL     1      11.782  34.504  64.404  1.00  0.00     0.016 A 
HETATM    5  C14 UNL     1      11.133  33.317  64.632  1.00  0.00     0.040 A 
HETATM    6  C15 UNL     1      11.470  32.482  65.674  1.00  0.00     0.102 A 
ENDROOT
BRANCH   3   7
HETATM    7  C5  UNL     1      13.478  36.191  64.941  1.00  0.00     0.118 C 
HETATM    8  N1  UNL     1      13.329  36.955  63.988  1.00  0.00    -0.308 N 
ATOM      9  H1  UNL     1      13.919  37.786  64.037  1.00  0.00     0.186 HD
BRANCH   8  10
HETATM   10  N2  UNL     1      12.544  36.916  62.892  1.00  0.00    -0.266 N 
HETATM   11  C6  UNL     1      11.453  37.819  62.711  1.00  0.00     0.270 C 
HETATM   12  O2  UNL     1      11.197  38.694  63.603  1.00  0.00    -0.266 OA
ATOM     13  H2  UNL     1      12.736  36.222  62.170  1.00  0.00     0.190 HD
BRANCH  11  14
HETATM   14  C7  UNL     1      10.607  37.789  61.547  1.00  0.00     0.033 A 
HETATM   15  C8  UNL     1      11.065  37.301  60.351  1.00  0.00     0.019 A 
HETATM   16  C9  UNL     1      10.230  37.280  59.244  1.00  0.00     0.037 A 
HETATM   17  C10 UNL     1       8.950  37.744  59.334  1.00  0.00     0.102 A 
HETATM   18  C11 UNL     1       8.463  38.245  60.542  1.00  0.00     0.037 A 
HETATM   19  C12 UNL     1       9.308  38.251  61.613  1.00  0.00     0.019 A 
BRANCH  17  20
HETATM   20  N3  UNL     1       8.091  37.726  58.209  1.00  0.00    -0.116 N 
HETATM   21  O3  UNL     1       8.562  37.441  57.097  1.00  0.00    -0.532 OA
HETATM   22  O4  UNL     1       6.769  38.023  58.368  1.00  0.00    -0.532 OA
ENDBRANCH  17  20
ENDBRANCH  11  14
ENDBRANCH   8  10
ENDBRANCH   3   7
BRANCH   1  23
HETATM   23  O1  UNL     1      12.873  32.118  67.523  1.00  0.00    -0.353 OA
HETATM   24  C1  UNL     1      14.228  31.871  67.772  1.00  0.00     0.210 C 
ENDBRANCH   1  23
BRANCH   6  25
HETATM   25  O5  UNL     1      10.868  31.293  65.958  1.00  0.00    -0.344 OA
BRANCH  25  26
HETATM   26  C16 UNL     1       9.533  31.015  66.191  1.00  0.00     0.214 C 
BRANCH  26  27
HETATM   27  C17 UNL     1       9.116  29.830  65.406  1.00  0.00    -0.029 A 
HETATM   28  C18 UNL     1       8.046  29.052  65.791  1.00  0.00     0.045 A 
HETATM   29  C19 UNL     1       7.651  27.958  65.058  1.00  0.00     0.105 A 
HETATM   30  C20 UNL     1       8.320  27.599  63.899  1.00  0.00     0.072 A 
HETATM   31  C21 UNL     1       9.391  28.367  63.501  1.00  0.00     0.105 A 
HETATM   32  C22 UNL     1       9.772  29.464  64.254  1.00  0.00     0.045 A 
BRANCH  29  33
HETATM   33  N4  UNL     1       6.552  27.191  65.488  1.00  0.00    -0.116 N 
HETATM   34  O6  UNL     1       5.492  27.765  65.815  1.00  0.00    -0.532 OA
HETATM   35  O7  UNL     1       6.642  25.815  65.551  1.00  0.00    -0.532 OA
ENDBRANCH  29  33
BRANCH  31  36
HETATM   36  N5  UNL     1      10.088  28.005  62.306  1.00  0.00    -0.116 N 
HETATM   37  O8  UNL     1      11.333  28.026  62.310  1.00  0.00    -0.532 OA
HETATM   38  O9  UNL     1       9.451  27.638  61.163  1.00  0.00    -0.532 OA
ENDBRANCH  31  36
ENDBRANCH  26  27
ENDBRANCH  25  26
ENDBRANCH   6  25
TORSDOF 10
ENDMDL
MODEL 4
REMARK VINA RESULT: -8.703939288      0.870      3.053
REMARK  10 active torsions:
REMARK  status: ('A' for Active; 'I' for Inactive)
REMARK    1  A    between atoms: O1_2  and  C2_3 
REMARK    2  A    between atoms: C4_5  and  C5_6 
REMARK    3  A    between atoms: N1_7  and  N2_9 
REMARK       I    between atoms: N2_9  and  C6_11 
REMARK    4  A    between atoms: C6_11  and  C7_13 
REMARK    5  A    between atoms: C10_16  and  N3_17 
REMARK    6  A    between atoms: C15_24  and  O5_25 
REMARK    7  A    between atoms: O5_25  and  C16_26 
REMARK    8  A    between atoms: C16_26  and  C17_27 
REMARK    9  A    between atoms: C19_29  and  N4_30 
REMARK   10  A    between atoms: C21_34  and  N5_35 
ROOT
HETATM    1  C2  UNL     1      11.465  33.201  66.918  1.00  0.00     0.102 A 
HETATM    2  C3  UNL     1      12.325  34.163  66.444  1.00  0.00     0.052 A 
HETATM    3  C4  UNL     1      12.422  34.419  65.111  1.00  0.00    -0.017 A 
HETATM    4  C13 UNL     1      11.602  33.652  64.258  1.00  0.00     0.016 A 
HETATM    5  C14 UNL     1      10.753  32.697  64.759  1.00  0.00     0.040 A 
HETATM    6  C15 UNL     1      10.653  32.436  66.108  1.00  0.00     0.102 A 
ENDROOT
BRANCH   3   7
HETATM    7  C5  UNL     1      13.292  35.408  64.518  1.00  0.00     0.118 C 
HETATM    8  N1  UNL     1      13.142  36.099  63.511  1.00  0.00    -0.308 N 
ATOM      9  H1  UNL     1      13.928  36.722  63.325  1.00  0.00     0.186 HD
BRANCH   8  10
HETATM   10  N2  UNL     1      12.149  36.200  62.605  1.00  0.00    -0.266 N 
HETATM   11  C6  UNL     1      11.735  37.459  62.074  1.00  0.00     0.270 C 
HETATM   12  O2  UNL     1      12.309  38.532  62.458  1.00  0.00    -0.266 OA
ATOM     13  H2  UNL     1      11.679  35.352  62.289  1.00  0.00     0.190 HD
BRANCH  11  14
HETATM   14  C7  UNL     1      10.676  37.582  61.107  1.00  0.00     0.033 A 
HETATM   15  C8  UNL     1      10.871  37.235  59.796  1.00  0.00     0.019 A 
HETATM   16  C9  UNL     1       9.835  37.360  58.882  1.00  0.00     0.037 A 
HETATM   17  C10 UNL     1       8.616  37.827  59.279  1.00  0.00     0.102 A 
HETATM   18  C11 UNL     1       8.395  38.186  60.610  1.00  0.00     0.037 A 
HETATM   19  C12 UNL     1       9.433  38.052  61.484  1.00  0.00     0.019 A 
BRANCH  17  20
HETATM   20  N3  UNL     1       7.552  37.958  58.354  1.00  0.00    -0.116 N 
HETATM   21  O3  UNL     1       6.442  38.330  58.764  1.00  0.00    -0.532 OA
HETATM   22  O4  UNL     1       7.768  37.675  57.037  1.00  0.00    -0.532 OA
ENDBRANCH  17  20
ENDBRANCH  11  14
ENDBRANCH   8  10
ENDBRANCH   3   7
BRANCH   1  23
HETATM   23  O1  UNL     1      11.396  32.972  68.272  1.00  0.00    -0.353 OA
HETATM   24  C1  UNL     1      12.544  32.590  68.975  1.00  0.00     0.210 C 
ENDBRANCH   1  23
BRANCH   6  25
HETATM   25  O5  UNL     1       9.832  31.507  66.672  1.00  0.00    -0.344 OA
BRANCH  25  26
HETATM   26  C16 UNL     1      10.081  30.181  66.978  1.00  0.00     0.214 C 
BRANCH  26  27
HETATM   27  C17 UNL     1       9.434  29.299  65.977  1.00  0.00    -0.029 A 
HETATM   28  C18 UNL     1       9.981  29.107  64.728  1.00  0.00     0.045 A 
HETATM   29  C19 UNL     1       9.389  28.281  63.802  1.00  0.00     0.105 A 
HETATM   30  C20 UNL     1       8.213  27.609  64.097  1.00  0.00     0.072 A 
HETATM   31  C21 UNL     1       7.655  27.790  65.343  1.00  0.00     0.105 A 
HETATM   32  C22 UNL     1       8.268  28.626  66.259  1.00  0.00     0.045 A 
BRANCH  29  33
HETATM   33  N4  UNL     1       9.982  28.114  62.537  1.00  0.00    -0.116 N 
HETATM   34  O6  UNL     1      11.227  28.048  62.445  1.00  0.00    -0.532 OA
HETATM   35  O7  UNL     1       9.199  28.025  61.404  1.00  0.00    -0.532 OA
ENDBRANCH  29  33
BRANCH  31  36
HETATM   36  N5  UNL     1       6.443  27.100  65.658  1.00  0.00    -0.116 N 
HETATM   37  O8  UNL     1       6.462  25.857  65.719  1.00  0.00    -0.532 OA
HETATM   38  O9  UNL     1       5.270  27.743  65.895  1.00  0.00    -0.532 OA
ENDBRANCH  31  36
ENDBRANCH  26  27
ENDBRANCH  25  26
ENDBRANCH   6  25
TORSDOF 10
ENDMDL
MODEL 5
REMARK VINA RESULT: -8.569793590      1.297      1.778
REMARK  10 active torsions:
REMARK  status: ('A' for Active; 'I' for Inactive)
REMARK    1  A    between atoms: O1_2  and  C2_3 
REMARK    2  A    between atoms: C4_5  and  C5_6 
REMARK    3  A    between atoms: N1_7  and  N2_9 
REMARK       I    between atoms: N2_9  and  C6_11 
REMARK    4  A    between atoms: C6_11  and  C7_13 
REMARK    5  A    between atoms: C10_16  and  N3_17 
REMARK    6  A    between atoms: C15_24  and  O5_25 
REMARK    7  A    between atoms: O5_25  and  C16_26 
REMARK    8  A    between atoms: C16_26  and  C17_27 
REMARK    9  A    between atoms: C19_29  and  N4_30 
REMARK   10  A    between atoms: C21_34  and  N5_35 
ROOT
HETATM    1  C2  UNL     1      10.111  34.285  66.151  1.00  0.00     0.102 A 
HETATM    2  C3  UNL     1      10.895  35.378  65.868  1.00  0.00     0.052 A 
HETATM    3  C4  UNL     1      11.886  35.305  64.937  1.00  0.00    -0.017 A 
HETATM    4  C13 UNL     1      12.058  34.062  64.292  1.00  0.00     0.016 A 
HETATM    5  C14 UNL     1      11.260  32.989  64.596  1.00  0.00     0.040 A 
HETATM    6  C15 UNL     1      10.257  33.059  65.537  1.00  0.00     0.102 A 
ENDROOT
BRANCH   3   7
HETATM    7  C5  UNL     1      12.759  36.395  64.569  1.00  0.00     0.118 C 
HETATM    8  N1  UNL     1      12.774  37.097  63.559  1.00  0.00    -0.308 N 
ATOM      9  H1  UNL     1      13.511  37.803  63.564  1.00  0.00     0.186 HD
BRANCH   8  10
HETATM   10  N2  UNL     1      12.014  37.121  62.445  1.00  0.00    -0.266 N 
HETATM   11  C6  UNL     1      10.777  37.831  62.390  1.00  0.00     0.270 C 
HETATM   12  O2  UNL     1      10.361  38.466  63.415  1.00  0.00    -0.266 OA
ATOM     13  H2  UNL     1      12.333  36.618  61.617  1.00  0.00     0.190 HD
BRANCH  11  14
HETATM   14  C7  UNL     1       9.956  37.866  61.209  1.00  0.00     0.033 A 
HETATM   15  C8  UNL     1       8.682  38.371  61.246  1.00  0.00     0.019 A 
HETATM   16  C9  UNL     1       7.910  38.396  60.094  1.00  0.00     0.037 A 
HETATM   17  C10 UNL     1       8.409  37.920  58.917  1.00  0.00     0.102 A 
HETATM   18  C11 UNL     1       9.703  37.401  58.856  1.00  0.00     0.037 A 
HETATM   19  C12 UNL     1      10.437  37.390  60.005  1.00  0.00     0.019 A 
BRANCH  17  20
HETATM   20  N3  UNL     1       7.628  37.941  57.736  1.00  0.00    -0.116 N 
HETATM   21  O3  UNL     1       6.491  38.434  57.777  1.00  0.00    -0.532 OA
HETATM   22  O4  UNL     1       8.140  37.423  56.582  1.00  0.00    -0.532 OA
ENDBRANCH  17  20
ENDBRANCH  11  14
ENDBRANCH   8  10
ENDBRANCH   3   7
BRANCH   1  23
HETATM   23  O1  UNL     1       9.121  34.399  67.099  1.00  0.00    -0.353 OA
HETATM   24  C1  UNL     1       9.455  34.446  68.457  1.00  0.00     0.210 C 
ENDBRANCH   1  23
BRANCH   6  25
HETATM   25  O5  UNL     1       9.429  32.035  65.886  1.00  0.00    -0.344 OA
BRANCH  25  26
HETATM   26  C16 UNL     1       9.732  30.814  66.462  1.00  0.00     0.214 C 
BRANCH  26  27
HETATM   27  C17 UNL     1       9.249  29.711  65.598  1.00  0.00    -0.029 A 
HETATM   28  C18 UNL     1       8.152  28.954  65.944  1.00  0.00     0.045 A 
HETATM   29  C19 UNL     1       7.695  27.937  65.140  1.00  0.00     0.105 A 
HETATM   30  C20 UNL     1       8.329  27.638  63.944  1.00  0.00     0.072 A 
HETATM   31  C21 UNL     1       9.427  28.386  63.583  1.00  0.00     0.105 A 
HETATM   32  C22 UNL     1       9.868  29.405  64.409  1.00  0.00     0.045 A 
BRANCH  29  33
HETATM   33  N4  UNL     1       6.570  27.189  65.533  1.00  0.00    -0.116 N 
HETATM   34  O6  UNL     1       6.656  25.945  65.611  1.00  0.00    -0.532 OA
HETATM   35  O7  UNL     1       5.379  27.820  65.830  1.00  0.00    -0.532 OA
ENDBRANCH  29  33
BRANCH  31  36
HETATM   36  N5  UNL     1      10.087  28.086  62.351  1.00  0.00    -0.116 N 
HETATM   37  O8  UNL     1      11.331  28.120  62.316  1.00  0.00    -0.532 OA
HETATM   38  O9  UNL     1       9.415  27.764  61.215  1.00  0.00    -0.532 OA
ENDBRANCH  31  36
ENDBRANCH  26  27
ENDBRANCH  25  26
ENDBRANCH   6  25
TORSDOF 10
ENDMDL
