MODEL 1
REMARK VINA RESULT: -8.381908424      0.000      0.000
REMARK  14 active torsions:
REMARK  status: ('A' for Active; 'I' for Inactive)
REMARK    1  A    between atoms: C1_2  and  C2_3 
REMARK       I    between atoms: C1_2  and  N2_19 
REMARK    2  A    between atoms: C2_3  and  O2_4 
REMARK    3  A    between atoms: O2_4  and  C3_5 
REMARK    4  A    between atoms: C3_5  and  O3_6 
REMARK    5  A    between atoms: C3_5  and  C4_8 
REMARK    6  A    between atoms: C4_8  and  C5_9 
REMARK    7  A    between atoms: C5_9  and  C6_10 
REMARK    8  A    between atoms: C10_14  and  N1_15 
REMARK    9  A    between atoms: N2_19  and  C12_21 
REMARK   10  A    between atoms: C15_25  and  C16_26 
REMARK   11  A    between atoms: C16_26  and  O7_28 
REMARK   12  A    between atoms: O7_28  and  C17_29 
REMARK   13  A    between atoms: C17_29  and  C18_30 
REMARK   14  A    between atoms: C18_30  and  C19_32 
ROOT
HETATM    1  O1  UNL     1       7.960  30.197  65.421  1.00  0.00    -0.271 OA
HETATM    2  C1  UNL     1       9.001  29.526  65.586  1.00  0.00     0.246 C 
HETATM    3  N2  UNL     1      10.272  30.050  65.553  1.00  0.00    -0.324 N 
ATOM      4  H2  UNL     1      11.049  29.408  65.700  1.00  0.00     0.169 HD
ENDROOT
BRANCH   2   5
HETATM    5  C2  UNL     1       8.753  28.077  65.831  1.00  0.00     0.280 C 
BRANCH   5   6
HETATM    6  O2  UNL     1       7.703  27.495  65.159  1.00  0.00    -0.321 OA
BRANCH   6   7
HETATM    7  C3  UNL     1       6.736  26.714  65.704  1.00  0.00     0.178 C 
BRANCH   7   8
HETATM    8  O3  UNL     1       6.820  25.477  65.221  1.00  0.00    -0.341 OA
ATOM      9  H3  UNL     1       7.356  24.939  65.792  1.00  0.00     0.220 HD
ENDBRANCH   7   8
BRANCH   7  10
HETATM   10  C4  UNL     1       5.696  26.980  66.652  1.00  0.00     0.064 C 
BRANCH  10  11
HETATM   11  C5  UNL     1       4.866  26.297  67.308  1.00  0.00     0.016 C 
BRANCH  11  12
HETATM   12  C6  UNL     1       4.628  25.876  68.656  1.00  0.00    -0.034 A 
HETATM   13  C7  UNL     1       5.543  25.934  69.673  1.00  0.00     0.011 A 
HETATM   14  C8  UNL     1       5.144  25.549  70.957  1.00  0.00     0.003 A 
HETATM   15  C9  UNL     1       3.867  25.119  71.208  1.00  0.00     0.036 A 
HETATM   16  C10 UNL     1       2.921  25.045  70.209  1.00  0.00     0.103 A 
HETATM   17  C11 UNL     1       3.315  25.424  68.955  1.00  0.00     0.047 A 
BRANCH  16  18
HETATM   18  N1  UNL     1       1.594  24.591  70.484  1.00  0.00    -0.116 N 
HETATM   19  O4  UNL     1       1.281  24.035  71.546  1.00  0.00    -0.532 OA
HETATM   20  O5  UNL     1       0.629  24.775  69.530  1.00  0.00    -0.532 OA
ENDBRANCH  16  18
ENDBRANCH  11  12
ENDBRANCH  10  11
ENDBRANCH   7  10
ENDBRANCH   6   7
ENDBRANCH   5   6
ENDBRANCH   2   5
BRANCH   3  21
HETATM   21  C12 UNL     1      10.590  31.442  65.325  1.00  0.00     0.058 A 
HETATM   22  C13 UNL     1      10.859  32.309  66.329  1.00  0.00     0.038 A 
HETATM   23  C14 UNL     1      11.185  33.599  65.995  1.00  0.00     0.053 A 
HETATM   24  S1  UNL     1      11.114  33.595  64.309  1.00  0.00    -0.094 SA
HETATM   25  C15 UNL     1      10.670  31.947  64.048  1.00  0.00     0.106 A 
BRANCH  25  26
HETATM   26  C16 UNL     1      10.421  31.316  62.734  1.00  0.00     0.302 C 
HETATM   27  O6  UNL     1       9.490  31.840  62.019  1.00  0.00    -0.259 OA
BRANCH  26  28
HETATM   28  O7  UNL     1      11.076  30.259  62.244  1.00  0.00    -0.309 OA
BRANCH  28  29
HETATM   29  C17 UNL     1      10.633  28.912  62.250  1.00  0.00     0.265 C 
BRANCH  29  30
HETATM   30  C18 UNL     1      10.564  28.361  60.875  1.00  0.00     0.206 C 
HETATM   31  O8  UNL     1      10.732  29.086  59.862  1.00  0.00    -0.288 OA
BRANCH  30  32
HETATM   32  C19 UNL     1      10.291  26.928  60.719  1.00  0.00     0.122 A 
HETATM   33  C20 UNL     1       9.877  26.024  61.671  1.00  0.00     0.043 A 
HETATM   34  C21 UNL     1       9.749  24.791  61.069  1.00  0.00     0.027 A 
HETATM   35  C22 UNL     1      10.098  24.990  59.735  1.00  0.00     0.142 A 
HETATM   36  O9  UNL     1      10.405  26.255  59.590  1.00  0.00    -0.319 OA
ENDBRANCH  30  32
ENDBRANCH  29  30
ENDBRANCH  28  29
ENDBRANCH  26  28
ENDBRANCH  25  26
ENDBRANCH   3  21
TORSDOF 14
ENDMDL
MODEL 2
REMARK VINA RESULT: -8.251175321      2.002      2.291
REMARK  14 active torsions:
REMARK  status: ('A' for Active; 'I' for Inactive)
REMARK    1  A    between atoms: C1_2  and  C2_3 
REMARK       I    between atoms: C1_2  and  N2_19 
REMARK    2  A    between atoms: C2_3  and  O2_4 
REMARK    3  A    between atoms: O2_4  and  C3_5 
REMARK    4  A    between atoms: C3_5  and  O3_6 
REMARK    5  A    between atoms: C3_5  and  C4_8 
REMARK    6  A    between atoms: C4_8  and  C5_9 
REMARK    7  A    between atoms: C5_9  and  C6_10 
REMARK    8  A    between atoms: C10_14  and  N1_15 
REMARK    9  A    between atoms: N2_19  and  C12_21 
REMARK   10  A    between atoms: C15_25  and  C16_26 
REMARK   11  A    between atoms: C16_26  and  O7_28 
REMARK   12  A    between atoms: O7_28  and  C17_29 
REMARK   13  A    between atoms: C17_29  and  C18_30 
REMARK   14  A    between atoms: C18_30  and  C19_32 
ROOT
HETATM    1  O1  UNL     1       7.914  30.172  65.504  1.00  0.00    -0.271 OA
HETATM    2  C1  UNL     1       8.922  29.450  65.659  1.00  0.00     0.246 C 
HETATM    3  N2  UNL     1      10.216  29.913  65.626  1.00  0.00    -0.324 N 
ATOM      4  H2  UNL     1      10.962  29.232  65.765  1.00  0.00     0.169 HD
ENDROOT
BRANCH   2   5
HETATM    5  C2  UNL     1       8.604  28.013  65.893  1.00  0.00     0.280 C 
BRANCH   5   6
HETATM    6  O2  UNL     1       7.503  27.499  65.248  1.00  0.00    -0.321 OA
BRANCH   6   7
HETATM    7  C3  UNL     1       6.566  26.680  65.790  1.00  0.00     0.178 C 
BRANCH   7   8
HETATM    8  O3  UNL     1       6.763  25.427  65.387  1.00  0.00    -0.341 OA
ATOM      9  H3  UNL     1       5.932  24.973  65.312  1.00  0.00     0.220 HD
ENDBRANCH   7   8
BRANCH   7  10
HETATM   10  C4  UNL     1       5.461  26.921  66.669  1.00  0.00     0.064 C 
BRANCH  10  11
HETATM   11  C5  UNL     1       4.697  26.220  67.385  1.00  0.00     0.016 C 
BRANCH  11  12
HETATM   12  C6  UNL     1       4.451  25.946  68.768  1.00  0.00    -0.034 A 
HETATM   13  C7  UNL     1       3.221  25.699  69.316  1.00  0.00     0.011 A 
HETATM   14  C8  UNL     1       3.144  25.379  70.675  1.00  0.00     0.003 A 
HETATM   15  C9  UNL     1       4.268  25.311  71.457  1.00  0.00     0.036 A 
HETATM   16  C10 UNL     1       5.521  25.557  70.940  1.00  0.00     0.103 A 
HETATM   17  C11 UNL     1       5.592  25.868  69.610  1.00  0.00     0.047 A 
BRANCH  16  18
HETATM   18  N1  UNL     1       6.684  25.487  71.768  1.00  0.00    -0.116 N 
HETATM   19  O4  UNL     1       6.771  26.071  72.857  1.00  0.00    -0.532 OA
HETATM   20  O5  UNL     1       7.751  24.745  71.335  1.00  0.00    -0.532 OA
ENDBRANCH  16  18
ENDBRANCH  11  12
ENDBRANCH  10  11
ENDBRANCH   7  10
ENDBRANCH   6   7
ENDBRANCH   5   6
ENDBRANCH   2   5
BRANCH   3  21
HETATM   21  C12 UNL     1      10.601  31.290  65.410  1.00  0.00     0.058 A 
HETATM   22  C13 UNL     1      10.956  32.121  66.416  1.00  0.00     0.038 A 
HETATM   23  C14 UNL     1      11.338  33.399  66.092  1.00  0.00     0.053 A 
HETATM   24  S1  UNL     1      11.201  33.431  64.410  1.00  0.00    -0.094 SA
HETATM   25  C15 UNL     1      10.657  31.815  64.139  1.00  0.00     0.106 A 
BRANCH  25  26
HETATM   26  C16 UNL     1      10.321  31.224  62.826  1.00  0.00     0.302 C 
HETATM   27  O6  UNL     1       9.621  31.956  62.034  1.00  0.00    -0.259 OA
BRANCH  26  28
HETATM   28  O7  UNL     1      10.681  30.006  62.408  1.00  0.00    -0.309 OA
BRANCH  28  29
HETATM   29  C17 UNL     1       9.815  28.924  62.112  1.00  0.00     0.265 C 
BRANCH  29  30
HETATM   30  C18 UNL     1      10.391  27.633  62.561  1.00  0.00     0.206 C 
HETATM   31  O8  UNL     1      11.050  27.539  63.628  1.00  0.00    -0.288 OA
BRANCH  30  32
HETATM   32  C19 UNL     1      10.172  26.450  61.722  1.00  0.00     0.122 A 
HETATM   33  C20 UNL     1      10.573  26.233  60.423  1.00  0.00     0.043 A 
HETATM   34  C21 UNL     1      10.146  24.979  60.043  1.00  0.00     0.027 A 
HETATM   35  C22 UNL     1       9.483  24.460  61.153  1.00  0.00     0.142 A 
HETATM   36  O9  UNL     1       9.529  25.362  62.100  1.00  0.00    -0.319 OA
ENDBRANCH  30  32
ENDBRANCH  29  30
ENDBRANCH  28  29
ENDBRANCH  26  28
ENDBRANCH  25  26
ENDBRANCH   3  21
TORSDOF 14
ENDMDL
MODEL 3
REMARK VINA RESULT: -8.122786962      2.250      2.602
REMARK  14 active torsions:
REMARK  status: ('A' for Active; 'I' for Inactive)
REMARK    1  A    between atoms: C1_2  and  C2_3 
REMARK       I    between atoms: C1_2  and  N2_19 
REMARK    2  A    between atoms: C2_3  and  O2_4 
REMARK    3  A    between atoms: O2_4  and  C3_5 
REMARK    4  A    between atoms: C3_5  and  O3_6 
REMARK    5  A    between atoms: C3_5  and  C4_8 
REMARK    6  A    between atoms: C4_8  and  C5_9 
REMARK    7  A    between atoms: C5_9  and  C6_10 
REMARK    8  A    between atoms: C10_14  and  N1_15 
REMARK    9  A    between atoms: N2_19  and  C12_21 
REMARK   10  A    between atoms: C15_25  and  C16_26 
REMARK   11  A    between atoms: C16_26  and  O7_28 
REMARK   12  A    between atoms: O7_28  and  C17_29 
REMARK   13  A    between atoms: C17_29  and  C18_30 
REMARK   14  A    between atoms: C18_30  and  C19_32 
ROOT
HETATM    1  O1  UNL     1       9.848  28.086  65.056  1.00  0.00    -0.271 OA
HETATM    2  C1  UNL     1       8.719  28.612  65.157  1.00  0.00     0.246 C 
HETATM    3  N2  UNL     1       8.509  29.949  65.401  1.00  0.00    -0.324 N 
ATOM      4  H2  UNL     1       7.543  30.269  65.464  1.00  0.00     0.169 HD
ENDROOT
BRANCH   2   5
HETATM    5  C2  UNL     1       7.589  27.655  64.986  1.00  0.00     0.280 C 
BRANCH   5   6
HETATM    6  O2  UNL     1       7.018  27.145  66.129  1.00  0.00    -0.321 OA
BRANCH   6   7
HETATM    7  C3  UNL     1       5.690  27.073  66.398  1.00  0.00     0.178 C 
BRANCH   7   8
HETATM    8  O3  UNL     1       5.049  28.082  65.814  1.00  0.00    -0.341 OA
ATOM      9  H3  UNL     1       5.029  28.835  66.393  1.00  0.00     0.220 HD
ENDBRANCH   7   8
BRANCH   7  10
HETATM   10  C4  UNL     1       4.905  26.152  67.164  1.00  0.00     0.064 C 
BRANCH  10  11
HETATM   11  C5  UNL     1       4.363  26.143  68.301  1.00  0.00     0.016 C 
BRANCH  11  12
HETATM   12  C6  UNL     1       4.576  25.586  69.603  1.00  0.00    -0.034 A 
HETATM   13  C7  UNL     1       3.652  24.869  70.314  1.00  0.00     0.011 A 
HETATM   14  C8  UNL     1       4.027  24.328  71.548  1.00  0.00     0.003 A 
HETATM   15  C9  UNL     1       5.291  24.503  72.049  1.00  0.00     0.036 A 
HETATM   16  C10 UNL     1       6.246  25.221  71.362  1.00  0.00     0.103 A 
HETATM   17  C11 UNL     1       5.874  25.747  70.155  1.00  0.00     0.047 A 
BRANCH  16  18
HETATM   18  N1  UNL     1       7.558  25.400  71.898  1.00  0.00    -0.116 N 
HETATM   19  O4  UNL     1       8.455  24.554  71.777  1.00  0.00    -0.532 OA
HETATM   20  O5  UNL     1       7.834  26.556  72.579  1.00  0.00    -0.532 OA
ENDBRANCH  16  18
ENDBRANCH  11  12
ENDBRANCH  10  11
ENDBRANCH   7  10
ENDBRANCH   6   7
ENDBRANCH   5   6
ENDBRANCH   2   5
BRANCH   3  21
HETATM   21  C12 UNL     1       9.551  30.936  65.573  1.00  0.00     0.058 A 
HETATM   22  C13 UNL     1       9.982  31.346  66.788  1.00  0.00     0.038 A 
HETATM   23  C14 UNL     1      11.003  32.262  66.834  1.00  0.00     0.053 A 
HETATM   24  S1  UNL     1      11.349  32.542  65.205  1.00  0.00    -0.094 SA
HETATM   25  C15 UNL     1      10.187  31.487  64.484  1.00  0.00     0.106 A 
BRANCH  25  26
HETATM   26  C16 UNL     1       9.969  31.304  63.034  1.00  0.00     0.302 C 
HETATM   27  O6  UNL     1       9.888  32.376  62.329  1.00  0.00    -0.259 OA
BRANCH  26  28
HETATM   28  O7  UNL     1       9.848  30.127  62.409  1.00  0.00    -0.309 OA
BRANCH  28  29
HETATM   29  C17 UNL     1      10.904  29.279  61.992  1.00  0.00     0.265 C 
BRANCH  29  30
HETATM   30  C18 UNL     1      10.556  28.559  60.743  1.00  0.00     0.206 C 
HETATM   31  O8  UNL     1      10.499  29.149  59.634  1.00  0.00    -0.288 OA
BRANCH  30  32
HETATM   32  C19 UNL     1      10.276  27.122  60.828  1.00  0.00     0.122 A 
HETATM   33  C20 UNL     1       9.883  26.387  61.924  1.00  0.00     0.043 A 
HETATM   34  C21 UNL     1       9.738  25.074  61.534  1.00  0.00     0.027 A 
HETATM   35  C22 UNL     1      10.055  25.051  60.178  1.00  0.00     0.142 A 
HETATM   36  O9  UNL     1      10.362  26.273  59.822  1.00  0.00    -0.319 OA
ENDBRANCH  30  32
ENDBRANCH  29  30
ENDBRANCH  28  29
ENDBRANCH  26  28
ENDBRANCH  25  26
ENDBRANCH   3  21
TORSDOF 14
ENDMDL
MODEL 4
REMARK VINA RESULT: -8.116883197      1.131      1.525
REMARK  14 active torsions:
REMARK  status: ('A' for Active; 'I' for Inactive)
REMARK    1  A    between atoms: C1_2  and  C2_3 
REMARK       I    between atoms: C1_2  and  N2_19 
REMARK    2  A    between atoms: C2_3  and  O2_4 
REMARK    3  A    between atoms: O2_4  and  C3_5 
REMARK    4  A    between atoms: C3_5  and  O3_6 
REMARK    5  A    between atoms: C3_5  and  C4_8 
REMARK    6  A    between atoms: C4_8  and  C5_9 
REMARK    7  A    between atoms: C5_9  and  C6_10 
REMARK    8  A    between atoms: C10_14  and  N1_15 
REMARK    9  A    between atoms: N2_19  and  C12_21 
REMARK   10  A    between atoms: C15_25  and  C16_26 
REMARK   11  A    between atoms: C16_26  and  O7_28 
REMARK   12  A    between atoms: O7_28  and  C17_29 
REMARK   13  A    between atoms: C17_29  and  C18_30 
REMARK   14  A    between atoms: C18_30  and  C19_32 
ROOT
HETATM    1  O1  UNL     1       7.685  29.891  65.291  1.00  0.00    -0.271 OA
HETATM    2  C1  UNL     1       8.671  29.224  65.672  1.00  0.00     0.246 C 
HETATM    3  N2  UNL     1       9.950  29.719  65.762  1.00  0.00    -0.324 N 
ATOM      4  H2  UNL     1      10.679  29.083  66.086  1.00  0.00     0.169 HD
ENDROOT
BRANCH   2   5
HETATM    5  C2  UNL     1       8.344  27.815  66.033  1.00  0.00     0.280 C 
BRANCH   5   6
HETATM    6  O2  UNL     1       7.313  27.213  65.349  1.00  0.00    -0.321 OA
BRANCH   6   7
HETATM    7  C3  UNL     1       6.380  26.380  65.876  1.00  0.00     0.178 C 
BRANCH   7   8
HETATM    8  O3  UNL     1       6.536  25.152  65.391  1.00  0.00    -0.341 OA
ATOM      9  H3  UNL     1       6.706  24.540  66.097  1.00  0.00     0.220 HD
ENDBRANCH   7   8
BRANCH   7  10
HETATM   10  C4  UNL     1       5.313  26.588  66.808  1.00  0.00     0.064 C 
BRANCH  10  11
HETATM   11  C5  UNL     1       5.051  26.231  67.987  1.00  0.00     0.016 C 
BRANCH  11  12
HETATM   12  C6  UNL     1       3.953  25.718  68.750  1.00  0.00    -0.034 A 
HETATM   13  C7  UNL     1       2.919  24.976  68.243  1.00  0.00     0.011 A 
HETATM   14  C8  UNL     1       1.951  24.485  69.124  1.00  0.00     0.003 A 
HETATM   15  C9  UNL     1       2.020  24.734  70.470  1.00  0.00     0.036 A 
HETATM   16  C10 UNL     1       3.043  25.479  71.015  1.00  0.00     0.103 A 
HETATM   17  C11 UNL     1       3.989  25.956  70.149  1.00  0.00     0.047 A 
BRANCH  16  18
HETATM   18  N1  UNL     1       3.100  25.735  72.420  1.00  0.00    -0.116 N 
HETATM   19  O4  UNL     1       2.108  25.653  73.158  1.00  0.00    -0.532 OA
HETATM   20  O5  UNL     1       4.301  26.090  72.971  1.00  0.00    -0.532 OA
ENDBRANCH  16  18
ENDBRANCH  11  12
ENDBRANCH  10  11
ENDBRANCH   7  10
ENDBRANCH   6   7
ENDBRANCH   5   6
ENDBRANCH   2   5
BRANCH   3  21
HETATM   21  C12 UNL     1      10.342  31.072  65.435  1.00  0.00     0.058 A 
HETATM   22  C13 UNL     1      10.632  32.002  66.374  1.00  0.00     0.038 A 
HETATM   23  C14 UNL     1      11.029  33.245  65.949  1.00  0.00     0.053 A 
HETATM   24  S1  UNL     1      10.995  33.110  64.266  1.00  0.00    -0.094 SA
HETATM   25  C15 UNL     1      10.475  31.469  64.124  1.00  0.00     0.106 A 
BRANCH  25  26
HETATM   26  C16 UNL     1      10.223  30.749  62.858  1.00  0.00     0.302 C 
HETATM   27  O6  UNL     1       9.914  31.473  61.842  1.00  0.00    -0.259 OA
BRANCH  26  28
HETATM   28  O7  UNL     1      10.287  29.424  62.693  1.00  0.00    -0.309 OA
BRANCH  28  29
HETATM   29  C17 UNL     1      11.255  28.711  61.941  1.00  0.00     0.265 C 
BRANCH  29  30
HETATM   30  C18 UNL     1      10.689  28.217  60.663  1.00  0.00     0.206 C 
HETATM   31  O8  UNL     1      10.511  28.981  59.679  1.00  0.00    -0.288 OA
BRANCH  30  32
HETATM   32  C19 UNL     1      10.335  26.797  60.566  1.00  0.00     0.122 A 
HETATM   33  C20 UNL     1       9.887  25.955  61.559  1.00  0.00     0.043 A 
HETATM   34  C21 UNL     1       9.682  24.709  61.008  1.00  0.00     0.027 A 
HETATM   35  C22 UNL     1      10.020  24.836  59.663  1.00  0.00     0.142 A 
HETATM   36  O9  UNL     1      10.395  26.075  59.464  1.00  0.00    -0.319 OA
ENDBRANCH  30  32
ENDBRANCH  29  30
ENDBRANCH  28  29
ENDBRANCH  26  28
ENDBRANCH  25  26
ENDBRANCH   3  21
TORSDOF 14
ENDMDL
MODEL 5
REMARK VINA RESULT: -8.041429011      4.211     10.863
REMARK  14 active torsions:
REMARK  status: ('A' for Active; 'I' for Inactive)
REMARK    1  A    between atoms: C1_2  and  C2_3 
REMARK       I    between atoms: C1_2  and  N2_19 
REMARK    2  A    between atoms: C2_3  and  O2_4 
REMARK    3  A    between atoms: O2_4  and  C3_5 
REMARK    4  A    between atoms: C3_5  and  O3_6 
REMARK    5  A    between atoms: C3_5  and  C4_8 
REMARK    6  A    between atoms: C4_8  and  C5_9 
REMARK    7  A    between atoms: C5_9  and  C6_10 
REMARK    8  A    between atoms: C10_14  and  N1_15 
REMARK    9  A    between atoms: N2_19  and  C12_21 
REMARK   10  A    between atoms: C15_25  and  C16_26 
REMARK   11  A    between atoms: C16_26  and  O7_28 
REMARK   12  A    between atoms: O7_28  and  C17_29 
REMARK   13  A    between atoms: C17_29  and  C18_30 
REMARK   14  A    between atoms: C18_30  and  C19_32 
ROOT
HETATM    1  O1  UNL     1       5.395  25.530  69.406  1.00  0.00    -0.271 OA
HETATM    2  C1  UNL     1       4.340  25.908  68.854  1.00  0.00     0.246 C 
HETATM    3  N2  UNL     1       3.088  25.779  69.410  1.00  0.00    -0.324 N 
ATOM      4  H2  UNL     1       2.296  26.122  68.869  1.00  0.00     0.169 HD
ENDROOT
BRANCH   2   5
HETATM    5  C2  UNL     1       4.547  26.527  67.515  1.00  0.00     0.280 C 
BRANCH   5   6
HETATM    6  O2  UNL     1       5.301  25.822  66.605  1.00  0.00    -0.321 OA
BRANCH   6   7
HETATM    7  C3  UNL     1       6.342  26.306  65.880  1.00  0.00     0.178 C 
BRANCH   7   8
HETATM    8  O3  UNL     1       6.871  25.338  65.137  1.00  0.00    -0.341 OA
ATOM      9  H3  UNL     1       7.729  25.599  64.823  1.00  0.00     0.220 HD
ENDBRANCH   7   8
BRANCH   7  10
HETATM   10  C4  UNL     1       6.937  27.605  65.789  1.00  0.00     0.064 C 
BRANCH  10  11
HETATM   11  C5  UNL     1       8.101  28.066  65.651  1.00  0.00     0.016 C 
BRANCH  11  12
HETATM   12  C6  UNL     1       8.827  28.947  64.787  1.00  0.00    -0.034 A 
HETATM   13  C7  UNL     1       9.345  30.161  65.154  1.00  0.00     0.011 A 
HETATM   14  C8  UNL     1      10.090  30.883  64.217  1.00  0.00     0.003 A 
HETATM   15  C9  UNL     1      10.307  30.399  62.953  1.00  0.00     0.036 A 
HETATM   16  C10 UNL     1       9.800  29.184  62.548  1.00  0.00     0.103 A 
HETATM   17  C11 UNL     1       9.072  28.481  63.468  1.00  0.00     0.047 A 
BRANCH  16  18
HETATM   18  N1  UNL     1      10.030  28.694  61.225  1.00  0.00    -0.116 N 
HETATM   19  O4  UNL     1      10.640  29.343  60.365  1.00  0.00    -0.532 OA
HETATM   20  O5  UNL     1       9.552  27.454  60.895  1.00  0.00    -0.532 OA
ENDBRANCH  16  18
ENDBRANCH  11  12
ENDBRANCH  10  11
ENDBRANCH   7  10
ENDBRANCH   6   7
ENDBRANCH   5   6
ENDBRANCH   2   5
BRANCH   3  21
HETATM   21  C12 UNL     1       2.810  25.194  70.703  1.00  0.00     0.058 A 
HETATM   22  C13 UNL     1       3.088  25.821  71.869  1.00  0.00     0.038 A 
HETATM   23  C14 UNL     1       2.748  25.188  73.038  1.00  0.00     0.053 A 
HETATM   24  S1  UNL     1       2.053  23.743  72.510  1.00  0.00    -0.094 SA
HETATM   25  C15 UNL     1       2.203  23.963  70.804  1.00  0.00     0.106 A 
BRANCH  25  26
HETATM   26  C16 UNL     1       1.787  22.995  69.767  1.00  0.00     0.302 C 
HETATM   27  O6  UNL     1       1.279  21.892  70.188  1.00  0.00    -0.259 OA
BRANCH  26  28
HETATM   28  O7  UNL     1       1.901  23.175  68.447  1.00  0.00    -0.309 OA
BRANCH  28  29
HETATM   29  C17 UNL     1       0.854  23.483  67.543  1.00  0.00     0.265 C 
BRANCH  29  30
HETATM   30  C18 UNL     1       0.683  22.413  66.530  1.00  0.00     0.206 C 
HETATM   31  O8  UNL     1       1.110  21.246  66.722  1.00  0.00    -0.288 OA
BRANCH  30  32
HETATM   32  C19 UNL     1      -0.007  22.749  65.280  1.00  0.00     0.122 A 
HETATM   33  C20 UNL     1      -0.938  22.007  64.587  1.00  0.00     0.043 A 
HETATM   34  C21 UNL     1      -1.311  22.720  63.468  1.00  0.00     0.027 A 
HETATM   35  C22 UNL     1      -0.577  23.902  63.518  1.00  0.00     0.142 A 
HETATM   36  O9  UNL     1       0.166  23.863  64.595  1.00  0.00    -0.319 OA
ENDBRANCH  30  32
ENDBRANCH  29  30
ENDBRANCH  28  29
ENDBRANCH  26  28
ENDBRANCH  25  26
ENDBRANCH   3  21
TORSDOF 14
ENDMDL
