MODEL 1
REMARK VINA RESULT: -5.619662415      0.000      0.000
REMARK  2 active torsions:
REMARK  status: ('A' for Active; 'I' for Inactive)
REMARK    1  A    between atoms: O1_1  and  C1_3 
REMARK    2  A    between atoms: C1_3  and  C2_4 
ROOT
HETATM    1  C2  UNL     1      17.024   3.921  14.508  1.00  0.00     0.167 C 
HETATM    2  O2  UNL     1      17.848   2.831  14.367  1.00  0.00    -0.374 OA
HETATM    3  C3  UNL     1      16.833   1.869  14.382  1.00  0.00     0.158 C 
HETATM    4  C4  UNL     1      16.840   0.953  15.577  1.00  0.00     0.141 C 
HETATM    5  N1  UNL     1      16.245   1.653  16.666  1.00  0.00    -0.247 NA
HETATM    6  C5  UNL     1      15.265   0.926  17.400  1.00  0.00     0.109 C 
HETATM    7  C6  UNL     1      13.964   1.620  17.178  1.00  0.00     0.032 C 
HETATM    8  C7  UNL     1      14.394   2.995  16.713  1.00  0.00     0.110 C 
HETATM    9  N2  UNL     1      15.727   2.837  16.239  1.00  0.00    -0.240 NA
HETATM   10  C8  UNL     1      15.886   2.959  14.823  1.00  0.00     0.136 C 
ENDROOT
BRANCH   1  11
HETATM   11  C1  UNL     1      16.724   4.679  13.232  1.00  0.00     0.197 C 
BRANCH  11  12
HETATM   12  O1  UNL     1      15.316   4.765  13.151  1.00  0.00    -0.398 OA
ATOM     13  H1  UNL     1      15.126   5.160  12.308  1.00  0.00     0.209 HD
ENDBRANCH  11  12
ENDBRANCH   1  11
TORSDOF 2
ENDMDL
MODEL 2
REMARK VINA RESULT: -5.542830784      2.582      4.477
REMARK  2 active torsions:
REMARK  status: ('A' for Active; 'I' for Inactive)
REMARK    1  A    between atoms: O1_1  and  C1_3 
REMARK    2  A    between atoms: C1_3  and  C2_4 
ROOT
HETATM    1  C2  UNL     1      17.395   2.014  15.550  1.00  0.00     0.167 C 
HETATM    2  O2  UNL     1      18.074   3.206  15.606  1.00  0.00    -0.374 OA
HETATM    3  C3  UNL     1      17.363   3.836  14.580  1.00  0.00     0.158 C 
HETATM    4  C4  UNL     1      18.165   4.139  13.342  1.00  0.00     0.141 C 
HETATM    5  N1  UNL     1      18.268   2.936  12.584  1.00  0.00    -0.247 NA
HETATM    6  C5  UNL     1      17.988   3.062  11.193  1.00  0.00     0.109 C 
HETATM    7  C6  UNL     1      16.749   2.273  10.934  1.00  0.00     0.032 C 
HETATM    8  C7  UNL     1      16.687   1.348  12.130  1.00  0.00     0.110 C 
HETATM    9  N2  UNL     1      17.487   1.966  13.133  1.00  0.00    -0.240 NA
HETATM   10  C8  UNL     1      16.763   2.491  14.249  1.00  0.00     0.136 C 
ENDROOT
BRANCH   1  11
HETATM   11  C1  UNL     1      16.326   1.823  16.606  1.00  0.00     0.197 C 
BRANCH  11  12
HETATM   12  O1  UNL     1      15.845   0.505  16.442  1.00  0.00    -0.398 OA
ATOM     13  H1  UNL     1      14.898   0.567  16.466  1.00  0.00     0.209 HD
ENDBRANCH  11  12
ENDBRANCH   1  11
TORSDOF 2
ENDMDL
MODEL 3
REMARK VINA RESULT: -5.336155860      3.311      4.640
REMARK  2 active torsions:
REMARK  status: ('A' for Active; 'I' for Inactive)
REMARK    1  A    between atoms: O1_1  and  C1_3 
REMARK    2  A    between atoms: C1_3  and  C2_4 
ROOT
HETATM    1  C2  UNL     1      16.091   1.983  11.165  1.00  0.00     0.167 C 
HETATM    2  O2  UNL     1      16.647   2.813  10.222  1.00  0.00    -0.374 OA
HETATM    3  C3  UNL     1      17.415   3.568  11.115  1.00  0.00     0.158 C 
HETATM    4  C4  UNL     1      17.001   5.009  11.252  1.00  0.00     0.141 C 
HETATM    5  N1  UNL     1      15.872   5.057  12.122  1.00  0.00    -0.247 NA
HETATM    6  C5  UNL     1      15.932   6.042  13.148  1.00  0.00     0.109 C 
HETATM    7  C6  UNL     1      15.996   5.306  14.443  1.00  0.00     0.032 C 
HETATM    8  C7  UNL     1      15.474   3.934  14.073  1.00  0.00     0.110 C 
HETATM    9  N2  UNL     1      15.642   3.829  12.663  1.00  0.00    -0.240 NA
HETATM   10  C8  UNL     1      16.651   2.909  12.237  1.00  0.00     0.136 C 
ENDROOT
BRANCH   1  11
HETATM   11  C1  UNL     1      16.725   0.613  11.281  1.00  0.00     0.197 C 
BRANCH  11  12
HETATM   12  O1  UNL     1      16.715   0.293  12.657  1.00  0.00    -0.398 OA
ATOM     13  H1  UNL     1      17.380   0.840  13.058  1.00  0.00     0.209 HD
ENDBRANCH  11  12
ENDBRANCH   1  11
TORSDOF 2
ENDMDL
MODEL 4
REMARK VINA RESULT: -5.252459292      2.885      4.340
REMARK  2 active torsions:
REMARK  status: ('A' for Active; 'I' for Inactive)
REMARK    1  A    between atoms: O1_1  and  C1_3 
REMARK    2  A    between atoms: C1_3  and  C2_4 
ROOT
HETATM    1  C2  UNL     1      17.263   1.450  12.129  1.00  0.00     0.167 C 
HETATM    2  O2  UNL     1      16.698   1.179  13.352  1.00  0.00    -0.374 OA
HETATM    3  C3  UNL     1      16.342   2.497  13.652  1.00  0.00     0.158 C 
HETATM    4  C4  UNL     1      17.080   3.109  14.813  1.00  0.00     0.141 C 
HETATM    5  N1  UNL     1      18.362   3.522  14.345  1.00  0.00    -0.247 NA
HETATM    6  C5  UNL     1      18.758   4.837  14.723  1.00  0.00     0.109 C 
HETATM    7  C6  UNL     1      18.836   5.636  13.467  1.00  0.00     0.032 C 
HETATM    8  C7  UNL     1      18.946   4.570  12.398  1.00  0.00     0.110 C 
HETATM    9  N2  UNL     1      18.438   3.380  12.993  1.00  0.00    -0.240 NA
HETATM   10  C8  UNL     1      17.182   2.931  12.476  1.00  0.00     0.136 C 
ENDROOT
BRANCH   1  11
HETATM   11  C1  UNL     1      16.390   1.151  10.929  1.00  0.00     0.197 C 
BRANCH  11  12
HETATM   12  O1  UNL     1      16.362   2.336  10.161  1.00  0.00    -0.398 OA
ATOM     13  H1  UNL     1      15.546   2.771  10.379  1.00  0.00     0.209 HD
ENDBRANCH  11  12
ENDBRANCH   1  11
TORSDOF 2
ENDMDL
MODEL 5
REMARK VINA RESULT: -5.235819446      2.946      3.961
REMARK  2 active torsions:
REMARK  status: ('A' for Active; 'I' for Inactive)
REMARK    1  A    between atoms: O1_1  and  C1_3 
REMARK    2  A    between atoms: C1_3  and  C2_4 
ROOT
HETATM    1  C2  UNL     1      16.406   1.686  11.369  1.00  0.00     0.167 C 
HETATM    2  O2  UNL     1      17.029   2.814  10.894  1.00  0.00    -0.374 OA
HETATM    3  C3  UNL     1      18.084   2.805  11.812  1.00  0.00     0.158 C 
HETATM    4  C4  UNL     1      18.091   3.953  12.786  1.00  0.00     0.141 C 
HETATM    5  N1  UNL     1      17.145   3.659  13.812  1.00  0.00    -0.247 NA
HETATM    6  C5  UNL     1      17.604   3.863  15.145  1.00  0.00     0.109 C 
HETATM    7  C6  UNL     1      17.646   2.520  15.792  1.00  0.00     0.032 C 
HETATM    8  C7  UNL     1      16.732   1.696  14.909  1.00  0.00     0.110 C 
HETATM    9  N2  UNL     1      16.673   2.391  13.668  1.00  0.00    -0.240 NA
HETATM   10  C8  UNL     1      17.332   1.743  12.577  1.00  0.00     0.136 C 
ENDROOT
BRANCH   1  11
HETATM   11  C1  UNL     1      16.662   0.419  10.579  1.00  0.00     0.197 C 
BRANCH  11  12
HETATM   12  O1  UNL     1      16.131   0.648   9.291  1.00  0.00    -0.398 OA
ATOM     13  H1  UNL     1      15.767   1.525   9.309  1.00  0.00     0.209 HD
ENDBRANCH  11  12
ENDBRANCH   1  11
TORSDOF 2
ENDMDL
