MODEL 1
REMARK VINA RESULT: -5.626596859      0.000      0.000
REMARK  2 active torsions:
REMARK  status: ('A' for Active; 'I' for Inactive)
REMARK    1  A    between atoms: N1_1  and  N2_4 
REMARK    2  A    between atoms: N2_4  and  N3_5 
ROOT
HETATM    1  N3  UNL     1      17.792  -0.839  11.363  1.00  0.00    -0.218 N 
HETATM    2  C1  UNL     1      17.142  -0.154  12.445  1.00  0.00     0.327 C 
HETATM    3  O1  UNL     1      17.803   1.084  12.437  1.00  0.00    -0.357 OA
HETATM    4  C2  UNL     1      17.932   1.436  11.117  1.00  0.00     0.084 C 
HETATM    5  C3  UNL     1      19.204   2.208  10.888  1.00  0.00     0.059 C 
HETATM    6  C4  UNL     1      18.994   3.644  10.576  1.00  0.00     0.116 C 
HETATM    7  N4  UNL     1      17.982   4.301  11.317  1.00  0.00    -0.421 N 
ATOM      8  H4  UNL     1      18.078   5.272  11.616  1.00  0.00     0.153 HD
HETATM    9  C5  UNL     1      16.826   3.533  11.622  1.00  0.00     0.116 C 
HETATM   10  C6  UNL     1      16.769   2.315  10.739  1.00  0.00     0.059 C 
HETATM   11  C7  UNL     1      17.930   0.134  10.317  1.00  0.00     0.199 C 
ENDROOT
BRANCH   1  12
HETATM   12  N2  UNL     1      18.183  -2.115  11.348  1.00  0.00    -0.244 NA
BRANCH  12  13
HETATM   13  N1  UNL     1      18.501  -3.204  11.335  1.00  0.00    -0.261 N 
ATOM     14  H12 UNL     1      18.097  -2.430  10.807  1.00  0.00     0.193 HD
ATOM     15  H11 UNL     1      18.791  -4.182  11.335  1.00  0.00     0.193 HD
ENDBRANCH  12  13
ENDBRANCH   1  12
TORSDOF 2
ENDMDL
MODEL 2
REMARK VINA RESULT: -5.199938538      2.500      3.048
REMARK  2 active torsions:
REMARK  status: ('A' for Active; 'I' for Inactive)
REMARK    1  A    between atoms: N1_1  and  N2_4 
REMARK    2  A    between atoms: N2_4  and  N3_5 
ROOT
HETATM    1  N3  UNL     1      16.627   1.782  11.318  1.00  0.00    -0.218 N 
HETATM    2  C1  UNL     1      16.888   1.390  12.674  1.00  0.00     0.327 C 
HETATM    3  O1  UNL     1      18.054   2.115  12.961  1.00  0.00    -0.357 OA
HETATM    4  C2  UNL     1      17.867   3.363  12.421  1.00  0.00     0.084 C 
HETATM    5  C3  UNL     1      19.170   3.940  11.933  1.00  0.00     0.059 C 
HETATM    6  C4  UNL     1      19.670   5.079  12.744  1.00  0.00     0.116 C 
HETATM    7  N4  UNL     1      19.518   4.960  14.147  1.00  0.00    -0.421 N 
ATOM      8  H4  UNL     1      20.221   5.315  14.796  1.00  0.00     0.153 HD
HETATM    9  C5  UNL     1      18.334   4.319  14.599  1.00  0.00     0.116 C 
HETATM   10  C6  UNL     1      17.317   4.271  13.489  1.00  0.00     0.059 C 
HETATM   11  C7  UNL     1      16.878   3.195  11.269  1.00  0.00     0.199 C 
ENDROOT
BRANCH   1  12
HETATM   12  N2  UNL     1      16.233   0.988  10.320  1.00  0.00    -0.244 NA
BRANCH  12  13
HETATM   13  N1  UNL     1      15.903   0.302   9.479  1.00  0.00    -0.261 N 
ATOM     14  H12 UNL     1      15.617   0.986  10.180  1.00  0.00     0.193 HD
ATOM     15  H11 UNL     1      15.620  -0.319   8.722  1.00  0.00     0.193 HD
ENDBRANCH  12  13
ENDBRANCH   1  12
TORSDOF 2
ENDMDL
MODEL 3
REMARK VINA RESULT: -5.153087819      4.151      4.781
REMARK  2 active torsions:
REMARK  status: ('A' for Active; 'I' for Inactive)
REMARK    1  A    between atoms: N1_1  and  N2_4 
REMARK    2  A    between atoms: N2_4  and  N3_5 
ROOT
HETATM    1  N3  UNL     1      16.442   2.175  16.171  1.00  0.00    -0.218 N 
HETATM    2  C1  UNL     1      17.841   2.475  16.047  1.00  0.00     0.327 C 
HETATM    3  O1  UNL     1      17.961   2.718  14.671  1.00  0.00    -0.357 OA
HETATM    4  C2  UNL     1      16.861   3.462  14.321  1.00  0.00     0.084 C 
HETATM    5  C3  UNL     1      16.416   3.138  12.919  1.00  0.00     0.059 C 
HETATM    6  C4  UNL     1      16.656   4.227  11.939  1.00  0.00     0.116 C 
HETATM    7  N4  UNL     1      17.884   4.921  12.067  1.00  0.00    -0.421 N 
ATOM      8  H4  UNL     1      18.402   5.252  11.253  1.00  0.00     0.153 HD
HETATM    9  C5  UNL     1      18.352   5.133  13.392  1.00  0.00     0.116 C 
HETATM   10  C6  UNL     1      17.231   4.920  14.375  1.00  0.00     0.059 C 
HETATM   11  C7  UNL     1      15.768   3.126  15.334  1.00  0.00     0.199 C 
ENDROOT
BRANCH   1  12
HETATM   12  N2  UNL     1      15.897   1.210  16.913  1.00  0.00    -0.244 NA
BRANCH  12  13
HETATM   13  N1  UNL     1      15.420   0.396  17.545  1.00  0.00    -0.261 N 
ATOM     14  H12 UNL     1      15.560   1.398  17.412  1.00  0.00     0.193 HD
ATOM     15  H11 UNL     1      14.998  -0.343  18.105  1.00  0.00     0.193 HD
ENDBRANCH  12  13
ENDBRANCH   1  12
TORSDOF 2
ENDMDL
MODEL 4
REMARK VINA RESULT: -5.043922988      2.955      4.262
REMARK  2 active torsions:
REMARK  status: ('A' for Active; 'I' for Inactive)
REMARK    1  A    between atoms: N1_1  and  N2_4 
REMARK    2  A    between atoms: N2_4  and  N3_5 
ROOT
HETATM    1  N3  UNL     1      16.529   2.387  11.257  1.00  0.00    -0.218 N 
HETATM    2  C1  UNL     1      16.908   3.723  10.890  1.00  0.00     0.327 C 
HETATM    3  O1  UNL     1      16.190   4.490  11.819  1.00  0.00    -0.357 OA
HETATM    4  C2  UNL     1      16.306   3.835  13.020  1.00  0.00     0.084 C 
HETATM    5  C3  UNL     1      15.061   4.008  13.850  1.00  0.00     0.059 C 
HETATM    6  C4  UNL     1      15.243   4.872  15.044  1.00  0.00     0.116 C 
HETATM    7  N4  UNL     1      16.046   6.024  14.863  1.00  0.00    -0.421 N 
ATOM      8  H4  UNL     1      15.835   6.906  15.331  1.00  0.00     0.153 HD
HETATM    9  C5  UNL     1      17.162   5.884  13.995  1.00  0.00     0.116 C 
HETATM   10  C6  UNL     1      17.466   4.424  13.778  1.00  0.00     0.059 C 
HETATM   11  C7  UNL     1      16.545   2.362  12.692  1.00  0.00     0.199 C 
ENDROOT
BRANCH   1  12
HETATM   12  N2  UNL     1      16.226   1.387  10.427  1.00  0.00    -0.244 NA
BRANCH  12  13
HETATM   13  N1  UNL     1      15.971   0.528   9.731  1.00  0.00    -0.261 N 
ATOM     14  H12 UNL     1      16.670   0.946  10.347  1.00  0.00     0.193 HD
ATOM     15  H11 UNL     1      15.731  -0.239   9.104  1.00  0.00     0.193 HD
ENDBRANCH  12  13
ENDBRANCH   1  12
TORSDOF 2
ENDMDL
MODEL 5
REMARK VINA RESULT: -4.972259105      2.665      3.764
REMARK  2 active torsions:
REMARK  status: ('A' for Active; 'I' for Inactive)
REMARK    1  A    between atoms: N1_1  and  N2_4 
REMARK    2  A    between atoms: N2_4  and  N3_5 
ROOT
HETATM    1  N3  UNL     1      16.864   1.468  12.198  1.00  0.00    -0.218 N 
HETATM    2  C1  UNL     1      16.387   2.454  11.269  1.00  0.00     0.327 C 
HETATM    3  O1  UNL     1      15.541   3.225  12.080  1.00  0.00    -0.357 OA
HETATM    4  C2  UNL     1      16.201   3.380  13.274  1.00  0.00     0.084 C 
HETATM    5  C3  UNL     1      15.229   3.437  14.423  1.00  0.00     0.059 C 
HETATM    6  C4  UNL     1      15.116   4.775  15.056  1.00  0.00     0.116 C 
HETATM    7  N4  UNL     1      15.118   5.884  14.176  1.00  0.00    -0.421 N 
ATOM      8  H4  UNL     1      14.547   6.711  14.350  1.00  0.00     0.153 HD
HETATM    9  C5  UNL     1      15.960   5.781  13.036  1.00  0.00     0.116 C 
HETATM   10  C6  UNL     1      16.965   4.677  13.235  1.00  0.00     0.059 C 
HETATM   11  C7  UNL     1      17.141   2.183  13.411  1.00  0.00     0.199 C 
ENDROOT
BRANCH   1  12
HETATM   12  N2  UNL     1      17.015   0.162  11.968  1.00  0.00    -0.244 NA
BRANCH  12  13
HETATM   13  N1  UNL     1      17.155  -0.945  11.764  1.00  0.00    -0.261 N 
ATOM     14  H12 UNL     1      16.520  -0.147  11.728  1.00  0.00     0.193 HD
ATOM     15  H11 UNL     1      17.293  -1.940  11.586  1.00  0.00     0.193 HD
ENDBRANCH  12  13
ENDBRANCH   1  12
TORSDOF 2
ENDMDL
