MODEL 1
REMARK VINA RESULT: -5.276503076      0.000      0.000
REMARK  1 active torsions:
REMARK  status: ('A' for Active; 'I' for Inactive)
REMARK    1  A    between atoms: C3_4  and  N1_5 
ROOT
HETATM    1  C1  UNL     1      16.018   2.261  16.687  1.00  0.00     0.140 C 
HETATM    2  C2  UNL     1      16.475   0.925  16.167  1.00  0.00     0.189 C 
HETATM    3  O1  UNL     1      16.171   0.777  14.817  1.00  0.00    -0.364 OA
HETATM    4  C3  UNL     1      16.865   1.811  14.148  1.00  0.00     0.236 C 
HETATM    5  C8  UNL     1      16.081   3.070  14.410  1.00  0.00     0.167 C 
HETATM    6  N2  UNL     1      15.467   3.121  15.691  1.00  0.00    -0.415 N 
ATOM      7  H2  UNL     1      14.678   3.737  15.887  1.00  0.00     0.153 HD
ENDROOT
BRANCH   4   8
HETATM    8  N1  UNL     1      17.102   1.513  12.791  1.00  0.00    -0.382 N 
HETATM    9  C4  UNL     1      16.684   2.439  11.812  1.00  0.00     0.145 C 
HETATM   10  C5  UNL     1      16.227   1.674  10.587  1.00  0.00     0.187 C 
HETATM   11  O2  UNL     1      17.283   0.875  10.171  1.00  0.00    -0.388 OA
HETATM   12  C6  UNL     1      17.601  -0.130  11.068  1.00  0.00     0.187 C 
HETATM   13  C7  UNL     1      17.073   0.132  12.455  1.00  0.00     0.145 C 
ENDBRANCH   4   8
TORSDOF 1
ENDMDL
MODEL 2
REMARK VINA RESULT: -5.206579926      1.264      1.550
REMARK  1 active torsions:
REMARK  status: ('A' for Active; 'I' for Inactive)
REMARK    1  A    between atoms: C3_4  and  N1_5 
ROOT
HETATM    1  C1  UNL     1      16.675   2.425  16.385  1.00  0.00     0.140 C 
HETATM    2  C2  UNL     1      17.166   3.314  15.274  1.00  0.00     0.189 C 
HETATM    3  O1  UNL     1      17.796   2.576  14.277  1.00  0.00    -0.364 OA
HETATM    4  C3  UNL     1      16.819   1.684  13.778  1.00  0.00     0.236 C 
HETATM    5  C8  UNL     1      16.692   0.593  14.807  1.00  0.00     0.167 C 
HETATM    6  N2  UNL     1      16.866   1.031  16.149  1.00  0.00    -0.415 N 
ATOM      7  H2  UNL     1      17.114   0.386  16.899  1.00  0.00     0.153 HD
ENDROOT
BRANCH   4   8
HETATM    8  N1  UNL     1      17.100   1.254  12.465  1.00  0.00    -0.382 N 
HETATM    9  C4  UNL     1      16.574   1.994  11.384  1.00  0.00     0.145 C 
HETATM   10  C5  UNL     1      16.224   1.034  10.266  1.00  0.00     0.187 C 
HETATM   11  O2  UNL     1      17.375   0.329   9.940  1.00  0.00    -0.388 OA
HETATM   12  C6  UNL     1      17.811  -0.511  10.950  1.00  0.00     0.187 C 
HETATM   13  C7  UNL     1      17.246  -0.150  12.300  1.00  0.00     0.145 C 
ENDBRANCH   4   8
TORSDOF 1
ENDMDL
MODEL 3
REMARK VINA RESULT: -5.129501091      2.658      4.959
REMARK  1 active torsions:
REMARK  status: ('A' for Active; 'I' for Inactive)
REMARK    1  A    between atoms: C3_4  and  N1_5 
ROOT
HETATM    1  C1  UNL     1      19.339   4.654  12.409  1.00  0.00     0.140 C 
HETATM    2  C2  UNL     1      18.249   3.639  12.194  1.00  0.00     0.189 C 
HETATM    3  O1  UNL     1      17.990   2.921  13.358  1.00  0.00    -0.364 OA
HETATM    4  C3  UNL     1      17.571   3.874  14.316  1.00  0.00     0.236 C 
HETATM    5  C8  UNL     1      18.822   4.579  14.770  1.00  0.00     0.167 C 
HETATM    6  N2  UNL     1      19.805   4.739  13.756  1.00  0.00    -0.415 N 
ATOM      7  H2  UNL     1      20.786   4.904  13.977  1.00  0.00     0.153 HD
ENDROOT
BRANCH   4   8
HETATM    8  N1  UNL     1      16.788   3.303  15.339  1.00  0.00    -0.382 N 
HETATM    9  C4  UNL     1      17.263   2.142  15.987  1.00  0.00     0.145 C 
HETATM   10  C5  UNL     1      16.080   1.262  16.331  1.00  0.00     0.187 C 
HETATM   11  O2  UNL     1      15.211   2.010  17.113  1.00  0.00    -0.388 OA
HETATM   12  C6  UNL     1      14.628   3.066  16.434  1.00  0.00     0.187 C 
HETATM   13  C7  UNL     1      15.382   3.449  15.186  1.00  0.00     0.145 C 
ENDBRANCH   4   8
TORSDOF 1
ENDMDL
MODEL 4
REMARK VINA RESULT: -5.126517090      2.683      4.724
REMARK  1 active torsions:
REMARK  status: ('A' for Active; 'I' for Inactive)
REMARK    1  A    between atoms: C3_4  and  N1_5 
ROOT
HETATM    1  C1  UNL     1      19.386   4.758  12.836  1.00  0.00     0.140 C 
HETATM    2  C2  UNL     1      18.372   3.806  12.260  1.00  0.00     0.189 C 
HETATM    3  O1  UNL     1      17.911   2.914  13.225  1.00  0.00    -0.364 OA
HETATM    4  C3  UNL     1      17.305   3.706  14.227  1.00  0.00     0.236 C 
HETATM    5  C8  UNL     1      18.437   4.311  15.015  1.00  0.00     0.167 C 
HETATM    6  N2  UNL     1      19.590   4.618  14.241  1.00  0.00    -0.415 N 
ATOM      7  H2  UNL     1      20.510   4.732  14.666  1.00  0.00     0.153 HD
ENDROOT
BRANCH   4   8
HETATM    8  N1  UNL     1      16.354   2.990  14.980  1.00  0.00    -0.382 N 
HETATM    9  C4  UNL     1      15.081   3.566  15.186  1.00  0.00     0.145 C 
HETATM   10  C5  UNL     1      14.593   3.180  16.566  1.00  0.00     0.187 C 
HETATM   11  O2  UNL     1      14.585   1.793  16.637  1.00  0.00    -0.388 OA
HETATM   12  C6  UNL     1      15.849   1.231  16.583  1.00  0.00     0.187 C 
HETATM   13  C7  UNL     1      16.883   2.166  16.010  1.00  0.00     0.145 C 
ENDBRANCH   4   8
TORSDOF 1
ENDMDL
MODEL 5
REMARK VINA RESULT: -5.117637821      1.748      2.135
REMARK  1 active torsions:
REMARK  status: ('A' for Active; 'I' for Inactive)
REMARK    1  A    between atoms: C3_4  and  N1_5 
ROOT
HETATM    1  C1  UNL     1      14.487   2.000  17.518  1.00  0.00     0.140 C 
HETATM    2  C2  UNL     1      15.462   0.957  17.041  1.00  0.00     0.189 C 
HETATM    3  O1  UNL     1      15.748   1.113  15.688  1.00  0.00    -0.364 OA
HETATM    4  C3  UNL     1      16.324   2.398  15.559  1.00  0.00     0.236 C 
HETATM    5  C8  UNL     1      15.182   3.374  15.653  1.00  0.00     0.167 C 
HETATM    6  N2  UNL     1      14.139   2.972  16.532  1.00  0.00    -0.415 N 
ATOM      7  H2  UNL     1      13.197   3.356  16.463  1.00  0.00     0.153 HD
ENDROOT
BRANCH   4   8
HETATM    8  N1  UNL     1      17.133   2.515  14.411  1.00  0.00    -0.382 N 
HETATM    9  C4  UNL     1      17.765   3.750  14.152  1.00  0.00     0.145 C 
HETATM   10  C5  UNL     1      17.809   3.966  12.653  1.00  0.00     0.187 C 
HETATM   11  O2  UNL     1      18.470   2.882  12.091  1.00  0.00    -0.388 OA
HETATM   12  C6  UNL     1      17.779   1.689  12.216  1.00  0.00     0.187 C 
HETATM   13  C7  UNL     1      16.731   1.728  13.297  1.00  0.00     0.145 C 
ENDBRANCH   4   8
TORSDOF 1
ENDMDL
