MODEL 1
REMARK VINA RESULT: -5.592745651      0.000      0.000
REMARK  1 active torsions:
REMARK  status: ('A' for Active; 'I' for Inactive)
REMARK    1  A    between atoms: C3_4  and  C4_5 
ROOT
HETATM    1  C1  UNL     1      18.182   2.227  11.388  1.00  0.00     0.258 C 
HETATM    2  C2  UNL     1      17.455   1.022  11.850  1.00  0.00     0.196 C 
HETATM    3  O1  UNL     1      16.497   1.241  12.811  1.00  0.00    -0.380 OA
HETATM    4  C3  UNL     1      17.061   1.962  13.828  1.00  0.00     0.178 C 
HETATM    5  C8  UNL     1      17.329   3.339  13.339  1.00  0.00     0.266 C 
HETATM    6  N1  UNL     1      18.439   3.215  12.380  1.00  0.00    -0.071 N 
ATOM      7  H11 UNL     1      18.664   4.115  11.956  1.00  0.00     0.277 HD
ATOM      8  H12 UNL     1      19.322   3.038  12.858  1.00  0.00     0.277 HD
ENDROOT
BRANCH   4   9
HETATM    9  C4  UNL     1      16.243   1.885  15.080  1.00  0.00     0.175 C 
HETATM   10  C5  UNL     1      17.033   1.609  16.308  1.00  0.00     0.202 C 
HETATM   11  O2  UNL     1      16.174   1.069  17.266  1.00  0.00    -0.386 OA
HETATM   12  C6  UNL     1      14.864   1.435  17.046  1.00  0.00     0.193 C 
HETATM   13  C7  UNL     1      14.695   2.779  16.425  1.00  0.00     0.194 C 
HETATM   14  O3  UNL     1      15.450   2.987  15.296  1.00  0.00    -0.379 OA
ENDBRANCH   4   9
TORSDOF 1
ENDMDL
MODEL 2
REMARK VINA RESULT: -5.541252137      1.001      1.053
REMARK  1 active torsions:
REMARK  status: ('A' for Active; 'I' for Inactive)
REMARK    1  A    between atoms: C3_4  and  C4_5 
ROOT
HETATM    1  C1  UNL     1      18.237   0.892  10.896  1.00  0.00     0.258 C 
HETATM    2  C2  UNL     1      17.327   0.038  11.695  1.00  0.00     0.196 C 
HETATM    3  O1  UNL     1      16.496   0.707  12.561  1.00  0.00    -0.380 OA
HETATM    4  C3  UNL     1      17.255   1.555  13.321  1.00  0.00     0.178 C 
HETATM    5  C8  UNL     1      17.746   2.656  12.452  1.00  0.00     0.266 C 
HETATM    6  N1  UNL     1      18.745   2.046  11.558  1.00  0.00    -0.071 N 
ATOM      7  H11 UNL     1      19.107   2.726  10.890  1.00  0.00     0.277 HD
ATOM      8  H12 UNL     1      19.608   1.836  12.057  1.00  0.00     0.277 HD
ENDROOT
BRANCH   4   9
HETATM    9  C4  UNL     1      16.526   1.999  14.550  1.00  0.00     0.175 C 
HETATM   10  C5  UNL     1      17.378   2.098  15.764  1.00  0.00     0.202 C 
HETATM   11  O2  UNL     1      16.552   2.011  16.885  1.00  0.00    -0.386 OA
HETATM   12  C6  UNL     1      15.260   2.399  16.603  1.00  0.00     0.193 C 
HETATM   13  C7  UNL     1      15.148   3.450  15.552  1.00  0.00     0.194 C 
HETATM   14  O3  UNL     1      15.834   3.177  14.393  1.00  0.00    -0.379 OA
ENDBRANCH   4   9
TORSDOF 1
ENDMDL
MODEL 3
REMARK VINA RESULT: -5.529258051      0.949      1.526
REMARK  1 active torsions:
REMARK  status: ('A' for Active; 'I' for Inactive)
REMARK    1  A    between atoms: C3_4  and  C4_5 
ROOT
HETATM    1  C1  UNL     1      17.925   2.258  11.942  1.00  0.00     0.258 C 
HETATM    2  C2  UNL     1      17.160   1.085  12.428  1.00  0.00     0.196 C 
HETATM    3  O1  UNL     1      16.268   1.339  13.441  1.00  0.00    -0.380 OA
HETATM    4  C3  UNL     1      16.923   2.013  14.436  1.00  0.00     0.178 C 
HETATM    5  C8  UNL     1      17.238   3.382  13.951  1.00  0.00     0.266 C 
HETATM    6  N1  UNL     1      18.287   3.215  12.932  1.00  0.00    -0.071 N 
ATOM      7  H11 UNL     1      18.537   4.109  12.509  1.00  0.00     0.277 HD
ATOM      8  H12 UNL     1      19.184   2.984  13.359  1.00  0.00     0.277 HD
ENDROOT
BRANCH   4   9
HETATM    9  C4  UNL     1      16.171   1.959  15.729  1.00  0.00     0.175 C 
HETATM   10  C5  UNL     1      14.961   2.822  15.768  1.00  0.00     0.202 C 
HETATM   11  O2  UNL     1      14.657   3.085  17.104  1.00  0.00    -0.386 OA
HETATM   12  C6  UNL     1      15.152   2.113  17.945  1.00  0.00     0.193 C 
HETATM   13  C7  UNL     1      15.207   0.749  17.346  1.00  0.00     0.194 C 
HETATM   14  O3  UNL     1      15.825   0.687  16.120  1.00  0.00    -0.379 OA
ENDBRANCH   4   9
TORSDOF 1
ENDMDL
MODEL 4
REMARK VINA RESULT: -5.524635943      1.381      1.646
REMARK  1 active torsions:
REMARK  status: ('A' for Active; 'I' for Inactive)
REMARK    1  A    between atoms: C3_4  and  C4_5 
ROOT
HETATM    1  C1  UNL     1      17.914   3.501  10.961  1.00  0.00     0.258 C 
HETATM    2  C2  UNL     1      18.431   3.988  12.261  1.00  0.00     0.196 C 
HETATM    3  O1  UNL     1      18.181   3.174  13.340  1.00  0.00    -0.380 OA
HETATM    4  C3  UNL     1      16.845   2.880  13.360  1.00  0.00     0.178 C 
HETATM    5  C8  UNL     1      16.542   1.979  12.217  1.00  0.00     0.266 C 
HETATM    6  N1  UNL     1      16.669   2.810  11.008  1.00  0.00    -0.071 N 
ATOM      7  H11 UNL     1      16.521   2.259  10.163  1.00  0.00     0.277 HD
ATOM      8  H12 UNL     1      15.885   3.455  10.919  1.00  0.00     0.277 HD
ENDROOT
BRANCH   4   9
HETATM    9  C4  UNL     1      16.411   2.367  14.698  1.00  0.00     0.175 C 
HETATM   10  C5  UNL     1      17.515   2.224  15.684  1.00  0.00     0.202 C 
HETATM   11  O2  UNL     1      17.116   1.304  16.653  1.00  0.00    -0.386 OA
HETATM   12  C6  UNL     1      15.744   1.223  16.752  1.00  0.00     0.193 C 
HETATM   13  C7  UNL     1      15.029   2.496  16.453  1.00  0.00     0.194 C 
HETATM   14  O3  UNL     1      15.393   3.093  15.270  1.00  0.00    -0.379 OA
ENDBRANCH   4   9
TORSDOF 1
ENDMDL
MODEL 5
REMARK VINA RESULT: -5.493204697      1.711      2.031
REMARK  1 active torsions:
REMARK  status: ('A' for Active; 'I' for Inactive)
REMARK    1  A    between atoms: C3_4  and  C4_5 
ROOT
HETATM    1  C1  UNL     1      16.744   0.515  10.167  1.00  0.00     0.258 C 
HETATM    2  C2  UNL     1      17.212  -0.348  11.277  1.00  0.00     0.196 C 
HETATM    3  O1  UNL     1      16.719  -0.032  12.520  1.00  0.00    -0.380 OA
HETATM    4  C3  UNL     1      16.928   1.302  12.742  1.00  0.00     0.178 C 
HETATM    5  C8  UNL     1      16.027   2.076  11.848  1.00  0.00     0.266 C 
HETATM    6  N1  UNL     1      16.558   1.890  10.487  1.00  0.00    -0.071 N 
ATOM      7  H11 UNL     1      15.971   2.355   9.795  1.00  0.00     0.277 HD
ATOM      8  H12 UNL     1      17.418   2.421  10.350  1.00  0.00     0.277 HD
ENDROOT
BRANCH   4   9
HETATM    9  C4  UNL     1      16.820   1.644  14.195  1.00  0.00     0.175 C 
HETATM   10  C5  UNL     1      16.708   0.465  15.094  1.00  0.00     0.202 C 
HETATM   11  O2  UNL     1      16.120   0.882  16.288  1.00  0.00    -0.386 OA
HETATM   12  C6  UNL     1      16.311   2.227  16.514  1.00  0.00     0.193 C 
HETATM   13  C7  UNL     1      17.590   2.767  15.971  1.00  0.00     0.194 C 
HETATM   14  O3  UNL     1      17.827   2.460  14.653  1.00  0.00    -0.379 OA
ENDBRANCH   4   9
TORSDOF 1
ENDMDL
