MODEL 1
REMARK VINA RESULT: -5.832023588      0.000      0.000
REMARK  2 active torsions:
REMARK  status: ('A' for Active; 'I' for Inactive)
REMARK    1  A    between atoms: C2_2  and  C3_3 
REMARK    2  A    between atoms: C8_11  and  O3_12 
ROOT
HETATM    1  C3  UNL     1      15.988   2.762  15.273  1.00  0.00     0.177 C 
HETATM    2  O1  UNL     1      15.095   3.774  15.667  1.00  0.00    -0.348 OA
HETATM    3  C4  UNL     1      14.149   3.199  16.529  1.00  0.00     0.285 C 
HETATM    4  C5  UNL     1      14.786   2.945  17.906  1.00  0.00     0.094 C 
HETATM    5  C6  UNL     1      15.563   1.725  17.531  1.00  0.00     0.085 A 
HETATM    6  C7  UNL     1      15.250   0.375  17.627  1.00  0.00     0.152 A 
HETATM    7  N1  UNL     1      14.325   1.024  16.922  1.00  0.00    -0.178 NA
HETATM    8  O2  UNL     1      14.006   1.871  16.073  1.00  0.00    -0.270 OA
HETATM    9  C8  UNL     1      16.581   2.179  16.511  1.00  0.00     0.177 C 
ENDROOT
BRANCH   1  10
HETATM   10  C2  UNL     1      17.086   3.334  14.451  1.00  0.00    -0.003 C 
HETATM   11  C1  UNL     1      17.661   4.472  14.779  1.00  0.00     0.009 C 
ENDBRANCH   1  10
BRANCH   9  12
HETATM   12  O3  UNL     1      17.516   1.191  16.278  1.00  0.00    -0.391 OA
ATOM     13  H3  UNL     1      17.702   0.645  17.033  1.00  0.00     0.210 HD
ENDBRANCH   9  12
TORSDOF 2
ENDMDL
MODEL 2
REMARK VINA RESULT: -5.812658440      2.644      3.963
REMARK  2 active torsions:
REMARK  status: ('A' for Active; 'I' for Inactive)
REMARK    1  A    between atoms: C2_2  and  C3_3 
REMARK    2  A    between atoms: C8_11  and  O3_12 
ROOT
HETATM    1  C3  UNL     1      17.113   1.332  13.426  1.00  0.00     0.177 C 
HETATM    2  O1  UNL     1      16.364   0.692  14.429  1.00  0.00    -0.348 OA
HETATM    3  C4  UNL     1      16.617   1.352  15.640  1.00  0.00     0.285 C 
HETATM    4  C5  UNL     1      15.876   2.700  15.664  1.00  0.00     0.094 C 
HETATM    5  C6  UNL     1      16.811   3.444  14.768  1.00  0.00     0.085 A 
HETATM    6  C7  UNL     1      17.908   4.248  15.054  1.00  0.00     0.152 A 
HETATM    7  N1  UNL     1      18.055   3.039  15.594  1.00  0.00    -0.178 NA
HETATM    8  O2  UNL     1      17.950   1.805  15.533  1.00  0.00    -0.270 OA
HETATM    9  C8  UNL     1      16.718   2.770  13.419  1.00  0.00     0.177 C 
ENDROOT
BRANCH   1  10
HETATM   10  C2  UNL     1      16.796   0.751  12.095  1.00  0.00    -0.003 C 
HETATM   11  C1  UNL     1      17.130  -0.486  11.794  1.00  0.00     0.009 C 
ENDBRANCH   1  10
BRANCH   9  12
HETATM   12  O3  UNL     1      17.349   3.524  12.449  1.00  0.00    -0.391 OA
ATOM     13  H3  UNL     1      18.132   3.969  12.751  1.00  0.00     0.210 HD
ENDBRANCH   9  12
TORSDOF 2
ENDMDL
MODEL 3
REMARK VINA RESULT: -5.638356063      2.024      4.085
REMARK  2 active torsions:
REMARK  status: ('A' for Active; 'I' for Inactive)
REMARK    1  A    between atoms: C2_2  and  C3_3 
REMARK    2  A    between atoms: C8_11  and  O3_12 
ROOT
HETATM    1  C3  UNL     1      15.645   2.565  15.805  1.00  0.00     0.177 C 
HETATM    2  O1  UNL     1      16.786   2.436  16.615  1.00  0.00    -0.348 OA
HETATM    3  C4  UNL     1      17.911   2.453  15.777  1.00  0.00     0.285 C 
HETATM    4  C5  UNL     1      18.173   3.887  15.286  1.00  0.00     0.094 C 
HETATM    5  C6  UNL     1      17.089   3.934  14.259  1.00  0.00     0.085 A 
HETATM    6  C7  UNL     1      17.106   3.657  12.897  1.00  0.00     0.152 A 
HETATM    7  N1  UNL     1      17.547   2.613  13.596  1.00  0.00    -0.178 NA
HETATM    8  O2  UNL     1      17.474   1.855  14.576  1.00  0.00    -0.270 OA
HETATM    9  C8  UNL     1      15.789   3.825  15.022  1.00  0.00     0.177 C 
ENDROOT
BRANCH   1  10
HETATM   10  C2  UNL     1      14.424   2.673  16.646  1.00  0.00    -0.003 C 
HETATM   11  C1  UNL     1      13.797   1.599  17.079  1.00  0.00     0.009 C 
ENDBRANCH   1  10
BRANCH   9  12
HETATM   12  O3  UNL     1      14.715   4.108  14.202  1.00  0.00    -0.391 OA
ATOM     13  H3  UNL     1      14.946   4.560  13.399  1.00  0.00     0.210 HD
ENDBRANCH   9  12
TORSDOF 2
ENDMDL
MODEL 4
REMARK VINA RESULT: -5.580116077      2.384      3.261
REMARK  2 active torsions:
REMARK  status: ('A' for Active; 'I' for Inactive)
REMARK    1  A    between atoms: C2_2  and  C3_3 
REMARK    2  A    between atoms: C8_11  and  O3_12 
ROOT
HETATM    1  C3  UNL     1      16.784   1.617  13.420  1.00  0.00     0.177 C 
HETATM    2  O1  UNL     1      17.606   2.730  13.169  1.00  0.00    -0.348 OA
HETATM    3  C4  UNL     1      17.331   3.695  14.150  1.00  0.00     0.285 C 
HETATM    4  C5  UNL     1      17.963   3.273  15.487  1.00  0.00     0.094 C 
HETATM    5  C6  UNL     1      16.950   2.239  15.856  1.00  0.00     0.085 A 
HETATM    6  C7  UNL     1      15.800   2.320  16.632  1.00  0.00     0.152 A 
HETATM    7  N1  UNL     1      15.762   3.207  15.640  1.00  0.00    -0.178 NA
HETATM    8  O2  UNL     1      15.964   3.518  14.456  1.00  0.00    -0.270 OA
HETATM    9  C8  UNL     1      17.063   1.156  14.809  1.00  0.00     0.177 C 
ENDROOT
BRANCH   1  10
HETATM   10  C2  UNL     1      17.114   0.511  12.483  1.00  0.00    -0.003 C 
HETATM   11  C1  UNL     1      16.739   0.552  11.221  1.00  0.00     0.009 C 
ENDBRANCH   1  10
BRANCH   9  12
HETATM   12  O3  UNL     1      16.352   0.034  15.186  1.00  0.00    -0.391 OA
ATOM     13  H3  UNL     1      15.535   0.223  15.633  1.00  0.00     0.210 HD
ENDBRANCH   9  12
TORSDOF 2
ENDMDL
MODEL 5
REMARK VINA RESULT: -5.573354501      3.913      5.217
REMARK  2 active torsions:
REMARK  status: ('A' for Active; 'I' for Inactive)
REMARK    1  A    between atoms: C2_2  and  C3_3 
REMARK    2  A    between atoms: C8_11  and  O3_12 
ROOT
HETATM    1  C3  UNL     1      16.608   0.943  11.571  1.00  0.00     0.177 C 
HETATM    2  O1  UNL     1      17.265   1.675  10.567  1.00  0.00    -0.348 OA
HETATM    3  C4  UNL     1      17.023   3.037  10.802  1.00  0.00     0.285 C 
HETATM    4  C5  UNL     1      17.871   3.519  11.992  1.00  0.00     0.094 C 
HETATM    5  C6  UNL     1      17.033   2.921  13.074  1.00  0.00     0.085 A 
HETATM    6  C7  UNL     1      15.995   3.455  13.829  1.00  0.00     0.152 A 
HETATM    7  N1  UNL     1      15.731   3.554  12.527  1.00  0.00    -0.178 NA
HETATM    8  O2  UNL     1      15.737   3.080  11.381  1.00  0.00    -0.270 OA
HETATM    9  C8  UNL     1      17.118   1.424  12.886  1.00  0.00     0.177 C 
ENDROOT
BRANCH   1  10
HETATM   10  C2  UNL     1      16.924  -0.504  11.445  1.00  0.00    -0.003 C 
HETATM   11  C1  UNL     1      18.154  -0.916  11.219  1.00  0.00     0.009 C 
ENDBRANCH   1  10
BRANCH   9  12
HETATM   12  O3  UNL     1      16.587   0.762  13.975  1.00  0.00    -0.391 OA
ATOM     13  H3  UNL     1      15.637   0.749  13.997  1.00  0.00     0.210 HD
ENDBRANCH   9  12
TORSDOF 2
ENDMDL
