MODEL 1
REMARK VINA RESULT: -5.775318698      0.000      0.000
REMARK  2 active torsions:
REMARK  status: ('A' for Active; 'I' for Inactive)
REMARK    1  A    between atoms: C2_3  and  N2_4 
REMARK    2  A    between atoms: C7_9  and  O1_10 
ROOT
HETATM    1  N1  UNL     1      15.246   0.201  17.320  1.00  0.00    -0.195 NA
HETATM    2  C1  UNL     1      14.906   1.240  16.940  1.00  0.00     0.089 C 
HETATM    3  C2  UNL     1      14.459   2.537  16.477  1.00  0.00     0.396 C 
ENDROOT
BRANCH   3   4
HETATM    4  N2  UNL     1      15.465   3.314  15.829  1.00  0.00     0.111 N 
HETATM    5  C3  UNL     1      15.046   4.590  15.356  1.00  0.00     0.306 C 
HETATM    6  C4  UNL     1      15.905   4.801  14.100  1.00  0.00     0.152 C 
HETATM    7  C5  UNL     1      15.859   3.388  13.531  1.00  0.00     0.072 C 
HETATM    8  O2  UNL     1      17.118   5.222  14.478  1.00  0.00    -0.381 OA
HETATM    9  C6  UNL     1      16.211   2.637  14.828  1.00  0.00     0.257 C 
HETATM   10  C7  UNL     1      17.712   2.920  14.976  1.00  0.00     0.175 C 
HETATM   11  C8  UNL     1      18.057   4.357  14.882  1.00  0.00     0.202 C 
BRANCH  10  12
HETATM   12  O1  UNL     1      18.201   2.334  16.159  1.00  0.00    -0.391 OA
ATOM     13  H1  UNL     1      19.113   2.089  16.050  1.00  0.00     0.210 HD
ENDBRANCH  10  12
ENDBRANCH   3   4
TORSDOF 2
ENDMDL
MODEL 2
REMARK VINA RESULT: -5.651170174      2.512      3.908
REMARK  2 active torsions:
REMARK  status: ('A' for Active; 'I' for Inactive)
REMARK    1  A    between atoms: C2_3  and  N2_4 
REMARK    2  A    between atoms: C7_9  and  O1_10 
ROOT
HETATM    1  N1  UNL     1      16.439   3.525  10.256  1.00  0.00    -0.195 NA
HETATM    2  C1  UNL     1      16.699   2.827  11.141  1.00  0.00     0.089 C 
HETATM    3  C2  UNL     1      17.043   1.942  12.234  1.00  0.00     0.396 C 
ENDROOT
BRANCH   3   4
HETATM    4  N2  UNL     1      16.454   2.290  13.486  1.00  0.00     0.111 N 
HETATM    5  C3  UNL     1      15.779   3.543  13.521  1.00  0.00     0.306 C 
HETATM    6  C4  UNL     1      16.001   4.024  14.963  1.00  0.00     0.152 C 
HETATM    7  C5  UNL     1      17.450   3.592  15.146  1.00  0.00     0.072 C 
HETATM    8  O2  UNL     1      15.118   3.408  15.759  1.00  0.00    -0.381 OA
HETATM    9  C6  UNL     1      17.300   2.153  14.620  1.00  0.00     0.257 C 
HETATM   10  C7  UNL     1      16.564   1.456  15.772  1.00  0.00     0.175 C 
HETATM   11  C8  UNL     1      15.347   2.171  16.218  1.00  0.00     0.202 C 
BRANCH  10  12
HETATM   12  O1  UNL     1      16.298   0.115  15.436  1.00  0.00    -0.391 OA
ATOM     13  H1  UNL     1      16.234  -0.413  16.224  1.00  0.00     0.210 HD
ENDBRANCH  10  12
ENDBRANCH   3   4
TORSDOF 2
ENDMDL
MODEL 3
REMARK VINA RESULT: -5.392589907      1.563      2.391
REMARK  2 active torsions:
REMARK  status: ('A' for Active; 'I' for Inactive)
REMARK    1  A    between atoms: C2_3  and  N2_4 
REMARK    2  A    between atoms: C7_9  and  O1_10 
ROOT
HETATM    1  N1  UNL     1      15.368   0.367  17.028  1.00  0.00    -0.195 NA
HETATM    2  C1  UNL     1      15.293   1.416  16.547  1.00  0.00     0.089 C 
HETATM    3  C2  UNL     1      15.181   2.736  15.961  1.00  0.00     0.396 C 
ENDROOT
BRANCH   3   4
HETATM    4  N2  UNL     1      16.217   3.064  15.036  1.00  0.00     0.111 N 
HETATM    5  C3  UNL     1      17.530   3.131  15.583  1.00  0.00     0.306 C 
HETATM    6  C4  UNL     1      18.210   4.220  14.739  1.00  0.00     0.152 C 
HETATM    7  C5  UNL     1      17.053   5.204  14.631  1.00  0.00     0.072 C 
HETATM    8  O2  UNL     1      18.606   3.677  13.581  1.00  0.00    -0.381 OA
HETATM    9  C6  UNL     1      15.968   4.195  14.214  1.00  0.00     0.257 C 
HETATM   10  C7  UNL     1      16.333   3.902  12.752  1.00  0.00     0.175 C 
HETATM   11  C8  UNL     1      17.753   3.526  12.561  1.00  0.00     0.202 C 
BRANCH  10  12
HETATM   12  O1  UNL     1      15.454   2.944  12.215  1.00  0.00    -0.391 OA
ATOM     13  H1  UNL     1      15.030   3.288  11.437  1.00  0.00     0.210 HD
ENDBRANCH  10  12
ENDBRANCH   3   4
TORSDOF 2
ENDMDL
MODEL 4
REMARK VINA RESULT: -5.343739020      3.412      4.157
REMARK  2 active torsions:
REMARK  status: ('A' for Active; 'I' for Inactive)
REMARK    1  A    between atoms: C2_3  and  N2_4 
REMARK    2  A    between atoms: C7_9  and  O1_10 
ROOT
HETATM    1  N1  UNL     1      17.921   2.068  16.269  1.00  0.00    -0.195 NA
HETATM    2  C1  UNL     1      17.527   2.574  15.306  1.00  0.00     0.089 C 
HETATM    3  C2  UNL     1      17.026   3.227  14.115  1.00  0.00     0.396 C 
ENDROOT
BRANCH   3   4
HETATM    4  N2  UNL     1      17.476   2.652  12.889  1.00  0.00     0.111 N 
HETATM    5  C3  UNL     1      18.428   3.421  12.162  1.00  0.00     0.306 C 
HETATM    6  C4  UNL     1      18.107   3.089  10.697  1.00  0.00     0.152 C 
HETATM    7  C5  UNL     1      16.586   3.079  10.776  1.00  0.00     0.072 C 
HETATM    8  O2  UNL     1      18.669   1.912  10.393  1.00  0.00    -0.381 OA
HETATM    9  C6  UNL     1      16.453   2.184  12.021  1.00  0.00     0.257 C 
HETATM   10  C7  UNL     1      16.797   0.795  11.466  1.00  0.00     0.175 C 
HETATM   11  C8  UNL     1      18.068   0.758  10.707  1.00  0.00     0.202 C 
BRANCH  10  12
HETATM   12  O1  UNL     1      16.770  -0.160  12.500  1.00  0.00    -0.391 OA
ATOM     13  H1  UNL     1      16.460  -0.994  12.166  1.00  0.00     0.210 HD
ENDBRANCH  10  12
ENDBRANCH   3   4
TORSDOF 2
ENDMDL
MODEL 5
REMARK VINA RESULT: -5.310052057      2.020      3.803
REMARK  2 active torsions:
REMARK  status: ('A' for Active; 'I' for Inactive)
REMARK    1  A    between atoms: C2_3  and  N2_4 
REMARK    2  A    between atoms: C7_9  and  O1_10 
ROOT
HETATM    1  N1  UNL     1      14.899   5.917  13.059  1.00  0.00    -0.195 NA
HETATM    2  C1  UNL     1      14.926   5.278  14.023  1.00  0.00     0.089 C 
HETATM    3  C2  UNL     1      14.946   4.494  15.241  1.00  0.00     0.396 C 
ENDROOT
BRANCH   3   4
HETATM    4  N2  UNL     1      15.510   3.191  15.098  1.00  0.00     0.111 N 
HETATM    5  C3  UNL     1      15.299   2.307  16.193  1.00  0.00     0.306 C 
HETATM    6  C4  UNL     1      16.569   1.442  16.200  1.00  0.00     0.152 C 
HETATM    7  C5  UNL     1      17.600   2.518  15.887  1.00  0.00     0.072 C 
HETATM    8  O2  UNL     1      16.441   0.488  15.268  1.00  0.00    -0.381 OA
HETATM    9  C6  UNL     1      16.871   3.155  14.690  1.00  0.00     0.257 C 
HETATM   10  C7  UNL     1      17.084   2.115  13.582  1.00  0.00     0.175 C 
HETATM   11  C8  UNL     1      16.710   0.739  13.981  1.00  0.00     0.202 C 
BRANCH  10  12
HETATM   12  O1  UNL     1      16.431   2.521  12.404  1.00  0.00    -0.391 OA
ATOM     13  H1  UNL     1      17.069   2.774  11.746  1.00  0.00     0.210 HD
ENDBRANCH  10  12
ENDBRANCH   3   4
TORSDOF 2
ENDMDL
