MODEL 1
REMARK VINA RESULT: -5.521833207      0.000      0.000
REMARK  2 active torsions:
REMARK  status: ('A' for Active; 'I' for Inactive)
REMARK    1  A    between atoms: C3_4  and  O2_5 
REMARK    2  A    between atoms: O2_5  and  N1_6 
ROOT
HETATM    1  C1  UNL     1      15.920   2.450  16.536  1.00  0.00     0.264 C 
HETATM    2  C2  UNL     1      15.664   0.984  16.805  1.00  0.00     0.200 C 
HETATM    3  O1  UNL     1      16.049   0.379  15.638  1.00  0.00    -0.336 OA
HETATM    4  C3  UNL     1      16.917   1.195  14.961  1.00  0.00     0.491 C 
HETATM    5  N2  UNL     1      17.184   2.355  15.793  1.00  0.00    -0.021 N 
ATOM      6  H21 UNL     1      18.028   2.304  16.364  1.00  0.00     0.283 HD
ATOM      7  H22 UNL     1      17.468   3.199  15.296  1.00  0.00     0.283 HD
ENDROOT
BRANCH   4   8
HETATM    8  O2  UNL     1      16.428   1.630  13.754  1.00  0.00    -0.220 OA
BRANCH   8   9
HETATM    9  N1  UNL     1      17.193   1.419  12.705  1.00  0.00    -0.285 N 
HETATM   10  C4  UNL     1      17.528   2.558  11.919  1.00  0.00     0.175 C 
HETATM   11  C5  UNL     1      18.797   2.187  11.136  1.00  0.00     0.189 C 
HETATM   12  O3  UNL     1      18.422   1.154  10.279  1.00  0.00    -0.388 OA
HETATM   13  C6  UNL     1      18.039   0.009  10.955  1.00  0.00     0.189 C 
HETATM   14  C7  UNL     1      16.927   0.247  11.944  1.00  0.00     0.175 C 
ENDBRANCH   8   9
ENDBRANCH   4   8
TORSDOF 2
ENDMDL
MODEL 2
REMARK VINA RESULT: -5.224755146      1.519      4.838
REMARK  2 active torsions:
REMARK  status: ('A' for Active; 'I' for Inactive)
REMARK    1  A    between atoms: C3_4  and  O2_5 
REMARK    2  A    between atoms: O2_5  and  N1_6 
ROOT
HETATM    1  C1  UNL     1      18.517   0.888  11.119  1.00  0.00     0.264 C 
HETATM    2  C2  UNL     1      17.528  -0.245  11.280  1.00  0.00     0.200 C 
HETATM    3  O1  UNL     1      16.744   0.170  12.324  1.00  0.00    -0.336 OA
HETATM    4  C3  UNL     1      16.823   1.533  12.447  1.00  0.00     0.491 C 
HETATM    5  N2  UNL     1      17.630   2.035  11.349  1.00  0.00    -0.021 N 
ATOM      6  H21 UNL     1      17.112   2.362  10.533  1.00  0.00     0.283 HD
ATOM      7  H22 UNL     1      18.097   2.927  11.516  1.00  0.00     0.283 HD
ENDROOT
BRANCH   4   8
HETATM    8  O2  UNL     1      17.391   1.943  13.627  1.00  0.00    -0.220 OA
BRANCH   8   9
HETATM    9  N1  UNL     1      16.579   2.069  14.653  1.00  0.00    -0.285 N 
HETATM   10  C4  UNL     1      16.255   3.396  15.055  1.00  0.00     0.175 C 
HETATM   11  C5  UNL     1      14.943   3.303  15.849  1.00  0.00     0.189 C 
HETATM   12  O3  UNL     1      15.246   2.558  16.988  1.00  0.00    -0.388 OA
HETATM   13  C6  UNL     1      15.612   1.256  16.696  1.00  0.00     0.189 C 
HETATM   14  C7  UNL     1      16.770   1.166  15.735  1.00  0.00     0.175 C 
ENDBRANCH   8   9
ENDBRANCH   4   8
TORSDOF 2
ENDMDL
MODEL 3
REMARK VINA RESULT: -5.214181041      1.019      1.682
REMARK  2 active torsions:
REMARK  status: ('A' for Active; 'I' for Inactive)
REMARK    1  A    between atoms: C3_4  and  O2_5 
REMARK    2  A    between atoms: O2_5  and  N1_6 
ROOT
HETATM    1  C1  UNL     1      15.099   2.050  16.323  1.00  0.00     0.264 C 
HETATM    2  C2  UNL     1      16.273   1.622  17.175  1.00  0.00     0.200 C 
HETATM    3  O1  UNL     1      17.180   1.169  16.253  1.00  0.00    -0.336 OA
HETATM    4  C3  UNL     1      16.905   1.717  15.028  1.00  0.00     0.491 C 
HETATM    5  N2  UNL     1      15.813   2.660  15.194  1.00  0.00    -0.021 N 
ATOM      6  H21 UNL     1      16.087   3.635  15.320  1.00  0.00     0.283 HD
ATOM      7  H22 UNL     1      15.251   2.836  14.360  1.00  0.00     0.283 HD
ENDROOT
BRANCH   4   8
HETATM    8  O2  UNL     1      16.538   0.790  14.084  1.00  0.00    -0.220 OA
BRANCH   8   9
HETATM    9  N1  UNL     1      16.804   1.093  12.833  1.00  0.00    -0.285 N 
HETATM   10  C4  UNL     1      16.984   0.005  11.934  1.00  0.00     0.175 C 
HETATM   11  C5  UNL     1      16.736   0.559  10.523  1.00  0.00     0.189 C 
HETATM   12  O3  UNL     1      17.753   1.488  10.301  1.00  0.00    -0.388 OA
HETATM   13  C6  UNL     1      17.685   2.572  11.158  1.00  0.00     0.189 C 
HETATM   14  C7  UNL     1      17.695   2.180  12.614  1.00  0.00     0.175 C 
ENDBRANCH   8   9
ENDBRANCH   4   8
TORSDOF 2
ENDMDL
MODEL 4
REMARK VINA RESULT: -5.179747975      1.620      4.899
REMARK  2 active torsions:
REMARK  status: ('A' for Active; 'I' for Inactive)
REMARK    1  A    between atoms: C3_4  and  O2_5 
REMARK    2  A    between atoms: O2_5  and  N1_6 
ROOT
HETATM    1  C1  UNL     1      18.555   0.786  11.082  1.00  0.00     0.264 C 
HETATM    2  C2  UNL     1      17.494  -0.272  11.289  1.00  0.00     0.200 C 
HETATM    3  O1  UNL     1      16.763   0.220  12.338  1.00  0.00    -0.336 OA
HETATM    4  C3  UNL     1      16.938   1.576  12.427  1.00  0.00     0.491 C 
HETATM    5  N2  UNL     1      17.754   1.997  11.301  1.00  0.00    -0.021 N 
ATOM      6  H21 UNL     1      17.242   2.340  10.488  1.00  0.00     0.283 HD
ATOM      7  H22 UNL     1      18.285   2.857  11.438  1.00  0.00     0.283 HD
ENDROOT
BRANCH   4   8
HETATM    8  O2  UNL     1      17.558   1.973  13.585  1.00  0.00    -0.220 OA
BRANCH   8   9
HETATM    9  N1  UNL     1      16.771   2.361  14.565  1.00  0.00    -0.285 N 
HETATM   10  C4  UNL     1      16.377   1.364  15.501  1.00  0.00     0.175 C 
HETATM   11  C5  UNL     1      15.959   2.108  16.779  1.00  0.00     0.189 C 
HETATM   12  O3  UNL     1      14.834   2.855  16.428  1.00  0.00    -0.388 OA
HETATM   13  C6  UNL     1      15.110   3.830  15.487  1.00  0.00     0.189 C 
HETATM   14  C7  UNL     1      15.742   3.283  14.231  1.00  0.00     0.175 C 
ENDBRANCH   8   9
ENDBRANCH   4   8
TORSDOF 2
ENDMDL
MODEL 5
REMARK VINA RESULT: -5.153402791      1.582      2.162
REMARK  2 active torsions:
REMARK  status: ('A' for Active; 'I' for Inactive)
REMARK    1  A    between atoms: C3_4  and  O2_5 
REMARK    2  A    between atoms: O2_5  and  N1_6 
ROOT
HETATM    1  C1  UNL     1      14.323   1.695  16.683  1.00  0.00     0.264 C 
HETATM    2  C2  UNL     1      15.335   1.246  17.714  1.00  0.00     0.200 C 
HETATM    3  O1  UNL     1      16.493   1.137  16.989  1.00  0.00    -0.336 OA
HETATM    4  C3  UNL     1      16.403   1.904  15.857  1.00  0.00     0.491 C 
HETATM    5  N2  UNL     1      15.147   2.632  15.909  1.00  0.00    -0.021 N 
ATOM      6  H21 UNL     1      15.202   3.581  16.279  1.00  0.00     0.283 HD
ATOM      7  H22 UNL     1      14.763   2.915  15.007  1.00  0.00     0.283 HD
ENDROOT
BRANCH   4   8
HETATM    8  O2  UNL     1      16.433   1.172  14.696  1.00  0.00    -0.220 OA
BRANCH   8   9
HETATM    9  N1  UNL     1      16.638   1.846  13.586  1.00  0.00    -0.285 N 
HETATM   10  C4  UNL     1      16.796   1.084  12.395  1.00  0.00     0.175 C 
HETATM   11  C5  UNL     1      16.476   2.030  11.227  1.00  0.00     0.189 C 
HETATM   12  O3  UNL     1      17.466   3.012  11.258  1.00  0.00    -0.388 OA
HETATM   13  C6  UNL     1      17.418   3.785  12.404  1.00  0.00     0.189 C 
HETATM   14  C7  UNL     1      17.499   2.974  13.672  1.00  0.00     0.175 C 
ENDBRANCH   8   9
ENDBRANCH   4   8
TORSDOF 2
ENDMDL
