MODEL 1
REMARK VINA RESULT: -5.463528682      0.000      0.000
REMARK  2 active torsions:
REMARK  status: ('A' for Active; 'I' for Inactive)
REMARK    1  A    between atoms: O1_1  and  C1_3 
REMARK    2  A    between atoms: C1_3  and  C2_4 
ROOT
HETATM    1  C2  UNL     1      17.129   2.323  12.485  1.00  0.00     0.215 A 
HETATM    2  O2  UNL     1      17.032   1.548  13.563  1.00  0.00    -0.318 OA
HETATM    3  C3  UNL     1      16.906   2.064  14.791  1.00  0.00     0.290 C 
HETATM    4  C4  UNL     1      15.776   3.039  14.990  1.00  0.00     0.232 C 
HETATM    5  O3  UNL     1      16.376   4.244  14.710  1.00  0.00    -0.356 OA
HETATM    6  C5  UNL     1      17.725   4.062  14.825  1.00  0.00     0.265 C 
HETATM    7  C6  UNL     1      18.375   4.273  13.486  1.00  0.00     0.098 C 
HETATM    8  C7  UNL     1      17.741   3.528  12.369  1.00  0.00     0.194 A 
HETATM    9  O4  UNL     1      18.550   2.330  12.034  1.00  0.00    -0.340 OA
HETATM   10  O5  UNL     1      17.991   2.795  15.252  1.00  0.00    -0.329 OA
ENDROOT
BRANCH   1  11
HETATM   11  C1  UNL     1      16.240   1.857  11.318  1.00  0.00     0.235 C 
BRANCH  11  12
HETATM   12  O1  UNL     1      16.129   2.849  10.361  1.00  0.00    -0.395 OA
ATOM     13  H1  UNL     1      15.216   3.022  10.161  1.00  0.00     0.209 HD
ENDBRANCH  11  12
ENDBRANCH   1  11
TORSDOF 2
ENDMDL
MODEL 2
REMARK VINA RESULT: -5.458619123      1.917      3.768
REMARK  2 active torsions:
REMARK  status: ('A' for Active; 'I' for Inactive)
REMARK    1  A    between atoms: O1_1  and  C1_3 
REMARK    2  A    between atoms: C1_3  and  C2_4 
ROOT
HETATM    1  C2  UNL     1      16.497   1.955  16.049  1.00  0.00     0.215 A 
HETATM    2  O2  UNL     1      17.180   3.098  16.077  1.00  0.00    -0.318 OA
HETATM    3  C3  UNL     1      17.338   3.850  14.982  1.00  0.00     0.290 C 
HETATM    4  C4  UNL     1      16.078   4.243  14.257  1.00  0.00     0.232 C 
HETATM    5  O3  UNL     1      15.931   3.221  13.350  1.00  0.00    -0.356 OA
HETATM    6  C5  UNL     1      17.148   2.614  13.221  1.00  0.00     0.265 C 
HETATM    7  C6  UNL     1      17.056   1.195  13.711  1.00  0.00     0.098 C 
HETATM    8  C7  UNL     1      16.425   1.045  15.046  1.00  0.00     0.194 A 
HETATM    9  O4  UNL     1      17.468   0.824  16.079  1.00  0.00    -0.340 OA
HETATM   10  O5  UNL     1      18.082   3.278  13.960  1.00  0.00    -0.329 OA
ENDROOT
BRANCH   1  11
HETATM   11  C1  UNL     1      15.519   1.801  17.227  1.00  0.00     0.235 C 
BRANCH  11  12
HETATM   12  O1  UNL     1      14.697   0.704  17.041  1.00  0.00    -0.395 OA
ATOM     13  H1  UNL     1      14.998  -0.034  17.559  1.00  0.00     0.209 HD
ENDBRANCH  11  12
ENDBRANCH   1  11
TORSDOF 2
ENDMDL
MODEL 3
REMARK VINA RESULT: -5.447905711      2.352      3.623
REMARK  2 active torsions:
REMARK  status: ('A' for Active; 'I' for Inactive)
REMARK    1  A    between atoms: O1_1  and  C1_3 
REMARK    2  A    between atoms: C1_3  and  C2_4 
ROOT
HETATM    1  C2  UNL     1      17.352   4.114  10.508  1.00  0.00     0.215 A 
HETATM    2  O2  UNL     1      16.412   3.193  10.301  1.00  0.00    -0.318 OA
HETATM    3  C3  UNL     1      16.503   1.965  10.824  1.00  0.00     0.290 C 
HETATM    4  C4  UNL     1      16.706   1.891  12.314  1.00  0.00     0.232 C 
HETATM    5  O3  UNL     1      18.077   1.874  12.423  1.00  0.00    -0.356 OA
HETATM    6  C5  UNL     1      18.575   1.493  11.209  1.00  0.00     0.265 C 
HETATM    7  C6  UNL     1      19.380   2.620  10.621  1.00  0.00     0.098 C 
HETATM    8  C7  UNL     1      18.691   3.935  10.625  1.00  0.00     0.194 A 
HETATM    9  O4  UNL     1      18.171   4.241   9.269  1.00  0.00    -0.340 OA
HETATM   10  O5  UNL     1      17.554   1.188  10.359  1.00  0.00    -0.329 OA
ENDROOT
BRANCH   1  11
HETATM   11  C1  UNL     1      16.780   5.497  10.869  1.00  0.00     0.235 C 
BRANCH  11  12
HETATM   12  O1  UNL     1      15.757   5.843  10.005  1.00  0.00    -0.395 OA
ATOM     13  H1  UNL     1      14.916   5.570  10.353  1.00  0.00     0.209 HD
ENDBRANCH  11  12
ENDBRANCH   1  11
TORSDOF 2
ENDMDL
MODEL 4
REMARK VINA RESULT: -5.389588084      2.427      3.966
REMARK  2 active torsions:
REMARK  status: ('A' for Active; 'I' for Inactive)
REMARK    1  A    between atoms: O1_1  and  C1_3 
REMARK    2  A    between atoms: C1_3  and  C2_4 
ROOT
HETATM    1  C2  UNL     1      18.803   2.879  10.829  1.00  0.00     0.215 A 
HETATM    2  O2  UNL     1      17.580   3.229  10.435  1.00  0.00    -0.318 OA
HETATM    3  C3  UNL     1      16.495   2.545  10.816  1.00  0.00     0.290 C 
HETATM    4  C4  UNL     1      16.316   2.356  12.299  1.00  0.00     0.232 C 
HETATM    5  O3  UNL     1      16.960   1.163  12.523  1.00  0.00    -0.356 OA
HETATM    6  C5  UNL     1      17.055   0.521  11.321  1.00  0.00     0.265 C 
HETATM    7  C6  UNL     1      18.503   0.378  10.941  1.00  0.00     0.098 C 
HETATM    8  C7  UNL     1      19.292   1.632  11.040  1.00  0.00     0.194 A 
HETATM    9  O4  UNL     1      19.495   2.212   9.689  1.00  0.00    -0.340 OA
HETATM   10  O5  UNL     1      16.413   1.239  10.356  1.00  0.00    -0.329 OA
ENDROOT
BRANCH   1  11
HETATM   11  C1  UNL     1      19.655   4.071  11.298  1.00  0.00     0.235 C 
BRANCH  11  12
HETATM   12  O1  UNL     1      20.712   3.640  12.080  1.00  0.00    -0.395 OA
ATOM     13  H1  UNL     1      21.224   2.985  11.621  1.00  0.00     0.209 HD
ENDBRANCH  11  12
ENDBRANCH   1  11
TORSDOF 2
ENDMDL
MODEL 5
REMARK VINA RESULT: -5.211836090      1.374      3.610
REMARK  2 active torsions:
REMARK  status: ('A' for Active; 'I' for Inactive)
REMARK    1  A    between atoms: O1_1  and  C1_3 
REMARK    2  A    between atoms: C1_3  and  C2_4 
ROOT
HETATM    1  C2  UNL     1      16.785   2.603  14.601  1.00  0.00     0.215 A 
HETATM    2  O2  UNL     1      16.509   1.550  13.833  1.00  0.00    -0.318 OA
HETATM    3  C3  UNL     1      16.655   1.592  12.504  1.00  0.00     0.290 C 
HETATM    4  C4  UNL     1      18.006   2.019  11.996  1.00  0.00     0.232 C 
HETATM    5  O3  UNL     1      17.856   3.380  11.870  1.00  0.00    -0.356 OA
HETATM    6  C5  UNL     1      16.515   3.638  11.824  1.00  0.00     0.265 C 
HETATM    7  C6  UNL     1      16.119   4.454  13.024  1.00  0.00     0.098 C 
HETATM    8  C7  UNL     1      16.604   3.917  14.320  1.00  0.00     0.194 A 
HETATM    9  O4  UNL     1      15.499   3.225  15.029  1.00  0.00    -0.340 OA
HETATM   10  O5  UNL     1      15.814   2.469  11.833  1.00  0.00    -0.329 OA
ENDROOT
BRANCH   1  11
HETATM   11  C1  UNL     1      17.604   2.244  15.854  1.00  0.00     0.235 C 
BRANCH  11  12
HETATM   12  O1  UNL     1      17.228   1.008  16.347  1.00  0.00    -0.395 OA
ATOM     13  H1  UNL     1      17.975   0.422  16.389  1.00  0.00     0.209 HD
ENDBRANCH  11  12
ENDBRANCH   1  11
TORSDOF 2
ENDMDL
