MODEL 1
REMARK VINA RESULT: -6.779182908      0.000      0.000
REMARK  5 active torsions:
REMARK  status: ('A' for Active; 'I' for Inactive)
REMARK    1  A    between atoms: C2_2  and  C3_3 
REMARK    2  A    between atoms: C3_3  and  N1_5 
REMARK    3  A    between atoms: C3_3  and  C9_17 
REMARK    4  A    between atoms: N1_5  and  C5_7 
REMARK    5  A    between atoms: C7_11  and  N3_12 
ROOT
HETATM    1  C5  UNL     1      17.041   2.527  14.090  1.00  0.00     0.682 A 
HETATM    2  N2  UNL     1      16.320   3.603  14.435  1.00  0.00    -0.198 N 
ATOM      3  H2  UNL     1      16.360   4.507  13.965  1.00  0.00     0.183 HD
HETATM    4  C6  UNL     1      15.535   3.314  15.494  1.00  0.00     0.161 A 
HETATM    5  C7  UNL     1      15.768   1.999  15.834  1.00  0.00     0.206 A 
HETATM    6  N4  UNL     1      16.679   1.547  14.974  1.00  0.00    -0.165 N 
HETATM    7  C8  UNL     1      17.220   0.216  14.962  1.00  0.00     0.177 C 
ENDROOT
BRANCH   1   8
HETATM    8  N1  UNL     1      17.883   2.420  13.153  1.00  0.00    -0.208 N 
ATOM      9  H1  UNL     1      18.861   2.512  13.426  1.00  0.00     0.179 HD
BRANCH   8  10
HETATM   10  C3  UNL     1      17.649   2.186  11.755  1.00  0.00     0.140 C 
HETATM   11  C4  UNL     1      16.193   1.824  11.566  1.00  0.00     0.048 C 
BRANCH  10  12
HETATM   12  C2  UNL     1      18.031   3.393  10.915  1.00  0.00     0.036 C 
HETATM   13  C1  UNL     1      16.881   4.295  10.611  1.00  0.00     0.008 C 
ENDBRANCH  10  12
BRANCH  10  14
HETATM   14  C9  UNL     1      18.486   1.001  11.278  1.00  0.00     0.412 C 
HETATM   15  F1  UNL     1      18.117  -0.159  11.926  1.00  0.00    -0.168 F 
HETATM   16  F2  UNL     1      19.828   1.217  11.342  1.00  0.00    -0.168 F 
HETATM   17  F3  UNL     1      18.209   0.753   9.923  1.00  0.00    -0.168 F 
ENDBRANCH  10  14
ENDBRANCH   8  10
ENDBRANCH   1   8
BRANCH   5  18
HETATM   18  N3  UNL     1      15.138   1.278  16.914  1.00  0.00    -0.096 N 
HETATM   19  O1  UNL     1      13.980   0.900  16.765  1.00  0.00    -0.530 OA
HETATM   20  O2  UNL     1      15.879   1.060  18.047  1.00  0.00    -0.530 OA
ENDBRANCH   5  18
TORSDOF 5
ENDMDL
MODEL 2
REMARK VINA RESULT: -6.586373819      1.795      2.441
REMARK  5 active torsions:
REMARK  status: ('A' for Active; 'I' for Inactive)
REMARK    1  A    between atoms: C2_2  and  C3_3 
REMARK    2  A    between atoms: C3_3  and  N1_5 
REMARK    3  A    between atoms: C3_3  and  C9_17 
REMARK    4  A    between atoms: N1_5  and  C5_7 
REMARK    5  A    between atoms: C7_11  and  N3_12 
ROOT
HETATM    1  C5  UNL     1      16.871   2.687  14.227  1.00  0.00     0.682 A 
HETATM    2  N2  UNL     1      16.128   3.711  14.670  1.00  0.00    -0.198 N 
ATOM      3  H2  UNL     1      16.117   4.644  14.260  1.00  0.00     0.183 HD
HETATM    4  C6  UNL     1      15.398   3.325  15.737  1.00  0.00     0.161 A 
HETATM    5  C7  UNL     1      15.691   2.000  15.981  1.00  0.00     0.206 A 
HETATM    6  N4  UNL     1      16.580   1.639  15.057  1.00  0.00    -0.165 N 
HETATM    7  C8  UNL     1      17.166   0.333  14.936  1.00  0.00     0.177 C 
ENDROOT
BRANCH   1   8
HETATM    8  N1  UNL     1      17.676   2.672  13.252  1.00  0.00    -0.208 N 
ATOM      9  H1  UNL     1      18.665   2.735  13.495  1.00  0.00     0.179 HD
BRANCH   8  10
HETATM   10  C3  UNL     1      17.388   2.579  11.848  1.00  0.00     0.140 C 
HETATM   11  C4  UNL     1      18.670   2.258  11.114  1.00  0.00     0.048 C 
BRANCH  10  12
HETATM   12  C2  UNL     1      16.316   1.541  11.566  1.00  0.00     0.036 C 
HETATM   13  C1  UNL     1      16.864   0.211  11.166  1.00  0.00     0.008 C 
ENDBRANCH  10  12
BRANCH  10  14
HETATM   14  C9  UNL     1      16.884   3.925  11.330  1.00  0.00     0.412 C 
HETATM   15  F1  UNL     1      17.551   4.970  11.933  1.00  0.00    -0.168 F 
HETATM   16  F2  UNL     1      15.533   4.070  11.405  1.00  0.00    -0.168 F 
HETATM   17  F3  UNL     1      17.199   4.044   9.965  1.00  0.00    -0.168 F 
ENDBRANCH  10  14
ENDBRANCH   8  10
ENDBRANCH   1   8
BRANCH   5  18
HETATM   18  N3  UNL     1      15.132   1.188  17.034  1.00  0.00    -0.096 N 
HETATM   19  O1  UNL     1      14.011   0.716  16.875  1.00  0.00    -0.530 OA
HETATM   20  O2  UNL     1      15.895   0.994  18.158  1.00  0.00    -0.530 OA
ENDBRANCH   5  18
TORSDOF 5
ENDMDL
MODEL 3
REMARK VINA RESULT: -6.520942290      1.231      1.792
REMARK  5 active torsions:
REMARK  status: ('A' for Active; 'I' for Inactive)
REMARK    1  A    between atoms: C2_2  and  C3_3 
REMARK    2  A    between atoms: C3_3  and  N1_5 
REMARK    3  A    between atoms: C3_3  and  C9_17 
REMARK    4  A    between atoms: N1_5  and  C5_7 
REMARK    5  A    between atoms: C7_11  and  N3_12 
ROOT
HETATM    1  C5  UNL     1      17.065   2.561  14.153  1.00  0.00     0.682 A 
HETATM    2  N2  UNL     1      16.292   3.614  14.456  1.00  0.00    -0.198 N 
ATOM      3  H2  UNL     1      16.315   4.513  13.976  1.00  0.00     0.183 HD
HETATM    4  C6  UNL     1      15.480   3.309  15.489  1.00  0.00     0.161 A 
HETATM    5  C7  UNL     1      15.749   2.008  15.856  1.00  0.00     0.206 A 
HETATM    6  N4  UNL     1      16.707   1.580  15.036  1.00  0.00    -0.165 N 
HETATM    7  C8  UNL     1      17.297   0.270  15.062  1.00  0.00     0.177 C 
ENDROOT
BRANCH   1   8
HETATM    8  N1  UNL     1      17.944   2.475  13.248  1.00  0.00    -0.208 N 
ATOM      9  H1  UNL     1      18.902   2.352  13.575  1.00  0.00     0.179 HD
BRANCH   8  10
HETATM   10  C3  UNL     1      17.776   2.524  11.822  1.00  0.00     0.140 C 
HETATM   11  C4  UNL     1      17.584   3.966  11.411  1.00  0.00     0.048 C 
BRANCH  10  12
HETATM   12  C2  UNL     1      18.956   1.897  11.099  1.00  0.00     0.036 C 
HETATM   13  C1  UNL     1      20.106   2.831  10.913  1.00  0.00     0.008 C 
ENDBRANCH  10  12
BRANCH  10  14
HETATM   14  C9  UNL     1      16.519   1.757  11.419  1.00  0.00     0.412 C 
HETATM   15  F1  UNL     1      15.393   2.541  11.558  1.00  0.00    -0.168 F 
HETATM   16  F2  UNL     1      16.385   0.556  12.045  1.00  0.00    -0.168 F 
HETATM   17  F3  UNL     1      16.577   1.461  10.046  1.00  0.00    -0.168 F 
ENDBRANCH  10  14
ENDBRANCH   8  10
ENDBRANCH   1   8
BRANCH   5  18
HETATM   18  N3  UNL     1      15.106   1.277  16.922  1.00  0.00    -0.096 N 
HETATM   19  O1  UNL     1      13.951   0.901  16.757  1.00  0.00    -0.530 OA
HETATM   20  O2  UNL     1      15.835   1.048  18.061  1.00  0.00    -0.530 OA
ENDBRANCH   5  18
TORSDOF 5
ENDMDL
MODEL 4
REMARK VINA RESULT: -6.511077011      3.279      4.068
REMARK  5 active torsions:
REMARK  status: ('A' for Active; 'I' for Inactive)
REMARK    1  A    between atoms: C2_2  and  C3_3 
REMARK    2  A    between atoms: C3_3  and  N1_5 
REMARK    3  A    between atoms: C3_3  and  C9_17 
REMARK    4  A    between atoms: N1_5  and  C5_7 
REMARK    5  A    between atoms: C7_11  and  N3_12 
ROOT
HETATM    1  C5  UNL     1      16.731   2.944  14.183  1.00  0.00     0.682 A 
HETATM    2  N2  UNL     1      17.409   1.792  14.095  1.00  0.00    -0.198 N 
ATOM      3  H2  UNL     1      18.108   1.577  13.384  1.00  0.00     0.183 HD
HETATM    4  C6  UNL     1      17.031   0.956  15.085  1.00  0.00     0.161 A 
HETATM    5  C7  UNL     1      16.072   1.607  15.831  1.00  0.00     0.206 A 
HETATM    6  N4  UNL     1      15.910   2.803  15.268  1.00  0.00    -0.165 N 
HETATM    7  C8  UNL     1      15.000   3.817  15.724  1.00  0.00     0.177 C 
ENDROOT
BRANCH   1   8
HETATM    8  N1  UNL     1      16.816   3.958  13.431  1.00  0.00    -0.208 N 
ATOM      9  H1  UNL     1      16.156   3.987  12.654  1.00  0.00     0.179 HD
BRANCH   8  10
HETATM   10  C3  UNL     1      17.715   5.074  13.524  1.00  0.00     0.140 C 
HETATM   11  C4  UNL     1      18.631   4.856  14.707  1.00  0.00     0.048 C 
BRANCH  10  12
HETATM   12  C2  UNL     1      18.506   5.262  12.241  1.00  0.00     0.036 C 
HETATM   13  C1  UNL     1      19.627   4.288  12.084  1.00  0.00     0.008 C 
ENDBRANCH  10  12
BRANCH  10  14
HETATM   14  C9  UNL     1      16.927   6.357  13.780  1.00  0.00     0.412 C 
HETATM   15  F1  UNL     1      15.601   6.202  13.437  1.00  0.00    -0.168 F 
HETATM   16  F2  UNL     1      17.477   7.462  13.206  1.00  0.00    -0.168 F 
HETATM   17  F3  UNL     1      16.908   6.622  15.161  1.00  0.00    -0.168 F 
ENDBRANCH  10  14
ENDBRANCH   8  10
ENDBRANCH   1   8
BRANCH   5  18
HETATM   18  N3  UNL     1      15.395   1.076  16.990  1.00  0.00    -0.096 N 
HETATM   19  O1  UNL     1      16.007   1.023  18.051  1.00  0.00    -0.530 OA
HETATM   20  O2  UNL     1      14.097   0.662  16.829  1.00  0.00    -0.530 OA
ENDBRANCH   5  18
TORSDOF 5
ENDMDL
MODEL 5
REMARK VINA RESULT: -6.459967696      3.466      4.219
REMARK  5 active torsions:
REMARK  status: ('A' for Active; 'I' for Inactive)
REMARK    1  A    between atoms: C2_2  and  C3_3 
REMARK    2  A    between atoms: C3_3  and  N1_5 
REMARK    3  A    between atoms: C3_3  and  C9_17 
REMARK    4  A    between atoms: N1_5  and  C5_7 
REMARK    5  A    between atoms: C7_11  and  N3_12 
ROOT
HETATM    1  C5  UNL     1      15.575   3.835  13.524  1.00  0.00     0.682 A 
HETATM    2  N2  UNL     1      14.974   4.076  14.698  1.00  0.00    -0.198 N 
ATOM      3  H2  UNL     1      14.309   4.829  14.870  1.00  0.00     0.183 HD
HETATM    4  C6  UNL     1      15.379   3.175  15.618  1.00  0.00     0.161 A 
HETATM    5  C7  UNL     1      16.274   2.329  15.001  1.00  0.00     0.206 A 
HETATM    6  N4  UNL     1      16.375   2.747  13.741  1.00  0.00    -0.165 N 
HETATM    7  C8  UNL     1      17.206   2.149  12.732  1.00  0.00     0.177 C 
ENDROOT
BRANCH   1   8
HETATM    8  N1  UNL     1      15.445   4.469  12.437  1.00  0.00    -0.208 N 
ATOM      9  H1  UNL     1      15.246   3.899  11.616  1.00  0.00     0.179 HD
BRANCH   8  10
HETATM   10  C3  UNL     1      15.538   5.883  12.204  1.00  0.00     0.140 C 
HETATM   11  C4  UNL     1      15.700   6.115  10.719  1.00  0.00     0.048 C 
BRANCH  10  12
HETATM   12  C2  UNL     1      14.326   6.620  12.748  1.00  0.00     0.036 C 
HETATM   13  C1  UNL     1      13.819   7.688  11.837  1.00  0.00     0.008 C 
ENDBRANCH  10  12
BRANCH  10  14
HETATM   14  C9  UNL     1      16.778   6.445  12.897  1.00  0.00     0.412 C 
HETATM   15  F1  UNL     1      17.883   5.657  12.652  1.00  0.00    -0.168 F 
HETATM   16  F2  UNL     1      16.603   6.681  14.226  1.00  0.00    -0.168 F 
HETATM   17  F3  UNL     1      17.099   7.692  12.333  1.00  0.00    -0.168 F 
ENDBRANCH  10  14
ENDBRANCH   8  10
ENDBRANCH   1   8
BRANCH   5  18
HETATM   18  N3  UNL     1      16.955   1.216  15.620  1.00  0.00    -0.096 N 
HETATM   19  O1  UNL     1      17.986   1.438  16.246  1.00  0.00    -0.530 OA
HETATM   20  O2  UNL     1      16.399  -0.029  15.468  1.00  0.00    -0.530 OA
ENDBRANCH   5  18
TORSDOF 5
ENDMDL
