MODEL 1
REMARK VINA RESULT: -6.896630839      0.000      0.000
REMARK  5 active torsions:
REMARK  status: ('A' for Active; 'I' for Inactive)
REMARK    1  A    between atoms: C5_7  and  C6_8 
REMARK    2  A    between atoms: C6_8  and  C7_9 
REMARK    3  A    between atoms: C7_9  and  C8_10 
REMARK    4  A    between atoms: C8_10  and  O3_11 
REMARK    5  A    between atoms: S1_13  and  C9_14 
ROOT
HETATM    1  C1  UNL     1      14.188   1.103  17.233  1.00  0.00     0.058 C 
HETATM    2  C2  UNL     1      15.162   2.260  17.155  1.00  0.00     0.111 C 
HETATM    3  C3  UNL     1      14.833   3.380  18.043  1.00  0.00     0.058 C 
HETATM    4  O1  UNL     1      16.433   1.764  17.160  1.00  0.00    -0.299 OA
HETATM    5  C4  UNL     1      17.225   1.899  16.071  1.00  0.00     0.274 C 
HETATM    6  O2  UNL     1      18.406   2.388  16.182  1.00  0.00    -0.264 OA
HETATM    7  C5  UNL     1      16.681   1.472  14.809  1.00  0.00     0.148 C 
HETATM    8  S1  UNL     1      14.956   2.893  15.172  1.00  0.00    -0.067 SA
ENDROOT
BRANCH   7   9
HETATM    9  C6  UNL     1      17.160   1.992  13.557  1.00  0.00     0.027 C 
BRANCH   9  10
HETATM   10  C7  UNL     1      16.714   1.265  12.342  1.00  0.00     0.028 C 
BRANCH  10  11
HETATM   11  C8  UNL     1      16.423   2.292  11.229  1.00  0.00     0.164 C 
BRANCH  11  12
HETATM   12  O3  UNL     1      15.089   2.613  11.192  1.00  0.00    -0.401 OA
ATOM     13  H3  UNL     1      14.876   3.263  11.853  1.00  0.00     0.209 HD
ENDBRANCH  11  12
ENDBRANCH  10  11
ENDBRANCH   9  10
ENDBRANCH   7   9
BRANCH   8  14
HETATM   14  C9  UNL     1      15.721   4.814  15.017  1.00  0.00     0.438 C 
HETATM   15  F1  UNL     1      15.587   5.062  13.645  1.00  0.00    -0.161 F 
HETATM   16  F2  UNL     1      17.031   4.761  15.402  1.00  0.00    -0.161 F 
HETATM   17  F3  UNL     1      14.950   5.662  15.732  1.00  0.00    -0.161 F 
ENDBRANCH   8  14
TORSDOF 5
ENDMDL
MODEL 2
REMARK VINA RESULT: -6.746354542      2.808      4.854
REMARK  5 active torsions:
REMARK  status: ('A' for Active; 'I' for Inactive)
REMARK    1  A    between atoms: C5_7  and  C6_8 
REMARK    2  A    between atoms: C6_8  and  C7_9 
REMARK    3  A    between atoms: C7_9  and  C8_10 
REMARK    4  A    between atoms: C8_10  and  O3_11 
REMARK    5  A    between atoms: S1_13  and  C9_14 
ROOT
HETATM    1  C1  UNL     1      17.791   5.873  13.538  1.00  0.00     0.058 C 
HETATM    2  C2  UNL     1      18.243   4.429  13.599  1.00  0.00     0.111 C 
HETATM    3  C3  UNL     1      19.221   4.065  12.568  1.00  0.00     0.058 C 
HETATM    4  O1  UNL     1      18.503   4.105  14.899  1.00  0.00    -0.299 OA
HETATM    5  C4  UNL     1      17.738   3.191  15.543  1.00  0.00     0.274 C 
HETATM    6  O2  UNL     1      18.283   2.206  16.156  1.00  0.00    -0.264 OA
HETATM    7  C5  UNL     1      16.313   3.384  15.500  1.00  0.00     0.148 C 
HETATM    8  S1  UNL     1      16.468   3.382  13.241  1.00  0.00    -0.067 SA
ENDROOT
BRANCH   7   9
HETATM    9  C6  UNL     1      15.391   2.294  15.678  1.00  0.00     0.027 C 
BRANCH   9  10
HETATM   10  C7  UNL     1      14.661   2.270  16.970  1.00  0.00     0.028 C 
BRANCH  10  11
HETATM   11  C8  UNL     1      15.304   1.207  17.882  1.00  0.00     0.164 C 
BRANCH  11  12
HETATM   12  O3  UNL     1      15.289  -0.029  17.284  1.00  0.00    -0.401 OA
ATOM     13  H3  UNL     1      15.535  -0.710  17.900  1.00  0.00     0.209 HD
ENDBRANCH  11  12
ENDBRANCH  10  11
ENDBRANCH   9  10
ENDBRANCH   7   9
BRANCH   8  14
HETATM   14  C9  UNL     1      16.954   1.447  12.677  1.00  0.00     0.438 C 
HETATM   15  F1  UNL     1      16.007   1.199  11.674  1.00  0.00    -0.161 F 
HETATM   16  F2  UNL     1      16.766   0.647  13.768  1.00  0.00    -0.161 F 
HETATM   17  F3  UNL     1      18.204   1.430  12.166  1.00  0.00    -0.161 F 
ENDBRANCH   8  14
TORSDOF 5
ENDMDL
MODEL 3
REMARK VINA RESULT: -6.563386591      2.341      4.532
REMARK  5 active torsions:
REMARK  status: ('A' for Active; 'I' for Inactive)
REMARK    1  A    between atoms: C5_7  and  C6_8 
REMARK    2  A    between atoms: C6_8  and  C7_9 
REMARK    3  A    between atoms: C7_9  and  C8_10 
REMARK    4  A    between atoms: C8_10  and  O3_11 
REMARK    5  A    between atoms: S1_13  and  C9_14 
ROOT
HETATM    1  C1  UNL     1      19.385   5.033  14.600  1.00  0.00     0.058 C 
HETATM    2  C2  UNL     1      18.322   4.644  13.596  1.00  0.00     0.111 C 
HETATM    3  C3  UNL     1      18.506   5.240  12.268  1.00  0.00     0.058 C 
HETATM    4  O1  UNL     1      18.097   3.301  13.692  1.00  0.00    -0.299 OA
HETATM    5  C4  UNL     1      16.903   2.836  14.128  1.00  0.00     0.274 C 
HETATM    6  O2  UNL     1      16.261   1.957  13.450  1.00  0.00    -0.264 OA
HETATM    7  C5  UNL     1      16.406   3.371  15.368  1.00  0.00     0.148 C 
HETATM    8  S1  UNL     1      16.582   5.432  14.449  1.00  0.00    -0.067 SA
ENDROOT
BRANCH   7   9
HETATM    9  C6  UNL     1      15.005   3.371  15.691  1.00  0.00     0.027 C 
BRANCH   9  10
HETATM   10  C7  UNL     1      14.659   2.937  17.068  1.00  0.00     0.028 C 
BRANCH  10  11
HETATM   11  C8  UNL     1      13.890   1.602  16.988  1.00  0.00     0.164 C 
BRANCH  11  12
HETATM   12  O3  UNL     1      14.737   0.563  16.691  1.00  0.00    -0.401 OA
ATOM     13  H3  UNL     1      15.606   0.882  16.476  1.00  0.00     0.209 HD
ENDBRANCH  11  12
ENDBRANCH  10  11
ENDBRANCH   9  10
ENDBRANCH   7   9
BRANCH   8  14
HETATM   14  C9  UNL     1      15.129   5.554  12.974  1.00  0.00     0.438 C 
HETATM   15  F1  UNL     1      15.494   6.737  12.316  1.00  0.00    -0.161 F 
HETATM   16  F2  UNL     1      13.922   5.669  13.602  1.00  0.00    -0.161 F 
HETATM   17  F3  UNL     1      15.243   4.494  12.145  1.00  0.00    -0.161 F 
ENDBRANCH   8  14
TORSDOF 5
ENDMDL
MODEL 4
REMARK VINA RESULT: -6.410225450      2.235      4.585
REMARK  5 active torsions:
REMARK  status: ('A' for Active; 'I' for Inactive)
REMARK    1  A    between atoms: C5_7  and  C6_8 
REMARK    2  A    between atoms: C6_8  and  C7_9 
REMARK    3  A    between atoms: C7_9  and  C8_10 
REMARK    4  A    between atoms: C8_10  and  O3_11 
REMARK    5  A    between atoms: S1_13  and  C9_14 
ROOT
HETATM    1  C1  UNL     1      15.630   2.942  11.476  1.00  0.00     0.058 C 
HETATM    2  C2  UNL     1      16.002   4.089  12.392  1.00  0.00     0.111 C 
HETATM    3  C3  UNL     1      16.645   5.216  11.708  1.00  0.00     0.058 C 
HETATM    4  O1  UNL     1      14.956   4.337  13.233  1.00  0.00    -0.299 OA
HETATM    5  C4  UNL     1      15.080   4.117  14.563  1.00  0.00     0.274 C 
HETATM    6  O2  UNL     1      14.770   5.034  15.404  1.00  0.00    -0.264 OA
HETATM    7  C5  UNL     1      15.569   2.827  14.971  1.00  0.00     0.148 C 
HETATM    8  S1  UNL     1      17.391   3.206  13.683  1.00  0.00    -0.067 SA
ENDROOT
BRANCH   7   9
HETATM    9  C6  UNL     1      16.211   2.621  16.241  1.00  0.00     0.027 C 
BRANCH   9  10
HETATM   10  C7  UNL     1      15.304   2.467  17.406  1.00  0.00     0.028 C 
BRANCH  10  11
HETATM   11  C8  UNL     1      14.436   1.211  17.195  1.00  0.00     0.164 C 
BRANCH  11  12
HETATM   12  O3  UNL     1      15.202   0.072  17.228  1.00  0.00    -0.401 OA
ATOM     13  H3  UNL     1      15.515  -0.103  18.108  1.00  0.00     0.209 HD
ENDBRANCH  11  12
ENDBRANCH  10  11
ENDBRANCH   9  10
ENDBRANCH   7   9
BRANCH   8  14
HETATM   14  C9  UNL     1      18.473   4.715  14.608  1.00  0.00     0.438 C 
HETATM   15  F1  UNL     1      19.370   5.080  13.595  1.00  0.00    -0.161 F 
HETATM   16  F2  UNL     1      19.110   4.158  15.680  1.00  0.00    -0.161 F 
HETATM   17  F3  UNL     1      17.646   5.741  14.904  1.00  0.00    -0.161 F 
ENDBRANCH   8  14
TORSDOF 5
ENDMDL
MODEL 5
REMARK VINA RESULT: -6.247127622      2.362      5.129
REMARK  5 active torsions:
REMARK  status: ('A' for Active; 'I' for Inactive)
REMARK    1  A    between atoms: C5_7  and  C6_8 
REMARK    2  A    between atoms: C6_8  and  C7_9 
REMARK    3  A    between atoms: C7_9  and  C8_10 
REMARK    4  A    between atoms: C8_10  and  O3_11 
REMARK    5  A    between atoms: S1_13  and  C9_14 
ROOT
HETATM    1  C1  UNL     1      17.453   6.196  10.223  1.00  0.00     0.058 C 
HETATM    2  C2  UNL     1      16.135   5.695  10.775  1.00  0.00     0.111 C 
HETATM    3  C3  UNL     1      15.007   6.606  10.548  1.00  0.00     0.058 C 
HETATM    4  O1  UNL     1      15.995   4.377  10.451  1.00  0.00    -0.299 OA
HETATM    5  C4  UNL     1      15.991   3.431  11.420  1.00  0.00     0.274 C 
HETATM    6  O2  UNL     1      15.049   2.562  11.475  1.00  0.00    -0.264 OA
HETATM    7  C5  UNL     1      17.078   3.454  12.362  1.00  0.00     0.148 C 
HETATM    8  S1  UNL     1      16.512   5.595  12.830  1.00  0.00    -0.067 SA
ENDROOT
BRANCH   7   9
HETATM    9  C6  UNL     1      16.961   2.882  13.676  1.00  0.00     0.027 C 
BRANCH   9  10
HETATM   10  C7  UNL     1      17.207   1.421  13.768  1.00  0.00     0.028 C 
BRANCH  10  11
HETATM   11  C8  UNL     1      16.844   0.946  15.189  1.00  0.00     0.164 C 
BRANCH  11  12
HETATM   12  O3  UNL     1      17.916   1.069  16.039  1.00  0.00    -0.401 OA
ATOM     13  H3  UNL     1      17.653   1.455  16.866  1.00  0.00     0.209 HD
ENDBRANCH  11  12
ENDBRANCH  10  11
ENDBRANCH   9  10
ENDBRANCH   7   9
BRANCH   8  14
HETATM   14  C9  UNL     1      14.694   5.528  13.826  1.00  0.00     0.438 C 
HETATM   15  F1  UNL     1      15.006   6.179  15.027  1.00  0.00    -0.161 F 
HETATM   16  F2  UNL     1      14.386   4.212  14.020  1.00  0.00    -0.161 F 
HETATM   17  F3  UNL     1      13.776   6.232  13.128  1.00  0.00    -0.161 F 
ENDBRANCH   8  14
TORSDOF 5
ENDMDL
