MODEL 1
REMARK VINA RESULT: -6.312330542      0.000      0.000
REMARK  3 active torsions:
REMARK  status: ('A' for Active; 'I' for Inactive)
REMARK       I    between atoms: C1_2  and  N1_3 
REMARK    1  A    between atoms: C1_2  and  C7_10 
REMARK    2  A    between atoms: N1_3  and  C2_5 
REMARK    3  A    between atoms: C9_14  and  C10_15 
ROOT
HETATM    1  C7  UNL     1      16.798   1.705  14.138  1.00  0.00     0.089 A 
HETATM    2  C8  UNL     1      16.964   0.669  15.026  1.00  0.00     0.113 A 
HETATM    3  N2  UNL     1      16.418   0.779  16.193  1.00  0.00    -0.358 N 
ATOM      4  H2  UNL     1      16.520   0.031  16.879  1.00  0.00     0.165 HD
HETATM    5  C9  UNL     1      15.723   1.869  16.494  1.00  0.00     0.116 A 
HETATM    6  S1  UNL     1      15.843   2.793  15.064  1.00  0.00    -0.064 SA
ENDROOT
BRANCH   1   7
HETATM    7  C1  UNL     1      17.309   1.825  12.771  1.00  0.00     0.260 C 
HETATM    8  O1  UNL     1      16.932   0.974  11.937  1.00  0.00    -0.267 OA
HETATM    9  N1  UNL     1      18.180   2.854  12.434  1.00  0.00    -0.352 N 
ATOM     10  H1  UNL     1      18.442   3.509  13.171  1.00  0.00     0.163 HD
BRANCH   9  11
HETATM   11  C2  UNL     1      18.745   3.069  11.119  1.00  0.00     0.084 C 
HETATM   12  C3  UNL     1      20.160   2.531  11.141  1.00  0.00     0.025 C 
HETATM   13  C4  UNL     1      21.022   3.773  11.102  1.00  0.00     0.002 C 
HETATM   14  C5  UNL     1      20.219   4.647  10.128  1.00  0.00     0.002 C 
HETATM   15  C6  UNL     1      18.827   4.520  10.752  1.00  0.00     0.025 C 
ENDBRANCH   9  11
ENDBRANCH   1   7
BRANCH   5  16
HETATM   16  C10 UNL     1      15.016   2.184  17.791  1.00  0.00     0.410 C 
HETATM   17  F1  UNL     1      13.777   1.553  17.713  1.00  0.00    -0.207 F 
HETATM   18  F2  UNL     1      15.741   1.741  18.857  1.00  0.00    -0.207 F 
ENDBRANCH   5  16
TORSDOF 3
ENDMDL
MODEL 2
REMARK VINA RESULT: -6.182782589      0.911      1.181
REMARK  3 active torsions:
REMARK  status: ('A' for Active; 'I' for Inactive)
REMARK       I    between atoms: C1_2  and  N1_3 
REMARK    1  A    between atoms: C1_2  and  C7_10 
REMARK    2  A    between atoms: N1_3  and  C2_5 
REMARK    3  A    between atoms: C9_14  and  C10_15 
ROOT
HETATM    1  C7  UNL     1      16.750   2.206  14.084  1.00  0.00     0.089 A 
HETATM    2  C8  UNL     1      17.058   0.947  14.540  1.00  0.00     0.113 A 
HETATM    3  N2  UNL     1      16.589   0.589  15.690  1.00  0.00    -0.358 N 
ATOM      4  H2  UNL     1      16.797  -0.338  16.063  1.00  0.00     0.165 HD
HETATM    5  C9  UNL     1      15.835   1.432  16.385  1.00  0.00     0.116 A 
HETATM    6  S1  UNL     1      15.781   2.805  15.371  1.00  0.00    -0.064 SA
ENDROOT
BRANCH   1   7
HETATM    7  C1  UNL     1      17.152   2.845  12.829  1.00  0.00     0.260 C 
HETATM    8  O1  UNL     1      16.254   3.116  12.004  1.00  0.00    -0.267 OA
HETATM    9  N1  UNL     1      18.491   3.131  12.583  1.00  0.00    -0.352 N 
ATOM     10  H1  UNL     1      19.166   2.878  13.305  1.00  0.00     0.163 HD
BRANCH   9  11
HETATM   11  C2  UNL     1      19.000   3.758  11.383  1.00  0.00     0.084 C 
HETATM   12  C3  UNL     1      20.319   3.093  11.050  1.00  0.00     0.025 C 
HETATM   13  C4  UNL     1      21.351   4.151  11.371  1.00  0.00     0.002 C 
HETATM   14  C5  UNL     1      20.628   5.413  10.879  1.00  0.00     0.002 C 
HETATM   15  C6  UNL     1      19.273   5.221  11.564  1.00  0.00     0.025 C 
ENDBRANCH   9  11
ENDBRANCH   1   7
BRANCH   5  16
HETATM   16  C10 UNL     1      15.199   1.204  17.736  1.00  0.00     0.410 C 
HETATM   17  F1  UNL     1      15.508   2.328  18.497  1.00  0.00    -0.207 F 
HETATM   18  F2  UNL     1      13.853   1.031  17.614  1.00  0.00    -0.207 F 
ENDBRANCH   5  16
TORSDOF 3
ENDMDL
MODEL 3
REMARK VINA RESULT: -6.143992549      1.832      2.099
REMARK  3 active torsions:
REMARK  status: ('A' for Active; 'I' for Inactive)
REMARK       I    between atoms: C1_2  and  N1_3 
REMARK    1  A    between atoms: C1_2  and  C7_10 
REMARK    2  A    between atoms: N1_3  and  C2_5 
REMARK    3  A    between atoms: C9_14  and  C10_15 
ROOT
HETATM    1  C7  UNL     1      15.747   3.249  14.560  1.00  0.00     0.089 A 
HETATM    2  C8  UNL     1      14.890   4.054  15.271  1.00  0.00     0.113 A 
HETATM    3  N2  UNL     1      14.580   3.695  16.474  1.00  0.00    -0.358 N 
ATOM      4  H2  UNL     1      13.946   4.267  17.032  1.00  0.00     0.165 HD
HETATM    5  C9  UNL     1      15.090   2.580  16.980  1.00  0.00     0.116 A 
HETATM    6  S1  UNL     1      16.058   1.999  15.698  1.00  0.00    -0.064 SA
ENDROOT
BRANCH   1   7
HETATM    7  C1  UNL     1      16.248   3.431  13.196  1.00  0.00     0.260 C 
HETATM    8  O1  UNL     1      15.418   3.727  12.310  1.00  0.00    -0.267 OA
HETATM    9  N1  UNL     1      17.601   3.275  12.917  1.00  0.00    -0.352 N 
ATOM     10  H1  UNL     1      18.216   3.032  13.694  1.00  0.00     0.163 HD
BRANCH   9  11
HETATM   11  C2  UNL     1      18.205   3.430  11.611  1.00  0.00     0.084 C 
HETATM   12  C3  UNL     1      18.279   2.056  10.981  1.00  0.00     0.025 C 
HETATM   13  C4  UNL     1      19.754   1.722  11.007  1.00  0.00     0.002 C 
HETATM   14  C5  UNL     1      20.361   3.092  10.674  1.00  0.00     0.002 C 
HETATM   15  C6  UNL     1      19.604   3.965  11.678  1.00  0.00     0.025 C 
ENDBRANCH   9  11
ENDBRANCH   1   7
BRANCH   5  16
HETATM   16  C10 UNL     1      14.853   1.995  18.352  1.00  0.00     0.410 C 
HETATM   17  F1  UNL     1      15.761   0.947  18.482  1.00  0.00    -0.207 F 
HETATM   18  F2  UNL     1      15.031   2.939  19.318  1.00  0.00    -0.207 F 
ENDBRANCH   5  16
TORSDOF 3
ENDMDL
MODEL 4
REMARK VINA RESULT: -6.088303460      4.601      5.810
REMARK  3 active torsions:
REMARK  status: ('A' for Active; 'I' for Inactive)
REMARK       I    between atoms: C1_2  and  N1_3 
REMARK    1  A    between atoms: C1_2  and  C7_10 
REMARK    2  A    between atoms: N1_3  and  C2_5 
REMARK    3  A    between atoms: C9_14  and  C10_15 
ROOT
HETATM    1  C7  UNL     1      16.523   1.691  11.562  1.00  0.00     0.089 A 
HETATM    2  C8  UNL     1      16.730   1.074  10.352  1.00  0.00     0.113 A 
HETATM    3  N2  UNL     1      17.306  -0.083  10.353  1.00  0.00    -0.358 N 
ATOM      4  H2  UNL     1      17.477  -0.571   9.473  1.00  0.00     0.165 HD
HETATM    5  C9  UNL     1      17.674  -0.634  11.503  1.00  0.00     0.116 A 
HETATM    6  S1  UNL     1      17.188   0.536  12.648  1.00  0.00    -0.064 SA
ENDROOT
BRANCH   1   7
HETATM    7  C1  UNL     1      15.900   2.989  11.830  1.00  0.00     0.260 C 
HETATM    8  O1  UNL     1      15.410   3.606  10.860  1.00  0.00    -0.267 OA
HETATM    9  N1  UNL     1      15.864   3.499  13.123  1.00  0.00    -0.352 N 
ATOM     10  H1  UNL     1      16.286   2.936  13.862  1.00  0.00     0.163 HD
BRANCH   9  11
HETATM   11  C2  UNL     1      15.276   4.766  13.502  1.00  0.00     0.084 C 
HETATM   12  C3  UNL     1      16.340   5.828  13.329  1.00  0.00     0.025 C 
HETATM   13  C4  UNL     1      16.707   6.210  14.746  1.00  0.00     0.002 C 
HETATM   14  C5  UNL     1      15.327   6.168  15.418  1.00  0.00     0.002 C 
HETATM   15  C6  UNL     1      14.843   4.798  14.937  1.00  0.00     0.025 C 
ENDBRANCH   9  11
ENDBRANCH   1   7
BRANCH   5  16
HETATM   16  C10 UNL     1      18.355  -1.966  11.712  1.00  0.00     0.410 C 
HETATM   17  F1  UNL     1      17.505  -2.919  11.157  1.00  0.00    -0.207 F 
HETATM   18  F2  UNL     1      19.583  -1.980  11.122  1.00  0.00    -0.207 F 
ENDBRANCH   5  16
TORSDOF 3
ENDMDL
MODEL 5
REMARK VINA RESULT: -5.997337967      4.257      5.622
REMARK  3 active torsions:
REMARK  status: ('A' for Active; 'I' for Inactive)
REMARK       I    between atoms: C1_2  and  N1_3 
REMARK    1  A    between atoms: C1_2  and  C7_10 
REMARK    2  A    between atoms: N1_3  and  C2_5 
REMARK    3  A    between atoms: C9_14  and  C10_15 
ROOT
HETATM    1  C7  UNL     1      17.245   3.679  10.910  1.00  0.00     0.089 A 
HETATM    2  C8  UNL     1      18.446   3.355  11.496  1.00  0.00     0.113 A 
HETATM    3  N2  UNL     1      18.537   2.215  12.098  1.00  0.00    -0.358 N 
ATOM      4  H2  UNL     1      19.412   1.940  12.544  1.00  0.00     0.165 HD
HETATM    5  C9  UNL     1      17.487   1.403  12.132  1.00  0.00     0.116 A 
HETATM    6  S1  UNL     1      16.306   2.287  11.274  1.00  0.00    -0.064 SA
ENDROOT
BRANCH   1   7
HETATM    7  C1  UNL     1      16.888   4.895  10.176  1.00  0.00     0.260 C 
HETATM    8  O1  UNL     1      17.374   5.046   9.035  1.00  0.00    -0.267 OA
HETATM    9  N1  UNL     1      16.036   5.835  10.746  1.00  0.00    -0.352 N 
ATOM     10  H1  UNL     1      15.680   5.641  11.681  1.00  0.00     0.163 HD
BRANCH   9  11
HETATM   11  C2  UNL     1      15.616   7.067  10.114  1.00  0.00     0.084 C 
HETATM   12  C3  UNL     1      15.377   8.080  11.213  1.00  0.00     0.025 C 
HETATM   13  C4  UNL     1      13.872   8.236  11.244  1.00  0.00     0.002 C 
HETATM   14  C5  UNL     1      13.550   8.180   9.744  1.00  0.00     0.002 C 
HETATM   15  C6  UNL     1      14.330   6.921   9.356  1.00  0.00     0.025 C 
ENDBRANCH   9  11
ENDBRANCH   1   7
BRANCH   5  16
HETATM   16  C10 UNL     1      17.394   0.042  12.780  1.00  0.00     0.410 C 
HETATM   17  F1  UNL     1      16.770   0.246  14.008  1.00  0.00    -0.207 F 
HETATM   18  F2  UNL     1      16.690  -0.821  11.994  1.00  0.00    -0.207 F 
ENDBRANCH   5  16
TORSDOF 3
ENDMDL
