MODEL 1
REMARK VINA RESULT: -6.635388209      0.000      0.000
REMARK  3 active torsions:
REMARK  status: ('A' for Active; 'I' for Inactive)
REMARK    1  A    between atoms: N1_1  and  C1_5 
REMARK    2  A    between atoms: C4_9  and  C5_10 
REMARK    3  A    between atoms: C5_10  and  C6_11 
ROOT
HETATM    1  C1  UNL     1      15.671   1.979  17.270  1.00  0.00     0.284 C 
HETATM    2  C2  UNL     1      14.462   2.898  17.502  1.00  0.00     0.074 C 
HETATM    3  C3  UNL     1      14.956   3.542  16.185  1.00  0.00     0.128 C 
HETATM    4  N2  UNL     1      15.706   2.420  15.954  1.00  0.00    -0.366 N 
HETATM    5  C4  UNL     1      16.547   2.023  14.974  1.00  0.00     0.060 C 
ENDROOT
BRANCH   5   6
HETATM    6  C5  UNL     1      16.555   2.882  13.713  1.00  0.00     0.049 C 
BRANCH   6   7
HETATM    7  C6  UNL     1      17.282   2.227  12.570  1.00  0.00    -0.010 C 
HETATM    8  C7  UNL     1      16.341   1.762  11.505  1.00  0.00     0.005 C 
HETATM    9  C8  UNL     1      16.751   0.577  10.723  1.00  0.00     0.000 C 
HETATM   10  C9  UNL     1      18.112   0.046  10.960  1.00  0.00     0.000 C 
HETATM   11  C10 UNL     1      19.228   1.003  10.969  1.00  0.00     0.000 C 
HETATM   12  C11 UNL     1      18.914   2.439  10.710  1.00  0.00     0.000 C 
HETATM   13  C12 UNL     1      18.349   3.081  11.960  1.00  0.00     0.005 C 
ENDBRANCH   6   7
ENDBRANCH   5   6
BRANCH   1  14
HETATM   14  N1  UNL     1      15.398   0.574  17.529  1.00  0.00    -0.058 N 
ATOM     15  H13 UNL     1      14.446   0.450  17.873  1.00  0.00     0.276 HD
ATOM     16  H12 UNL     1      15.333   0.053  16.655  1.00  0.00     0.276 HD
ATOM     17  H11 UNL     1      16.067   0.133  18.161  1.00  0.00     0.276 HD
ENDBRANCH   1  14
TORSDOF 3
ENDMDL
MODEL 2
REMARK VINA RESULT: -6.392175892      2.209      5.932
REMARK  3 active torsions:
REMARK  status: ('A' for Active; 'I' for Inactive)
REMARK    1  A    between atoms: N1_1  and  C1_5 
REMARK    2  A    between atoms: C4_9  and  C5_10 
REMARK    3  A    between atoms: C5_10  and  C6_11 
ROOT
HETATM    1  C1  UNL     1      17.966   0.813  10.896  1.00  0.00     0.284 C 
HETATM    2  C2  UNL     1      19.360   1.427  10.694  1.00  0.00     0.074 C 
HETATM    3  C3  UNL     1      18.758   2.571  11.544  1.00  0.00     0.128 C 
HETATM    4  N2  UNL     1      17.761   1.715  11.932  1.00  0.00    -0.366 N 
HETATM    5  C4  UNL     1      16.678   1.818  12.733  1.00  0.00     0.060 C 
ENDROOT
BRANCH   5   6
HETATM    6  C5  UNL     1      16.597   3.080  13.587  1.00  0.00     0.049 C 
BRANCH   6   7
HETATM    7  C6  UNL     1      15.950   2.835  14.923  1.00  0.00    -0.010 C 
HETATM    8  C7  UNL     1      16.939   2.367  15.944  1.00  0.00     0.005 C 
HETATM    9  C8  UNL     1      16.429   1.476  17.006  1.00  0.00     0.000 C 
HETATM   10  C9  UNL     1      14.968   1.244  17.054  1.00  0.00     0.000 C 
HETATM   11  C10 UNL     1      14.085   2.417  16.972  1.00  0.00     0.000 C 
HETATM   12  C11 UNL     1      14.725   3.763  16.874  1.00  0.00     0.000 C 
HETATM   13  C12 UNL     1      15.196   4.013  15.457  1.00  0.00     0.005 C 
ENDBRANCH   6   7
ENDBRANCH   5   6
BRANCH   1  14
HETATM   14  N1  UNL     1      17.989  -0.608  11.201  1.00  0.00    -0.058 N 
ATOM     15  H13 UNL     1      17.045  -0.995  11.180  1.00  0.00     0.276 HD
ATOM     16  H12 UNL     1      18.408  -1.134  10.434  1.00  0.00     0.276 HD
ATOM     17  H11 UNL     1      18.449  -0.833  12.084  1.00  0.00     0.276 HD
ENDBRANCH   1  14
TORSDOF 3
ENDMDL
MODEL 3
REMARK VINA RESULT: -6.309931860      2.177      5.857
REMARK  3 active torsions:
REMARK  status: ('A' for Active; 'I' for Inactive)
REMARK    1  A    between atoms: N1_1  and  C1_5 
REMARK    2  A    between atoms: C4_9  and  C5_10 
REMARK    3  A    between atoms: C5_10  and  C6_11 
ROOT
HETATM    1  C1  UNL     1      18.187   1.482  11.769  1.00  0.00     0.284 C 
HETATM    2  C2  UNL     1      17.207   1.203  10.620  1.00  0.00     0.074 C 
HETATM    3  C3  UNL     1      16.205   1.890  11.578  1.00  0.00     0.128 C 
HETATM    4  N2  UNL     1      17.268   2.387  12.283  1.00  0.00    -0.366 N 
HETATM    5  C4  UNL     1      17.402   3.165  13.380  1.00  0.00     0.060 C 
ENDROOT
BRANCH   5   6
HETATM    6  C5  UNL     1      16.128   3.841  13.878  1.00  0.00     0.049 C 
BRANCH   6   7
HETATM    7  C6  UNL     1      15.639   3.268  15.180  1.00  0.00    -0.010 C 
HETATM    8  C7  UNL     1      16.760   2.715  16.002  1.00  0.00     0.005 C 
HETATM    9  C8  UNL     1      16.438   1.581  16.893  1.00  0.00     0.000 C 
HETATM   10  C9  UNL     1      15.015   1.189  17.004  1.00  0.00     0.000 C 
HETATM   11  C10 UNL     1      14.027   2.253  17.236  1.00  0.00     0.000 C 
HETATM   12  C11 UNL     1      14.532   3.652  17.370  1.00  0.00     0.000 C 
HETATM   13  C12 UNL     1      14.839   4.228  16.003  1.00  0.00     0.005 C 
ENDBRANCH   6   7
ENDBRANCH   5   6
BRANCH   1  14
HETATM   14  N1  UNL     1      19.482   1.975  11.329  1.00  0.00    -0.058 N 
ATOM     15  H13 UNL     1      19.654   2.911  11.697  1.00  0.00     0.276 HD
ATOM     16  H12 UNL     1      20.236   1.468  11.793  1.00  0.00     0.276 HD
ATOM     17  H11 UNL     1      19.608   1.959  10.317  1.00  0.00     0.276 HD
ENDBRANCH   1  14
TORSDOF 3
ENDMDL
MODEL 4
REMARK VINA RESULT: -6.285117004      3.693      5.890
REMARK  3 active torsions:
REMARK  status: ('A' for Active; 'I' for Inactive)
REMARK    1  A    between atoms: N1_1  and  C1_5 
REMARK    2  A    between atoms: C4_9  and  C5_10 
REMARK    3  A    between atoms: C5_10  and  C6_11 
ROOT
HETATM    1  C1  UNL     1      18.768   5.732  13.519  1.00  0.00     0.284 C 
HETATM    2  C2  UNL     1      18.969   6.916  14.476  1.00  0.00     0.074 C 
HETATM    3  C3  UNL     1      17.471   6.670  14.773  1.00  0.00     0.128 C 
HETATM    4  N2  UNL     1      17.593   5.433  14.196  1.00  0.00    -0.366 N 
HETATM    5  C4  UNL     1      16.749   4.403  13.969  1.00  0.00     0.060 C 
ENDROOT
BRANCH   5   6
HETATM    6  C5  UNL     1      15.392   4.486  14.662  1.00  0.00     0.049 C 
BRANCH   6   7
HETATM    7  C6  UNL     1      15.240   3.471  15.763  1.00  0.00    -0.010 C 
HETATM    8  C7  UNL     1      16.560   2.904  16.184  1.00  0.00     0.005 C 
HETATM    9  C8  UNL     1      16.558   1.518  16.693  1.00  0.00     0.000 C 
HETATM   10  C9  UNL     1      15.242   0.864  16.878  1.00  0.00     0.000 C 
HETATM   11  C10 UNL     1      14.198   1.618  17.587  1.00  0.00     0.000 C 
HETATM   12  C11 UNL     1      14.546   2.978  18.096  1.00  0.00     0.000 C 
HETATM   13  C12 UNL     1      14.507   3.982  16.963  1.00  0.00     0.005 C 
ENDBRANCH   6   7
ENDBRANCH   5   6
BRANCH   1  14
HETATM   14  N1  UNL     1      19.854   4.765  13.545  1.00  0.00    -0.058 N 
ATOM     15  H13 UNL     1      20.657   5.140  14.050  1.00  0.00     0.276 HD
ATOM     16  H12 UNL     1      19.621   3.979  14.153  1.00  0.00     0.276 HD
ATOM     17  H11 UNL     1      20.133   4.434  12.622  1.00  0.00     0.276 HD
ENDBRANCH   1  14
TORSDOF 3
ENDMDL
MODEL 5
REMARK VINA RESULT: -6.059621234      2.480      6.012
REMARK  3 active torsions:
REMARK  status: ('A' for Active; 'I' for Inactive)
REMARK    1  A    between atoms: N1_1  and  C1_5 
REMARK    2  A    between atoms: C4_9  and  C5_10 
REMARK    3  A    between atoms: C5_10  and  C6_11 
ROOT
HETATM    1  C1  UNL     1      18.311   2.560  11.127  1.00  0.00     0.284 C 
HETATM    2  C2  UNL     1      18.978   3.883  10.721  1.00  0.00     0.074 C 
HETATM    3  C3  UNL     1      17.886   4.481  11.639  1.00  0.00     0.128 C 
HETATM    4  N2  UNL     1      17.698   3.235  12.174  1.00  0.00    -0.366 N 
HETATM    5  C4  UNL     1      16.885   2.721  13.123  1.00  0.00     0.060 C 
ENDROOT
BRANCH   5   6
HETATM    6  C5  UNL     1      16.121   3.735  13.969  1.00  0.00     0.049 C 
BRANCH   6   7
HETATM    7  C6  UNL     1      15.624   3.152  15.264  1.00  0.00    -0.010 C 
HETATM    8  C7  UNL     1      16.747   2.646  16.115  1.00  0.00     0.005 C 
HETATM    9  C8  UNL     1      16.446   1.508  17.006  1.00  0.00     0.000 C 
HETATM   10  C9  UNL     1      15.037   1.063  17.089  1.00  0.00     0.000 C 
HETATM   11  C10 UNL     1      14.006   2.092  17.291  1.00  0.00     0.000 C 
HETATM   12  C11 UNL     1      14.456   3.510  17.426  1.00  0.00     0.000 C 
HETATM   13  C12 UNL     1      14.771   4.087  16.062  1.00  0.00     0.005 C 
ENDBRANCH   6   7
ENDBRANCH   5   6
BRANCH   1  14
HETATM   14  N1  UNL     1      19.255   1.498  11.438  1.00  0.00    -0.058 N 
ATOM     15  H13 UNL     1      19.619   1.079  10.582  1.00  0.00     0.276 HD
ATOM     16  H12 UNL     1      20.118   1.885  11.820  1.00  0.00     0.276 HD
ATOM     17  H11 UNL     1      18.878   0.780  12.056  1.00  0.00     0.276 HD
ENDBRANCH   1  14
TORSDOF 3
ENDMDL
