MODEL 1
REMARK VINA RESULT: -6.585458951      0.000      0.000
REMARK  3 active torsions:
REMARK  status: ('A' for Active; 'I' for Inactive)
REMARK    1  A    between atoms: C4_4  and  C5_5 
REMARK    2  A    between atoms: C5_5  and  N1_6 
REMARK    3  A    between atoms: N1_6  and  C6_9 
ROOT
HETATM    1  N1  UNL     1      16.964   1.185  14.291  1.00  0.00    -0.070 N 
ATOM      2  H11 UNL     1      16.161   0.595  14.506  1.00  0.00     0.277 HD
ATOM      3  H12 UNL     1      17.675   0.573  14.689  1.00  0.00     0.277 HD
ENDROOT
BRANCH   1   4
HETATM    4  C5  UNL     1      16.906   2.506  14.920  1.00  0.00     0.237 C 
BRANCH   4   5
HETATM    5  C4  UNL     1      16.164   2.544  16.202  1.00  0.00     0.011 C 
HETATM    6  C3  UNL     1      15.499   1.265  16.616  1.00  0.00     0.006 C 
HETATM    7  C2  UNL     1      15.356   1.319  18.138  1.00  0.00     0.000 C 
HETATM    8  C1  UNL     1      14.801   2.681  18.499  1.00  0.00     0.000 C 
HETATM    9  C12 UNL     1      14.142   3.360  17.328  1.00  0.00     0.000 C 
HETATM   10  C11 UNL     1      15.098   3.631  16.212  1.00  0.00     0.006 C 
ENDBRANCH   4   5
ENDBRANCH   1   4
BRANCH   1  11
HETATM   11  C6  UNL     1      17.135   1.429  12.896  1.00  0.00     0.190 C 
HETATM   12  C7  UNL     1      17.001   0.232  11.991  1.00  0.00     0.059 C 
HETATM   13  C8  UNL     1      16.552   0.649  10.603  1.00  0.00     0.169 C 
HETATM   14  O1  UNL     1      17.119   1.847  10.187  1.00  0.00    -0.391 OA
HETATM   15  C9  UNL     1      16.906   2.921  11.010  1.00  0.00     0.169 C 
HETATM   16  C10 UNL     1      16.256   2.520  12.332  1.00  0.00     0.059 C 
ENDBRANCH   1  11
TORSDOF 3
ENDMDL
MODEL 2
REMARK VINA RESULT: -6.469538582      0.488      1.325
REMARK  3 active torsions:
REMARK  status: ('A' for Active; 'I' for Inactive)
REMARK    1  A    between atoms: C4_4  and  C5_5 
REMARK    2  A    between atoms: C5_5  and  N1_6 
REMARK    3  A    between atoms: N1_6  and  C6_9 
ROOT
HETATM    1  N1  UNL     1      16.978   1.351  14.314  1.00  0.00    -0.070 N 
ATOM      2  H11 UNL     1      16.284   0.685  14.653  1.00  0.00     0.277 HD
ATOM      3  H12 UNL     1      17.799   0.771  14.487  1.00  0.00     0.277 HD
ENDROOT
BRANCH   1   4
HETATM    4  C5  UNL     1      16.987   2.616  15.051  1.00  0.00     0.237 C 
BRANCH   4   5
HETATM    5  C4  UNL     1      16.193   2.603  16.302  1.00  0.00     0.011 C 
HETATM    6  C3  UNL     1      15.520   1.307  16.642  1.00  0.00     0.006 C 
HETATM    7  C2  UNL     1      15.315   1.304  18.158  1.00  0.00     0.000 C 
HETATM    8  C1  UNL     1      14.736   2.650  18.545  1.00  0.00     0.000 C 
HETATM    9  C12 UNL     1      14.122   3.368  17.373  1.00  0.00     0.000 C 
HETATM   10  C11 UNL     1      15.121   3.684  16.308  1.00  0.00     0.006 C 
ENDBRANCH   4   5
ENDBRANCH   1   4
BRANCH   1  11
HETATM   11  C6  UNL     1      16.808   1.705  12.942  1.00  0.00     0.190 C 
HETATM   12  C7  UNL     1      17.395   3.027  12.521  1.00  0.00     0.059 C 
HETATM   13  C8  UNL     1      17.747   3.018  11.045  1.00  0.00     0.169 C 
HETATM   14  O1  UNL     1      16.826   2.322  10.273  1.00  0.00    -0.391 OA
HETATM   15  C9  UNL     1      16.612   1.019  10.635  1.00  0.00     0.169 C 
HETATM   16  C10 UNL     1      17.287   0.665  11.957  1.00  0.00     0.059 C 
ENDBRANCH   1  11
TORSDOF 3
ENDMDL
MODEL 3
REMARK VINA RESULT: -6.258615195      1.378      2.172
REMARK  3 active torsions:
REMARK  status: ('A' for Active; 'I' for Inactive)
REMARK    1  A    between atoms: C4_4  and  C5_5 
REMARK    2  A    between atoms: C5_5  and  N1_6 
REMARK    3  A    between atoms: N1_6  and  C6_9 
ROOT
HETATM    1  N1  UNL     1      17.663   2.858  13.338  1.00  0.00    -0.070 N 
ATOM      2  H11 UNL     1      17.998   2.292  14.117  1.00  0.00     0.277 HD
ATOM      3  H12 UNL     1      18.406   3.556  13.365  1.00  0.00     0.277 HD
ENDROOT
BRANCH   1   4
HETATM    4  C5  UNL     1      16.326   3.416  13.550  1.00  0.00     0.237 C 
BRANCH   4   5
HETATM    5  C4  UNL     1      15.728   3.094  14.867  1.00  0.00     0.011 C 
HETATM    6  C3  UNL     1      15.486   4.258  15.783  1.00  0.00     0.006 C 
HETATM    7  C2  UNL     1      14.364   3.839  16.735  1.00  0.00     0.000 C 
HETATM    8  C1  UNL     1      14.691   2.452  17.248  1.00  0.00     0.000 C 
HETATM    9  C12 UNL     1      16.146   2.104  17.073  1.00  0.00     0.000 C 
HETATM   10  C11 UNL     1      16.560   2.078  15.638  1.00  0.00     0.006 C 
ENDBRANCH   4   5
ENDBRANCH   1   4
BRANCH   1  11
HETATM   11  C6  UNL     1      17.592   2.146  12.103  1.00  0.00     0.190 C 
HETATM   12  C7  UNL     1      18.897   1.949  11.376  1.00  0.00     0.059 C 
HETATM   13  C8  UNL     1      18.849   0.706  10.506  1.00  0.00     0.169 C 
HETATM   14  O1  UNL     1      17.614   0.514   9.903  1.00  0.00    -0.391 OA
HETATM   15  C9  UNL     1      16.543   0.441  10.753  1.00  0.00     0.169 C 
HETATM   16  C10 UNL     1      16.916   0.799  12.189  1.00  0.00     0.059 C 
ENDBRANCH   1  11
TORSDOF 3
ENDMDL
MODEL 4
REMARK VINA RESULT: -6.122120726      1.019      1.139
REMARK  3 active torsions:
REMARK  status: ('A' for Active; 'I' for Inactive)
REMARK    1  A    between atoms: C4_4  and  C5_5 
REMARK    2  A    between atoms: C5_5  and  N1_6 
REMARK    3  A    between atoms: N1_6  and  C6_9 
ROOT
HETATM    1  N1  UNL     1      17.616   3.203  14.419  1.00  0.00    -0.070 N 
ATOM      2  H11 UNL     1      18.567   3.384  14.738  1.00  0.00     0.277 HD
ATOM      3  H12 UNL     1      17.208   4.077  14.749  1.00  0.00     0.277 HD
ENDROOT
BRANCH   1   4
HETATM    4  C5  UNL     1      17.013   2.010  15.017  1.00  0.00     0.237 C 
BRANCH   4   5
HETATM    5  C4  UNL     1      16.235   2.268  16.251  1.00  0.00     0.011 C 
HETATM    6  C3  UNL     1      15.423   1.118  16.770  1.00  0.00     0.006 C 
HETATM    7  C2  UNL     1      15.233   1.357  18.269  1.00  0.00     0.000 C 
HETATM    8  C1  UNL     1      14.814   2.801  18.453  1.00  0.00     0.000 C 
HETATM    9  C12 UNL     1      14.273   3.408  17.186  1.00  0.00     0.000 C 
HETATM   10  C11 UNL     1      15.291   3.452  16.093  1.00  0.00     0.006 C 
ENDBRANCH   4   5
ENDBRANCH   1   4
BRANCH   1  11
HETATM   11  C6  UNL     1      17.512   3.021  13.008  1.00  0.00     0.190 C 
HETATM   12  C7  UNL     1      16.797   1.777  12.550  1.00  0.00     0.059 C 
HETATM   13  C8  UNL     1      16.178   1.980  11.179  1.00  0.00     0.169 C 
HETATM   14  O1  UNL     1      16.970   2.747  10.336  1.00  0.00    -0.391 OA
HETATM   15  C9  UNL     1      17.308   3.989  10.804  1.00  0.00     0.169 C 
HETATM   16  C10 UNL     1      16.907   4.188  12.263  1.00  0.00     0.059 C 
ENDBRANCH   1  11
TORSDOF 3
ENDMDL
MODEL 5
REMARK VINA RESULT: -6.115475636      3.650      5.568
REMARK  3 active torsions:
REMARK  status: ('A' for Active; 'I' for Inactive)
REMARK    1  A    between atoms: C4_4  and  C5_5 
REMARK    2  A    between atoms: C5_5  and  N1_6 
REMARK    3  A    between atoms: N1_6  and  C6_9 
ROOT
HETATM    1  N1  UNL     1      15.265   4.576  15.545  1.00  0.00    -0.070 N 
ATOM      2  H11 UNL     1      14.414   5.130  15.451  1.00  0.00     0.277 HD
ATOM      3  H12 UNL     1      15.680   5.120  16.302  1.00  0.00     0.277 HD
ENDROOT
BRANCH   1   4
HETATM    4  C5  UNL     1      16.081   4.543  14.330  1.00  0.00     0.237 C 
BRANCH   4   5
HETATM    5  C4  UNL     1      17.106   5.610  14.249  1.00  0.00     0.011 C 
HETATM    6  C3  UNL     1      18.524   5.180  14.488  1.00  0.00     0.006 C 
HETATM    7  C2  UNL     1      19.416   6.200  13.777  1.00  0.00     0.000 C 
HETATM    8  C1  UNL     1      18.910   7.582  14.137  1.00  0.00     0.000 C 
HETATM    9  C12 UNL     1      18.052   7.574  15.375  1.00  0.00     0.000 C 
HETATM   10  C11 UNL     1      16.814   6.756  15.208  1.00  0.00     0.006 C 
ENDBRANCH   4   5
ENDBRANCH   1   4
BRANCH   1  11
HETATM   11  C6  UNL     1      15.025   3.212  15.887  1.00  0.00     0.190 C 
HETATM   12  C7  UNL     1      16.170   2.260  15.658  1.00  0.00     0.059 C 
HETATM   13  C8  UNL     1      16.084   1.073  16.599  1.00  0.00     0.169 C 
HETATM   14  O1  UNL     1      14.781   0.645  16.814  1.00  0.00    -0.391 OA
HETATM   15  C9  UNL     1      13.917   1.593  17.295  1.00  0.00     0.169 C 
HETATM   16  C10 UNL     1      14.530   2.991  17.296  1.00  0.00     0.059 C 
ENDBRANCH   1  11
TORSDOF 3
ENDMDL
