MODEL 1
REMARK VINA RESULT: -6.056582142      0.000      0.000
REMARK  4 active torsions:
REMARK  status: ('A' for Active; 'I' for Inactive)
REMARK    1  A    between atoms: N1_1  and  C1_5 
REMARK    2  A    between atoms: N2_10  and  C6_11 
REMARK    3  A    between atoms: C6_11  and  C7_12 
REMARK    4  A    between atoms: C7_12  and  C8_13 
ROOT
HETATM    1  C1  UNL     1      18.310   2.750  12.431  1.00  0.00     0.417 C 
HETATM    2  C2  UNL     1      18.542   2.637  10.932  1.00  0.00     0.065 C 
HETATM    3  C3  UNL     1      18.792   1.157  10.693  1.00  0.00     0.005 C 
HETATM    4  C4  UNL     1      17.728   0.420  11.475  1.00  0.00     0.030 C 
HETATM    5  C5  UNL     1      16.530   1.299  11.774  1.00  0.00     0.275 C 
HETATM    6  N2  UNL     1      16.889   2.435  12.625  1.00  0.00     0.119 N 
ENDROOT
BRANCH   6   7
HETATM    7  C6  UNL     1      16.640   2.133  14.024  1.00  0.00     0.275 C 
BRANCH   7   8
HETATM    8  C7  UNL     1      15.791   3.135  14.729  1.00  0.00     0.035 C 
BRANCH   8   9
HETATM    9  C8  UNL     1      15.903   2.932  16.226  1.00  0.00    -0.013 C 
HETATM   10  C9  UNL     1      16.330   1.553  16.627  1.00  0.00     0.005 C 
HETATM   11  C10 UNL     1      15.165   0.960  17.409  1.00  0.00     0.000 C 
HETATM   12  C11 UNL     1      14.004   1.864  17.169  1.00  0.00     0.000 C 
HETATM   13  C12 UNL     1      14.588   3.223  16.891  1.00  0.00     0.005 C 
ENDBRANCH   8   9
ENDBRANCH   7   8
ENDBRANCH   6   7
BRANCH   1  14
HETATM   14  N1  UNL     1      18.611   4.103  12.828  1.00  0.00    -0.048 N 
ATOM     15  H13 UNL     1      17.846   4.543  13.339  1.00  0.00     0.276 HD
ATOM     16  H12 UNL     1      19.314   4.150  13.566  1.00  0.00     0.276 HD
ATOM     17  H11 UNL     1      18.879   4.624  11.994  1.00  0.00     0.276 HD
ENDBRANCH   1  14
TORSDOF 4
ENDMDL
MODEL 2
REMARK VINA RESULT: -5.995953806      2.719      3.588
REMARK  4 active torsions:
REMARK  status: ('A' for Active; 'I' for Inactive)
REMARK    1  A    between atoms: N1_1  and  C1_5 
REMARK    2  A    between atoms: N2_10  and  C6_11 
REMARK    3  A    between atoms: C6_11  and  C7_12 
REMARK    4  A    between atoms: C7_12  and  C8_13 
ROOT
HETATM    1  C1  UNL     1      18.622   5.289  14.212  1.00  0.00     0.417 C 
HETATM    2  C2  UNL     1      18.901   6.776  14.366  1.00  0.00     0.065 C 
HETATM    3  C3  UNL     1      18.222   7.419  13.167  1.00  0.00     0.005 C 
HETATM    4  C4  UNL     1      16.851   6.788  13.074  1.00  0.00     0.030 C 
HETATM    5  C5  UNL     1      16.413   6.181  14.391  1.00  0.00     0.275 C 
HETATM    6  N2  UNL     1      17.293   5.084  14.802  1.00  0.00     0.119 N 
ENDROOT
BRANCH   6   7
HETATM    7  C6  UNL     1      16.758   3.803  14.375  1.00  0.00     0.275 C 
BRANCH   7   8
HETATM    8  C7  UNL     1      15.447   3.447  14.990  1.00  0.00     0.035 C 
BRANCH   8   9
HETATM    9  C8  UNL     1      15.656   3.053  16.437  1.00  0.00    -0.013 C 
HETATM   10  C9  UNL     1      16.223   1.679  16.623  1.00  0.00     0.005 C 
HETATM   11  C10 UNL     1      15.158   0.879  17.361  1.00  0.00     0.000 C 
HETATM   12  C11 UNL     1      13.911   1.694  17.299  1.00  0.00     0.000 C 
HETATM   13  C12 UNL     1      14.359   3.126  17.190  1.00  0.00     0.005 C 
ENDBRANCH   8   9
ENDBRANCH   7   8
ENDBRANCH   6   7
BRANCH   1  14
HETATM   14  N1  UNL     1      19.638   4.567  14.937  1.00  0.00    -0.048 N 
ATOM     15  H13 UNL     1      20.487   5.114  15.075  1.00  0.00     0.276 HD
ATOM     16  H12 UNL     1      19.401   4.431  15.919  1.00  0.00     0.276 HD
ATOM     17  H11 UNL     1      19.811   3.689  14.447  1.00  0.00     0.276 HD
ENDBRANCH   1  14
TORSDOF 4
ENDMDL
MODEL 3
REMARK VINA RESULT: -5.991944272      1.624      5.610
REMARK  4 active torsions:
REMARK  status: ('A' for Active; 'I' for Inactive)
REMARK    1  A    between atoms: N1_1  and  C1_5 
REMARK    2  A    between atoms: N2_10  and  C6_11 
REMARK    3  A    between atoms: C6_11  and  C7_12 
REMARK    4  A    between atoms: C7_12  and  C8_13 
ROOT
HETATM    1  C1  UNL     1      15.023   3.550  15.982  1.00  0.00     0.417 C 
HETATM    2  C2  UNL     1      14.968   3.331  17.485  1.00  0.00     0.065 C 
HETATM    3  C3  UNL     1      14.564   1.874  17.647  1.00  0.00     0.005 C 
HETATM    4  C4  UNL     1      15.422   1.092  16.677  1.00  0.00     0.030 C 
HETATM    5  C5  UNL     1      16.674   1.850  16.286  1.00  0.00     0.275 C 
HETATM    6  N2  UNL     1      16.358   3.091  15.575  1.00  0.00     0.119 N 
ENDROOT
BRANCH   6   7
HETATM    7  C6  UNL     1      16.391   2.888  14.137  1.00  0.00     0.275 C 
BRANCH   7   8
HETATM    8  C7  UNL     1      16.972   1.583  13.713  1.00  0.00     0.035 C 
BRANCH   8   9
HETATM    9  C8  UNL     1      16.891   1.458  12.206  1.00  0.00    -0.013 C 
HETATM   10  C9  UNL     1      16.970   0.049  11.702  1.00  0.00     0.005 C 
HETATM   11  C10 UNL     1      18.244  -0.032  10.871  1.00  0.00     0.000 C 
HETATM   12  C11 UNL     1      19.015   1.208  11.173  1.00  0.00     0.000 C 
HETATM   13  C12 UNL     1      17.994   2.245  11.558  1.00  0.00     0.005 C 
ENDBRANCH   8   9
ENDBRANCH   7   8
ENDBRANCH   6   7
BRANCH   1  14
HETATM   14  N1  UNL     1      14.848   4.958  15.729  1.00  0.00    -0.048 N 
ATOM     15  H13 UNL     1      13.996   5.162  15.207  1.00  0.00     0.276 HD
ATOM     16  H12 UNL     1      14.622   5.485  16.573  1.00  0.00     0.276 HD
ATOM     17  H11 UNL     1      15.687   5.301  15.262  1.00  0.00     0.276 HD
ENDBRANCH   1  14
TORSDOF 4
ENDMDL
MODEL 4
REMARK VINA RESULT: -5.963623656      1.080      1.429
REMARK  4 active torsions:
REMARK  status: ('A' for Active; 'I' for Inactive)
REMARK    1  A    between atoms: N1_1  and  C1_5 
REMARK    2  A    between atoms: N2_10  and  C6_11 
REMARK    3  A    between atoms: C6_11  and  C7_12 
REMARK    4  A    between atoms: C7_12  and  C8_13 
ROOT
HETATM    1  C1  UNL     1      18.567   1.940  11.775  1.00  0.00     0.417 C 
HETATM    2  C2  UNL     1      18.917   1.038  10.602  1.00  0.00     0.065 C 
HETATM    3  C3  UNL     1      18.282  -0.301  10.943  1.00  0.00     0.005 C 
HETATM    4  C4  UNL     1      16.882   0.011  11.424  1.00  0.00     0.030 C 
HETATM    5  C5  UNL     1      16.403   1.365  10.943  1.00  0.00     0.275 C 
HETATM    6  N2  UNL     1      17.224   2.453  11.478  1.00  0.00     0.119 N 
ENDROOT
BRANCH   6   7
HETATM    7  C6  UNL     1      16.631   3.005  12.684  1.00  0.00     0.275 C 
BRANCH   7   8
HETATM    8  C7  UNL     1      16.652   2.085  13.857  1.00  0.00     0.035 C 
BRANCH   8   9
HETATM    9  C8  UNL     1      16.792   2.891  15.131  1.00  0.00    -0.013 C 
HETATM   10  C9  UNL     1      17.039   2.065  16.356  1.00  0.00     0.005 C 
HETATM   11  C10 UNL     1      15.833   2.281  17.261  1.00  0.00     0.000 C 
HETATM   12  C11 UNL     1      14.800   2.953  16.422  1.00  0.00     0.000 C 
HETATM   13  C12 UNL     1      15.557   3.713  15.366  1.00  0.00     0.005 C 
ENDBRANCH   8   9
ENDBRANCH   7   8
ENDBRANCH   6   7
BRANCH   1  14
HETATM   14  N1  UNL     1      19.540   3.002  11.827  1.00  0.00    -0.048 N 
ATOM     15  H13 UNL     1      20.411   2.718  12.274  1.00  0.00     0.276 HD
ATOM     16  H12 UNL     1      19.924   3.229  10.910  1.00  0.00     0.276 HD
ATOM     17  H11 UNL     1      19.107   3.804  12.283  1.00  0.00     0.276 HD
ENDBRANCH   1  14
TORSDOF 4
ENDMDL
MODEL 5
REMARK VINA RESULT: -5.794587055      1.979      2.863
REMARK  4 active torsions:
REMARK  status: ('A' for Active; 'I' for Inactive)
REMARK    1  A    between atoms: N1_1  and  C1_5 
REMARK    2  A    between atoms: N2_10  and  C6_11 
REMARK    3  A    between atoms: C6_11  and  C7_12 
REMARK    4  A    between atoms: C7_12  and  C8_13 
ROOT
HETATM    1  C1  UNL     1      18.859   1.587  11.359  1.00  0.00     0.417 C 
HETATM    2  C2  UNL     1      18.620   0.487  10.336  1.00  0.00     0.065 C 
HETATM    3  C3  UNL     1      18.035  -0.664  11.140  1.00  0.00     0.005 C 
HETATM    4  C4  UNL     1      16.980  -0.054  12.036  1.00  0.00     0.030 C 
HETATM    5  C5  UNL     1      16.494   1.283  11.516  1.00  0.00     0.275 C 
HETATM    6  N2  UNL     1      17.569   2.278  11.488  1.00  0.00     0.119 N 
ENDROOT
BRANCH   6   7
HETATM    7  C6  UNL     1      17.562   3.082  12.698  1.00  0.00     0.275 C 
BRANCH   7   8
HETATM    8  C7  UNL     1      16.243   3.142  13.389  1.00  0.00     0.035 C 
BRANCH   8   9
HETATM    9  C8  UNL     1      16.421   3.740  14.770  1.00  0.00    -0.013 C 
HETATM   10  C9  UNL     1      15.160   4.279  15.372  1.00  0.00     0.005 C 
HETATM   11  C10 UNL     1      15.377   5.778  15.536  1.00  0.00     0.000 C 
HETATM   12  C11 UNL     1      16.600   6.107  14.748  1.00  0.00     0.000 C 
HETATM   13  C12 UNL     1      17.429   4.852  14.730  1.00  0.00     0.005 C 
ENDBRANCH   8   9
ENDBRANCH   7   8
ENDBRANCH   6   7
BRANCH   1  14
HETATM   14  N1  UNL     1      19.878   2.464  10.841  1.00  0.00    -0.048 N 
ATOM     15  H13 UNL     1      20.278   2.130   9.964  1.00  0.00     0.276 HD
ATOM     16  H12 UNL     1      19.501   3.345  10.492  1.00  0.00     0.276 HD
ATOM     17  H11 UNL     1      20.580   2.596  11.569  1.00  0.00     0.276 HD
ENDBRANCH   1  14
TORSDOF 4
ENDMDL
