MODEL 1
REMARK VINA RESULT: -5.908142971      0.000      0.000
REMARK  4 active torsions:
REMARK  status: ('A' for Active; 'I' for Inactive)
REMARK    1  A    between atoms: O1_1  and  C1_3 
REMARK    2  A    between atoms: C1_3  and  C2_4 
REMARK    3  A    between atoms: C2_4  and  C3_5 
REMARK    4  A    between atoms: C3_5  and  N1_6 
ROOT
HETATM    1  C3  UNL     1      16.477   2.999  15.141  1.00  0.00     0.029 C 
HETATM    2  C8  UNL     1      15.252   3.864  15.314  1.00  0.00     0.031 C 
HETATM    3  C9  UNL     1      15.375   5.242  14.755  1.00  0.00     0.002 C 
HETATM    4  C10 UNL     1      16.612   5.985  15.130  1.00  0.00     0.000 C 
HETATM    5  C11 UNL     1      17.764   5.096  14.632  1.00  0.00     0.002 C 
HETATM    6  C12 UNL     1      17.701   3.883  15.481  1.00  0.00     0.031 C 
ENDROOT
BRANCH   1   7
HETATM    7  C2  UNL     1      16.567   1.927  16.201  1.00  0.00     0.056 C 
BRANCH   7   8
HETATM    8  C1  UNL     1      15.305   1.480  16.815  1.00  0.00     0.166 C 
BRANCH   8   9
HETATM    9  O1  UNL     1      15.226   0.195  17.239  1.00  0.00    -0.401 OA
ATOM     10  H1  UNL     1      14.691  -0.408  16.735  1.00  0.00     0.209 HD
ENDBRANCH   8   9
ENDBRANCH   7   8
ENDBRANCH   1   7
BRANCH   1  11
HETATM   11  N1  UNL     1      16.659   2.614  13.824  1.00  0.00    -0.404 N 
HETATM   12  C4  UNL     1      17.029   1.305  13.468  1.00  0.00     0.117 C 
HETATM   13  C5  UNL     1      17.547   1.513  12.037  1.00  0.00     0.021 C 
HETATM   14  C6  UNL     1      16.937   2.825  11.599  1.00  0.00     0.021 C 
HETATM   15  C7  UNL     1      15.930   3.091  12.740  1.00  0.00     0.117 C 
ENDBRANCH   1  11
TORSDOF 4
ENDMDL
MODEL 2
REMARK VINA RESULT: -5.628969977      1.127      1.252
REMARK  4 active torsions:
REMARK  status: ('A' for Active; 'I' for Inactive)
REMARK    1  A    between atoms: O1_1  and  C1_3 
REMARK    2  A    between atoms: C1_3  and  C2_4 
REMARK    3  A    between atoms: C2_4  and  C3_5 
REMARK    4  A    between atoms: C3_5  and  N1_6 
ROOT
HETATM    1  C3  UNL     1      16.524   3.672  14.484  1.00  0.00     0.029 C 
HETATM    2  C8  UNL     1      15.660   4.903  14.348  1.00  0.00     0.031 C 
HETATM    3  C9  UNL     1      16.395   6.144  13.966  1.00  0.00     0.002 C 
HETATM    4  C10 UNL     1      17.624   6.437  14.756  1.00  0.00     0.000 C 
HETATM    5  C11 UNL     1      18.517   5.201  14.560  1.00  0.00     0.002 C 
HETATM    6  C12 UNL     1      17.798   4.102  15.248  1.00  0.00     0.031 C 
ENDROOT
BRANCH   1   7
HETATM    7  C2  UNL     1      15.923   2.660  15.431  1.00  0.00     0.056 C 
BRANCH   7   8
HETATM    8  C1  UNL     1      16.788   2.151  16.510  1.00  0.00     0.166 C 
BRANCH   8   9
HETATM    9  O1  UNL     1      17.244   0.879  16.411  1.00  0.00    -0.401 OA
ATOM     10  H1  UNL     1      16.940   0.353  15.680  1.00  0.00     0.209 HD
ENDBRANCH   8   9
ENDBRANCH   7   8
ENDBRANCH   1   7
BRANCH   1  11
HETATM   11  N1  UNL     1      16.971   3.213  13.257  1.00  0.00    -0.404 N 
HETATM   12  C4  UNL     1      17.049   1.844  12.950  1.00  0.00     0.117 C 
HETATM   13  C5  UNL     1      18.002   1.856  11.745  1.00  0.00     0.021 C 
HETATM   14  C6  UNL     1      17.939   3.273  11.224  1.00  0.00     0.021 C 
HETATM   15  C7  UNL     1      16.757   3.846  12.037  1.00  0.00     0.117 C 
ENDBRANCH   1  11
TORSDOF 4
ENDMDL
MODEL 3
REMARK VINA RESULT: -5.466489461      2.155      3.973
REMARK  4 active torsions:
REMARK  status: ('A' for Active; 'I' for Inactive)
REMARK    1  A    between atoms: O1_1  and  C1_3 
REMARK    2  A    between atoms: C1_3  and  C2_4 
REMARK    3  A    between atoms: C2_4  and  C3_5 
REMARK    4  A    between atoms: C3_5  and  N1_6 
ROOT
HETATM    1  C3  UNL     1      17.142   4.544  13.305  1.00  0.00     0.029 C 
HETATM    2  C8  UNL     1      18.650   4.487  13.372  1.00  0.00     0.031 C 
HETATM    3  C9  UNL     1      19.259   5.311  14.457  1.00  0.00     0.002 C 
HETATM    4  C10 UNL     1      18.772   6.716  14.554  1.00  0.00     0.000 C 
HETATM    5  C11 UNL     1      17.254   6.587  14.764  1.00  0.00     0.002 C 
HETATM    6  C12 UNL     1      16.742   6.027  13.491  1.00  0.00     0.031 C 
ENDROOT
BRANCH   1   7
HETATM    7  C2  UNL     1      16.626   4.258  11.915  1.00  0.00     0.056 C 
BRANCH   7   8
HETATM    8  C1  UNL     1      16.711   2.866  11.439  1.00  0.00     0.166 C 
BRANCH   8   9
HETATM    9  O1  UNL     1      15.560   2.247  11.080  1.00  0.00    -0.401 OA
ATOM     10  H1  UNL     1      15.389   2.130  10.152  1.00  0.00     0.209 HD
ENDBRANCH   8   9
ENDBRANCH   7   8
ENDBRANCH   1   7
BRANCH   1  11
HETATM   11  N1  UNL     1      16.550   3.870  14.359  1.00  0.00    -0.404 N 
HETATM   12  C4  UNL     1      15.177   3.974  14.641  1.00  0.00     0.117 C 
HETATM   13  C5  UNL     1      15.124   3.473  16.091  1.00  0.00     0.021 C 
HETATM   14  C6  UNL     1      16.401   2.683  16.267  1.00  0.00     0.021 C 
HETATM   15  C7  UNL     1      16.918   2.609  14.814  1.00  0.00     0.117 C 
ENDBRANCH   1  11
TORSDOF 4
ENDMDL
MODEL 4
REMARK VINA RESULT: -5.393302159      2.099      3.736
REMARK  4 active torsions:
REMARK  status: ('A' for Active; 'I' for Inactive)
REMARK    1  A    between atoms: O1_1  and  C1_3 
REMARK    2  A    between atoms: C1_3  and  C2_4 
REMARK    3  A    between atoms: C2_4  and  C3_5 
REMARK    4  A    between atoms: C3_5  and  N1_6 
ROOT
HETATM    1  C3  UNL     1      16.333   3.706  13.811  1.00  0.00     0.029 C 
HETATM    2  C8  UNL     1      15.004   3.941  14.489  1.00  0.00     0.031 C 
HETATM    3  C9  UNL     1      15.041   3.868  15.979  1.00  0.00     0.002 C 
HETATM    4  C10 UNL     1      15.731   2.677  16.552  1.00  0.00     0.000 C 
HETATM    5  C11 UNL     1      17.158   2.743  15.980  1.00  0.00     0.002 C 
HETATM    6  C12 UNL     1      16.994   2.504  14.527  1.00  0.00     0.031 C 
ENDROOT
BRANCH   1   7
HETATM    7  C2  UNL     1      16.166   3.174  12.407  1.00  0.00     0.056 C 
BRANCH   7   8
HETATM    8  C1  UNL     1      16.546   1.771  12.169  1.00  0.00     0.166 C 
BRANCH   8   9
HETATM    9  O1  UNL     1      16.152   1.196  11.006  1.00  0.00    -0.401 OA
ATOM     10  H1  UNL     1      15.632   0.402  11.056  1.00  0.00     0.209 HD
ENDBRANCH   8   9
ENDBRANCH   7   8
ENDBRANCH   1   7
BRANCH   1  11
HETATM   11  N1  UNL     1      17.204   4.766  13.994  1.00  0.00    -0.404 N 
HETATM   12  C4  UNL     1      18.512   4.761  13.480  1.00  0.00     0.117 C 
HETATM   13  C5  UNL     1      19.175   5.862  14.322  1.00  0.00     0.021 C 
HETATM   14  C6  UNL     1      18.021   6.682  14.851  1.00  0.00     0.021 C 
HETATM   15  C7  UNL     1      16.838   6.107  14.040  1.00  0.00     0.117 C 
ENDBRANCH   1  11
TORSDOF 4
ENDMDL
MODEL 5
REMARK VINA RESULT: -5.302704370      2.641      3.696
REMARK  4 active torsions:
REMARK  status: ('A' for Active; 'I' for Inactive)
REMARK    1  A    between atoms: O1_1  and  C1_3 
REMARK    2  A    between atoms: C1_3  and  C2_4 
REMARK    3  A    between atoms: C2_4  and  C3_5 
REMARK    4  A    between atoms: C3_5  and  N1_6 
ROOT
HETATM    1  C3  UNL     1      17.535   4.310  14.455  1.00  0.00     0.029 C 
HETATM    2  C8  UNL     1      17.206   3.461  15.659  1.00  0.00     0.031 C 
HETATM    3  C9  UNL     1      15.747   3.258  15.901  1.00  0.00     0.002 C 
HETATM    4  C10 UNL     1      14.908   4.489  15.868  1.00  0.00     0.000 C 
HETATM    5  C11 UNL     1      15.145   5.084  14.470  1.00  0.00     0.002 C 
HETATM    6  C12 UNL     1      16.563   5.513  14.476  1.00  0.00     0.031 C 
ENDROOT
BRANCH   1   7
HETATM    7  C2  UNL     1      18.875   4.994  14.594  1.00  0.00     0.056 C 
BRANCH   7   8
HETATM    8  C1  UNL     1      18.903   6.459  14.441  1.00  0.00     0.166 C 
BRANCH   8   9
HETATM    9  O1  UNL     1      19.658   6.977  13.442  1.00  0.00    -0.401 OA
ATOM     10  H1  UNL     1      20.343   7.594  13.676  1.00  0.00     0.209 HD
ENDBRANCH   8   9
ENDBRANCH   7   8
ENDBRANCH   1   7
BRANCH   1  11
HETATM   11  N1  UNL     1      17.275   3.650  13.267  1.00  0.00    -0.404 N 
HETATM   12  C4  UNL     1      17.776   4.098  12.033  1.00  0.00     0.117 C 
HETATM   13  C5  UNL     1      16.858   3.362  11.045  1.00  0.00     0.021 C 
HETATM   14  C6  UNL     1      16.285   2.212  11.842  1.00  0.00     0.021 C 
HETATM   15  C7  UNL     1      17.143   2.273  13.126  1.00  0.00     0.117 C 
ENDBRANCH   1  11
TORSDOF 4
ENDMDL
