MODEL 1
REMARK VINA RESULT: -6.772437518      0.000      0.000
REMARK  3 active torsions:
REMARK  status: ('A' for Active; 'I' for Inactive)
REMARK    1  A    between atoms: C4_4  and  C5_5 
REMARK    2  A    between atoms: C5_5  and  C6_6 
REMARK    3  A    between atoms: C6_6  and  N1_7 
ROOT
HETATM    1  C6  UNL     1      17.313   4.141  14.187  1.00  0.00     0.123 C 
ENDROOT
BRANCH   1   2
HETATM    2  C5  UNL     1      16.401   4.472  15.338  1.00  0.00     0.024 C 
BRANCH   2   3
HETATM    3  C4  UNL     1      15.568   3.301  15.787  1.00  0.00    -0.013 C 
HETATM    4  C3  UNL     1      14.543   3.650  16.815  1.00  0.00     0.005 C 
HETATM    5  C2  UNL     1      14.599   2.802  18.051  1.00  0.00     0.000 C 
HETATM    6  C1  UNL     1      14.736   1.337  17.758  1.00  0.00     0.000 C 
HETATM    7  C11 UNL     1      15.815   1.014  16.769  1.00  0.00     0.000 C 
HETATM    8  C10 UNL     1      16.535   2.243  16.304  1.00  0.00     0.005 C 
ENDBRANCH   2   3
ENDBRANCH   1   2
BRANCH   1   9
HETATM    9  N1  UNL     1      16.515   3.748  13.072  1.00  0.00    -0.356 N 
HETATM   10  C7  UNL     1      16.516   2.594  12.525  1.00  0.00     0.215 C 
HETATM   11  N2  UNL     1      17.313   1.498  12.929  1.00  0.00    -0.354 N 
HETATM   12  O1  UNL     1      15.766   2.164  11.450  1.00  0.00    -0.321 OA
HETATM   13  C8  UNL     1      17.025   0.362  12.063  1.00  0.00     0.150 C 
ATOM     14  H2  UNL     1      17.980   1.501  13.700  1.00  0.00     0.163 HD
HETATM   15  C9  UNL     1      16.471   1.081  10.833  1.00  0.00     0.198 C 
ATOM     16  H1  UNL     1      15.888   4.449  12.678  1.00  0.00     0.163 HD
ENDBRANCH   1   9
TORSDOF 3
ENDMDL
MODEL 2
REMARK VINA RESULT: -6.704589179      1.152      1.152
REMARK  3 active torsions:
REMARK  status: ('A' for Active; 'I' for Inactive)
REMARK    1  A    between atoms: C4_4  and  C5_5 
REMARK    2  A    between atoms: C5_5  and  C6_6 
REMARK    3  A    between atoms: C6_6  and  N1_7 
ROOT
HETATM    1  C6  UNL     1      17.321   3.801  13.644  1.00  0.00     0.123 C 
ENDROOT
BRANCH   1   2
HETATM    2  C5  UNL     1      17.118   3.805  15.136  1.00  0.00     0.024 C 
BRANCH   2   3
HETATM    3  C4  UNL     1      15.954   2.958  15.575  1.00  0.00    -0.013 C 
HETATM    4  C3  UNL     1      14.812   3.743  16.130  1.00  0.00     0.005 C 
HETATM    5  C2  UNL     1      14.361   3.296  17.489  1.00  0.00     0.000 C 
HETATM    6  C1  UNL     1      14.228   1.806  17.608  1.00  0.00     0.000 C 
HETATM    7  C11 UNL     1      15.416   1.049  17.099  1.00  0.00     0.000 C 
HETATM    8  C10 UNL     1      16.492   1.963  16.596  1.00  0.00     0.005 C 
ENDBRANCH   2   3
ENDBRANCH   1   2
BRANCH   1   9
HETATM    9  N1  UNL     1      16.700   2.636  13.103  1.00  0.00    -0.356 N 
HETATM   10  C7  UNL     1      17.253   1.793  12.320  1.00  0.00     0.215 C 
HETATM   11  N2  UNL     1      18.584   1.866  11.847  1.00  0.00    -0.354 N 
HETATM   12  O1  UNL     1      16.700   0.654  11.771  1.00  0.00    -0.321 OA
HETATM   13  C8  UNL     1      18.841   0.720  10.983  1.00  0.00     0.150 C 
ATOM     14  H2  UNL     1      19.255   2.599  12.074  1.00  0.00     0.163 HD
HETATM   15  C9  UNL     1      17.416   0.359  10.567  1.00  0.00     0.198 C 
ATOM     16  H1  UNL     1      15.731   2.461  13.366  1.00  0.00     0.163 HD
ENDBRANCH   1   9
TORSDOF 3
ENDMDL
MODEL 3
REMARK VINA RESULT: -6.617518341      0.490      1.387
REMARK  3 active torsions:
REMARK  status: ('A' for Active; 'I' for Inactive)
REMARK    1  A    between atoms: C4_4  and  C5_5 
REMARK    2  A    between atoms: C5_5  and  C6_6 
REMARK    3  A    between atoms: C6_6  and  N1_7 
ROOT
HETATM    1  C6  UNL     1      17.312   4.029  14.112  1.00  0.00     0.123 C 
ENDROOT
BRANCH   1   2
HETATM    2  C5  UNL     1      16.414   4.567  15.194  1.00  0.00     0.024 C 
BRANCH   2   3
HETATM    3  C4  UNL     1      16.180   3.584  16.309  1.00  0.00    -0.013 C 
HETATM    4  C3  UNL     1      17.029   2.358  16.221  1.00  0.00     0.005 C 
HETATM    5  C2  UNL     1      16.258   1.072  16.271  1.00  0.00     0.000 C 
HETATM    6  C1  UNL     1      15.215   1.049  17.349  1.00  0.00     0.000 C 
HETATM    7  C11 UNL     1      14.341   2.265  17.374  1.00  0.00     0.000 C 
HETATM    8  C10 UNL     1      14.697   3.235  16.288  1.00  0.00     0.005 C 
ENDBRANCH   2   3
ENDBRANCH   1   2
BRANCH   1   9
HETATM    9  N1  UNL     1      16.503   3.629  13.007  1.00  0.00    -0.356 N 
HETATM   10  C7  UNL     1      16.512   2.478  12.455  1.00  0.00     0.215 C 
HETATM   11  N2  UNL     1      17.329   1.391  12.844  1.00  0.00    -0.354 N 
HETATM   12  O1  UNL     1      15.752   2.041  11.389  1.00  0.00    -0.321 OA
HETATM   13  C8  UNL     1      17.044   0.254  11.977  1.00  0.00     0.150 C 
ATOM     14  H2  UNL     1      18.006   1.400  13.606  1.00  0.00     0.163 HD
HETATM   15  C9  UNL     1      16.463   0.970  10.759  1.00  0.00     0.198 C 
ATOM     16  H1  UNL     1      15.862   4.324  12.624  1.00  0.00     0.163 HD
ENDBRANCH   1   9
TORSDOF 3
ENDMDL
MODEL 4
REMARK VINA RESULT: -6.529670644      1.314      1.970
REMARK  3 active torsions:
REMARK  status: ('A' for Active; 'I' for Inactive)
REMARK    1  A    between atoms: C4_4  and  C5_5 
REMARK    2  A    between atoms: C5_5  and  C6_6 
REMARK    3  A    between atoms: C6_6  and  N1_7 
ROOT
HETATM    1  C6  UNL     1      16.653   3.299  13.554  1.00  0.00     0.123 C 
ENDROOT
BRANCH   1   2
HETATM    2  C5  UNL     1      17.197   3.976  14.783  1.00  0.00     0.024 C 
BRANCH   2   3
HETATM    3  C4  UNL     1      16.634   3.419  16.063  1.00  0.00    -0.013 C 
HETATM    4  C3  UNL     1      16.988   1.989  16.305  1.00  0.00     0.005 C 
HETATM    5  C2  UNL     1      15.810   1.100  16.572  1.00  0.00     0.000 C 
HETATM    6  C1  UNL     1      14.833   1.689  17.547  1.00  0.00     0.000 C 
HETATM    7  C11 UNL     1      14.450   3.105  17.241  1.00  0.00     0.000 C 
HETATM    8  C10 UNL     1      15.124   3.614  16.003  1.00  0.00     0.005 C 
ENDBRANCH   2   3
ENDBRANCH   1   2
BRANCH   1   9
HETATM    9  N1  UNL     1      17.724   2.628  12.892  1.00  0.00    -0.356 N 
HETATM   10  C7  UNL     1      17.599   1.756  11.968  1.00  0.00     0.215 C 
HETATM   11  N2  UNL     1      16.371   1.299  11.434  1.00  0.00    -0.354 N 
HETATM   12  O1  UNL     1      18.598   1.081  11.296  1.00  0.00    -0.321 OA
HETATM   13  C8  UNL     1      16.646   0.312  10.397  1.00  0.00     0.150 C 
ATOM     14  H2  UNL     1      15.445   1.609  11.727  1.00  0.00     0.163 HD
HETATM   15  C9  UNL     1      18.043  -0.147  10.812  1.00  0.00     0.198 C 
ATOM     16  H1  UNL     1      18.672   2.865  13.183  1.00  0.00     0.163 HD
ENDBRANCH   1   9
TORSDOF 3
ENDMDL
MODEL 5
REMARK VINA RESULT: -6.383852018      1.680      2.181
REMARK  3 active torsions:
REMARK  status: ('A' for Active; 'I' for Inactive)
REMARK    1  A    between atoms: C4_4  and  C5_5 
REMARK    2  A    between atoms: C5_5  and  C6_6 
REMARK    3  A    between atoms: C6_6  and  N1_7 
ROOT
HETATM    1  C6  UNL     1      16.362   3.182  13.450  1.00  0.00     0.123 C 
ENDROOT
BRANCH   1   2
HETATM    2  C5  UNL     1      17.095   3.822  14.598  1.00  0.00     0.024 C 
BRANCH   2   3
HETATM    3  C4  UNL     1      16.598   3.366  15.944  1.00  0.00    -0.013 C 
HETATM    4  C3  UNL     1      16.945   1.951  16.266  1.00  0.00     0.005 C 
HETATM    5  C2  UNL     1      15.771   1.105  16.662  1.00  0.00     0.000 C 
HETATM    6  C1  UNL     1      14.861   1.779  17.646  1.00  0.00     0.000 C 
HETATM    7  C11 UNL     1      14.482   3.177  17.264  1.00  0.00     0.000 C 
HETATM    8  C10 UNL     1      15.090   3.585  15.956  1.00  0.00     0.005 C 
ENDBRANCH   2   3
ENDBRANCH   1   2
BRANCH   1   9
HETATM    9  N1  UNL     1      16.991   3.575  12.232  1.00  0.00    -0.356 N 
HETATM   10  C7  UNL     1      17.863   2.897  11.591  1.00  0.00     0.215 C 
HETATM   11  N2  UNL     1      18.362   1.632  11.978  1.00  0.00    -0.354 N 
HETATM   12  O1  UNL     1      18.499   3.230  10.412  1.00  0.00    -0.321 OA
HETATM   13  C8  UNL     1      19.334   1.186  10.987  1.00  0.00     0.150 C 
ATOM     14  H2  UNL     1      18.087   1.115  12.813  1.00  0.00     0.163 HD
HETATM   15  C9  UNL     1      19.744   2.525  10.376  1.00  0.00     0.198 C 
ATOM     16  H1  UNL     1      16.720   4.476  11.839  1.00  0.00     0.163 HD
ENDBRANCH   1   9
TORSDOF 3
ENDMDL
