MODEL 1
REMARK VINA RESULT: -9.952686346      0.000      0.000
REMARK  13 active torsions:
REMARK  status: ('A' for Active; 'I' for Inactive)
REMARK    1  A    between atoms: C2_2  and  C4_4 
REMARK    2  A    between atoms: C4_4  and  C5_6 
REMARK    3  A    between atoms: C5_6  and  C7_8 
REMARK    4  A    between atoms: C7_8  and  C9_10 
REMARK    5  A    between atoms: C10_11  and  C11_12 
REMARK    6  A    between atoms: C12_13  and  C14_15 
REMARK    7  A    between atoms: C15_16  and  C16_17 
REMARK    8  A    between atoms: C22_26  and  C23_27 
REMARK    9  A    between atoms: C23_27  and  C24_28 
REMARK   10  A    between atoms: C28_32  and  O5_33 
REMARK   11  A    between atoms: C29_35  and  C30_36 
REMARK   12  A    between atoms: C30_36  and  C31_37 
REMARK   13  A    between atoms: C35_41  and  O6_42 
ROOT
HETATM    1  C16 UNL     1      35.383  23.048   6.806  1.00  0.00     0.294 C 
HETATM    2  O2  UNL     1      36.230  23.700   7.662  1.00  0.00    -0.322 OA
HETATM    3  C17 UNL     1      36.706  24.914   7.251  1.00  0.00     0.166 C 
HETATM    4  C18 UNL     1      35.586  25.936   7.355  1.00  0.00     0.078 C 
HETATM    5  C19 UNL     1      37.762  25.347   8.265  1.00  0.00     0.078 C 
HETATM    6  O3  UNL     1      37.185  24.963   5.956  1.00  0.00    -0.295 OA
HETATM    7  C20 UNL     1      36.747  23.922   5.161  1.00  0.00     0.303 C 
HETATM    8  O4  UNL     1      36.703  24.362   3.815  1.00  0.00    -0.288 OA
HETATM    9  C21 UNL     1      37.874  24.698   3.122  1.00  0.00     0.101 A 
HETATM   10  C22 UNL     1      37.837  25.527   2.021  1.00  0.00     0.014 A 
HETATM   11  C28 UNL     1      39.021  25.861   1.332  1.00  0.00     0.084 A 
HETATM   12  C29 UNL     1      40.187  25.334   1.795  1.00  0.00     0.013 A 
HETATM   13  C35 UNL     1      40.220  24.496   2.909  1.00  0.00     0.091 A 
HETATM   14  C36 UNL     1      39.047  24.163   3.596  1.00  0.00     0.078 A 
HETATM   15  C37 UNL     1      39.046  23.295   4.759  1.00  0.00     0.176 C 
HETATM   16  O7  UNL     1      40.141  23.032   5.318  1.00  0.00    -0.291 OA
HETATM   17  C38 UNL     1      37.747  22.760   5.231  1.00  0.00     0.150 C 
HETATM   18  C39 UNL     1      37.269  21.722   4.246  1.00  0.00     0.027 C 
HETATM   19  O8  UNL     1      35.517  23.432   5.488  1.00  0.00    -0.297 OA
ENDROOT
BRANCH   1  20
HETATM   20  C15 UNL     1      33.958  23.071   7.282  1.00  0.00     0.034 C 
HETATM   21  C14 UNL     1      33.735  22.889   8.577  1.00  0.00     0.007 C 
BRANCH  21  22
HETATM   22  C12 UNL     1      32.427  22.882   9.199  1.00  0.00    -0.062 C 
HETATM   23  C11 UNL     1      32.303  23.336  10.434  1.00  0.00     0.006 C 
HETATM   24  C13 UNL     1      31.213  22.382   8.515  1.00  0.00     0.048 C 
BRANCH  23  25
HETATM   25  C10 UNL     1      31.016  23.347  11.104  1.00  0.00    -0.003 C 
HETATM   26  C9  UNL     1      30.925  23.687  12.395  1.00  0.00    -0.022 C 
BRANCH  26  27
HETATM   27  C7  UNL     1      29.608  23.685  13.035  1.00  0.00     0.015 C 
HETATM   28  C8  UNL     1      29.519  24.791  14.081  1.00  0.00     0.015 C 
BRANCH  27  29
HETATM   29  C5  UNL     1      29.261  22.401  13.721  1.00  0.00     0.063 C 
HETATM   30  C6  UNL     1      29.902  22.330  15.103  1.00  0.00     0.019 C 
BRANCH  29  31
HETATM   31  C4  UNL     1      27.820  22.145  13.847  1.00  0.00     0.158 C 
HETATM   32  O1  UNL     1      26.997  23.076  13.671  1.00  0.00    -0.292 OA
BRANCH  31  33
HETATM   33  C2  UNL     1      27.312  20.805  14.177  1.00  0.00    -0.025 C 
HETATM   34  C1  UNL     1      26.000  20.572  14.220  1.00  0.00     0.022 C 
HETATM   35  C3  UNL     1      28.245  19.686  14.466  1.00  0.00     0.051 C 
ENDBRANCH  31  33
ENDBRANCH  29  31
ENDBRANCH  27  29
ENDBRANCH  26  27
ENDBRANCH  23  25
ENDBRANCH  21  22
ENDBRANCH   1  20
BRANCH  10  36
HETATM   36  C23 UNL     1      36.541  26.073   1.548  1.00  0.00     0.072 C 
BRANCH  36  37
HETATM   37  C24 UNL     1      36.214  27.403   2.114  1.00  0.00    -0.020 C 
HETATM   38  C25 UNL     1      35.958  28.466   1.364  1.00  0.00    -0.091 C 
HETATM   39  C26 UNL     1      35.959  28.488  -0.109  1.00  0.00     0.042 C 
HETATM   40  C27 UNL     1      35.637  29.769   2.058  1.00  0.00     0.042 C 
ENDBRANCH  36  37
ENDBRANCH  10  36
BRANCH  11  41
HETATM   41  O5  UNL     1      38.901  26.700   0.235  1.00  0.00    -0.359 OA
ATOM     42  H5  UNL     1      39.653  27.237   0.015  1.00  0.00     0.217 HD
ENDBRANCH  11  41
BRANCH  13  43
HETATM   43  O6  UNL     1      41.369  23.934   3.422  1.00  0.00    -0.359 OA
ATOM     44  H6  UNL     1      41.927  24.353   4.065  1.00  0.00     0.217 HD
ENDBRANCH  13  43
BRANCH  12  45
HETATM   45  C30 UNL     1      41.478  25.618   1.136  1.00  0.00     0.072 C 
BRANCH  45  46
HETATM   46  C31 UNL     1      41.724  24.632   0.045  1.00  0.00    -0.020 C 
HETATM   47  C32 UNL     1      42.789  23.875  -0.084  1.00  0.00    -0.091 C 
HETATM   48  C33 UNL     1      43.891  23.943   0.910  1.00  0.00     0.042 C 
HETATM   49  C34 UNL     1      42.877  22.940  -1.247  1.00  0.00     0.042 C 
ENDBRANCH  45  46
ENDBRANCH  12  45
TORSDOF 13
ENDMDL
MODEL 2
REMARK VINA RESULT: -9.950725144      1.058      1.908
REMARK  13 active torsions:
REMARK  status: ('A' for Active; 'I' for Inactive)
REMARK    1  A    between atoms: C2_2  and  C4_4 
REMARK    2  A    between atoms: C4_4  and  C5_6 
REMARK    3  A    between atoms: C5_6  and  C7_8 
REMARK    4  A    between atoms: C7_8  and  C9_10 
REMARK    5  A    between atoms: C10_11  and  C11_12 
REMARK    6  A    between atoms: C12_13  and  C14_15 
REMARK    7  A    between atoms: C15_16  and  C16_17 
REMARK    8  A    between atoms: C22_26  and  C23_27 
REMARK    9  A    between atoms: C23_27  and  C24_28 
REMARK   10  A    between atoms: C28_32  and  O5_33 
REMARK   11  A    between atoms: C29_35  and  C30_36 
REMARK   12  A    between atoms: C30_36  and  C31_37 
REMARK   13  A    between atoms: C35_41  and  O6_42 
ROOT
HETATM    1  C16 UNL     1      35.340  23.020   6.879  1.00  0.00     0.294 C 
HETATM    2  O2  UNL     1      36.190  23.660   7.741  1.00  0.00    -0.322 OA
HETATM    3  C17 UNL     1      36.686  24.867   7.334  1.00  0.00     0.166 C 
HETATM    4  C18 UNL     1      35.579  25.905   7.428  1.00  0.00     0.078 C 
HETATM    5  C19 UNL     1      37.740  25.286   8.355  1.00  0.00     0.078 C 
HETATM    6  O3  UNL     1      37.175  24.909   6.042  1.00  0.00    -0.295 OA
HETATM    7  C20 UNL     1      36.729  23.874   5.244  1.00  0.00     0.303 C 
HETATM    8  O4  UNL     1      36.702  24.313   3.897  1.00  0.00    -0.288 OA
HETATM    9  C21 UNL     1      37.883  24.632   3.214  1.00  0.00     0.101 A 
HETATM   10  C22 UNL     1      37.866  25.461   2.112  1.00  0.00     0.014 A 
HETATM   11  C28 UNL     1      39.060  25.777   1.432  1.00  0.00     0.084 A 
HETATM   12  C29 UNL     1      40.215  25.234   1.904  1.00  0.00     0.013 A 
HETATM   13  C35 UNL     1      40.227  24.397   3.019  1.00  0.00     0.091 A 
HETATM   14  C36 UNL     1      39.044  24.081   3.698  1.00  0.00     0.078 A 
HETATM   15  C37 UNL     1      39.022  23.214   4.861  1.00  0.00     0.176 C 
HETATM   16  O7  UNL     1      40.109  22.936   5.429  1.00  0.00    -0.291 OA
HETATM   17  C38 UNL     1      37.712  22.698   5.322  1.00  0.00     0.150 C 
HETATM   18  C39 UNL     1      37.227  21.665   4.335  1.00  0.00     0.027 C 
HETATM   19  O8  UNL     1      35.490  23.401   5.562  1.00  0.00    -0.297 OA
ENDROOT
BRANCH   1  20
HETATM   20  C15 UNL     1      33.912  23.063   7.344  1.00  0.00     0.034 C 
HETATM   21  C14 UNL     1      33.678  22.906   8.640  1.00  0.00     0.007 C 
BRANCH  21  22
HETATM   22  C12 UNL     1      32.365  22.921   9.253  1.00  0.00    -0.062 C 
HETATM   23  C11 UNL     1      32.254  23.274  10.521  1.00  0.00     0.006 C 
HETATM   24  C13 UNL     1      31.132  22.551   8.522  1.00  0.00     0.048 C 
BRANCH  23  25
HETATM   25  C10 UNL     1      30.963  23.301  11.183  1.00  0.00    -0.003 C 
HETATM   26  C9  UNL     1      30.812  22.765  12.399  1.00  0.00    -0.022 C 
BRANCH  26  27
HETATM   27  C7  UNL     1      29.493  22.813  13.033  1.00  0.00     0.015 C 
HETATM   28  C8  UNL     1      28.808  24.144  12.743  1.00  0.00     0.015 C 
BRANCH  27  29
HETATM   29  C5  UNL     1      29.520  22.646  14.521  1.00  0.00     0.063 C 
HETATM   30  C6  UNL     1      28.780  21.380  14.940  1.00  0.00     0.019 C 
BRANCH  29  31
HETATM   31  C4  UNL     1      30.865  22.634  15.110  1.00  0.00     0.158 C 
HETATM   32  O1  UNL     1      31.456  21.546  15.310  1.00  0.00    -0.292 OA
BRANCH  31  33
HETATM   33  C2  UNL     1      31.545  23.886  15.475  1.00  0.00    -0.025 C 
HETATM   34  C1  UNL     1      32.853  23.893  15.736  1.00  0.00     0.022 C 
HETATM   35  C3  UNL     1      30.795  25.165  15.558  1.00  0.00     0.051 C 
ENDBRANCH  31  33
ENDBRANCH  29  31
ENDBRANCH  27  29
ENDBRANCH  26  27
ENDBRANCH  23  25
ENDBRANCH  21  22
ENDBRANCH   1  20
BRANCH  10  36
HETATM   36  C23 UNL     1      36.581  26.024   1.628  1.00  0.00     0.072 C 
BRANCH  36  37
HETATM   37  C24 UNL     1      36.267  27.358   2.194  1.00  0.00    -0.020 C 
HETATM   38  C25 UNL     1      36.045  28.428   1.445  1.00  0.00    -0.091 C 
HETATM   39  C26 UNL     1      36.076  28.457  -0.028  1.00  0.00     0.042 C 
HETATM   40  C27 UNL     1      35.734  29.733   2.138  1.00  0.00     0.042 C 
ENDBRANCH  36  37
ENDBRANCH  10  36
BRANCH  11  41
HETATM   41  O5  UNL     1      38.961  26.617   0.334  1.00  0.00    -0.359 OA
ATOM     42  H5  UNL     1      39.366  26.325  -0.475  1.00  0.00     0.217 HD
ENDBRANCH  11  41
BRANCH  13  43
HETATM   43  O6  UNL     1      41.364  23.818   3.542  1.00  0.00    -0.359 OA
ATOM     44  H6  UNL     1      41.370  23.016   4.049  1.00  0.00     0.217 HD
ENDBRANCH  13  43
BRANCH  12  45
HETATM   45  C30 UNL     1      41.515  25.499   1.255  1.00  0.00     0.072 C 
BRANCH  45  46
HETATM   46  C31 UNL     1      41.769  24.491   0.187  1.00  0.00    -0.020 C 
HETATM   47  C32 UNL     1      42.836  23.732   0.081  1.00  0.00    -0.091 C 
HETATM   48  C33 UNL     1      43.931  23.823   1.081  1.00  0.00     0.042 C 
HETATM   49  C34 UNL     1      42.933  22.774  -1.061  1.00  0.00     0.042 C 
ENDBRANCH  45  46
ENDBRANCH  12  45
TORSDOF 13
ENDMDL
MODEL 3
REMARK VINA RESULT: -9.682439184      1.312      2.277
REMARK  13 active torsions:
REMARK  status: ('A' for Active; 'I' for Inactive)
REMARK    1  A    between atoms: C2_2  and  C4_4 
REMARK    2  A    between atoms: C4_4  and  C5_6 
REMARK    3  A    between atoms: C5_6  and  C7_8 
REMARK    4  A    between atoms: C7_8  and  C9_10 
REMARK    5  A    between atoms: C10_11  and  C11_12 
REMARK    6  A    between atoms: C12_13  and  C14_15 
REMARK    7  A    between atoms: C15_16  and  C16_17 
REMARK    8  A    between atoms: C22_26  and  C23_27 
REMARK    9  A    between atoms: C23_27  and  C24_28 
REMARK   10  A    between atoms: C28_32  and  O5_33 
REMARK   11  A    between atoms: C29_35  and  C30_36 
REMARK   12  A    between atoms: C30_36  and  C31_37 
REMARK   13  A    between atoms: C35_41  and  O6_42 
ROOT
HETATM    1  C16 UNL     1      35.361  23.038   6.875  1.00  0.00     0.294 C 
HETATM    2  O2  UNL     1      36.216  23.679   7.732  1.00  0.00    -0.322 OA
HETATM    3  C17 UNL     1      36.722  24.879   7.315  1.00  0.00     0.166 C 
HETATM    4  C18 UNL     1      35.624  25.926   7.401  1.00  0.00     0.078 C 
HETATM    5  C19 UNL     1      37.779  25.297   8.333  1.00  0.00     0.078 C 
HETATM    6  O3  UNL     1      37.211  24.906   6.023  1.00  0.00    -0.295 OA
HETATM    7  C20 UNL     1      36.757  23.868   5.233  1.00  0.00     0.303 C 
HETATM    8  O4  UNL     1      36.733  24.297   3.883  1.00  0.00    -0.288 OA
HETATM    9  C21 UNL     1      37.917  24.602   3.197  1.00  0.00     0.101 A 
HETATM   10  C22 UNL     1      37.906  25.422   2.089  1.00  0.00     0.014 A 
HETATM   11  C28 UNL     1      39.102  25.723   1.406  1.00  0.00     0.084 A 
HETATM   12  C29 UNL     1      40.253  25.175   1.882  1.00  0.00     0.013 A 
HETATM   13  C35 UNL     1      40.259  24.346   3.004  1.00  0.00     0.091 A 
HETATM   14  C36 UNL     1      39.074  24.045   3.685  1.00  0.00     0.078 A 
HETATM   15  C37 UNL     1      39.045  23.187   4.855  1.00  0.00     0.176 C 
HETATM   16  O7  UNL     1      40.129  22.905   5.425  1.00  0.00    -0.291 OA
HETATM   17  C38 UNL     1      37.730  22.685   5.321  1.00  0.00     0.150 C 
HETATM   18  C39 UNL     1      37.237  21.649   4.342  1.00  0.00     0.027 C 
HETATM   19  O8  UNL     1      35.514  23.408   5.555  1.00  0.00    -0.297 OA
ENDROOT
BRANCH   1  20
HETATM   20  C15 UNL     1      33.934  23.097   7.339  1.00  0.00     0.034 C 
HETATM   21  C14 UNL     1      33.693  22.895   8.628  1.00  0.00     0.007 C 
BRANCH  21  22
HETATM   22  C12 UNL     1      32.380  22.917   9.239  1.00  0.00    -0.062 C 
HETATM   23  C11 UNL     1      32.269  23.277  10.505  1.00  0.00     0.006 C 
HETATM   24  C13 UNL     1      31.146  22.547   8.509  1.00  0.00     0.048 C 
BRANCH  23  25
HETATM   25  C10 UNL     1      30.978  23.311  11.166  1.00  0.00    -0.003 C 
HETATM   26  C9  UNL     1      30.822  22.775  12.383  1.00  0.00    -0.022 C 
BRANCH  26  27
HETATM   27  C7  UNL     1      29.503  22.830  13.015  1.00  0.00     0.015 C 
HETATM   28  C8  UNL     1      28.821  24.162  12.717  1.00  0.00     0.015 C 
BRANCH  27  29
HETATM   29  C5  UNL     1      29.528  22.672  14.503  1.00  0.00     0.063 C 
HETATM   30  C6  UNL     1      28.765  21.423  14.932  1.00  0.00     0.019 C 
BRANCH  29  31
HETATM   31  C4  UNL     1      30.873  22.639  15.092  1.00  0.00     0.158 C 
HETATM   32  O1  UNL     1      31.456  21.543  15.272  1.00  0.00    -0.292 OA
BRANCH  31  33
HETATM   33  C2  UNL     1      31.563  23.879  15.479  1.00  0.00    -0.025 C 
HETATM   34  C1  UNL     1      32.852  23.855  15.820  1.00  0.00     0.022 C 
HETATM   35  C3  UNL     1      30.845  25.178  15.495  1.00  0.00     0.051 C 
ENDBRANCH  31  33
ENDBRANCH  29  31
ENDBRANCH  27  29
ENDBRANCH  26  27
ENDBRANCH  23  25
ENDBRANCH  21  22
ENDBRANCH   1  20
BRANCH  10  36
HETATM   36  C23 UNL     1      36.626  25.992   1.601  1.00  0.00     0.072 C 
BRANCH  36  37
HETATM   37  C24 UNL     1      36.320  27.330   2.160  1.00  0.00    -0.020 C 
HETATM   38  C25 UNL     1      36.083  28.393   1.405  1.00  0.00    -0.091 C 
HETATM   39  C26 UNL     1      36.088  28.410  -0.068  1.00  0.00     0.042 C 
HETATM   40  C27 UNL     1      35.782  29.704   2.093  1.00  0.00     0.042 C 
ENDBRANCH  36  37
ENDBRANCH  10  36
BRANCH  11  41
HETATM   41  O5  UNL     1      39.010  26.555   0.302  1.00  0.00    -0.359 OA
ATOM     42  H5  UNL     1      39.598  26.381  -0.425  1.00  0.00     0.217 HD
ENDBRANCH  11  41
BRANCH  13  43
HETATM   43  O6  UNL     1      41.391  23.763   3.531  1.00  0.00    -0.359 OA
ATOM     44  H6  UNL     1      42.265  23.876   3.177  1.00  0.00     0.217 HD
ENDBRANCH  13  43
BRANCH  12  45
HETATM   45  C30 UNL     1      41.555  25.424   1.231  1.00  0.00     0.072 C 
BRANCH  45  46
HETATM   46  C31 UNL     1      42.145  26.696   1.735  1.00  0.00    -0.020 C 
HETATM   47  C32 UNL     1      43.299  26.821   2.349  1.00  0.00    -0.091 C 
HETATM   48  C33 UNL     1      44.158  25.634   2.596  1.00  0.00     0.042 C 
HETATM   49  C34 UNL     1      43.740  28.178   2.796  1.00  0.00     0.042 C 
ENDBRANCH  45  46
ENDBRANCH  12  45
TORSDOF 13
ENDMDL
MODEL 4
REMARK VINA RESULT: -9.645097658      0.783      1.248
REMARK  13 active torsions:
REMARK  status: ('A' for Active; 'I' for Inactive)
REMARK    1  A    between atoms: C2_2  and  C4_4 
REMARK    2  A    between atoms: C4_4  and  C5_6 
REMARK    3  A    between atoms: C5_6  and  C7_8 
REMARK    4  A    between atoms: C7_8  and  C9_10 
REMARK    5  A    between atoms: C10_11  and  C11_12 
REMARK    6  A    between atoms: C12_13  and  C14_15 
REMARK    7  A    between atoms: C15_16  and  C16_17 
REMARK    8  A    between atoms: C22_26  and  C23_27 
REMARK    9  A    between atoms: C23_27  and  C24_28 
REMARK   10  A    between atoms: C28_32  and  O5_33 
REMARK   11  A    between atoms: C29_35  and  C30_36 
REMARK   12  A    between atoms: C30_36  and  C31_37 
REMARK   13  A    between atoms: C35_41  and  O6_42 
ROOT
HETATM    1  C16 UNL     1      35.383  23.139   6.835  1.00  0.00     0.294 C 
HETATM    2  O2  UNL     1      36.238  23.790   7.684  1.00  0.00    -0.322 OA
HETATM    3  C17 UNL     1      36.725  24.996   7.263  1.00  0.00     0.166 C 
HETATM    4  C18 UNL     1      35.614  26.030   7.359  1.00  0.00     0.078 C 
HETATM    5  C19 UNL     1      37.785  25.428   8.273  1.00  0.00     0.078 C 
HETATM    6  O3  UNL     1      37.202  25.030   5.968  1.00  0.00    -0.295 OA
HETATM    7  C20 UNL     1      36.754  23.987   5.182  1.00  0.00     0.303 C 
HETATM    8  O4  UNL     1      36.713  24.416   3.831  1.00  0.00    -0.288 OA
HETATM    9  C21 UNL     1      37.887  24.735   3.135  1.00  0.00     0.101 A 
HETATM   10  C22 UNL     1      37.857  25.555   2.027  1.00  0.00     0.014 A 
HETATM   11  C28 UNL     1      39.043  25.872   1.334  1.00  0.00     0.084 A 
HETATM   12  C29 UNL     1      40.205  25.338   1.801  1.00  0.00     0.013 A 
HETATM   13  C35 UNL     1      40.231  24.509   2.922  1.00  0.00     0.091 A 
HETATM   14  C36 UNL     1      39.055  24.193   3.613  1.00  0.00     0.078 A 
HETATM   15  C37 UNL     1      39.047  23.335   4.783  1.00  0.00     0.176 C 
HETATM   16  O7  UNL     1      40.140  23.067   5.344  1.00  0.00    -0.291 OA
HETATM   17  C38 UNL     1      37.743  22.816   5.260  1.00  0.00     0.150 C 
HETATM   18  C39 UNL     1      37.255  21.774   4.285  1.00  0.00     0.027 C 
HETATM   19  O8  UNL     1      35.520  23.511   5.514  1.00  0.00    -0.297 OA
ENDROOT
BRANCH   1  20
HETATM   20  C15 UNL     1      33.960  23.179   7.312  1.00  0.00     0.034 C 
HETATM   21  C14 UNL     1      33.721  22.863   8.578  1.00  0.00     0.007 C 
BRANCH  21  22
HETATM   22  C12 UNL     1      32.411  22.851   9.196  1.00  0.00    -0.062 C 
HETATM   23  C11 UNL     1      32.276  23.336  10.418  1.00  0.00     0.006 C 
HETATM   24  C13 UNL     1      31.208  22.312   8.523  1.00  0.00     0.048 C 
BRANCH  23  25
HETATM   25  C10 UNL     1      30.987  23.343  11.084  1.00  0.00    -0.003 C 
HETATM   26  C9  UNL     1      30.886  23.716  12.365  1.00  0.00    -0.022 C 
BRANCH  26  27
HETATM   27  C7  UNL     1      29.568  23.710  13.001  1.00  0.00     0.015 C 
HETATM   28  C8  UNL     1      29.458  24.839  14.021  1.00  0.00     0.015 C 
BRANCH  27  29
HETATM   29  C5  UNL     1      29.237  22.436  13.716  1.00  0.00     0.063 C 
HETATM   30  C6  UNL     1      29.860  22.415  15.108  1.00  0.00     0.019 C 
BRANCH  29  31
HETATM   31  C4  UNL     1      27.800  22.155  13.829  1.00  0.00     0.158 C 
HETATM   32  O1  UNL     1      26.961  23.064  13.620  1.00  0.00    -0.292 OA
BRANCH  31  33
HETATM   33  C2  UNL     1      27.315  20.813  14.186  1.00  0.00    -0.025 C 
HETATM   34  C1  UNL     1      26.007  20.553  14.212  1.00  0.00     0.022 C 
HETATM   35  C3  UNL     1      28.265  19.723  14.522  1.00  0.00     0.051 C 
ENDBRANCH  31  33
ENDBRANCH  29  31
ENDBRANCH  27  29
ENDBRANCH  26  27
ENDBRANCH  23  25
ENDBRANCH  21  22
ENDBRANCH   1  20
BRANCH  10  36
HETATM   36  C23 UNL     1      36.565  26.109   1.551  1.00  0.00     0.072 C 
BRANCH  36  37
HETATM   37  C24 UNL     1      36.244  27.440   2.118  1.00  0.00    -0.020 C 
HETATM   38  C25 UNL     1      35.987  28.503   1.370  1.00  0.00    -0.091 C 
HETATM   39  C26 UNL     1      35.982  28.527  -0.102  1.00  0.00     0.042 C 
HETATM   40  C27 UNL     1      35.672  29.806   2.066  1.00  0.00     0.042 C 
ENDBRANCH  36  37
ENDBRANCH  10  36
BRANCH  11  41
HETATM   41  O5  UNL     1      38.931  26.703   0.231  1.00  0.00    -0.359 OA
ATOM     42  H5  UNL     1      39.159  27.617   0.350  1.00  0.00     0.217 HD
ENDBRANCH  11  41
BRANCH  13  43
HETATM   43  O6  UNL     1      41.375  23.940   3.439  1.00  0.00    -0.359 OA
ATOM     44  H6  UNL     1      41.602  23.941   4.361  1.00  0.00     0.217 HD
ENDBRANCH  13  43
BRANCH  12  45
HETATM   45  C30 UNL     1      41.498  25.604   1.138  1.00  0.00     0.072 C 
BRANCH  45  46
HETATM   46  C31 UNL     1      42.117  26.838   1.698  1.00  0.00    -0.020 C 
HETATM   47  C32 UNL     1      43.310  26.926   2.239  1.00  0.00    -0.091 C 
HETATM   48  C33 UNL     1      44.188  25.731   2.332  1.00  0.00     0.042 C 
HETATM   49  C34 UNL     1      43.775  28.247   2.760  1.00  0.00     0.042 C 
ENDBRANCH  45  46
ENDBRANCH  12  45
TORSDOF 13
ENDMDL
MODEL 5
REMARK VINA RESULT: -9.433154721      0.981      1.282
REMARK  13 active torsions:
REMARK  status: ('A' for Active; 'I' for Inactive)
REMARK    1  A    between atoms: C2_2  and  C4_4 
REMARK    2  A    between atoms: C4_4  and  C5_6 
REMARK    3  A    between atoms: C5_6  and  C7_8 
REMARK    4  A    between atoms: C7_8  and  C9_10 
REMARK    5  A    between atoms: C10_11  and  C11_12 
REMARK    6  A    between atoms: C12_13  and  C14_15 
REMARK    7  A    between atoms: C15_16  and  C16_17 
REMARK    8  A    between atoms: C22_26  and  C23_27 
REMARK    9  A    between atoms: C23_27  and  C24_28 
REMARK   10  A    between atoms: C28_32  and  O5_33 
REMARK   11  A    between atoms: C29_35  and  C30_36 
REMARK   12  A    between atoms: C30_36  and  C31_37 
REMARK   13  A    between atoms: C35_41  and  O6_42 
ROOT
HETATM    1  C16 UNL     1      35.347  23.285   6.960  1.00  0.00     0.294 C 
HETATM    2  O2  UNL     1      36.199  23.954   7.797  1.00  0.00    -0.322 OA
HETATM    3  C17 UNL     1      36.691  25.149   7.350  1.00  0.00     0.166 C 
HETATM    4  C18 UNL     1      35.582  26.187   7.417  1.00  0.00     0.078 C 
HETATM    5  C19 UNL     1      37.748  25.602   8.354  1.00  0.00     0.078 C 
HETATM    6  O3  UNL     1      37.174  25.151   6.056  1.00  0.00    -0.295 OA
HETATM    7  C20 UNL     1      36.727  24.091   5.293  1.00  0.00     0.303 C 
HETATM    8  O4  UNL     1      36.693  24.488   3.933  1.00  0.00    -0.288 OA
HETATM    9  C21 UNL     1      37.870  24.788   3.234  1.00  0.00     0.101 A 
HETATM   10  C22 UNL     1      37.847  25.582   2.107  1.00  0.00     0.014 A 
HETATM   11  C28 UNL     1      39.037  25.879   1.412  1.00  0.00     0.084 A 
HETATM   12  C29 UNL     1      40.196  25.354   1.896  1.00  0.00     0.013 A 
HETATM   13  C35 UNL     1      40.215  24.552   3.037  1.00  0.00     0.091 A 
HETATM   14  C36 UNL     1      39.035  24.255   3.730  1.00  0.00     0.078 A 
HETATM   15  C37 UNL     1      39.021  23.424   4.920  1.00  0.00     0.176 C 
HETATM   16  O7  UNL     1      40.110  23.167   5.492  1.00  0.00    -0.291 OA
HETATM   17  C38 UNL     1      37.713  22.920   5.403  1.00  0.00     0.150 C 
HETATM   18  C39 UNL     1      37.227  21.856   4.451  1.00  0.00     0.027 C 
HETATM   19  O8  UNL     1      35.491  23.625   5.631  1.00  0.00    -0.297 OA
ENDROOT
BRANCH   1  20
HETATM   20  C15 UNL     1      33.922  23.340   7.429  1.00  0.00     0.034 C 
HETATM   21  C14 UNL     1      33.656  22.905   8.654  1.00  0.00     0.007 C 
BRANCH  21  22
HETATM   22  C12 UNL     1      32.340  22.888   9.260  1.00  0.00    -0.062 C 
HETATM   23  C11 UNL     1      32.199  23.328  10.497  1.00  0.00     0.006 C 
HETATM   24  C13 UNL     1      31.136  22.392   8.555  1.00  0.00     0.048 C 
BRANCH  23  25
HETATM   25  C10 UNL     1      30.904  23.328  11.152  1.00  0.00    -0.003 C 
HETATM   26  C9  UNL     1      30.815  23.427  12.483  1.00  0.00    -0.022 C 
BRANCH  26  27
HETATM   27  C7  UNL     1      29.490  23.423  13.104  1.00  0.00     0.015 C 
HETATM   28  C8  UNL     1      29.161  24.800  13.673  1.00  0.00     0.015 C 
BRANCH  27  29
HETATM   29  C5  UNL     1      29.337  22.438  14.221  1.00  0.00     0.063 C 
HETATM   30  C6  UNL     1      27.962  21.781  14.185  1.00  0.00     0.019 C 
BRANCH  29  31
HETATM   31  C4  UNL     1      30.368  21.392  14.257  1.00  0.00     0.158 C 
HETATM   32  O1  UNL     1      31.404  21.551  14.946  1.00  0.00    -0.292 OA
BRANCH  31  33
HETATM   33  C2  UNL     1      30.210  20.144  13.495  1.00  0.00    -0.025 C 
HETATM   34  C1  UNL     1      31.040  19.857  12.491  1.00  0.00     0.022 C 
HETATM   35  C3  UNL     1      29.132  19.179  13.826  1.00  0.00     0.051 C 
ENDBRANCH  31  33
ENDBRANCH  29  31
ENDBRANCH  27  29
ENDBRANCH  26  27
ENDBRANCH  23  25
ENDBRANCH  21  22
ENDBRANCH   1  20
BRANCH  10  36
HETATM   36  C23 UNL     1      36.559  26.127   1.612  1.00  0.00     0.072 C 
BRANCH  36  37
HETATM   37  C24 UNL     1      36.225  27.459   2.167  1.00  0.00    -0.020 C 
HETATM   38  C25 UNL     1      35.990  28.521   1.410  1.00  0.00    -0.091 C 
HETATM   39  C26 UNL     1      36.023  28.541  -0.063  1.00  0.00     0.042 C 
HETATM   40  C27 UNL     1      35.659  29.827   2.094  1.00  0.00     0.042 C 
ENDBRANCH  36  37
ENDBRANCH  10  36
BRANCH  11  41
HETATM   41  O5  UNL     1      38.931  26.684   0.289  1.00  0.00    -0.359 OA
ATOM     42  H5  UNL     1      39.125  27.608   0.396  1.00  0.00     0.217 HD
ENDBRANCH  11  41
BRANCH  13  43
HETATM   43  O6  UNL     1      41.355  23.993   3.572  1.00  0.00    -0.359 OA
ATOM     44  H6  UNL     1      41.392  23.131   3.969  1.00  0.00     0.217 HD
ENDBRANCH  13  43
BRANCH  12  45
HETATM   45  C30 UNL     1      41.492  25.601   1.234  1.00  0.00     0.072 C 
BRANCH  45  46
HETATM   46  C31 UNL     1      41.757  24.545   0.217  1.00  0.00    -0.020 C 
HETATM   47  C32 UNL     1      42.817  23.770   0.168  1.00  0.00    -0.091 C 
HETATM   48  C33 UNL     1      43.890  23.891   1.187  1.00  0.00     0.042 C 
HETATM   49  C34 UNL     1      42.927  22.762  -0.930  1.00  0.00     0.042 C 
ENDBRANCH  45  46
ENDBRANCH  12  45
TORSDOF 13
ENDMDL
