MODEL 1
REMARK VINA RESULT: -8.662329860      0.000      0.000
REMARK  14 active torsions:
REMARK  status: ('A' for Active; 'I' for Inactive)
REMARK    1  A    between atoms: C2_2  and  C4_4 
REMARK    2  A    between atoms: C16_19  and  C17_20 
REMARK    3  A    between atoms: C17_20  and  C18_21 
REMARK    4  A    between atoms: C18_21  and  C20_23 
REMARK    5  A    between atoms: C20_23  and  C21_24 
REMARK    6  A    between atoms: C21_24  and  C22_25 
REMARK    7  A    between atoms: C21_24  and  C24_33 
REMARK    8  A    between atoms: C22_25  and  C23_26 
REMARK    9  A    between atoms: C23_26  and  O4_27 
REMARK   10  A    between atoms: N1_29  and  O5_31 
REMARK   11  A    between atoms: C24_33  and  C25_34 
REMARK   12  A    between atoms: C25_34  and  C26_35 
REMARK   13  A    between atoms: C25_34  and  C28_37 
REMARK   14  A    between atoms: C31_40  and  O6_41 
ROOT
HETATM    1  C4  UNL     1      39.248  28.504   5.351  1.00  0.00     0.161 C 
HETATM    2  O1  UNL     1      40.222  29.187   4.754  1.00  0.00    -0.348 OA
HETATM    3  C5  UNL     1      41.498  29.282   4.929  1.00  0.00     0.292 A 
HETATM    4  O2  UNL     1      41.830  30.766   4.887  1.00  0.00    -0.346 OA
HETATM    5  C6  UNL     1      42.297  29.923   5.840  1.00  0.00     0.209 A 
HETATM    6  C7  UNL     1      41.918  30.058   7.317  1.00  0.00     0.164 C 
HETATM    7  O3  UNL     1      42.509  28.925   7.880  1.00  0.00    -0.372 OA
HETATM    8  C8  UNL     1      41.552  27.894   7.850  1.00  0.00     0.059 C 
HETATM    9  C9  UNL     1      41.699  27.308   9.289  1.00  0.00     0.046 C 
HETATM   10  C10 UNL     1      41.962  26.792   6.958  1.00  0.00     0.046 C 
HETATM   11  C11 UNL     1      40.267  28.560   7.698  1.00  0.00     0.040 C 
HETATM   12  C12 UNL     1      39.221  28.098   6.735  1.00  0.00     0.063 C 
HETATM   13  C13 UNL     1      37.966  28.259   7.547  1.00  0.00    -0.010 A 
HETATM   14  C14 UNL     1      37.176  27.137   7.633  1.00  0.00    -0.043 A 
HETATM   15  C15 UNL     1      37.626  25.859   6.997  1.00  0.00     0.049 C 
HETATM   16  C16 UNL     1      35.957  27.142   8.343  1.00  0.00    -0.017 A 
HETATM   17  C31 UNL     1      35.614  28.335   8.935  1.00  0.00     0.081 A 
HETATM   18  C32 UNL     1      36.423  29.490   8.855  1.00  0.00     0.006 A 
HETATM   19  C33 UNL     1      35.989  30.748   9.522  1.00  0.00     0.054 C 
HETATM   20  C34 UNL     1      37.582  29.453   8.176  1.00  0.00     0.086 A 
HETATM   21  O7  UNL     1      38.318  30.661   8.182  1.00  0.00    -0.339 OA
HETATM   22  C35 UNL     1      39.730  30.826   8.487  1.00  0.00     0.067 C 
HETATM   23  C36 UNL     1      39.974  32.309   8.130  1.00  0.00     0.047 C 
HETATM   24  C37 UNL     1      40.007  30.691   9.917  1.00  0.00     0.047 C 
HETATM   25  C38 UNL     1      40.467  30.021   7.527  1.00  0.00     0.059 C 
ENDROOT
BRANCH  16  26
HETATM   26  C17 UNL     1      35.130  25.920   8.454  1.00  0.00     0.046 C 
BRANCH  26  27
HETATM   27  C18 UNL     1      35.495  25.033   9.577  1.00  0.00    -0.014 C 
HETATM   28  C19 UNL     1      34.725  25.242  10.849  1.00  0.00     0.010 C 
BRANCH  27  29
HETATM   29  C20 UNL     1      35.683  23.608   9.284  1.00  0.00     0.009 C 
BRANCH  29  30
HETATM   30  C21 UNL     1      34.969  22.959   8.168  1.00  0.00    -0.006 C 
BRANCH  30  31
HETATM   31  C22 UNL     1      36.031  22.706   7.078  1.00  0.00     0.090 C 
BRANCH  31  32
HETATM   32  C23 UNL     1      35.428  22.971   5.723  1.00  0.00     0.135 C 
HETATM   33  N1  UNL     1      35.414  22.096   4.783  1.00  0.00    -0.251 N 
ATOM     34  H1  UNL     1      34.987  22.351   3.892  1.00  0.00     0.196 HD
BRANCH  32  35
HETATM   35  O4  UNL     1      34.857  24.210   5.460  1.00  0.00    -0.348 OA
ATOM     36  H4  UNL     1      34.576  24.417   4.576  1.00  0.00     0.219 HD
ENDBRANCH  32  35
BRANCH  33  37
HETATM   37  O5  UNL     1      35.943  20.837   4.916  1.00  0.00    -0.288 OA
ATOM     38  H5  UNL     1      36.521  20.443   4.273  1.00  0.00     0.244 HD
ENDBRANCH  33  37
ENDBRANCH  31  32
ENDBRANCH  30  31
BRANCH  30  39
HETATM   39  C24 UNL     1      34.344  21.654   8.453  1.00  0.00     0.010 C 
BRANCH  39  40
HETATM   40  C25 UNL     1      32.818  21.627   8.445  1.00  0.00    -0.011 C 
BRANCH  40  41
HETATM   41  C26 UNL     1      32.342  22.613   7.435  1.00  0.00     0.000 C 
HETATM   42  C27 UNL     1      31.974  22.044   6.100  1.00  0.00     0.005 C 
ENDBRANCH  40  41
BRANCH  40  43
HETATM   43  C28 UNL     1      32.440  21.960   9.878  1.00  0.00    -0.019 C 
HETATM   44  C29 UNL     1      31.699  20.731  10.440  1.00  0.00     0.010 C 
HETATM   45  C30 UNL     1      31.507  23.107  10.034  1.00  0.00     0.010 C 
ENDBRANCH  40  43
ENDBRANCH  39  40
ENDBRANCH  30  39
ENDBRANCH  29  30
ENDBRANCH  27  29
ENDBRANCH  26  27
ENDBRANCH  16  26
BRANCH  17  46
HETATM   46  O6  UNL     1      34.452  28.488   9.648  1.00  0.00    -0.359 OA
ATOM     47  H6  UNL     1      34.173  29.332   9.982  1.00  0.00     0.217 HD
ENDBRANCH  17  46
BRANCH   1  48
HETATM   48  C2  UNL     1      38.007  29.189   4.860  1.00  0.00    -0.064 C 
HETATM   49  C1  UNL     1      37.979  30.547   4.774  1.00  0.00     0.016 C 
HETATM   50  C3  UNL     1      36.751  28.566   4.399  1.00  0.00     0.045 C 
ENDBRANCH   1  48
TORSDOF 14
ENDMDL
MODEL 2
REMARK VINA RESULT: -8.620039221      3.321      5.025
REMARK  14 active torsions:
REMARK  status: ('A' for Active; 'I' for Inactive)
REMARK    1  A    between atoms: C2_2  and  C4_4 
REMARK    2  A    between atoms: C16_19  and  C17_20 
REMARK    3  A    between atoms: C17_20  and  C18_21 
REMARK    4  A    between atoms: C18_21  and  C20_23 
REMARK    5  A    between atoms: C20_23  and  C21_24 
REMARK    6  A    between atoms: C21_24  and  C22_25 
REMARK    7  A    between atoms: C21_24  and  C24_33 
REMARK    8  A    between atoms: C22_25  and  C23_26 
REMARK    9  A    between atoms: C23_26  and  O4_27 
REMARK   10  A    between atoms: N1_29  and  O5_31 
REMARK   11  A    between atoms: C24_33  and  C25_34 
REMARK   12  A    between atoms: C25_34  and  C26_35 
REMARK   13  A    between atoms: C25_34  and  C28_37 
REMARK   14  A    between atoms: C31_40  and  O6_41 
ROOT
HETATM    1  C4  UNL     1      40.718  23.686   3.835  1.00  0.00     0.161 C 
HETATM    2  O1  UNL     1      41.514  23.151   2.911  1.00  0.00    -0.348 OA
HETATM    3  C5  UNL     1      42.686  23.439   2.452  1.00  0.00     0.292 A 
HETATM    4  O2  UNL     1      42.587  23.361   0.937  1.00  0.00    -0.346 OA
HETATM    5  C6  UNL     1      43.176  24.390   1.595  1.00  0.00     0.209 A 
HETATM    6  C7  UNL     1      42.626  25.818   1.550  1.00  0.00     0.164 C 
HETATM    7  O3  UNL     1      43.454  26.483   2.457  1.00  0.00    -0.372 OA
HETATM    8  C8  UNL     1      42.836  26.411   3.719  1.00  0.00     0.059 C 
HETATM    9  C9  UNL     1      42.997  27.882   4.215  1.00  0.00     0.046 C 
HETATM   10  C10 UNL     1      43.629  25.610   4.672  1.00  0.00     0.046 C 
HETATM   11  C11 UNL     1      41.437  26.112   3.451  1.00  0.00     0.040 C 
HETATM   12  C12 UNL     1      40.668  25.078   4.209  1.00  0.00     0.063 C 
HETATM   13  C13 UNL     1      39.343  25.763   4.401  1.00  0.00    -0.010 A 
HETATM   14  C14 UNL     1      38.899  25.826   5.701  1.00  0.00    -0.043 A 
HETATM   15  C15 UNL     1      39.754  25.291   6.806  1.00  0.00     0.049 C 
HETATM   16  C16 UNL     1      37.663  26.419   6.033  1.00  0.00    -0.017 A 
HETATM   17  C31 UNL     1      36.938  26.924   4.978  1.00  0.00     0.081 A 
HETATM   18  C32 UNL     1      37.391  26.868   3.642  1.00  0.00     0.006 A 
HETATM   19  C33 UNL     1      36.554  27.435   2.549  1.00  0.00     0.054 C 
HETATM   20  C34 UNL     1      38.575  26.300   3.356  1.00  0.00     0.086 A 
HETATM   21  O7  UNL     1      38.935  26.320   1.989  1.00  0.00    -0.339 OA
HETATM   22  C35 UNL     1      40.204  26.747   1.421  1.00  0.00     0.067 C 
HETATM   23  C36 UNL     1      40.053  26.348  -0.063  1.00  0.00     0.047 C 
HETATM   24  C37 UNL     1      40.363  28.200   1.448  1.00  0.00     0.047 C 
HETATM   25  C38 UNL     1      41.232  25.895   1.997  1.00  0.00     0.059 C 
ENDROOT
BRANCH  16  26
HETATM   26  C17 UNL     1      37.209  26.508   7.438  1.00  0.00     0.046 C 
BRANCH  26  27
HETATM   27  C18 UNL     1      36.590  25.275   7.963  1.00  0.00    -0.014 C 
HETATM   28  C19 UNL     1      37.006  24.877   9.349  1.00  0.00     0.010 C 
BRANCH  27  29
HETATM   29  C20 UNL     1      35.150  25.096   7.755  1.00  0.00     0.009 C 
BRANCH  29  30
HETATM   30  C21 UNL     1      34.576  23.759   7.507  1.00  0.00    -0.006 C 
BRANCH  30  31
HETATM   31  C22 UNL     1      35.666  22.966   6.752  1.00  0.00     0.090 C 
BRANCH  31  32
HETATM   32  C23 UNL     1      35.196  22.687   5.349  1.00  0.00     0.135 C 
HETATM   33  N1  UNL     1      34.889  21.510   4.938  1.00  0.00    -0.251 N 
ATOM     34  H1  UNL     1      34.579  21.401   3.972  1.00  0.00     0.196 HD
BRANCH  32  35
HETATM   35  O4  UNL     1      35.084  23.736   4.444  1.00  0.00    -0.348 OA
ATOM     36  H4  UNL     1      34.447  23.681   3.741  1.00  0.00     0.219 HD
ENDBRANCH  32  35
BRANCH  33  37
HETATM   37  O5  UNL     1      34.956  20.392   5.731  1.00  0.00    -0.288 OA
ATOM     38  H5  UNL     1      35.583  19.692   5.594  1.00  0.00     0.244 HD
ENDBRANCH  33  37
ENDBRANCH  31  32
ENDBRANCH  30  31
BRANCH  30  39
HETATM   39  C24 UNL     1      34.226  22.958   8.695  1.00  0.00     0.010 C 
BRANCH  39  40
HETATM   40  C25 UNL     1      32.979  22.087   8.570  1.00  0.00    -0.011 C 
BRANCH  40  41
HETATM   41  C26 UNL     1      32.086  22.699   7.547  1.00  0.00     0.000 C 
HETATM   42  C27 UNL     1      31.823  21.861   6.335  1.00  0.00     0.005 C 
ENDBRANCH  40  41
BRANCH  40  43
HETATM   43  C28 UNL     1      32.406  22.067   9.976  1.00  0.00    -0.019 C 
HETATM   44  C29 UNL     1      31.695  20.711  10.149  1.00  0.00     0.010 C 
HETATM   45  C30 UNL     1      31.379  23.106  10.254  1.00  0.00     0.010 C 
ENDBRANCH  40  43
ENDBRANCH  39  40
ENDBRANCH  30  39
ENDBRANCH  29  30
ENDBRANCH  27  29
ENDBRANCH  26  27
ENDBRANCH  16  26
BRANCH  17  46
HETATM   46  O6  UNL     1      35.715  27.520   5.152  1.00  0.00    -0.359 OA
ATOM     47  H6  UNL     1      34.991  27.369   4.556  1.00  0.00     0.217 HD
ENDBRANCH  17  46
BRANCH   1  48
HETATM   48  C2  UNL     1      39.390  23.053   3.542  1.00  0.00    -0.064 C 
HETATM   49  C1  UNL     1      38.991  22.897   2.250  1.00  0.00     0.016 C 
HETATM   50  C3  UNL     1      38.412  22.513   4.506  1.00  0.00     0.045 C 
ENDBRANCH   1  48
TORSDOF 14
ENDMDL
MODEL 3
REMARK VINA RESULT: -8.500859836      4.352      6.079
REMARK  14 active torsions:
REMARK  status: ('A' for Active; 'I' for Inactive)
REMARK    1  A    between atoms: C2_2  and  C4_4 
REMARK    2  A    between atoms: C16_19  and  C17_20 
REMARK    3  A    between atoms: C17_20  and  C18_21 
REMARK    4  A    between atoms: C18_21  and  C20_23 
REMARK    5  A    between atoms: C20_23  and  C21_24 
REMARK    6  A    between atoms: C21_24  and  C22_25 
REMARK    7  A    between atoms: C21_24  and  C24_33 
REMARK    8  A    between atoms: C22_25  and  C23_26 
REMARK    9  A    between atoms: C23_26  and  O4_27 
REMARK   10  A    between atoms: N1_29  and  O5_31 
REMARK   11  A    between atoms: C24_33  and  C25_34 
REMARK   12  A    between atoms: C25_34  and  C26_35 
REMARK   13  A    between atoms: C25_34  and  C28_37 
REMARK   14  A    between atoms: C31_40  and  O6_41 
ROOT
HETATM    1  C4  UNL     1      40.035  24.710   0.755  1.00  0.00     0.161 C 
HETATM    2  O1  UNL     1      40.642  25.282  -0.283  1.00  0.00    -0.348 OA
HETATM    3  C5  UNL     1      41.773  25.100  -0.881  1.00  0.00     0.292 A 
HETATM    4  O2  UNL     1      42.382  26.479  -1.078  1.00  0.00    -0.346 OA
HETATM    5  C6  UNL     1      43.074  25.418  -0.592  1.00  0.00     0.209 A 
HETATM    6  C7  UNL     1      43.634  25.382   0.833  1.00  0.00     0.164 C 
HETATM    7  O3  UNL     1      44.132  24.081   0.923  1.00  0.00    -0.372 OA
HETATM    8  C8  UNL     1      43.101  23.272   1.434  1.00  0.00     0.059 C 
HETATM    9  C9  UNL     1      43.874  22.443   2.506  1.00  0.00     0.046 C 
HETATM   10  C10 UNL     1      42.650  22.271   0.447  1.00  0.00     0.046 C 
HETATM   11  C11 UNL     1      42.167  24.189   2.072  1.00  0.00     0.040 C 
HETATM   12  C12 UNL     1      40.686  24.098   1.887  1.00  0.00     0.063 C 
HETATM   13  C13 UNL     1      40.189  24.363   3.282  1.00  0.00    -0.010 A 
HETATM   14  C14 UNL     1      39.331  23.415   3.788  1.00  0.00    -0.043 A 
HETATM   15  C15 UNL     1      39.011  22.196   2.983  1.00  0.00     0.049 C 
HETATM   16  C16 UNL     1      38.766  23.539   5.074  1.00  0.00    -0.017 A 
HETATM   17  C31 UNL     1      39.125  24.664   5.780  1.00  0.00     0.081 A 
HETATM   18  C32 UNL     1      40.009  25.639   5.268  1.00  0.00     0.006 A 
HETATM   19  C33 UNL     1      40.355  26.832   6.089  1.00  0.00     0.054 C 
HETATM   20  C34 UNL     1      40.536  25.491   4.041  1.00  0.00     0.086 A 
HETATM   21  O7  UNL     1      41.423  26.517   3.643  1.00  0.00    -0.339 OA
HETATM   22  C35 UNL     1      42.752  26.357   3.073  1.00  0.00     0.067 C 
HETATM   23  C36 UNL     1      43.116  27.803   2.671  1.00  0.00     0.047 C 
HETATM   24  C37 UNL     1      43.736  25.941   4.071  1.00  0.00     0.047 C 
HETATM   25  C38 UNL     1      42.596  25.591   1.846  1.00  0.00     0.059 C 
ENDROOT
BRANCH  16  26
HETATM   26  C17 UNL     1      37.869  22.497   5.621  1.00  0.00     0.046 C 
BRANCH  26  27
HETATM   27  C18 UNL     1      36.443  22.675   5.282  1.00  0.00    -0.014 C 
HETATM   28  C19 UNL     1      35.694  21.421   4.938  1.00  0.00     0.010 C 
BRANCH  27  29
HETATM   29  C20 UNL     1      35.648  23.567   6.133  1.00  0.00     0.009 C 
BRANCH  29  30
HETATM   30  C21 UNL     1      35.581  23.366   7.593  1.00  0.00    -0.006 C 
BRANCH  30  31
HETATM   31  C22 UNL     1      35.207  24.740   8.190  1.00  0.00     0.090 C 
BRANCH  31  32
HETATM   32  C23 UNL     1      36.115  25.041   9.354  1.00  0.00     0.135 C 
HETATM   33  N1  UNL     1      36.944  26.021   9.356  1.00  0.00    -0.251 N 
ATOM     34  H1  UNL     1      37.527  26.160  10.182  1.00  0.00     0.196 HD
BRANCH  32  35
HETATM   35  O4  UNL     1      36.069  24.233  10.484  1.00  0.00    -0.348 OA
ATOM     36  H4  UNL     1      36.529  24.502  11.269  1.00  0.00     0.219 HD
ENDBRANCH  32  35
BRANCH  33  37
HETATM   37  O5  UNL     1      37.086  26.891   8.304  1.00  0.00    -0.288 OA
ATOM     38  H5  UNL     1      37.056  27.836   8.400  1.00  0.00     0.244 HD
ENDBRANCH  33  37
ENDBRANCH  31  32
ENDBRANCH  30  31
BRANCH  30  39
HETATM   39  C24 UNL     1      34.571  22.410   8.084  1.00  0.00     0.010 C 
BRANCH  39  40
HETATM   40  C25 UNL     1      33.141  22.935   8.176  1.00  0.00    -0.011 C 
BRANCH  40  41
HETATM   41  C26 UNL     1      32.754  22.978   9.613  1.00  0.00     0.000 C 
HETATM   42  C27 UNL     1      31.283  22.981   9.886  1.00  0.00     0.005 C 
ENDBRANCH  40  41
BRANCH  40  43
HETATM   43  C28 UNL     1      32.339  21.957   7.335  1.00  0.00    -0.019 C 
HETATM   44  C29 UNL     1      33.104  20.619   7.356  1.00  0.00     0.010 C 
HETATM   45  C30 UNL     1      32.197  22.325   5.902  1.00  0.00     0.010 C 
ENDBRANCH  40  43
ENDBRANCH  39  40
ENDBRANCH  30  39
ENDBRANCH  29  30
ENDBRANCH  27  29
ENDBRANCH  26  27
ENDBRANCH  16  26
BRANCH  17  46
HETATM   46  O6  UNL     1      38.644  24.919   7.039  1.00  0.00    -0.359 OA
ATOM     47  H6  UNL     1      38.976  25.633   7.571  1.00  0.00     0.217 HD
ENDBRANCH  17  46
BRANCH   1  48
HETATM   48  C2  UNL     1      38.952  25.691   1.092  1.00  0.00    -0.064 C 
HETATM   49  C1  UNL     1      39.215  27.026   1.045  1.00  0.00     0.016 C 
HETATM   50  C3  UNL     1      37.551  25.403   1.457  1.00  0.00     0.045 C 
ENDBRANCH   1  48
TORSDOF 14
ENDMDL
MODEL 4
REMARK VINA RESULT: -8.466879641      2.071      4.703
REMARK  14 active torsions:
REMARK  status: ('A' for Active; 'I' for Inactive)
REMARK    1  A    between atoms: C2_2  and  C4_4 
REMARK    2  A    between atoms: C16_19  and  C17_20 
REMARK    3  A    between atoms: C17_20  and  C18_21 
REMARK    4  A    between atoms: C18_21  and  C20_23 
REMARK    5  A    between atoms: C20_23  and  C21_24 
REMARK    6  A    between atoms: C21_24  and  C22_25 
REMARK    7  A    between atoms: C21_24  and  C24_33 
REMARK    8  A    between atoms: C22_25  and  C23_26 
REMARK    9  A    between atoms: C23_26  and  O4_27 
REMARK   10  A    between atoms: N1_29  and  O5_31 
REMARK   11  A    between atoms: C24_33  and  C25_34 
REMARK   12  A    between atoms: C25_34  and  C26_35 
REMARK   13  A    between atoms: C25_34  and  C28_37 
REMARK   14  A    between atoms: C31_40  and  O6_41 
ROOT
HETATM    1  C4  UNL     1      38.819  28.349   7.820  1.00  0.00     0.161 C 
HETATM    2  O1  UNL     1      39.540  29.324   8.369  1.00  0.00    -0.348 OA
HETATM    3  C5  UNL     1      39.836  30.533   8.025  1.00  0.00     0.292 A 
HETATM    4  O2  UNL     1      41.331  30.694   8.257  1.00  0.00    -0.346 OA
HETATM    5  C6  UNL     1      40.704  31.089   7.121  1.00  0.00     0.209 A 
HETATM    6  C7  UNL     1      40.992  30.455   5.758  1.00  0.00     0.164 C 
HETATM    7  O3  UNL     1      40.044  31.070   4.938  1.00  0.00    -0.372 OA
HETATM    8  C8  UNL     1      38.896  30.258   4.943  1.00  0.00     0.059 C 
HETATM    9  C9  UNL     1      38.545  30.228   3.422  1.00  0.00     0.046 C 
HETATM   10  C10 UNL     1      37.747  30.935   5.574  1.00  0.00     0.046 C 
HETATM   11  C11 UNL     1      39.348  28.947   5.389  1.00  0.00     0.040 C 
HETATM   12  C12 UNL     1      38.612  28.139   6.408  1.00  0.00     0.063 C 
HETATM   13  C13 UNL     1      38.710  26.755   5.826  1.00  0.00    -0.010 A 
HETATM   14  C14 UNL     1      37.512  26.096   5.678  1.00  0.00    -0.043 A 
HETATM   15  C15 UNL     1      36.233  26.791   6.026  1.00  0.00     0.049 C 
HETATM   16  C16 UNL     1      37.446  24.783   5.167  1.00  0.00    -0.017 A 
HETATM   17  C31 UNL     1      38.652  24.211   4.832  1.00  0.00     0.081 A 
HETATM   18  C32 UNL     1      39.885  24.883   4.977  1.00  0.00     0.006 A 
HETATM   19  C33 UNL     1      41.152  24.202   4.594  1.00  0.00     0.054 C 
HETATM   20  C34 UNL     1      39.915  26.136   5.463  1.00  0.00     0.086 A 
HETATM   21  O7  UNL     1      41.202  26.716   5.544  1.00  0.00    -0.339 OA
HETATM   22  C35 UNL     1      41.605  28.029   5.064  1.00  0.00     0.067 C 
HETATM   23  C36 UNL     1      43.042  28.156   5.616  1.00  0.00     0.047 C 
HETATM   24  C37 UNL     1      41.713  28.076   3.606  1.00  0.00     0.047 C 
HETATM   25  C38 UNL     1      40.783  29.004   5.762  1.00  0.00     0.059 C 
ENDROOT
BRANCH  16  26
HETATM   26  C17 UNL     1      36.150  24.096   4.982  1.00  0.00     0.046 C 
BRANCH  26  27
HETATM   27  C18 UNL     1      35.828  23.101   6.025  1.00  0.00    -0.014 C 
HETATM   28  C19 UNL     1      36.149  21.675   5.684  1.00  0.00     0.010 C 
BRANCH  27  29
HETATM   29  C20 UNL     1      36.193  23.424   7.408  1.00  0.00     0.009 C 
BRANCH  29  30
HETATM   30  C21 UNL     1      35.159  23.614   8.444  1.00  0.00    -0.006 C 
BRANCH  30  31
HETATM   31  C22 UNL     1      35.071  25.138   8.677  1.00  0.00     0.090 C 
BRANCH  31  32
HETATM   32  C23 UNL     1      35.042  25.414  10.158  1.00  0.00     0.135 C 
HETATM   33  N1  UNL     1      34.995  26.600  10.644  1.00  0.00    -0.251 N 
ATOM     34  H1  UNL     1      34.979  26.707  11.659  1.00  0.00     0.196 HD
BRANCH  32  35
HETATM   35  O4  UNL     1      35.069  24.350  11.052  1.00  0.00    -0.348 OA
ATOM     36  H4  UNL     1      35.545  24.439  11.869  1.00  0.00     0.219 HD
ENDBRANCH  32  35
BRANCH  33  37
HETATM   37  O5  UNL     1      34.964  27.733   9.870  1.00  0.00    -0.288 OA
ATOM     38  H5  UNL     1      34.818  28.603  10.223  1.00  0.00     0.244 HD
ENDBRANCH  33  37
ENDBRANCH  31  32
ENDBRANCH  30  31
BRANCH  30  39
HETATM   39  C24 UNL     1      33.795  23.164   8.107  1.00  0.00     0.010 C 
BRANCH  39  40
HETATM   40  C25 UNL     1      33.436  21.743   8.531  1.00  0.00    -0.011 C 
BRANCH  40  41
HETATM   41  C26 UNL     1      32.702  21.095   7.409  1.00  0.00     0.000 C 
HETATM   42  C27 UNL     1      32.286  22.007   6.298  1.00  0.00     0.005 C 
ENDBRANCH  40  41
BRANCH  40  43
HETATM   43  C28 UNL     1      32.615  21.935   9.795  1.00  0.00    -0.019 C 
HETATM   44  C29 UNL     1      31.734  20.681   9.950  1.00  0.00     0.010 C 
HETATM   45  C30 UNL     1      31.681  23.092   9.770  1.00  0.00     0.010 C 
ENDBRANCH  40  43
ENDBRANCH  39  40
ENDBRANCH  30  39
ENDBRANCH  29  30
ENDBRANCH  27  29
ENDBRANCH  26  27
ENDBRANCH  16  26
BRANCH  17  46
HETATM   46  O6  UNL     1      38.740  22.937   4.333  1.00  0.00    -0.359 OA
ATOM     47  H6  UNL     1      39.545  22.433   4.373  1.00  0.00     0.217 HD
ENDBRANCH  17  46
BRANCH   1  48
HETATM   48  C2  UNL     1      39.247  27.138   8.593  1.00  0.00    -0.064 C 
HETATM   49  C1  UNL     1      40.550  27.003   8.963  1.00  0.00     0.016 C 
HETATM   50  C3  UNL     1      38.406  26.020   9.065  1.00  0.00     0.045 C 
ENDBRANCH   1  48
TORSDOF 14
ENDMDL
MODEL 5
REMARK VINA RESULT: -8.407927385      3.689      6.293
REMARK  14 active torsions:
REMARK  status: ('A' for Active; 'I' for Inactive)
REMARK    1  A    between atoms: C2_2  and  C4_4 
REMARK    2  A    between atoms: C16_19  and  C17_20 
REMARK    3  A    between atoms: C17_20  and  C18_21 
REMARK    4  A    between atoms: C18_21  and  C20_23 
REMARK    5  A    between atoms: C20_23  and  C21_24 
REMARK    6  A    between atoms: C21_24  and  C22_25 
REMARK    7  A    between atoms: C21_24  and  C24_33 
REMARK    8  A    between atoms: C22_25  and  C23_26 
REMARK    9  A    between atoms: C23_26  and  O4_27 
REMARK   10  A    between atoms: N1_29  and  O5_31 
REMARK   11  A    between atoms: C24_33  and  C25_34 
REMARK   12  A    between atoms: C25_34  and  C26_35 
REMARK   13  A    between atoms: C25_34  and  C28_37 
REMARK   14  A    between atoms: C31_40  and  O6_41 
ROOT
HETATM    1  C4  UNL     1      41.973  23.886   2.949  1.00  0.00     0.161 C 
HETATM    2  O1  UNL     1      43.114  24.206   2.342  1.00  0.00    -0.348 OA
HETATM    3  C5  UNL     1      44.054  25.061   2.578  1.00  0.00     0.292 A 
HETATM    4  O2  UNL     1      44.351  25.750   1.255  1.00  0.00    -0.346 OA
HETATM    5  C6  UNL     1      44.180  26.417   2.423  1.00  0.00     0.209 A 
HETATM    6  C7  UNL     1      43.017  27.384   2.657  1.00  0.00     0.164 C 
HETATM    7  O3  UNL     1      43.172  27.715   4.004  1.00  0.00    -0.372 OA
HETATM    8  C8  UNL     1      42.408  26.800   4.751  1.00  0.00     0.059 C 
HETATM    9  C9  UNL     1      41.694  27.757   5.757  1.00  0.00     0.046 C 
HETATM   10  C10 UNL     1      43.256  25.939   5.598  1.00  0.00     0.046 C 
HETATM   11  C11 UNL     1      41.447  26.237   3.813  1.00  0.00     0.040 C 
HETATM   12  C12 UNL     1      41.151  24.774   3.734  1.00  0.00     0.063 C 
HETATM   13  C13 UNL     1      39.657  24.776   3.559  1.00  0.00    -0.010 A 
HETATM   14  C14 UNL     1      38.961  24.005   4.461  1.00  0.00    -0.043 A 
HETATM   15  C15 UNL     1      39.694  23.297   5.556  1.00  0.00     0.049 C 
HETATM   16  C16 UNL     1      37.556  23.891   4.409  1.00  0.00    -0.017 A 
HETATM   17  C31 UNL     1      36.935  24.594   3.402  1.00  0.00     0.081 A 
HETATM   18  C32 UNL     1      37.643  25.391   2.476  1.00  0.00     0.006 A 
HETATM   19  C33 UNL     1      36.906  26.125   1.411  1.00  0.00     0.054 C 
HETATM   20  C34 UNL     1      38.981  25.484   2.554  1.00  0.00     0.086 A 
HETATM   21  O7  UNL     1      39.580  26.326   1.588  1.00  0.00    -0.339 OA
HETATM   22  C35 UNL     1      40.556  27.378   1.825  1.00  0.00     0.067 C 
HETATM   23  C36 UNL     1      40.964  27.781   0.391  1.00  0.00     0.047 C 
HETATM   24  C37 UNL     1      39.956  28.563   2.437  1.00  0.00     0.047 C 
HETATM   25  C38 UNL     1      41.712  26.750   2.446  1.00  0.00     0.059 C 
ENDROOT
BRANCH  16  26
HETATM   26  C17 UNL     1      36.815  23.084   5.403  1.00  0.00     0.046 C 
BRANCH  26  27
HETATM   27  C18 UNL     1      36.131  23.873   6.447  1.00  0.00    -0.014 C 
HETATM   28  C19 UNL     1      34.633  23.770   6.464  1.00  0.00     0.010 C 
BRANCH  27  29
HETATM   29  C20 UNL     1      36.694  23.843   7.800  1.00  0.00     0.009 C 
BRANCH  29  30
HETATM   30  C21 UNL     1      36.394  24.910   8.774  1.00  0.00    -0.006 C 
BRANCH  30  31
HETATM   31  C22 UNL     1      36.040  24.191  10.093  1.00  0.00     0.090 C 
BRANCH  31  32
HETATM   32  C23 UNL     1      34.694  24.667  10.574  1.00  0.00     0.135 C 
HETATM   33  N1  UNL     1      33.616  23.990  10.410  1.00  0.00    -0.251 N 
ATOM     34  H1  UNL     1      32.741  24.379  10.764  1.00  0.00     0.196 HD
BRANCH  32  35
HETATM   35  O4  UNL     1      34.594  25.891  11.224  1.00  0.00    -0.348 OA
ATOM     36  H4  UNL     1      33.746  26.308  11.307  1.00  0.00     0.219 HD
ENDBRANCH  32  35
BRANCH  33  37
HETATM   37  O5  UNL     1      33.579  22.769   9.785  1.00  0.00    -0.288 OA
ATOM     38  H5  UNL     1      33.157  22.623   8.946  1.00  0.00     0.244 HD
ENDBRANCH  33  37
ENDBRANCH  31  32
ENDBRANCH  30  31
BRANCH  30  39
HETATM   39  C24 UNL     1      37.492  25.844   9.091  1.00  0.00     0.010 C 
BRANCH  39  40
HETATM   40  C25 UNL     1      37.351  27.256   8.527  1.00  0.00    -0.011 C 
BRANCH  40  41
HETATM   41  C26 UNL     1      35.973  27.403   7.982  1.00  0.00     0.000 C 
HETATM   42  C27 UNL     1      35.091  28.369   8.708  1.00  0.00     0.005 C 
ENDBRANCH  40  41
BRANCH  40  43
HETATM   43  C28 UNL     1      38.454  27.344   7.486  1.00  0.00    -0.019 C 
HETATM   44  C29 UNL     1      37.780  27.194   6.109  1.00  0.00     0.010 C 
HETATM   45  C30 UNL     1      39.479  26.268   7.559  1.00  0.00     0.010 C 
ENDBRANCH  40  43
ENDBRANCH  39  40
ENDBRANCH  30  39
ENDBRANCH  29  30
ENDBRANCH  27  29
ENDBRANCH  26  27
ENDBRANCH  16  26
BRANCH  17  46
HETATM   46  O6  UNL     1      35.576  24.567   3.225  1.00  0.00    -0.359 OA
ATOM     47  H6  UNL     1      35.007  25.239   3.582  1.00  0.00     0.217 HD
ENDBRANCH  17  46
BRANCH   1  48
HETATM   48  C2  UNL     1      41.245  23.097   1.902  1.00  0.00    -0.064 C 
HETATM   49  C1  UNL     1      41.375  23.440   0.591  1.00  0.00     0.016 C 
HETATM   50  C3  UNL     1      40.384  21.914   2.095  1.00  0.00     0.045 C 
ENDBRANCH   1  48
TORSDOF 14
ENDMDL
