MODEL 1
REMARK VINA RESULT: -8.888654668      0.000      0.000
REMARK  14 active torsions:
REMARK  status: ('A' for Active; 'I' for Inactive)
REMARK    1  A    between atoms: C5_5  and  C6_6 
REMARK    2  A    between atoms: C6_6  and  O2_8 
REMARK    3  A    between atoms: O2_8  and  C7_9 
REMARK    4  A    between atoms: C12_14  and  C13_15 
REMARK    5  A    between atoms: C13_15  and  C15_17 
REMARK    6  A    between atoms: C15_17  and  O3_18 
REMARK    7  A    between atoms: C15_17  and  C16_20 
REMARK    8  A    between atoms: C16_20  and  C17_21 
REMARK    9  A    between atoms: C17_21  and  O4_22 
REMARK   10  A    between atoms: C17_21  and  C18_24 
REMARK   11  A    between atoms: C21_27  and  C23_29 
REMARK   12  A    between atoms: C23_29  and  C24_30 
REMARK   13  A    between atoms: C24_30  and  C25_31 
REMARK   14  A    between atoms: C25_31  and  C26_32 
ROOT
HETATM    1  C18 UNL     1      37.113  23.866   5.524  1.00  0.00     0.089 C 
HETATM    2  C19 UNL     1      38.297  24.703   5.913  1.00  0.00     0.014 C 
HETATM    3  C20 UNL     1      38.311  25.156   7.349  1.00  0.00     0.016 C 
HETATM    4  C21 UNL     1      37.107  25.957   7.676  1.00  0.00    -0.000 C 
HETATM    5  C22 UNL     1      36.816  25.933   9.180  1.00  0.00     0.021 C 
HETATM    6  C29 UNL     1      35.931  25.389   6.932  1.00  0.00     0.057 C 
HETATM    7  N1  UNL     1      34.970  26.141   6.646  1.00  0.00    -0.400 N 
ATOM      8  H11 UNL     1      34.172  25.756   6.141  1.00  0.00     0.155 HD
ATOM      9  H12 UNL     1      34.912  27.131   6.885  1.00  0.00     0.155 HD
HETATM   10  C30 UNL     1      36.016  23.925   6.579  1.00  0.00     0.274 C 
HETATM   11  O5  UNL     1      34.796  23.544   6.086  1.00  0.00    -0.188 OA
HETATM   12  O6  UNL     1      33.893  23.697   7.024  1.00  0.00    -0.194 OA
HETATM   13  C31 UNL     1      34.127  22.838   8.063  1.00  0.00     0.230 C 
HETATM   14  C32 UNL     1      33.422  21.520   7.730  1.00  0.00     0.074 C 
HETATM   15  C33 UNL     1      32.155  21.480   8.518  1.00  0.00     0.006 C 
HETATM   16  C34 UNL     1      32.000  22.821   9.184  1.00  0.00     0.006 C 
HETATM   17  C35 UNL     1      33.409  23.331   9.304  1.00  0.00     0.074 C 
HETATM   18  O7  UNL     1      35.439  22.539   8.287  1.00  0.00    -0.194 OA
HETATM   19  O8  UNL     1      36.333  23.258   7.723  1.00  0.00    -0.188 OA
ENDROOT
BRANCH   1  20
HETATM   20  C17 UNL     1      37.502  22.489   5.116  1.00  0.00     0.130 C 
BRANCH  20  21
HETATM   21  C16 UNL     1      38.763  22.466   4.327  1.00  0.00     0.064 C 
BRANCH  21  22
HETATM   22  C15 UNL     1      38.588  22.685   2.846  1.00  0.00     0.125 C 
BRANCH  22  23
HETATM   23  C13 UNL     1      39.386  23.791   2.268  1.00  0.00     0.020 C 
HETATM   24  C14 UNL     1      40.809  23.703   2.832  1.00  0.00     0.013 C 
BRANCH  23  25
HETATM   25  C12 UNL     1      38.806  25.147   2.559  1.00  0.00     0.043 C 
HETATM   26  C7  UNL     1      39.734  26.266   2.159  1.00  0.00     0.140 C 
HETATM   27  C8  UNL     1      39.647  26.446   0.662  1.00  0.00     0.037 C 
HETATM   28  C9  UNL     1      38.292  27.016   0.330  1.00  0.00     0.029 C 
HETATM   29  C10 UNL     1      37.241  26.202   0.959  1.00  0.00    -0.030 C 
HETATM   30  C11 UNL     1      37.481  25.367   1.961  1.00  0.00    -0.023 C 
BRANCH  26  31
HETATM   31  O2  UNL     1      39.253  27.461   2.757  1.00  0.00    -0.315 OA
BRANCH  31  32
HETATM   32  C6  UNL     1      40.127  28.314   3.449  1.00  0.00     0.263 C 
HETATM   33  O1  UNL     1      40.687  29.210   2.781  1.00  0.00    -0.265 OA
BRANCH  32  34
HETATM   34  C5  UNL     1      40.311  28.090   4.884  1.00  0.00     0.089 C 
HETATM   35  C4  UNL     1      41.553  27.250   5.176  1.00  0.00     0.042 C 
HETATM   36  C3  UNL     1      41.417  26.822   6.586  1.00  0.00    -0.023 C 
HETATM   37  C2  UNL     1      40.952  27.673   7.483  1.00  0.00    -0.087 C 
HETATM   38  C1  UNL     1      40.809  27.239   8.936  1.00  0.00     0.043 C 
HETATM   39  C37 UNL     1      40.565  29.043   7.132  1.00  0.00     0.034 C 
HETATM   40  C36 UNL     1      40.383  29.341   5.690  1.00  0.00     0.019 C 
ENDBRANCH  32  34
ENDBRANCH  31  32
ENDBRANCH  26  31
ENDBRANCH  23  25
ENDBRANCH  22  23
BRANCH  22  41
HETATM   41  O3  UNL     1      38.701  21.457   2.243  1.00  0.00    -0.395 OA
ATOM     42  H3  UNL     1      38.142  21.293   1.492  1.00  0.00     0.210 HD
ENDBRANCH  22  41
ENDBRANCH  21  22
ENDBRANCH  20  21
BRANCH  20  43
HETATM   43  O4  UNL     1      36.489  21.759   4.495  1.00  0.00    -0.395 OA
ATOM     44  H4  UNL     1      36.781  20.890   4.246  1.00  0.00     0.210 HD
ENDBRANCH  20  43
ENDBRANCH   1  20
BRANCH   4  45
HETATM   45  C23 UNL     1      37.266  27.400   7.292  1.00  0.00     0.015 C 
BRANCH  45  46
HETATM   46  C24 UNL     1      37.141  28.331   8.451  1.00  0.00     0.001 C 
BRANCH  46  47
HETATM   47  C25 UNL     1      36.953  29.777   7.969  1.00  0.00     0.004 C 
BRANCH  47  48
HETATM   48  C26 UNL     1      35.700  30.366   8.519  1.00  0.00    -0.023 C 
HETATM   49  C27 UNL     1      36.021  31.412   9.568  1.00  0.00     0.009 C 
HETATM   50  C28 UNL     1      34.978  29.232   9.265  1.00  0.00     0.009 C 
ENDBRANCH  47  48
ENDBRANCH  46  47
ENDBRANCH  45  46
ENDBRANCH   4  45
TORSDOF 14
ENDMDL
MODEL 2
REMARK VINA RESULT: -8.840555655      3.116      9.240
REMARK  14 active torsions:
REMARK  status: ('A' for Active; 'I' for Inactive)
REMARK    1  A    between atoms: C5_5  and  C6_6 
REMARK    2  A    between atoms: C6_6  and  O2_8 
REMARK    3  A    between atoms: O2_8  and  C7_9 
REMARK    4  A    between atoms: C12_14  and  C13_15 
REMARK    5  A    between atoms: C13_15  and  C15_17 
REMARK    6  A    between atoms: C15_17  and  O3_18 
REMARK    7  A    between atoms: C15_17  and  C16_20 
REMARK    8  A    between atoms: C16_20  and  C17_21 
REMARK    9  A    between atoms: C17_21  and  O4_22 
REMARK   10  A    between atoms: C17_21  and  C18_24 
REMARK   11  A    between atoms: C21_27  and  C23_29 
REMARK   12  A    between atoms: C23_29  and  C24_30 
REMARK   13  A    between atoms: C24_30  and  C25_31 
REMARK   14  A    between atoms: C25_31  and  C26_32 
ROOT
HETATM    1  C18 UNL     1      37.270  24.614   6.099  1.00  0.00     0.089 C 
HETATM    2  C19 UNL     1      36.483  25.891   6.155  1.00  0.00     0.014 C 
HETATM    3  C20 UNL     1      36.865  26.919   5.124  1.00  0.00     0.016 C 
HETATM    4  C21 UNL     1      38.292  27.302   5.244  1.00  0.00    -0.000 C 
HETATM    5  C22 UNL     1      38.830  27.864   3.923  1.00  0.00     0.021 C 
HETATM    6  C29 UNL     1      39.089  26.086   5.629  1.00  0.00     0.057 C 
HETATM    7  N1  UNL     1      40.163  26.236   6.258  1.00  0.00    -0.400 N 
ATOM      8  H11 UNL     1      40.703  25.411   6.519  1.00  0.00     0.155 HD
ATOM      9  H12 UNL     1      40.557  27.135   6.534  1.00  0.00     0.155 HD
HETATM   10  C30 UNL     1      38.506  24.757   5.221  1.00  0.00     0.274 C 
HETATM   11  O5  UNL     1      39.445  23.793   5.478  1.00  0.00    -0.188 OA
HETATM   12  O6  UNL     1      40.506  24.029   4.746  1.00  0.00    -0.194 OA
HETATM   13  C31 UNL     1      40.217  23.879   3.417  1.00  0.00     0.230 C 
HETATM   14  C32 UNL     1      40.421  22.401   3.071  1.00  0.00     0.074 C 
HETATM   15  C33 UNL     1      41.737  22.282   2.379  1.00  0.00     0.006 C 
HETATM   16  C34 UNL     1      42.406  23.629   2.455  1.00  0.00     0.006 C 
HETATM   17  C35 UNL     1      41.261  24.595   2.583  1.00  0.00     0.074 C 
HETATM   18  O7  UNL     1      38.938  24.196   3.060  1.00  0.00    -0.194 OA
HETATM   19  O8  UNL     1      38.215  24.841   3.894  1.00  0.00    -0.188 OA
ENDROOT
BRANCH   1  20
HETATM   20  C17 UNL     1      36.418  23.437   5.777  1.00  0.00     0.130 C 
BRANCH  20  21
HETATM   21  C16 UNL     1      35.979  22.705   6.995  1.00  0.00     0.064 C 
BRANCH  21  22
HETATM   22  C15 UNL     1      34.552  22.962   7.410  1.00  0.00     0.125 C 
BRANCH  22  23
HETATM   23  C13 UNL     1      34.381  23.683   8.692  1.00  0.00     0.020 C 
HETATM   24  C14 UNL     1      35.770  24.081   9.208  1.00  0.00     0.013 C 
BRANCH  23  25
HETATM   25  C12 UNL     1      33.665  22.868   9.733  1.00  0.00     0.043 C 
HETATM   26  C7  UNL     1      32.285  23.398  10.027  1.00  0.00     0.140 C 
HETATM   27  C8  UNL     1      31.360  22.963   8.915  1.00  0.00     0.037 C 
HETATM   28  C9  UNL     1      31.162  21.473   9.016  1.00  0.00     0.029 C 
HETATM   29  C10 UNL     1      32.469  20.800   9.090  1.00  0.00    -0.030 C 
HETATM   30  C11 UNL     1      33.587  21.435   9.415  1.00  0.00    -0.023 C 
BRANCH  26  31
HETATM   31  O2  UNL     1      31.829  22.779  11.222  1.00  0.00    -0.315 OA
BRANCH  31  32
HETATM   32  C6  UNL     1      31.123  23.518  12.183  1.00  0.00     0.263 C 
HETATM   33  O1  UNL     1      31.611  24.620  12.518  1.00  0.00    -0.265 OA
BRANCH  32  34
HETATM   34  C5  UNL     1      29.884  22.947  12.713  1.00  0.00     0.089 C 
HETATM   35  C4  UNL     1      30.102  22.257  14.058  1.00  0.00     0.042 C 
HETATM   36  C3  UNL     1      28.883  21.450  14.289  1.00  0.00    -0.023 C 
HETATM   37  C2  UNL     1      27.702  21.948  13.971  1.00  0.00    -0.087 C 
HETATM   38  C1  UNL     1      26.444  21.123  14.205  1.00  0.00     0.043 C 
HETATM   39  C37 UNL     1      27.549  23.287  13.394  1.00  0.00     0.034 C 
HETATM   40  C36 UNL     1      28.774  23.931  12.857  1.00  0.00     0.019 C 
ENDBRANCH  32  34
ENDBRANCH  31  32
ENDBRANCH  26  31
ENDBRANCH  23  25
ENDBRANCH  22  23
BRANCH  22  41
HETATM   41  O3  UNL     1      33.904  23.478   6.316  1.00  0.00    -0.395 OA
ATOM     42  H3  UNL     1      33.076  23.917   6.474  1.00  0.00     0.210 HD
ENDBRANCH  22  41
ENDBRANCH  21  22
ENDBRANCH  20  21
BRANCH  20  43
HETATM   43  O4  UNL     1      36.955  22.575   4.822  1.00  0.00    -0.395 OA
ATOM     44  H4  UNL     1      37.771  22.908   4.465  1.00  0.00     0.210 HD
ENDBRANCH  20  43
ENDBRANCH   1  20
BRANCH   4  45
HETATM   45  C23 UNL     1      38.507  28.365   6.283  1.00  0.00     0.015 C 
BRANCH  45  46
HETATM   46  C24 UNL     1      37.262  29.115   6.618  1.00  0.00     0.001 C 
BRANCH  46  47
HETATM   47  C25 UNL     1      37.102  29.250   8.140  1.00  0.00     0.004 C 
BRANCH  47  48
HETATM   48  C26 UNL     1      35.673  29.121   8.541  1.00  0.00    -0.023 C 
HETATM   49  C27 UNL     1      35.432  27.790   9.225  1.00  0.00     0.009 C 
HETATM   50  C28 UNL     1      34.859  29.075   7.237  1.00  0.00     0.009 C 
ENDBRANCH  47  48
ENDBRANCH  46  47
ENDBRANCH  45  46
ENDBRANCH   4  45
TORSDOF 14
ENDMDL
MODEL 3
REMARK VINA RESULT: -8.777353327      1.202      1.522
REMARK  14 active torsions:
REMARK  status: ('A' for Active; 'I' for Inactive)
REMARK    1  A    between atoms: C5_5  and  C6_6 
REMARK    2  A    between atoms: C6_6  and  O2_8 
REMARK    3  A    between atoms: O2_8  and  C7_9 
REMARK    4  A    between atoms: C12_14  and  C13_15 
REMARK    5  A    between atoms: C13_15  and  C15_17 
REMARK    6  A    between atoms: C15_17  and  O3_18 
REMARK    7  A    between atoms: C15_17  and  C16_20 
REMARK    8  A    between atoms: C16_20  and  C17_21 
REMARK    9  A    between atoms: C17_21  and  O4_22 
REMARK   10  A    between atoms: C17_21  and  C18_24 
REMARK   11  A    between atoms: C21_27  and  C23_29 
REMARK   12  A    between atoms: C23_29  and  C24_30 
REMARK   13  A    between atoms: C24_30  and  C25_31 
REMARK   14  A    between atoms: C25_31  and  C26_32 
ROOT
HETATM    1  C18 UNL     1      37.216  23.958   5.553  1.00  0.00     0.089 C 
HETATM    2  C19 UNL     1      38.369  24.822   5.972  1.00  0.00     0.014 C 
HETATM    3  C20 UNL     1      38.338  25.273   7.408  1.00  0.00     0.016 C 
HETATM    4  C21 UNL     1      37.108  26.044   7.707  1.00  0.00    -0.000 C 
HETATM    5  C22 UNL     1      36.781  26.010   9.204  1.00  0.00     0.021 C 
HETATM    6  C29 UNL     1      35.964  25.449   6.933  1.00  0.00     0.057 C 
HETATM    7  N1  UNL     1      34.992  26.179   6.625  1.00  0.00    -0.400 N 
ATOM      8  H11 UNL     1      34.216  25.776   6.101  1.00  0.00     0.155 HD
ATOM      9  H12 UNL     1      34.905  27.167   6.864  1.00  0.00     0.155 HD
HETATM   10  C30 UNL     1      36.092  23.989   6.581  1.00  0.00     0.274 C 
HETATM   11  O5  UNL     1      34.894  23.580   6.058  1.00  0.00    -0.188 OA
HETATM   12  O6  UNL     1      33.965  23.710   6.974  1.00  0.00    -0.194 OA
HETATM   13  C31 UNL     1      34.194  22.855   8.017  1.00  0.00     0.230 C 
HETATM   14  C32 UNL     1      33.529  21.520   7.665  1.00  0.00     0.074 C 
HETATM   15  C33 UNL     1      32.245  21.449   8.421  1.00  0.00     0.006 C 
HETATM   16  C34 UNL     1      32.042  22.784   9.086  1.00  0.00     0.006 C 
HETATM   17  C35 UNL     1      33.436  23.327   9.241  1.00  0.00     0.074 C 
HETATM   18  O7  UNL     1      35.508  22.586   8.272  1.00  0.00    -0.194 OA
HETATM   19  O8  UNL     1      36.397  23.328   7.730  1.00  0.00    -0.188 OA
ENDROOT
BRANCH   1  20
HETATM   20  C17 UNL     1      37.647  22.592   5.152  1.00  0.00     0.130 C 
BRANCH  20  21
HETATM   21  C16 UNL     1      38.944  22.597   4.424  1.00  0.00     0.064 C 
BRANCH  21  22
HETATM   22  C15 UNL     1      38.828  22.671   2.922  1.00  0.00     0.125 C 
BRANCH  22  23
HETATM   23  C13 UNL     1      39.981  23.284   2.224  1.00  0.00     0.020 C 
HETATM   24  C14 UNL     1      41.160  22.305   2.291  1.00  0.00     0.013 C 
BRANCH  23  25
HETATM   25  C12 UNL     1      40.385  24.608   2.809  1.00  0.00     0.043 C 
HETATM   26  C7  UNL     1      41.726  25.074   2.302  1.00  0.00     0.140 C 
HETATM   27  C8  UNL     1      41.541  25.640   0.914  1.00  0.00     0.037 C 
HETATM   28  C9  UNL     1      40.770  26.930   1.024  1.00  0.00     0.029 C 
HETATM   29  C10 UNL     1      39.550  26.716   1.818  1.00  0.00    -0.030 C 
HETATM   30  C11 UNL     1      39.388  25.671   2.618  1.00  0.00    -0.023 C 
BRANCH  26  31
HETATM   31  O2  UNL     1      42.157  26.140   3.138  1.00  0.00    -0.315 OA
BRANCH  31  32
HETATM   32  C6  UNL     1      42.788  25.875   4.363  1.00  0.00     0.263 C 
HETATM   33  O1  UNL     1      43.841  25.202   4.322  1.00  0.00    -0.265 OA
BRANCH  32  34
HETATM   34  C5  UNL     1      42.170  26.402   5.581  1.00  0.00     0.089 C 
HETATM   35  C4  UNL     1      43.211  26.913   6.575  1.00  0.00     0.042 C 
HETATM   36  C3  UNL     1      42.486  27.079   7.854  1.00  0.00    -0.023 C 
HETATM   37  C2  UNL     1      41.260  27.572   7.849  1.00  0.00    -0.087 C 
HETATM   38  C1  UNL     1      40.508  27.745   9.162  1.00  0.00     0.043 C 
HETATM   39  C37 UNL     1      40.584  27.968   6.611  1.00  0.00     0.034 C 
HETATM   40  C36 UNL     1      41.173  27.483   5.338  1.00  0.00     0.019 C 
ENDBRANCH  32  34
ENDBRANCH  31  32
ENDBRANCH  26  31
ENDBRANCH  23  25
ENDBRANCH  22  23
BRANCH  22  41
HETATM   41  O3  UNL     1      38.428  21.431   2.490  1.00  0.00    -0.395 OA
ATOM     42  H3  UNL     1      37.584  21.120   2.798  1.00  0.00     0.210 HD
ENDBRANCH  22  41
ENDBRANCH  21  22
ENDBRANCH  20  21
BRANCH  20  43
HETATM   43  O4  UNL     1      36.677  21.851   4.477  1.00  0.00    -0.395 OA
ATOM     44  H4  UNL     1      36.070  22.410   4.006  1.00  0.00     0.210 HD
ENDBRANCH  20  43
ENDBRANCH   1  20
BRANCH   4  45
HETATM   45  C23 UNL     1      37.241  27.492   7.329  1.00  0.00     0.015 C 
BRANCH  45  46
HETATM   46  C24 UNL     1      37.073  28.416   8.487  1.00  0.00     0.001 C 
BRANCH  46  47
HETATM   47  C25 UNL     1      36.955  29.871   8.009  1.00  0.00     0.004 C 
BRANCH  47  48
HETATM   48  C26 UNL     1      35.710  30.505   8.524  1.00  0.00    -0.023 C 
HETATM   49  C27 UNL     1      36.040  31.547   9.574  1.00  0.00     0.009 C 
HETATM   50  C28 UNL     1      34.933  29.400   9.260  1.00  0.00     0.009 C 
ENDBRANCH  47  48
ENDBRANCH  46  47
ENDBRANCH  45  46
ENDBRANCH   4  45
TORSDOF 14
ENDMDL
MODEL 4
REMARK VINA RESULT: -8.728439288      0.805      1.111
REMARK  14 active torsions:
REMARK  status: ('A' for Active; 'I' for Inactive)
REMARK    1  A    between atoms: C5_5  and  C6_6 
REMARK    2  A    between atoms: C6_6  and  O2_8 
REMARK    3  A    between atoms: O2_8  and  C7_9 
REMARK    4  A    between atoms: C12_14  and  C13_15 
REMARK    5  A    between atoms: C13_15  and  C15_17 
REMARK    6  A    between atoms: C15_17  and  O3_18 
REMARK    7  A    between atoms: C15_17  and  C16_20 
REMARK    8  A    between atoms: C16_20  and  C17_21 
REMARK    9  A    between atoms: C17_21  and  O4_22 
REMARK   10  A    between atoms: C17_21  and  C18_24 
REMARK   11  A    between atoms: C21_27  and  C23_29 
REMARK   12  A    between atoms: C23_29  and  C24_30 
REMARK   13  A    between atoms: C24_30  and  C25_31 
REMARK   14  A    between atoms: C25_31  and  C26_32 
ROOT
HETATM    1  C18 UNL     1      37.202  23.964   5.592  1.00  0.00     0.089 C 
HETATM    2  C19 UNL     1      38.369  24.814   6.004  1.00  0.00     0.014 C 
HETATM    3  C20 UNL     1      38.353  25.262   7.441  1.00  0.00     0.016 C 
HETATM    4  C21 UNL     1      37.135  26.047   7.751  1.00  0.00    -0.000 C 
HETATM    5  C22 UNL     1      36.819  26.014   9.250  1.00  0.00     0.021 C 
HETATM    6  C29 UNL     1      35.978  25.468   6.985  1.00  0.00     0.057 C 
HETATM    7  N1  UNL     1      35.013  26.210   6.686  1.00  0.00    -0.400 N 
ATOM      8  H11 UNL     1      34.228  25.817   6.166  1.00  0.00     0.155 HD
ATOM      9  H12 UNL     1      34.940  27.198   6.927  1.00  0.00     0.155 HD
HETATM   10  C30 UNL     1      36.087  24.007   6.628  1.00  0.00     0.274 C 
HETATM   11  O5  UNL     1      34.879  23.613   6.114  1.00  0.00    -0.188 OA
HETATM   12  O6  UNL     1      33.959  23.752   7.037  1.00  0.00    -0.194 OA
HETATM   13  C31 UNL     1      34.186  22.892   8.077  1.00  0.00     0.230 C 
HETATM   14  C32 UNL     1      33.502  21.566   7.727  1.00  0.00     0.074 C 
HETATM   15  C33 UNL     1      32.223  21.508   8.493  1.00  0.00     0.006 C 
HETATM   16  C34 UNL     1      32.041  22.845   9.162  1.00  0.00     0.006 C 
HETATM   17  C35 UNL     1      33.442  23.371   9.307  1.00  0.00     0.074 C 
HETATM   18  O7  UNL     1      35.498  22.607   8.321  1.00  0.00    -0.194 OA
HETATM   19  O8  UNL     1      36.392  23.339   7.775  1.00  0.00    -0.188 OA
ENDROOT
BRANCH   1  20
HETATM   20  C17 UNL     1      37.614  22.594   5.186  1.00  0.00     0.130 C 
BRANCH  20  21
HETATM   21  C16 UNL     1      38.904  22.585   4.446  1.00  0.00     0.064 C 
BRANCH  21  22
HETATM   22  C15 UNL     1      38.780  22.730   2.950  1.00  0.00     0.125 C 
BRANCH  22  23
HETATM   23  C13 UNL     1      39.891  23.448   2.285  1.00  0.00     0.020 C 
HETATM   24  C14 UNL     1      41.214  22.869   2.801  1.00  0.00     0.013 C 
BRANCH  23  25
HETATM   25  C12 UNL     1      39.856  24.932   2.523  1.00  0.00     0.043 C 
HETATM   26  C7  UNL     1      40.848  25.674   1.665  1.00  0.00     0.140 C 
HETATM   27  C8  UNL     1      40.279  25.790   0.270  1.00  0.00     0.037 C 
HETATM   28  C9  UNL     1      39.112  26.741   0.311  1.00  0.00     0.029 C 
HETATM   29  C10 UNL     1      38.178  26.339   1.374  1.00  0.00    -0.030 C 
HETATM   30  C11 UNL     1      38.522  25.528   2.364  1.00  0.00    -0.023 C 
BRANCH  26  31
HETATM   31  O2  UNL     1      40.968  26.991   2.183  1.00  0.00    -0.315 OA
BRANCH  31  32
HETATM   32  C6  UNL     1      42.036  27.331   3.028  1.00  0.00     0.263 C 
HETATM   33  O1  UNL     1      43.170  27.397   2.505  1.00  0.00    -0.265 OA
BRANCH  32  34
HETATM   34  C5  UNL     1      41.742  27.578   4.440  1.00  0.00     0.089 C 
HETATM   35  C4  UNL     1      40.311  28.071   4.648  1.00  0.00     0.042 C 
HETATM   36  C3  UNL     1      40.273  28.599   6.030  1.00  0.00    -0.023 C 
HETATM   37  C2  UNL     1      40.910  27.955   6.991  1.00  0.00    -0.087 C 
HETATM   38  C1  UNL     1      40.875  28.493   8.415  1.00  0.00     0.043 C 
HETATM   39  C37 UNL     1      41.660  26.721   6.740  1.00  0.00     0.034 C 
HETATM   40  C36 UNL     1      41.973  26.401   5.325  1.00  0.00     0.019 C 
ENDBRANCH  32  34
ENDBRANCH  31  32
ENDBRANCH  26  31
ENDBRANCH  23  25
ENDBRANCH  22  23
BRANCH  22  41
HETATM   41  O3  UNL     1      38.455  21.492   2.454  1.00  0.00    -0.395 OA
ATOM     42  H3  UNL     1      37.918  20.935   3.006  1.00  0.00     0.210 HD
ENDBRANCH  22  41
ENDBRANCH  21  22
ENDBRANCH  20  21
BRANCH  20  43
HETATM   43  O4  UNL     1      36.630  21.866   4.517  1.00  0.00    -0.395 OA
ATOM     44  H4  UNL     1      36.889  20.961   4.384  1.00  0.00     0.210 HD
ENDBRANCH  20  43
ENDBRANCH   1  20
BRANCH   4  45
HETATM   45  C23 UNL     1      37.283  27.493   7.375  1.00  0.00     0.015 C 
BRANCH  45  46
HETATM   46  C24 UNL     1      37.179  28.415   8.543  1.00  0.00     0.001 C 
BRANCH  46  47
HETATM   47  C25 UNL     1      37.058  29.873   8.077  1.00  0.00     0.004 C 
BRANCH  47  48
HETATM   48  C26 UNL     1      35.817  30.504   8.607  1.00  0.00    -0.023 C 
HETATM   49  C27 UNL     1      36.155  31.514   9.685  1.00  0.00     0.009 C 
HETATM   50  C28 UNL     1      35.030  29.386   9.311  1.00  0.00     0.009 C 
ENDBRANCH  47  48
ENDBRANCH  46  47
ENDBRANCH  45  46
ENDBRANCH   4  45
TORSDOF 14
ENDMDL
MODEL 5
REMARK VINA RESULT: -8.586418146      1.149      2.636
REMARK  14 active torsions:
REMARK  status: ('A' for Active; 'I' for Inactive)
REMARK    1  A    between atoms: C5_5  and  C6_6 
REMARK    2  A    between atoms: C6_6  and  O2_8 
REMARK    3  A    between atoms: O2_8  and  C7_9 
REMARK    4  A    between atoms: C12_14  and  C13_15 
REMARK    5  A    between atoms: C13_15  and  C15_17 
REMARK    6  A    between atoms: C15_17  and  O3_18 
REMARK    7  A    between atoms: C15_17  and  C16_20 
REMARK    8  A    between atoms: C16_20  and  C17_21 
REMARK    9  A    between atoms: C17_21  and  O4_22 
REMARK   10  A    between atoms: C17_21  and  C18_24 
REMARK   11  A    between atoms: C21_27  and  C23_29 
REMARK   12  A    between atoms: C23_29  and  C24_30 
REMARK   13  A    between atoms: C24_30  and  C25_31 
REMARK   14  A    between atoms: C25_31  and  C26_32 
ROOT
HETATM    1  C18 UNL     1      37.199  24.003   5.612  1.00  0.00     0.089 C 
HETATM    2  C19 UNL     1      38.395  24.765   6.105  1.00  0.00     0.014 C 
HETATM    3  C20 UNL     1      38.382  25.088   7.575  1.00  0.00     0.016 C 
HETATM    4  C21 UNL     1      37.193  25.893   7.942  1.00  0.00    -0.000 C 
HETATM    5  C22 UNL     1      36.859  25.745   9.430  1.00  0.00     0.021 C 
HETATM    6  C29 UNL     1      36.022  25.430   7.120  1.00  0.00     0.057 C 
HETATM    7  N1  UNL     1      35.092  26.235   6.879  1.00  0.00    -0.400 N 
ATOM      8  H11 UNL     1      34.297  25.920   6.321  1.00  0.00     0.155 HD
ATOM      9  H12 UNL     1      35.056  27.201   7.204  1.00  0.00     0.155 HD
HETATM   10  C30 UNL     1      36.075  24.002   6.640  1.00  0.00     0.274 C 
HETATM   11  O5  UNL     1      34.859  23.704   6.085  1.00  0.00    -0.188 OA
HETATM   12  O6  UNL     1      33.935  23.802   7.010  1.00  0.00    -0.194 OA
HETATM   13  C31 UNL     1      34.115  22.847   7.973  1.00  0.00     0.230 C 
HETATM   14  C32 UNL     1      33.382  21.586   7.506  1.00  0.00     0.074 C 
HETATM   15  C33 UNL     1      32.094  21.515   8.254  1.00  0.00     0.006 C 
HETATM   16  C34 UNL     1      31.959  22.796   9.034  1.00  0.00     0.006 C 
HETATM   17  C35 UNL     1      33.378  23.250   9.235  1.00  0.00     0.074 C 
HETATM   18  O7  UNL     1      35.412  22.489   8.202  1.00  0.00    -0.194 OA
HETATM   19  O8  UNL     1      36.341  23.227   7.727  1.00  0.00    -0.188 OA
ENDROOT
BRANCH   1  20
HETATM   20  C17 UNL     1      37.560  22.656   5.093  1.00  0.00     0.130 C 
BRANCH  20  21
HETATM   21  C16 UNL     1      38.778  22.684   4.239  1.00  0.00     0.064 C 
BRANCH  21  22
HETATM   22  C15 UNL     1      38.518  22.896   2.769  1.00  0.00     0.125 C 
BRANCH  22  23
HETATM   23  C13 UNL     1      39.216  24.051   2.159  1.00  0.00     0.020 C 
HETATM   24  C14 UNL     1      40.656  24.075   2.686  1.00  0.00     0.013 C 
BRANCH  23  25
HETATM   25  C12 UNL     1      38.544  25.364   2.451  1.00  0.00     0.043 C 
HETATM   26  C7  UNL     1      39.200  26.516   1.735  1.00  0.00     0.140 C 
HETATM   27  C8  UNL     1      38.750  26.500   0.293  1.00  0.00     0.037 C 
HETATM   28  C9  UNL     1      37.292  26.878   0.246  1.00  0.00     0.029 C 
HETATM   29  C10 UNL     1      36.529  26.041   1.186  1.00  0.00    -0.030 C 
HETATM   30  C11 UNL     1      37.101  25.367   2.174  1.00  0.00    -0.023 C 
BRANCH  26  31
HETATM   31  O2  UNL     1      38.715  27.719   2.315  1.00  0.00    -0.315 OA
BRANCH  31  32
HETATM   32  C6  UNL     1      39.161  28.130   3.581  1.00  0.00     0.263 C 
HETATM   33  O1  UNL     1      40.343  27.854   3.880  1.00  0.00    -0.265 OA
BRANCH  32  34
HETATM   34  C5  UNL     1      38.216  28.842   4.443  1.00  0.00     0.089 C 
HETATM   35  C4  UNL     1      38.430  30.354   4.399  1.00  0.00     0.042 C 
HETATM   36  C3  UNL     1      37.668  30.893   5.547  1.00  0.00    -0.023 C 
HETATM   37  C2  UNL     1      36.482  30.388   5.837  1.00  0.00    -0.087 C 
HETATM   38  C1  UNL     1      35.694  30.938   7.018  1.00  0.00     0.043 C 
HETATM   39  C37 UNL     1      35.884  29.304   5.055  1.00  0.00     0.034 C 
HETATM   40  C36 UNL     1      36.785  28.555   4.144  1.00  0.00     0.019 C 
ENDBRANCH  32  34
ENDBRANCH  31  32
ENDBRANCH  26  31
ENDBRANCH  23  25
ENDBRANCH  22  23
BRANCH  22  41
HETATM   41  O3  UNL     1      38.677  21.679   2.155  1.00  0.00    -0.395 OA
ATOM     42  H3  UNL     1      37.886  21.225   1.887  1.00  0.00     0.210 HD
ENDBRANCH  22  41
ENDBRANCH  21  22
ENDBRANCH  20  21
BRANCH  20  43
HETATM   43  O4  UNL     1      36.512  21.971   4.477  1.00  0.00    -0.395 OA
ATOM     44  H4  UNL     1      36.598  21.973   3.531  1.00  0.00     0.210 HD
ENDBRANCH  20  43
ENDBRANCH   1  20
BRANCH   4  45
HETATM   45  C23 UNL     1      37.404  27.360   7.693  1.00  0.00     0.015 C 
BRANCH  45  46
HETATM   46  C24 UNL     1      38.528  27.932   8.488  1.00  0.00     0.001 C 
BRANCH  46  47
HETATM   47  C25 UNL     1      39.604  28.522   7.563  1.00  0.00     0.004 C 
BRANCH  47  48
HETATM   48  C26 UNL     1      40.963  28.057   7.958  1.00  0.00    -0.023 C 
HETATM   49  C27 UNL     1      41.475  27.021   6.977  1.00  0.00     0.009 C 
HETATM   50  C28 UNL     1      40.797  27.320   9.298  1.00  0.00     0.009 C 
ENDBRANCH  47  48
ENDBRANCH  46  47
ENDBRANCH  45  46
ENDBRANCH   4  45
TORSDOF 14
ENDMDL
