MODEL 1
REMARK VINA RESULT: -8.029794206      0.000      0.000
REMARK  16 active torsions:
REMARK  status: ('A' for Active; 'I' for Inactive)
REMARK    1  A    between atoms: C2_2  and  C3_3 
REMARK    2  A    between atoms: C3_3  and  C4_4 
REMARK    3  A    between atoms: C5_5  and  C7_7 
REMARK    4  A    between atoms: C7_7  and  C8_8 
REMARK    5  A    between atoms: C10_10  and  O1_11 
REMARK    6  A    between atoms: C15_19  and  C16_20 
REMARK    7  A    between atoms: C16_20  and  O4_21 
REMARK    8  A    between atoms: C16_20  and  C17_23 
REMARK    9  A    between atoms: C17_23  and  C18_24 
REMARK   10  A    between atoms: C18_24  and  C19_25 
REMARK   11  A    between atoms: C24_32  and  O7_34 
REMARK   12  A    between atoms: O7_34  and  C26_35 
REMARK   13  A    between atoms: C26_35  and  O8_36 
REMARK   14  A    between atoms: C26_35  and  C27_38 
REMARK   15  A    between atoms: C28_39  and  O9_40 
REMARK   16  A    between atoms: C34_47  and  C36_49 
ROOT
HETATM    1  C8  UNL     1      37.199  25.944   4.443  1.00  0.00     0.033 C 
HETATM    2  C9  UNL     1      36.696  24.650   3.733  1.00  0.00     0.045 C 
HETATM    3  C10 UNL     1      36.417  23.649   4.816  1.00  0.00     0.187 C 
HETATM    4  C11 UNL     1      36.716  24.406   6.110  1.00  0.00     0.258 C 
HETATM    5  O2  UNL     1      35.591  25.194   6.349  1.00  0.00    -0.191 OA
HETATM    6  O3  UNL     1      34.858  24.485   7.134  1.00  0.00    -0.189 OA
HETATM    7  C12 UNL     1      35.629  23.538   7.756  1.00  0.00     0.262 C 
HETATM    8  C13 UNL     1      35.659  23.810   9.258  1.00  0.00     0.081 C 
HETATM    9  C14 UNL     1      34.327  23.307   9.722  1.00  0.00     0.021 C 
HETATM   10  C15 UNL     1      33.902  22.260   8.736  1.00  0.00     0.090 C 
HETATM   11  C23 UNL     1      34.992  22.213   7.707  1.00  0.00     0.198 C 
HETATM   12  O5  UNL     1      35.207  21.221   7.038  1.00  0.00    -0.291 OA
HETATM   13  O6  UNL     1      36.902  23.612   7.168  1.00  0.00    -0.302 OA
HETATM   14  C24 UNL     1      37.881  25.301   5.631  1.00  0.00     0.132 C 
HETATM   15  C25 UNL     1      38.940  24.371   5.113  1.00  0.00     0.053 C 
ENDROOT
BRANCH   3  16
HETATM   16  O1  UNL     1      37.150  22.510   4.659  1.00  0.00    -0.390 OA
ATOM     17  H1  UNL     1      37.617  22.274   5.453  1.00  0.00     0.210 HD
ENDBRANCH   3  16
BRANCH  14  18
HETATM   18  O7  UNL     1      38.424  26.007   6.627  1.00  0.00    -0.313 OA
BRANCH  18  19
HETATM   19  C26 UNL     1      38.517  26.962   7.422  1.00  0.00     0.193 C 
BRANCH  19  20
HETATM   20  O8  UNL     1      38.756  26.351   8.630  1.00  0.00    -0.340 OA
ATOM     21  H8  UNL     1      38.436  26.981   9.265  1.00  0.00     0.220 HD
ENDBRANCH  19  20
BRANCH  19  22
HETATM   22  C27 UNL     1      38.478  28.367   7.709  1.00  0.00     0.065 A 
HETATM   23  C28 UNL     1      39.774  28.949   7.686  1.00  0.00     0.082 A 
HETATM   24  C29 UNL     1      39.945  30.195   8.194  1.00  0.00     0.044 A 
HETATM   25  C30 UNL     1      38.905  30.912   8.727  1.00  0.00    -0.059 A 
HETATM   26  C31 UNL     1      39.115  32.277   9.269  1.00  0.00     0.048 C 
HETATM   27  C32 UNL     1      37.689  30.332   8.721  1.00  0.00     0.019 A 
HETATM   28  C33 UNL     1      37.371  29.017   8.205  1.00  0.00    -0.016 A 
HETATM   29  C34 UNL     1      35.970  28.750   8.047  1.00  0.00    -0.073 C 
HETATM   30  C35 UNL     1      35.132  29.031   9.315  1.00  0.00     0.044 C 
BRANCH  23  31
HETATM   31  O9  UNL     1      40.836  28.273   7.148  1.00  0.00    -0.360 OA
ATOM     32  H9  UNL     1      41.657  28.206   7.619  1.00  0.00     0.217 HD
ENDBRANCH  23  31
BRANCH  29  33
HETATM   33  C36 UNL     1      35.175  28.157   6.972  1.00  0.00     0.030 C 
HETATM   34  C37 UNL     1      34.317  29.142   6.173  1.00  0.00     0.010 C 
ENDBRANCH  29  33
ENDBRANCH  19  22
ENDBRANCH  18  19
ENDBRANCH  14  18
BRANCH   1  35
HETATM   35  C7  UNL     1      38.188  26.611   3.546  1.00  0.00     0.042 C 
BRANCH  35  36
HETATM   36  C5  UNL     1      38.506  28.024   3.880  1.00  0.00    -0.076 C 
HETATM   37  C4  UNL     1      37.487  28.842   4.280  1.00  0.00     0.053 C 
HETATM   38  C6  UNL     1      39.855  28.554   3.830  1.00  0.00     0.044 C 
BRANCH  37  39
HETATM   39  C3  UNL     1      37.664  30.220   4.668  1.00  0.00    -0.156 C 
BRANCH  39  40
HETATM   40  C2  UNL     1      37.807  31.371   4.999  1.00  0.00     0.080 C 
HETATM   41  C1  UNL     1      36.700  32.132   5.718  1.00  0.00     0.017 C 
ENDBRANCH  39  40
ENDBRANCH  37  39
ENDBRANCH  35  36
ENDBRANCH   1  35
BRANCH  10  42
HETATM   42  C16 UNL     1      32.597  22.568   8.079  1.00  0.00     0.130 C 
BRANCH  42  43
HETATM   43  O4  UNL     1      32.474  21.830   6.895  1.00  0.00    -0.395 OA
ATOM     44  H4  UNL     1      31.694  21.289   6.931  1.00  0.00     0.210 HD
ENDBRANCH  42  43
BRANCH  42  45
HETATM   45  C17 UNL     1      31.375  22.265   8.910  1.00  0.00     0.036 C 
BRANCH  45  46
HETATM   46  C18 UNL     1      31.550  21.026   9.750  1.00  0.00     0.030 C 
BRANCH  46  47
HETATM   47  C19 UNL     1      31.323  21.413  11.183  1.00  0.00    -0.025 C 
HETATM   48  C20 UNL     1      31.207  20.466  12.103  1.00  0.00    -0.091 C 
HETATM   49  C21 UNL     1      31.294  19.027  11.735  1.00  0.00     0.042 C 
HETATM   50  C22 UNL     1      30.979  20.883  13.509  1.00  0.00     0.042 C 
ENDBRANCH  46  47
ENDBRANCH  45  46
ENDBRANCH  42  45
ENDBRANCH  10  42
TORSDOF 16
ENDMDL
MODEL 2
REMARK VINA RESULT: -8.017348446      2.766      5.406
REMARK  16 active torsions:
REMARK  status: ('A' for Active; 'I' for Inactive)
REMARK    1  A    between atoms: C2_2  and  C3_3 
REMARK    2  A    between atoms: C3_3  and  C4_4 
REMARK    3  A    between atoms: C5_5  and  C7_7 
REMARK    4  A    between atoms: C7_7  and  C8_8 
REMARK    5  A    between atoms: C10_10  and  O1_11 
REMARK    6  A    between atoms: C15_19  and  C16_20 
REMARK    7  A    between atoms: C16_20  and  O4_21 
REMARK    8  A    between atoms: C16_20  and  C17_23 
REMARK    9  A    between atoms: C17_23  and  C18_24 
REMARK   10  A    between atoms: C18_24  and  C19_25 
REMARK   11  A    between atoms: C24_32  and  O7_34 
REMARK   12  A    between atoms: O7_34  and  C26_35 
REMARK   13  A    between atoms: C26_35  and  O8_36 
REMARK   14  A    between atoms: C26_35  and  C27_38 
REMARK   15  A    between atoms: C28_39  and  O9_40 
REMARK   16  A    between atoms: C34_47  and  C36_49 
ROOT
HETATM    1  C8  UNL     1      38.267  24.608   6.718  1.00  0.00     0.033 C 
HETATM    2  C9  UNL     1      37.879  25.001   8.175  1.00  0.00     0.045 C 
HETATM    3  C10 UNL     1      36.392  24.825   8.284  1.00  0.00     0.187 C 
HETATM    4  C11 UNL     1      35.978  24.293   6.913  1.00  0.00     0.258 C 
HETATM    5  O2  UNL     1      36.285  22.933   6.932  1.00  0.00    -0.191 OA
HETATM    6  O3  UNL     1      35.193  22.358   7.295  1.00  0.00    -0.189 OA
HETATM    7  C12 UNL     1      34.131  23.192   7.060  1.00  0.00     0.262 C 
HETATM    8  C13 UNL     1      33.222  22.574   6.000  1.00  0.00     0.081 C 
HETATM    9  C14 UNL     1      32.475  21.524   6.764  1.00  0.00     0.021 C 
HETATM   10  C15 UNL     1      32.460  21.970   8.195  1.00  0.00     0.090 C 
HETATM   11  C23 UNL     1      33.233  23.256   8.222  1.00  0.00     0.198 C 
HETATM   12  O5  UNL     1      33.055  24.098   9.080  1.00  0.00    -0.291 OA
HETATM   13  O6  UNL     1      34.674  24.423   6.655  1.00  0.00    -0.302 OA
HETATM   14  C24 UNL     1      36.995  25.039   6.020  1.00  0.00     0.132 C 
HETATM   15  C25 UNL     1      36.792  26.503   6.284  1.00  0.00     0.053 C 
ENDROOT
BRANCH   3  16
HETATM   16  O1  UNL     1      35.766  25.983   8.640  1.00  0.00    -0.390 OA
ATOM     17  H1  UNL     1      34.854  25.992   8.373  1.00  0.00     0.210 HD
ENDBRANCH   3  16
BRANCH  14  18
HETATM   18  O7  UNL     1      36.777  24.836   4.718  1.00  0.00    -0.313 OA
BRANCH  18  19
HETATM   19  C26 UNL     1      37.006  24.946   3.497  1.00  0.00     0.193 C 
BRANCH  19  20
HETATM   20  O8  UNL     1      35.820  24.567   2.913  1.00  0.00    -0.340 OA
ATOM     21  H8  UNL     1      35.197  25.204   3.244  1.00  0.00     0.220 HD
ENDBRANCH  19  20
BRANCH  19  22
HETATM   22  C27 UNL     1      37.887  25.245   2.406  1.00  0.00     0.065 A 
HETATM   23  C28 UNL     1      38.521  24.078   1.900  1.00  0.00     0.082 A 
HETATM   24  C29 UNL     1      39.575  24.214   1.058  1.00  0.00     0.044 A 
HETATM   25  C30 UNL     1      40.046  25.443   0.676  1.00  0.00    -0.059 A 
HETATM   26  C31 UNL     1      41.195  25.566  -0.255  1.00  0.00     0.048 C 
HETATM   27  C32 UNL     1      39.413  26.526   1.166  1.00  0.00     0.019 A 
HETATM   28  C33 UNL     1      38.278  26.520   2.065  1.00  0.00    -0.016 A 
HETATM   29  C34 UNL     1      37.609  27.781   2.205  1.00  0.00    -0.073 C 
HETATM   30  C35 UNL     1      38.551  28.953   2.562  1.00  0.00     0.044 C 
BRANCH  23  31
HETATM   31  O9  UNL     1      38.069  22.832   2.245  1.00  0.00    -0.360 OA
ATOM     32  H9  UNL     1      37.627  22.284   1.607  1.00  0.00     0.217 HD
ENDBRANCH  23  31
BRANCH  29  33
HETATM   33  C36 UNL     1      36.201  28.179   2.195  1.00  0.00     0.030 C 
HETATM   34  C37 UNL     1      35.736  28.967   3.423  1.00  0.00     0.010 C 
ENDBRANCH  29  33
ENDBRANCH  19  22
ENDBRANCH  18  19
ENDBRANCH  14  18
BRANCH   1  35
HETATM   35  C7  UNL     1      39.426  25.453   6.303  1.00  0.00     0.042 C 
BRANCH  35  36
HETATM   36  C5  UNL     1      40.323  24.854   5.280  1.00  0.00    -0.076 C 
HETATM   37  C4  UNL     1      41.234  25.663   4.662  1.00  0.00     0.053 C 
HETATM   38  C6  UNL     1      40.291  23.445   4.942  1.00  0.00     0.044 C 
BRANCH  37  39
HETATM   39  C3  UNL     1      42.187  25.203   3.682  1.00  0.00    -0.156 C 
BRANCH  39  40
HETATM   40  C2  UNL     1      42.988  24.826   2.862  1.00  0.00     0.080 C 
HETATM   41  C1  UNL     1      43.023  23.376   2.397  1.00  0.00     0.017 C 
ENDBRANCH  39  40
ENDBRANCH  37  39
ENDBRANCH  35  36
ENDBRANCH   1  35
BRANCH  10  42
HETATM   42  C16 UNL     1      33.085  20.983   9.124  1.00  0.00     0.130 C 
BRANCH  42  43
HETATM   43  O4  UNL     1      34.230  21.539   9.709  1.00  0.00    -0.395 OA
ATOM     44  H4  UNL     1      34.607  20.925  10.328  1.00  0.00     0.210 HD
ENDBRANCH  42  43
BRANCH  42  45
HETATM   45  C17 UNL     1      32.200  20.519  10.255  1.00  0.00     0.036 C 
BRANCH  45  46
HETATM   46  C18 UNL     1      31.329  21.627  10.789  1.00  0.00     0.030 C 
BRANCH  46  47
HETATM   47  C19 UNL     1      31.032  21.317  12.227  1.00  0.00    -0.025 C 
HETATM   48  C20 UNL     1      30.526  22.264  13.005  1.00  0.00    -0.091 C 
HETATM   49  C21 UNL     1      30.252  23.626  12.475  1.00  0.00     0.042 C 
HETATM   50  C22 UNL     1      30.247  21.926  14.424  1.00  0.00     0.042 C 
ENDBRANCH  46  47
ENDBRANCH  45  46
ENDBRANCH  42  45
ENDBRANCH  10  42
TORSDOF 16
ENDMDL
MODEL 3
REMARK VINA RESULT: -7.914148837      0.914      2.253
REMARK  16 active torsions:
REMARK  status: ('A' for Active; 'I' for Inactive)
REMARK    1  A    between atoms: C2_2  and  C3_3 
REMARK    2  A    between atoms: C3_3  and  C4_4 
REMARK    3  A    between atoms: C5_5  and  C7_7 
REMARK    4  A    between atoms: C7_7  and  C8_8 
REMARK    5  A    between atoms: C10_10  and  O1_11 
REMARK    6  A    between atoms: C15_19  and  C16_20 
REMARK    7  A    between atoms: C16_20  and  O4_21 
REMARK    8  A    between atoms: C16_20  and  C17_23 
REMARK    9  A    between atoms: C17_23  and  C18_24 
REMARK   10  A    between atoms: C18_24  and  C19_25 
REMARK   11  A    between atoms: C24_32  and  O7_34 
REMARK   12  A    between atoms: O7_34  and  C26_35 
REMARK   13  A    between atoms: C26_35  and  O8_36 
REMARK   14  A    between atoms: C26_35  and  C27_38 
REMARK   15  A    between atoms: C28_39  and  O9_40 
REMARK   16  A    between atoms: C34_47  and  C36_49 
ROOT
HETATM    1  C8  UNL     1      37.052  26.096   4.468  1.00  0.00     0.033 C 
HETATM    2  C9  UNL     1      36.581  24.815   3.716  1.00  0.00     0.045 C 
HETATM    3  C10 UNL     1      36.346  23.766   4.764  1.00  0.00     0.187 C 
HETATM    4  C11 UNL     1      36.636  24.483   6.082  1.00  0.00     0.258 C 
HETATM    5  O2  UNL     1      35.491  25.227   6.362  1.00  0.00    -0.191 OA
HETATM    6  O3  UNL     1      34.789  24.466   7.128  1.00  0.00    -0.189 OA
HETATM    7  C12 UNL     1      35.596  23.522   7.706  1.00  0.00     0.262 C 
HETATM    8  C13 UNL     1      35.634  23.740   9.216  1.00  0.00     0.081 C 
HETATM    9  C14 UNL     1      34.324  23.178   9.675  1.00  0.00     0.021 C 
HETATM   10  C15 UNL     1      33.921  22.155   8.655  1.00  0.00     0.090 C 
HETATM   11  C23 UNL     1      35.000  22.181   7.614  1.00  0.00     0.198 C 
HETATM   12  O5  UNL     1      35.237  21.221   6.907  1.00  0.00    -0.291 OA
HETATM   13  O6  UNL     1      36.859  23.657   7.107  1.00  0.00    -0.302 OA
HETATM   14  C24 UNL     1      37.767  25.432   5.625  1.00  0.00     0.132 C 
HETATM   15  C25 UNL     1      38.848  24.555   5.061  1.00  0.00     0.053 C 
ENDROOT
BRANCH   3  16
HETATM   16  O1  UNL     1      37.112  22.657   4.557  1.00  0.00    -0.390 OA
ATOM     17  H1  UNL     1      37.588  22.700   3.735  1.00  0.00     0.210 HD
ENDBRANCH   3  16
BRANCH  14  18
HETATM   18  O7  UNL     1      38.300  26.117   6.640  1.00  0.00    -0.313 OA
BRANCH  18  19
HETATM   19  C26 UNL     1      38.288  26.887   7.621  1.00  0.00     0.193 C 
BRANCH  19  20
HETATM   20  O8  UNL     1      38.851  26.134   8.625  1.00  0.00    -0.340 OA
ATOM     21  H8  UNL     1      39.587  25.711   8.198  1.00  0.00     0.220 HD
ENDBRANCH  19  20
BRANCH  19  22
HETATM   22  C27 UNL     1      37.963  28.145   8.227  1.00  0.00     0.065 A 
HETATM   23  C28 UNL     1      36.594  28.217   8.600  1.00  0.00     0.082 A 
HETATM   24  C29 UNL     1      36.065  29.419   8.935  1.00  0.00     0.044 A 
HETATM   25  C30 UNL     1      36.810  30.569   8.928  1.00  0.00    -0.059 A 
HETATM   26  C31 UNL     1      36.212  31.872   9.307  1.00  0.00     0.048 C 
HETATM   27  C32 UNL     1      38.108  30.461   8.580  1.00  0.00     0.019 A 
HETATM   28  C33 UNL     1      38.795  29.242   8.208  1.00  0.00    -0.016 A 
HETATM   29  C34 UNL     1      40.225  29.341   8.168  1.00  0.00    -0.073 C 
HETATM   30  C35 UNL     1      40.748  30.516   7.312  1.00  0.00     0.044 C 
BRANCH  23  31
HETATM   31  O9  UNL     1      35.819  27.088   8.636  1.00  0.00    -0.360 OA
ATOM     32  H9  UNL     1      35.336  26.857   9.421  1.00  0.00     0.217 HD
ENDBRANCH  23  31
BRANCH  29  33
HETATM   33  C36 UNL     1      41.306  28.493   8.673  1.00  0.00     0.030 C 
HETATM   34  C37 UNL     1      41.956  27.575   7.635  1.00  0.00     0.010 C 
ENDBRANCH  29  33
ENDBRANCH  19  22
ENDBRANCH  18  19
ENDBRANCH  14  18
BRANCH   1  35
HETATM   35  C7  UNL     1      38.009  26.827   3.587  1.00  0.00     0.042 C 
BRANCH  35  36
HETATM   36  C5  UNL     1      38.399  28.185   4.049  1.00  0.00    -0.076 C 
HETATM   37  C4  UNL     1      37.411  29.090   4.314  1.00  0.00     0.053 C 
HETATM   38  C6  UNL     1      39.781  28.570   4.261  1.00  0.00     0.044 C 
BRANCH  37  39
HETATM   39  C3  UNL     1      37.650  30.425   4.803  1.00  0.00    -0.156 C 
BRANCH  39  40
HETATM   40  C2  UNL     1      37.842  31.543   5.215  1.00  0.00     0.080 C 
HETATM   41  C1  UNL     1      36.687  32.438   5.646  1.00  0.00     0.017 C 
ENDBRANCH  39  40
ENDBRANCH  37  39
ENDBRANCH  35  36
ENDBRANCH   1  35
BRANCH  10  42
HETATM   42  C16 UNL     1      32.600  22.446   8.024  1.00  0.00     0.130 C 
BRANCH  42  43
HETATM   43  O4  UNL     1      32.430  21.648   6.885  1.00  0.00    -0.395 OA
ATOM     44  H4  UNL     1      32.333  22.198   6.117  1.00  0.00     0.210 HD
ENDBRANCH  42  43
BRANCH  42  45
HETATM   45  C17 UNL     1      31.401  22.204   8.908  1.00  0.00     0.036 C 
BRANCH  45  46
HETATM   46  C18 UNL     1      31.551  20.959   9.744  1.00  0.00     0.030 C 
BRANCH  46  47
HETATM   47  C19 UNL     1      31.373  21.353  11.181  1.00  0.00    -0.025 C 
HETATM   48  C20 UNL     1      31.203  20.411  12.099  1.00  0.00    -0.091 C 
HETATM   49  C21 UNL     1      31.182  18.972  11.723  1.00  0.00     0.042 C 
HETATM   50  C22 UNL     1      31.026  20.836  13.510  1.00  0.00     0.042 C 
ENDBRANCH  46  47
ENDBRANCH  45  46
ENDBRANCH  42  45
ENDBRANCH  10  42
TORSDOF 16
ENDMDL
MODEL 4
REMARK VINA RESULT: -7.888584068      2.878      3.998
REMARK  16 active torsions:
REMARK  status: ('A' for Active; 'I' for Inactive)
REMARK    1  A    between atoms: C2_2  and  C3_3 
REMARK    2  A    between atoms: C3_3  and  C4_4 
REMARK    3  A    between atoms: C5_5  and  C7_7 
REMARK    4  A    between atoms: C7_7  and  C8_8 
REMARK    5  A    between atoms: C10_10  and  O1_11 
REMARK    6  A    between atoms: C15_19  and  C16_20 
REMARK    7  A    between atoms: C16_20  and  O4_21 
REMARK    8  A    between atoms: C16_20  and  C17_23 
REMARK    9  A    between atoms: C17_23  and  C18_24 
REMARK   10  A    between atoms: C18_24  and  C19_25 
REMARK   11  A    between atoms: C24_32  and  O7_34 
REMARK   12  A    between atoms: O7_34  and  C26_35 
REMARK   13  A    between atoms: C26_35  and  O8_36 
REMARK   14  A    between atoms: C26_35  and  C27_38 
REMARK   15  A    between atoms: C28_39  and  O9_40 
REMARK   16  A    between atoms: C34_47  and  C36_49 
ROOT
HETATM    1  C8  UNL     1      39.200  25.208   2.439  1.00  0.00     0.033 C 
HETATM    2  C9  UNL     1      38.516  23.979   1.767  1.00  0.00     0.045 C 
HETATM    3  C10 UNL     1      37.970  23.132   2.879  1.00  0.00     0.187 C 
HETATM    4  C11 UNL     1      38.308  23.917   4.146  1.00  0.00     0.258 C 
HETATM    5  O2  UNL     1      37.339  24.915   4.237  1.00  0.00    -0.191 OA
HETATM    6  O3  UNL     1      36.428  24.415   4.995  1.00  0.00    -0.189 OA
HETATM    7  C12 UNL     1      36.954  23.393   5.739  1.00  0.00     0.262 C 
HETATM    8  C13 UNL     1      36.921  23.768   7.218  1.00  0.00     0.081 C 
HETATM    9  C14 UNL     1      35.487  23.556   7.591  1.00  0.00     0.021 C 
HETATM   10  C15 UNL     1      34.946  22.533   6.637  1.00  0.00     0.090 C 
HETATM   11  C23 UNL     1      36.083  22.208   5.714  1.00  0.00     0.198 C 
HETATM   12  O5  UNL     1      36.155  21.145   5.128  1.00  0.00    -0.291 OA
HETATM   13  O6  UNL     1      38.259  23.185   5.263  1.00  0.00    -0.302 OA
HETATM   14  C24 UNL     1      39.655  24.543   3.720  1.00  0.00     0.132 C 
HETATM   15  C25 UNL     1      40.554  23.397   3.355  1.00  0.00     0.053 C 
ENDROOT
BRANCH   3  16
HETATM   16  O1  UNL     1      38.483  21.869   2.857  1.00  0.00    -0.390 OA
ATOM     17  H1  UNL     1      38.414  21.442   3.703  1.00  0.00     0.210 HD
ENDBRANCH   3  16
BRANCH  14  18
HETATM   18  O7  UNL     1      40.246  25.210   4.715  1.00  0.00    -0.313 OA
BRANCH  18  19
HETATM   19  C26 UNL     1      40.426  26.173   5.487  1.00  0.00     0.193 C 
BRANCH  19  20
HETATM   20  O8  UNL     1      40.046  27.260   4.735  1.00  0.00    -0.340 OA
ATOM     21  H8  UNL     1      39.589  27.811   5.360  1.00  0.00     0.220 HD
ENDBRANCH  19  20
BRANCH  19  22
HETATM   22  C27 UNL     1      40.850  26.711   6.746  1.00  0.00     0.065 A 
HETATM   23  C28 UNL     1      42.251  26.948   6.778  1.00  0.00     0.082 A 
HETATM   24  C29 UNL     1      42.850  27.199   7.968  1.00  0.00     0.044 A 
HETATM   25  C30 UNL     1      42.145  27.234   9.143  1.00  0.00    -0.059 A 
HETATM   26  C31 UNL     1      42.821  27.519  10.433  1.00  0.00     0.048 C 
HETATM   27  C32 UNL     1      40.817  27.015   9.073  1.00  0.00     0.019 A 
HETATM   28  C33 UNL     1      40.057  26.744   7.871  1.00  0.00    -0.016 A 
HETATM   29  C34 UNL     1      38.634  26.839   8.020  1.00  0.00    -0.073 C 
HETATM   30  C35 UNL     1      38.070  26.008   9.193  1.00  0.00     0.044 C 
BRANCH  23  31
HETATM   31  O9  UNL     1      42.988  26.939   5.624  1.00  0.00    -0.360 OA
ATOM     32  H9  UNL     1      42.787  26.327   4.926  1.00  0.00     0.217 HD
ENDBRANCH  23  31
BRANCH  29  33
HETATM   33  C36 UNL     1      37.580  27.469   7.223  1.00  0.00     0.030 C 
HETATM   34  C37 UNL     1      36.231  27.625   7.930  1.00  0.00     0.010 C 
ENDBRANCH  29  33
ENDBRANCH  19  22
ENDBRANCH  18  19
ENDBRANCH  14  18
BRANCH   1  35
HETATM   35  C7  UNL     1      40.363  25.612   1.595  1.00  0.00     0.042 C 
BRANCH  35  36
HETATM   36  C5  UNL     1      40.028  26.358   0.354  1.00  0.00    -0.076 C 
HETATM   37  C4  UNL     1      40.874  26.255  -0.714  1.00  0.00     0.053 C 
HETATM   38  C6  UNL     1      38.825  27.157   0.224  1.00  0.00     0.044 C 
BRANCH  37  39
HETATM   39  C3  UNL     1      40.647  26.895  -1.986  1.00  0.00    -0.156 C 
BRANCH  39  40
HETATM   40  C2  UNL     1      40.451  27.425  -3.053  1.00  0.00     0.080 C 
HETATM   41  C1  UNL     1      39.477  28.587  -3.193  1.00  0.00     0.017 C 
ENDBRANCH  39  40
ENDBRANCH  37  39
ENDBRANCH  35  36
ENDBRANCH   1  35
BRANCH  10  42
HETATM   42  C16 UNL     1      33.778  23.026   5.849  1.00  0.00     0.130 C 
BRANCH  42  43
HETATM   43  O4  UNL     1      34.129  23.139   4.497  1.00  0.00    -0.395 OA
ATOM     44  H4  UNL     1      34.288  22.277   4.132  1.00  0.00     0.210 HD
ENDBRANCH  42  43
BRANCH  42  45
HETATM   45  C17 UNL     1      32.551  22.150   5.909  1.00  0.00     0.036 C 
BRANCH  45  46
HETATM   46  C18 UNL     1      32.390  21.485   7.252  1.00  0.00     0.030 C 
BRANCH  46  47
HETATM   47  C19 UNL     1      31.895  22.524   8.216  1.00  0.00    -0.025 C 
HETATM   48  C20 UNL     1      31.724  22.201   9.490  1.00  0.00    -0.091 C 
HETATM   49  C21 UNL     1      32.012  20.825   9.976  1.00  0.00     0.042 C 
HETATM   50  C22 UNL     1      31.230  23.251  10.416  1.00  0.00     0.042 C 
ENDBRANCH  46  47
ENDBRANCH  45  46
ENDBRANCH  42  45
ENDBRANCH  10  42
TORSDOF 16
ENDMDL
MODEL 5
REMARK VINA RESULT: -7.853662988      1.126      2.489
REMARK  16 active torsions:
REMARK  status: ('A' for Active; 'I' for Inactive)
REMARK    1  A    between atoms: C2_2  and  C3_3 
REMARK    2  A    between atoms: C3_3  and  C4_4 
REMARK    3  A    between atoms: C5_5  and  C7_7 
REMARK    4  A    between atoms: C7_7  and  C8_8 
REMARK    5  A    between atoms: C10_10  and  O1_11 
REMARK    6  A    between atoms: C15_19  and  C16_20 
REMARK    7  A    between atoms: C16_20  and  O4_21 
REMARK    8  A    between atoms: C16_20  and  C17_23 
REMARK    9  A    between atoms: C17_23  and  C18_24 
REMARK   10  A    between atoms: C18_24  and  C19_25 
REMARK   11  A    between atoms: C24_32  and  O7_34 
REMARK   12  A    between atoms: O7_34  and  C26_35 
REMARK   13  A    between atoms: C26_35  and  O8_36 
REMARK   14  A    between atoms: C26_35  and  C27_38 
REMARK   15  A    between atoms: C28_39  and  O9_40 
REMARK   16  A    between atoms: C34_47  and  C36_49 
ROOT
HETATM    1  C8  UNL     1      37.288  25.807   4.409  1.00  0.00     0.033 C 
HETATM    2  C9  UNL     1      36.708  24.537   3.717  1.00  0.00     0.045 C 
HETATM    3  C10 UNL     1      36.394  23.559   4.812  1.00  0.00     0.187 C 
HETATM    4  C11 UNL     1      36.752  24.308   6.095  1.00  0.00     0.258 C 
HETATM    5  O2  UNL     1      35.675  25.156   6.346  1.00  0.00    -0.191 OA
HETATM    6  O3  UNL     1      34.918  24.491   7.147  1.00  0.00    -0.189 OA
HETATM    7  C12 UNL     1      35.648  23.509   7.765  1.00  0.00     0.262 C 
HETATM    8  C13 UNL     1      35.716  23.790   9.263  1.00  0.00     0.081 C 
HETATM    9  C14 UNL     1      34.367  23.360   9.752  1.00  0.00     0.021 C 
HETATM   10  C15 UNL     1      33.872  22.330   8.780  1.00  0.00     0.090 C 
HETATM   11  C23 UNL     1      34.942  22.220   7.735  1.00  0.00     0.198 C 
HETATM   12  O5  UNL     1      35.094  21.213   7.070  1.00  0.00    -0.291 OA
HETATM   13  O6  UNL     1      36.914  23.512   7.156  1.00  0.00    -0.302 OA
HETATM   14  C24 UNL     1      37.955  25.138   5.592  1.00  0.00     0.132 C 
HETATM   15  C25 UNL     1      38.955  24.150   5.064  1.00  0.00     0.053 C 
ENDROOT
BRANCH   3  16
HETATM   16  O1  UNL     1      37.064  22.382   4.652  1.00  0.00    -0.390 OA
ATOM     17  H1  UNL     1      37.943  22.420   5.012  1.00  0.00     0.210 HD
ENDBRANCH   3  16
BRANCH  14  18
HETATM   18  O7  UNL     1      38.550  25.820   6.573  1.00  0.00    -0.313 OA
BRANCH  18  19
HETATM   19  C26 UNL     1      38.601  26.597   7.547  1.00  0.00     0.193 C 
BRANCH  19  20
HETATM   20  O8  UNL     1      38.609  25.750   8.631  1.00  0.00    -0.340 OA
ATOM     21  H8  UNL     1      39.499  25.814   8.955  1.00  0.00     0.220 HD
ENDBRANCH  19  20
BRANCH  19  22
HETATM   22  C27 UNL     1      38.632  27.920   8.099  1.00  0.00     0.065 A 
HETATM   23  C28 UNL     1      37.329  28.471   8.231  1.00  0.00     0.082 A 
HETATM   24  C29 UNL     1      37.197  29.797   8.481  1.00  0.00     0.044 A 
HETATM   25  C30 UNL     1      38.283  30.624   8.613  1.00  0.00    -0.059 A 
HETATM   26  C31 UNL     1      38.114  32.070   8.895  1.00  0.00     0.048 C 
HETATM   27  C32 UNL     1      39.503  30.064   8.492  1.00  0.00     0.019 A 
HETATM   28  C33 UNL     1      39.781  28.667   8.234  1.00  0.00    -0.016 A 
HETATM   29  C34 UNL     1      41.144  28.272   8.442  1.00  0.00    -0.073 C 
HETATM   30  C35 UNL     1      42.172  29.155   7.700  1.00  0.00     0.044 C 
BRANCH  23  31
HETATM   31  O9  UNL     1      36.220  27.676   8.123  1.00  0.00    -0.360 OA
ATOM     32  H9  UNL     1      35.966  27.311   7.284  1.00  0.00     0.217 HD
ENDBRANCH  23  31
BRANCH  29  33
HETATM   33  C36 UNL     1      41.770  27.135   9.119  1.00  0.00     0.030 C 
HETATM   34  C37 UNL     1      42.672  27.494  10.303  1.00  0.00     0.010 C 
ENDBRANCH  29  33
ENDBRANCH  19  22
ENDBRANCH  18  19
ENDBRANCH  14  18
BRANCH   1  35
HETATM   35  C7  UNL     1      38.297  26.416   3.492  1.00  0.00     0.042 C 
BRANCH  35  36
HETATM   36  C5  UNL     1      38.895  27.696   3.954  1.00  0.00    -0.076 C 
HETATM   37  C4  UNL     1      38.061  28.751   4.198  1.00  0.00     0.053 C 
HETATM   38  C6  UNL     1      40.317  27.855   4.186  1.00  0.00     0.044 C 
BRANCH  37  39
HETATM   39  C3  UNL     1      38.506  30.034   4.685  1.00  0.00    -0.156 C 
BRANCH  39  40
HETATM   40  C2  UNL     1      38.880  31.103   5.100  1.00  0.00     0.080 C 
HETATM   41  C1  UNL     1      40.361  31.446   5.188  1.00  0.00     0.017 C 
ENDBRANCH  39  40
ENDBRANCH  37  39
ENDBRANCH  35  36
ENDBRANCH   1  35
BRANCH  10  42
HETATM   42  C16 UNL     1      32.575  22.702   8.141  1.00  0.00     0.130 C 
BRANCH  42  43
HETATM   43  O4  UNL     1      32.467  22.084   6.888  1.00  0.00    -0.395 OA
ATOM     44  H4  UNL     1      33.292  22.153   6.422  1.00  0.00     0.210 HD
ENDBRANCH  42  43
BRANCH  42  45
HETATM   45  C17 UNL     1      31.343  22.318   8.923  1.00  0.00     0.036 C 
BRANCH  45  46
HETATM   46  C18 UNL     1      31.556  21.075   9.749  1.00  0.00     0.030 C 
BRANCH  46  47
HETATM   47  C19 UNL     1      31.316  21.438  11.186  1.00  0.00    -0.025 C 
HETATM   48  C20 UNL     1      31.200  20.475  12.089  1.00  0.00    -0.091 C 
HETATM   49  C21 UNL     1      31.299  19.043  11.700  1.00  0.00     0.042 C 
HETATM   50  C22 UNL     1      30.958  20.868  13.501  1.00  0.00     0.042 C 
ENDBRANCH  46  47
ENDBRANCH  45  46
ENDBRANCH  42  45
ENDBRANCH  10  42
TORSDOF 16
ENDMDL
