MODEL 1
REMARK VINA RESULT: -8.466034566      0.000      0.000
REMARK  16 active torsions:
REMARK  status: ('A' for Active; 'I' for Inactive)
REMARK    1  A    between atoms: C14_15  and  O2_16 
REMARK    2  A    between atoms: O2_16  and  C15_17 
REMARK    3  A    between atoms: C15_17  and  C24_29 
REMARK    4  A    between atoms: C16_18  and  O3_19 
REMARK    5  A    between atoms: C16_18  and  C17_21 
REMARK    6  A    between atoms: C17_21  and  C18_22 
REMARK    7  A    between atoms: C18_22  and  C19_23 
REMARK    8  A    between atoms: C21_25  and  C22_26 
REMARK    9  A    between atoms: C25_30  and  O5_31 
REMARK   10  A    between atoms: C27_34  and  O6_35 
REMARK   11  A    between atoms: C30_39  and  C31_40 
REMARK   12  A    between atoms: C31_40  and  O7_41 
REMARK   13  A    between atoms: C31_40  and  C34_45 
REMARK   14  A    between atoms: O7_41  and  C32_42 
REMARK   15  A    between atoms: C34_45  and  C36_47 
REMARK   16  A    between atoms: C36_47  and  C37_48 
ROOT
HETATM    1  C15 UNL     1      37.490  25.826   6.459  1.00  0.00     0.112 C 
HETATM    2  C16 UNL     1      38.498  25.119   5.981  1.00  0.00     0.077 C 
ENDROOT
BRANCH   1   3
HETATM    3  O2  UNL     1      36.249  25.343   6.567  1.00  0.00    -0.337 OA
BRANCH   3   4
HETATM    4  C14 UNL     1      35.243  25.057   7.393  1.00  0.00     0.166 C 
HETATM    5  C2  UNL     1      35.489  25.264   8.833  1.00  0.00    -0.059 C 
HETATM    6  C1  UNL     1      35.293  26.349   9.534  1.00  0.00     0.017 C 
HETATM    7  C3  UNL     1      36.020  24.071   9.609  1.00  0.00     0.036 C 
HETATM    8  C4  UNL     1      34.834  23.109   9.661  1.00  0.00     0.011 C 
HETATM    9  C5  UNL     1      33.898  23.359   8.493  1.00  0.00     0.012 C 
HETATM   10  C6  UNL     1      32.936  22.242   8.391  1.00  0.00     0.018 C 
HETATM   11  C12 UNL     1      34.720  23.614   7.234  1.00  0.00    -0.008 C 
HETATM   12  C7  UNL     1      33.065  21.206   9.487  1.00  0.00     0.023 C 
HETATM   13  C8  UNL     1      31.508  22.805   8.509  1.00  0.00     0.023 C 
HETATM   14  C9  UNL     1      32.964  21.536   7.089  1.00  0.00     0.135 C 
HETATM   15  O1  UNL     1      32.775  20.344   7.069  1.00  0.00    -0.297 OA
HETATM   16  C10 UNL     1      33.214  22.231   5.798  1.00  0.00     0.080 C 
HETATM   17  C11 UNL     1      33.765  23.610   6.076  1.00  0.00     0.020 C 
HETATM   18  C13 UNL     1      35.766  22.595   7.037  1.00  0.00     0.018 C 
ENDBRANCH   3   4
ENDBRANCH   1   3
BRANCH   1  19
HETATM   19  C24 UNL     1      37.891  27.211   6.850  1.00  0.00     0.043 A 
HETATM   20  C25 UNL     1      38.605  27.244   8.018  1.00  0.00     0.082 A 
HETATM   21  C26 UNL     1      39.140  28.450   8.441  1.00  0.00     0.074 A 
HETATM   22  C27 UNL     1      38.938  29.550   7.676  1.00  0.00     0.074 A 
HETATM   23  C28 UNL     1      38.205  29.542   6.462  1.00  0.00    -0.019 A 
HETATM   24  C29 UNL     1      38.159  30.746   5.676  1.00  0.00     0.052 C 
HETATM   25  C30 UNL     1      37.656  28.333   6.038  1.00  0.00    -0.004 A 
BRANCH  20  26
HETATM   26  O5  UNL     1      38.827  26.119   8.808  1.00  0.00    -0.360 OA
ATOM     27  H5  UNL     1      38.890  26.154   9.756  1.00  0.00     0.217 HD
ENDBRANCH  20  26
BRANCH  22  28
HETATM   28  O6  UNL     1      39.458  30.811   8.050  1.00  0.00    -0.360 OA
ATOM     29  H6  UNL     1      39.466  31.541   7.443  1.00  0.00     0.217 HD
ENDBRANCH  22  28
BRANCH  25  30
HETATM   30  C31 UNL     1      36.830  28.170   4.883  1.00  0.00     0.170 C 
BRANCH  30  31
HETATM   31  O7  UNL     1      35.914  29.347   5.134  1.00  0.00    -0.311 OA
BRANCH  31  32
HETATM   32  C32 UNL     1      34.624  29.270   5.436  1.00  0.00     0.255 C 
HETATM   33  C33 UNL     1      34.224  28.646   6.746  1.00  0.00     0.126 C 
HETATM   34  O8  UNL     1      33.733  29.685   4.696  1.00  0.00    -0.266 OA
ENDBRANCH  31  32
ENDBRANCH  30  31
BRANCH  30  35
HETATM   35  C34 UNL     1      37.161  28.524   3.488  1.00  0.00     0.016 C 
HETATM   36  C35 UNL     1      38.580  27.788   3.293  1.00  0.00     0.013 C 
BRANCH  35  37
HETATM   37  C36 UNL     1      36.402  27.732   2.435  1.00  0.00     0.011 C 
BRANCH  37  38
HETATM   38  C37 UNL     1      36.918  26.369   2.141  1.00  0.00    -0.022 C 
HETATM   39  C38 UNL     1      36.608  26.132   0.642  1.00  0.00     0.009 C 
HETATM   40  C39 UNL     1      36.381  25.199   2.852  1.00  0.00     0.009 C 
ENDBRANCH  37  38
ENDBRANCH  35  37
ENDBRANCH  30  35
ENDBRANCH  25  30
ENDBRANCH   1  19
BRANCH   2  41
HETATM   41  O3  UNL     1      39.811  25.727   5.921  1.00  0.00    -0.362 OA
ATOM     42  H3  UNL     1      40.240  25.807   5.077  1.00  0.00     0.217 HD
ENDBRANCH   2  41
BRANCH   2  43
HETATM   43  C17 UNL     1      38.550  23.744   5.455  1.00  0.00     0.071 C 
BRANCH  43  44
HETATM   44  C18 UNL     1      39.909  23.437   4.917  1.00  0.00     0.040 C 
BRANCH  44  45
HETATM   45  C19 UNL     1      39.845  23.275   3.423  1.00  0.00    -0.080 C 
HETATM   46  C20 UNL     1      38.875  22.315   2.897  1.00  0.00     0.043 C 
HETATM   47  C21 UNL     1      40.674  24.024   2.743  1.00  0.00     0.052 C 
BRANCH  47  48
HETATM   48  C22 UNL     1      40.842  24.087   1.316  1.00  0.00     0.145 C 
HETATM   49  C23 UNL     1      40.211  25.241   0.551  1.00  0.00     0.096 C 
HETATM   50  O4  UNL     1      41.468  23.269   0.630  1.00  0.00    -0.294 OA
ENDBRANCH  47  48
ENDBRANCH  44  45
ENDBRANCH  43  44
ENDBRANCH   2  43
TORSDOF 16
ENDMDL
MODEL 2
REMARK VINA RESULT: -8.394648648      1.881      4.112
REMARK  16 active torsions:
REMARK  status: ('A' for Active; 'I' for Inactive)
REMARK    1  A    between atoms: C14_15  and  O2_16 
REMARK    2  A    between atoms: O2_16  and  C15_17 
REMARK    3  A    between atoms: C15_17  and  C24_29 
REMARK    4  A    between atoms: C16_18  and  O3_19 
REMARK    5  A    between atoms: C16_18  and  C17_21 
REMARK    6  A    between atoms: C17_21  and  C18_22 
REMARK    7  A    between atoms: C18_22  and  C19_23 
REMARK    8  A    between atoms: C21_25  and  C22_26 
REMARK    9  A    between atoms: C25_30  and  O5_31 
REMARK   10  A    between atoms: C27_34  and  O6_35 
REMARK   11  A    between atoms: C30_39  and  C31_40 
REMARK   12  A    between atoms: C31_40  and  O7_41 
REMARK   13  A    between atoms: C31_40  and  C34_45 
REMARK   14  A    between atoms: O7_41  and  C32_42 
REMARK   15  A    between atoms: C34_45  and  C36_47 
REMARK   16  A    between atoms: C36_47  and  C37_48 
ROOT
HETATM    1  C15 UNL     1      36.733  27.193   6.094  1.00  0.00     0.112 C 
HETATM    2  C16 UNL     1      37.154  27.186   4.842  1.00  0.00     0.077 C 
ENDROOT
BRANCH   1   3
HETATM    3  O2  UNL     1      36.307  26.094   6.724  1.00  0.00    -0.337 OA
BRANCH   3   4
HETATM    4  C14 UNL     1      35.368  25.562   7.505  1.00  0.00     0.166 C 
HETATM    5  C2  UNL     1      35.561  25.703   8.962  1.00  0.00    -0.059 C 
HETATM    6  C1  UNL     1      35.159  26.676   9.735  1.00  0.00     0.017 C 
HETATM    7  C3  UNL     1      36.303  24.576   9.660  1.00  0.00     0.036 C 
HETATM    8  C4  UNL     1      35.320  23.407   9.616  1.00  0.00     0.011 C 
HETATM    9  C5  UNL     1      34.361  23.564   8.450  1.00  0.00     0.012 C 
HETATM   10  C6  UNL     1      33.629  22.297   8.248  1.00  0.00     0.018 C 
HETATM   11  C12 UNL     1      35.129  24.063   7.231  1.00  0.00    -0.008 C 
HETATM   12  C7  UNL     1      33.944  21.224   9.267  1.00  0.00     0.023 C 
HETATM   13  C8  UNL     1      32.119  22.571   8.377  1.00  0.00     0.023 C 
HETATM   14  C9  UNL     1      33.798  21.709   6.899  1.00  0.00     0.135 C 
HETATM   15  O1  UNL     1      33.838  20.508   6.788  1.00  0.00    -0.297 OA
HETATM   16  C10 UNL     1      33.921  22.534   5.667  1.00  0.00     0.080 C 
HETATM   17  C11 UNL     1      34.199  23.967   6.056  1.00  0.00     0.020 C 
HETATM   18  C13 UNL     1      36.350  23.277   6.982  1.00  0.00     0.018 C 
ENDBRANCH   3   4
ENDBRANCH   1   3
BRANCH   1  19
HETATM   19  C24 UNL     1      36.781  28.552   6.712  1.00  0.00     0.043 A 
HETATM   20  C25 UNL     1      35.584  29.213   6.630  1.00  0.00     0.082 A 
HETATM   21  C26 UNL     1      35.452  30.437   7.263  1.00  0.00     0.074 A 
HETATM   22  C27 UNL     1      36.514  30.932   7.943  1.00  0.00     0.074 A 
HETATM   23  C28 UNL     1      37.763  30.268   8.046  1.00  0.00    -0.019 A 
HETATM   24  C29 UNL     1      38.777  30.833   8.895  1.00  0.00     0.052 C 
HETATM   25  C30 UNL     1      37.904  29.039   7.402  1.00  0.00    -0.004 A 
BRANCH  20  26
HETATM   26  O5  UNL     1      34.483  28.711   5.941  1.00  0.00    -0.360 OA
ATOM     27  H5  UNL     1      33.619  29.103   5.987  1.00  0.00     0.217 HD
ENDBRANCH  20  26
BRANCH  22  28
HETATM   28  O6  UNL     1      36.444  32.175   8.613  1.00  0.00    -0.360 OA
ATOM     29  H6  UNL     1      36.625  32.247   9.542  1.00  0.00     0.217 HD
ENDBRANCH  22  28
BRANCH  25  30
HETATM   30  C31 UNL     1      39.114  28.281   7.343  1.00  0.00     0.170 C 
BRANCH  30  31
HETATM   31  O7  UNL     1      40.025  29.406   6.909  1.00  0.00    -0.311 OA
BRANCH  31  32
HETATM   32  C32 UNL     1      40.617  29.507   5.725  1.00  0.00     0.255 C 
HETATM   33  C33 UNL     1      41.642  30.588   5.518  1.00  0.00     0.126 C 
HETATM   34  O8  UNL     1      40.368  28.757   4.781  1.00  0.00    -0.266 OA
ENDBRANCH  31  32
ENDBRANCH  30  31
BRANCH  30  35
HETATM   35  C34 UNL     1      39.947  27.834   8.479  1.00  0.00     0.016 C 
HETATM   36  C35 UNL     1      39.203  26.475   8.914  1.00  0.00     0.013 C 
BRANCH  35  37
HETATM   37  C36 UNL     1      41.269  27.196   8.083  1.00  0.00     0.011 C 
BRANCH  37  38
HETATM   38  C37 UNL     1      42.490  27.781   8.700  1.00  0.00    -0.022 C 
HETATM   39  C38 UNL     1      42.901  26.782   9.811  1.00  0.00     0.009 C 
HETATM   40  C39 UNL     1      42.442  29.102   9.343  1.00  0.00     0.009 C 
ENDBRANCH  37  38
ENDBRANCH  35  37
ENDBRANCH  30  35
ENDBRANCH  25  30
ENDBRANCH   1  19
BRANCH   2  41
HETATM   41  O3  UNL     1      37.614  28.428   4.254  1.00  0.00    -0.362 OA
ATOM     42  H3  UNL     1      37.833  28.443   3.330  1.00  0.00     0.217 HD
ENDBRANCH   2  41
BRANCH   2  43
HETATM   43  C17 UNL     1      37.246  26.094   3.859  1.00  0.00     0.071 C 
BRANCH  43  44
HETATM   44  C18 UNL     1      38.649  25.941   3.371  1.00  0.00     0.040 C 
BRANCH  44  45
HETATM   45  C19 UNL     1      39.117  24.528   3.593  1.00  0.00    -0.080 C 
HETATM   46  C20 UNL     1      39.472  24.150   4.961  1.00  0.00     0.043 C 
HETATM   47  C21 UNL     1      39.155  23.776   2.524  1.00  0.00     0.052 C 
BRANCH  47  48
HETATM   48  C22 UNL     1      39.557  22.398   2.425  1.00  0.00     0.145 C 
HETATM   49  C23 UNL     1      41.039  22.066   2.365  1.00  0.00     0.096 C 
HETATM   50  O4  UNL     1      38.789  21.428   2.380  1.00  0.00    -0.294 OA
ENDBRANCH  47  48
ENDBRANCH  44  45
ENDBRANCH  43  44
ENDBRANCH   2  43
TORSDOF 16
ENDMDL
MODEL 3
REMARK VINA RESULT: -8.189043828      2.052      5.035
REMARK  16 active torsions:
REMARK  status: ('A' for Active; 'I' for Inactive)
REMARK    1  A    between atoms: C14_15  and  O2_16 
REMARK    2  A    between atoms: O2_16  and  C15_17 
REMARK    3  A    between atoms: C15_17  and  C24_29 
REMARK    4  A    between atoms: C16_18  and  O3_19 
REMARK    5  A    between atoms: C16_18  and  C17_21 
REMARK    6  A    between atoms: C17_21  and  C18_22 
REMARK    7  A    between atoms: C18_22  and  C19_23 
REMARK    8  A    between atoms: C21_25  and  C22_26 
REMARK    9  A    between atoms: C25_30  and  O5_31 
REMARK   10  A    between atoms: C27_34  and  O6_35 
REMARK   11  A    between atoms: C30_39  and  C31_40 
REMARK   12  A    between atoms: C31_40  and  O7_41 
REMARK   13  A    between atoms: C31_40  and  C34_45 
REMARK   14  A    between atoms: O7_41  and  C32_42 
REMARK   15  A    between atoms: C34_45  and  C36_47 
REMARK   16  A    between atoms: C36_47  and  C37_48 
ROOT
HETATM    1  C15 UNL     1      37.265  27.061   6.268  1.00  0.00     0.112 C 
HETATM    2  C16 UNL     1      38.020  27.909   6.943  1.00  0.00     0.077 C 
ENDROOT
BRANCH   1   3
HETATM    3  O2  UNL     1      36.685  25.997   6.830  1.00  0.00    -0.337 OA
BRANCH   3   4
HETATM    4  C14 UNL     1      35.645  25.547   7.532  1.00  0.00     0.166 C 
HETATM    5  C2  UNL     1      35.708  25.726   8.996  1.00  0.00    -0.059 C 
HETATM    6  C1  UNL     1      35.293  26.747   9.698  1.00  0.00     0.017 C 
HETATM    7  C3  UNL     1      36.311  24.584   9.794  1.00  0.00     0.036 C 
HETATM    8  C4  UNL     1      35.268  23.472   9.690  1.00  0.00     0.011 C 
HETATM    9  C5  UNL     1      34.435  23.643   8.432  1.00  0.00     0.012 C 
HETATM   10  C6  UNL     1      33.650  22.414   8.197  1.00  0.00     0.018 C 
HETATM   11  C12 UNL     1      35.344  24.055   7.279  1.00  0.00    -0.008 C 
HETATM   12  C7  UNL     1      33.802  21.361   9.273  1.00  0.00     0.023 C 
HETATM   13  C8  UNL     1      32.154  22.778   8.171  1.00  0.00     0.023 C 
HETATM   14  C9  UNL     1      33.911  21.771   6.888  1.00  0.00     0.135 C 
HETATM   15  O1  UNL     1      33.889  20.567   6.816  1.00  0.00    -0.297 OA
HETATM   16  C10 UNL     1      34.200  22.545   5.651  1.00  0.00     0.080 C 
HETATM   17  C11 UNL     1      34.525  23.972   6.024  1.00  0.00     0.020 C 
HETATM   18  C13 UNL     1      36.533  23.193   7.173  1.00  0.00     0.018 C 
ENDBRANCH   3   4
ENDBRANCH   1   3
BRANCH   1  19
HETATM   19  C24 UNL     1      37.145  27.420   4.823  1.00  0.00     0.043 A 
HETATM   20  C25 UNL     1      36.061  28.215   4.563  1.00  0.00     0.082 A 
HETATM   21  C26 UNL     1      35.891  28.718   3.284  1.00  0.00     0.074 A 
HETATM   22  C27 UNL     1      36.811  28.405   2.339  1.00  0.00     0.074 A 
HETATM   23  C28 UNL     1      37.943  27.587   2.582  1.00  0.00    -0.019 A 
HETATM   24  C29 UNL     1      38.913  27.424   1.533  1.00  0.00     0.052 C 
HETATM   25  C30 UNL     1      38.113  27.070   3.865  1.00  0.00    -0.004 A 
BRANCH  20  26
HETATM   26  O5  UNL     1      35.114  28.549   5.527  1.00  0.00    -0.360 OA
ATOM     27  H5  UNL     1      34.198  28.704   5.325  1.00  0.00     0.217 HD
ENDBRANCH  20  26
BRANCH  22  28
HETATM   28  O6  UNL     1      36.696  28.888   1.015  1.00  0.00    -0.360 OA
ATOM     29  H6  UNL     1      37.304  28.618   0.337  1.00  0.00     0.217 HD
ENDBRANCH  22  28
BRANCH  25  30
HETATM   30  C31 UNL     1      39.154  26.171   4.254  1.00  0.00     0.170 C 
BRANCH  30  31
HETATM   31  O7  UNL     1      38.764  25.024   3.350  1.00  0.00    -0.311 OA
BRANCH  31  32
HETATM   32  C32 UNL     1      37.895  24.067   3.649  1.00  0.00     0.255 C 
HETATM   33  C33 UNL     1      38.417  22.732   4.104  1.00  0.00     0.126 C 
HETATM   34  O8  UNL     1      36.675  24.216   3.571  1.00  0.00    -0.266 OA
ENDBRANCH  31  32
ENDBRANCH  30  31
BRANCH  30  35
HETATM   35  C34 UNL     1      40.574  26.216   3.848  1.00  0.00     0.016 C 
HETATM   36  C35 UNL     1      41.197  27.208   4.951  1.00  0.00     0.013 C 
BRANCH  35  37
HETATM   37  C36 UNL     1      41.382  24.988   4.233  1.00  0.00     0.011 C 
BRANCH  37  38
HETATM   38  C37 UNL     1      42.164  24.348   3.141  1.00  0.00    -0.022 C 
HETATM   39  C38 UNL     1      41.990  25.283   1.917  1.00  0.00     0.009 C 
HETATM   40  C39 UNL     1      41.820  22.999   2.669  1.00  0.00     0.009 C 
ENDBRANCH  37  38
ENDBRANCH  35  37
ENDBRANCH  30  35
ENDBRANCH  25  30
ENDBRANCH   1  19
BRANCH   2  41
HETATM   41  O3  UNL     1      38.590  29.044   6.246  1.00  0.00    -0.362 OA
ATOM     42  H3  UNL     1      38.654  29.875   6.700  1.00  0.00     0.217 HD
ENDBRANCH   2  41
BRANCH   2  43
HETATM   43  C17 UNL     1      38.429  27.924   8.358  1.00  0.00     0.071 C 
BRANCH  43  44
HETATM   44  C18 UNL     1      39.554  26.970   8.592  1.00  0.00     0.040 C 
BRANCH  44  45
HETATM   45  C19 UNL     1      40.760  27.715   9.094  1.00  0.00    -0.080 C 
HETATM   46  C20 UNL     1      40.688  29.176   9.102  1.00  0.00     0.043 C 
HETATM   47  C21 UNL     1      41.761  26.965   9.479  1.00  0.00     0.052 C 
BRANCH  47  48
HETATM   48  C22 UNL     1      43.034  27.387  10.000  1.00  0.00     0.145 C 
HETATM   49  C23 UNL     1      43.296  27.264  11.493  1.00  0.00     0.096 C 
HETATM   50  O4  UNL     1      43.963  27.855   9.330  1.00  0.00    -0.294 OA
ENDBRANCH  47  48
ENDBRANCH  44  45
ENDBRANCH  43  44
ENDBRANCH   2  43
TORSDOF 16
ENDMDL
MODEL 4
REMARK VINA RESULT: -8.121919330      1.973      4.185
REMARK  16 active torsions:
REMARK  status: ('A' for Active; 'I' for Inactive)
REMARK    1  A    between atoms: C14_15  and  O2_16 
REMARK    2  A    between atoms: O2_16  and  C15_17 
REMARK    3  A    between atoms: C15_17  and  C24_29 
REMARK    4  A    between atoms: C16_18  and  O3_19 
REMARK    5  A    between atoms: C16_18  and  C17_21 
REMARK    6  A    between atoms: C17_21  and  C18_22 
REMARK    7  A    between atoms: C18_22  and  C19_23 
REMARK    8  A    between atoms: C21_25  and  C22_26 
REMARK    9  A    between atoms: C25_30  and  O5_31 
REMARK   10  A    between atoms: C27_34  and  O6_35 
REMARK   11  A    between atoms: C30_39  and  C31_40 
REMARK   12  A    between atoms: C31_40  and  O7_41 
REMARK   13  A    between atoms: C31_40  and  C34_45 
REMARK   14  A    between atoms: O7_41  and  C32_42 
REMARK   15  A    between atoms: C34_45  and  C36_47 
REMARK   16  A    between atoms: C36_47  and  C37_48 
ROOT
HETATM    1  C15 UNL     1      36.856  26.991   6.006  1.00  0.00     0.112 C 
HETATM    2  C16 UNL     1      37.300  26.879   4.767  1.00  0.00     0.077 C 
ENDROOT
BRANCH   1   3
HETATM    3  O2  UNL     1      36.401  25.952   6.712  1.00  0.00    -0.337 OA
BRANCH   3   4
HETATM    4  C14 UNL     1      35.416  25.479   7.474  1.00  0.00     0.166 C 
HETATM    5  C2  UNL     1      35.570  25.644   8.933  1.00  0.00    -0.059 C 
HETATM    6  C1  UNL     1      35.188  26.651   9.672  1.00  0.00     0.017 C 
HETATM    7  C3  UNL     1      36.239  24.503   9.678  1.00  0.00     0.036 C 
HETATM    8  C4  UNL     1      35.206  23.377   9.629  1.00  0.00     0.011 C 
HETATM    9  C5  UNL     1      34.292  23.549   8.429  1.00  0.00     0.012 C 
HETATM   10  C6  UNL     1      33.511  22.312   8.231  1.00  0.00     0.018 C 
HETATM   11  C12 UNL     1      35.118  23.986   7.225  1.00  0.00    -0.008 C 
HETATM   12  C7  UNL     1      33.746  21.249   9.283  1.00  0.00     0.023 C 
HETATM   13  C8  UNL     1      32.011  22.655   8.306  1.00  0.00     0.023 C 
HETATM   14  C9  UNL     1      33.695  21.686   6.901  1.00  0.00     0.135 C 
HETATM   15  O1  UNL     1      33.684  20.482   6.817  1.00  0.00    -0.297 OA
HETATM   16  C10 UNL     1      33.893  22.477   5.656  1.00  0.00     0.080 C 
HETATM   17  C11 UNL     1      34.222  23.904   6.024  1.00  0.00     0.020 C 
HETATM   18  C13 UNL     1      36.311  23.142   7.032  1.00  0.00     0.018 C 
ENDBRANCH   3   4
ENDBRANCH   1   3
BRANCH   1  19
HETATM   19  C24 UNL     1      36.911  28.394   6.515  1.00  0.00     0.043 A 
HETATM   20  C25 UNL     1      35.743  29.078   6.311  1.00  0.00     0.082 A 
HETATM   21  C26 UNL     1      35.614  30.353   6.835  1.00  0.00     0.074 A 
HETATM   22  C27 UNL     1      36.652  30.873   7.534  1.00  0.00     0.074 A 
HETATM   23  C28 UNL     1      37.871  30.186   7.763  1.00  0.00    -0.019 A 
HETATM   24  C29 UNL     1      38.853  30.791   8.622  1.00  0.00     0.052 C 
HETATM   25  C30 UNL     1      38.009  28.905   7.229  1.00  0.00    -0.004 A 
BRANCH  20  26
HETATM   26  O5  UNL     1      34.667  28.552   5.600  1.00  0.00    -0.360 OA
ATOM     27  H5  UNL     1      33.805  28.425   5.981  1.00  0.00     0.217 HD
ENDBRANCH  20  26
BRANCH  22  28
HETATM   28  O6  UNL     1      36.583  32.168   8.097  1.00  0.00    -0.360 OA
ATOM     29  H6  UNL     1      36.276  32.305   8.985  1.00  0.00     0.217 HD
ENDBRANCH  22  28
BRANCH  25  30
HETATM   30  C31 UNL     1      39.196  28.112   7.302  1.00  0.00     0.170 C 
BRANCH  30  31
HETATM   31  O7  UNL     1      40.157  29.156   6.780  1.00  0.00    -0.311 OA
BRANCH  31  32
HETATM   32  C32 UNL     1      40.844  29.075   5.648  1.00  0.00     0.255 C 
HETATM   33  C33 UNL     1      42.135  29.838   5.529  1.00  0.00     0.126 C 
HETATM   34  O8  UNL     1      40.477  28.404   4.683  1.00  0.00    -0.266 OA
ENDBRANCH  31  32
ENDBRANCH  30  31
BRANCH  30  35
HETATM   35  C34 UNL     1      39.973  27.774   8.512  1.00  0.00     0.016 C 
HETATM   36  C35 UNL     1      39.216  26.450   9.026  1.00  0.00     0.013 C 
BRANCH  35  37
HETATM   37  C36 UNL     1      41.317  27.117   8.239  1.00  0.00     0.011 C 
BRANCH  37  38
HETATM   38  C37 UNL     1      42.497  27.742   8.894  1.00  0.00    -0.022 C 
HETATM   39  C38 UNL     1      42.923  26.745  10.000  1.00  0.00     0.009 C 
HETATM   40  C39 UNL     1      42.378  29.050   9.555  1.00  0.00     0.009 C 
ENDBRANCH  37  38
ENDBRANCH  35  37
ENDBRANCH  30  35
ENDBRANCH  25  30
ENDBRANCH   1  19
BRANCH   2  41
HETATM   41  O3  UNL     1      37.789  28.064   4.092  1.00  0.00    -0.362 OA
ATOM     42  H3  UNL     1      37.248  28.465   3.422  1.00  0.00     0.217 HD
ENDBRANCH   2  41
BRANCH   2  43
HETATM   43  C17 UNL     1      37.395  25.711   3.876  1.00  0.00     0.071 C 
BRANCH  43  44
HETATM   44  C18 UNL     1      38.388  24.727   4.401  1.00  0.00     0.040 C 
BRANCH  44  45
HETATM   45  C19 UNL     1      39.749  25.021   3.832  1.00  0.00    -0.080 C 
HETATM   46  C20 UNL     1      39.806  25.509   2.454  1.00  0.00     0.043 C 
HETATM   47  C21 UNL     1      40.753  24.807   4.642  1.00  0.00     0.052 C 
BRANCH  47  48
HETATM   48  C22 UNL     1      42.156  24.994   4.383  1.00  0.00     0.145 C 
HETATM   49  C23 UNL     1      42.956  25.915   5.291  1.00  0.00     0.096 C 
HETATM   50  O4  UNL     1      42.793  24.462   3.465  1.00  0.00    -0.294 OA
ENDBRANCH  47  48
ENDBRANCH  44  45
ENDBRANCH  43  44
ENDBRANCH   2  43
TORSDOF 16
ENDMDL
MODEL 5
REMARK VINA RESULT: -8.093340347      2.336      7.213
REMARK  16 active torsions:
REMARK  status: ('A' for Active; 'I' for Inactive)
REMARK    1  A    between atoms: C14_15  and  O2_16 
REMARK    2  A    between atoms: O2_16  and  C15_17 
REMARK    3  A    between atoms: C15_17  and  C24_29 
REMARK    4  A    between atoms: C16_18  and  O3_19 
REMARK    5  A    between atoms: C16_18  and  C17_21 
REMARK    6  A    between atoms: C17_21  and  C18_22 
REMARK    7  A    between atoms: C18_22  and  C19_23 
REMARK    8  A    between atoms: C21_25  and  C22_26 
REMARK    9  A    between atoms: C25_30  and  O5_31 
REMARK   10  A    between atoms: C27_34  and  O6_35 
REMARK   11  A    between atoms: C30_39  and  C31_40 
REMARK   12  A    between atoms: C31_40  and  O7_41 
REMARK   13  A    between atoms: C31_40  and  C34_45 
REMARK   14  A    between atoms: O7_41  and  C32_42 
REMARK   15  A    between atoms: C34_45  and  C36_47 
REMARK   16  A    between atoms: C36_47  and  C37_48 
ROOT
HETATM    1  C15 UNL     1      36.834  24.820   5.316  1.00  0.00     0.112 C 
HETATM    2  C16 UNL     1      36.626  23.523   5.452  1.00  0.00     0.077 C 
ENDROOT
BRANCH   1   3
HETATM    3  O2  UNL     1      36.500  25.713   6.252  1.00  0.00    -0.337 OA
BRANCH   3   4
HETATM    4  C14 UNL     1      36.942  26.538   7.200  1.00  0.00     0.166 C 
HETATM    5  C2  UNL     1      36.720  26.119   8.598  1.00  0.00    -0.059 C 
HETATM    6  C1  UNL     1      37.502  25.395   9.354  1.00  0.00     0.017 C 
HETATM    7  C3  UNL     1      35.436  26.595   9.254  1.00  0.00     0.036 C 
HETATM    8  C4  UNL     1      35.653  28.097   9.440  1.00  0.00     0.011 C 
HETATM    9  C5  UNL     1      36.652  28.617   8.422  1.00  0.00     0.012 C 
HETATM   10  C6  UNL     1      36.621  30.094   8.421  1.00  0.00     0.018 C 
HETATM   11  C12 UNL     1      36.378  27.968   7.070  1.00  0.00    -0.008 C 
HETATM   12  C7  UNL     1      35.696  30.700   9.454  1.00  0.00     0.023 C 
HETATM   13  C8  UNL     1      38.029  30.620   8.755  1.00  0.00     0.023 C 
HETATM   14  C9  UNL     1      36.290  30.691   7.106  1.00  0.00     0.135 C 
HETATM   15  O1  UNL     1      35.634  31.703   7.074  1.00  0.00    -0.297 OA
HETATM   16  C10 UNL     1      36.734  30.098   5.815  1.00  0.00     0.080 C 
HETATM   17  C11 UNL     1      37.219  28.689   6.058  1.00  0.00     0.020 C 
HETATM   18  C13 UNL     1      34.954  28.040   6.697  1.00  0.00     0.018 C 
ENDBRANCH   3   4
ENDBRANCH   1   3
BRANCH   1  19
HETATM   19  C24 UNL     1      37.470  25.169   4.010  1.00  0.00     0.043 A 
HETATM   20  C25 UNL     1      36.601  25.073   2.956  1.00  0.00     0.082 A 
HETATM   21  C26 UNL     1      37.025  25.477   1.701  1.00  0.00     0.074 A 
HETATM   22  C27 UNL     1      38.285  25.957   1.567  1.00  0.00     0.074 A 
HETATM   23  C28 UNL     1      39.203  26.069   2.642  1.00  0.00    -0.019 A 
HETATM   24  C29 UNL     1      40.471  26.705   2.402  1.00  0.00     0.052 C 
HETATM   25  C30 UNL     1      38.785  25.654   3.905  1.00  0.00    -0.004 A 
BRANCH  20  26
HETATM   26  O5  UNL     1      35.302  24.589   3.082  1.00  0.00    -0.360 OA
ATOM     27  H5  UNL     1      34.935  23.928   2.506  1.00  0.00     0.217 HD
ENDBRANCH  20  26
BRANCH  22  28
HETATM   28  O6  UNL     1      38.778  26.388   0.314  1.00  0.00    -0.360 OA
ATOM     29  H6  UNL     1      38.845  27.311   0.101  1.00  0.00     0.217 HD
ENDBRANCH  22  28
BRANCH  25  30
HETATM   30  C31 UNL     1      39.609  25.629   5.073  1.00  0.00     0.170 C 
BRANCH  30  31
HETATM   31  O7  UNL     1      40.672  24.697   4.537  1.00  0.00    -0.311 OA
BRANCH  31  32
HETATM   32  C32 UNL     1      40.518  23.399   4.312  1.00  0.00     0.255 C 
HETATM   33  C33 UNL     1      41.059  22.817   3.034  1.00  0.00     0.126 C 
HETATM   34  O8  UNL     1      39.950  22.641   5.099  1.00  0.00    -0.266 OA
ENDBRANCH  31  32
ENDBRANCH  30  31
BRANCH  30  35
HETATM   35  C34 UNL     1      40.539  26.680   5.534  1.00  0.00     0.016 C 
HETATM   36  C35 UNL     1      40.248  26.702   7.117  1.00  0.00     0.013 C 
BRANCH  35  37
HETATM   37  C36 UNL     1      41.993  26.245   5.625  1.00  0.00     0.011 C 
BRANCH  37  38
HETATM   38  C37 UNL     1      43.006  27.251   5.209  1.00  0.00    -0.022 C 
HETATM   39  C38 UNL     1      42.205  28.552   4.955  1.00  0.00     0.009 C 
HETATM   40  C39 UNL     1      43.819  27.036   4.002  1.00  0.00     0.009 C 
ENDBRANCH  37  38
ENDBRANCH  35  37
ENDBRANCH  30  35
ENDBRANCH  25  30
ENDBRANCH   1  19
BRANCH   2  41
HETATM   41  O3  UNL     1      37.041  22.634   4.386  1.00  0.00    -0.362 OA
ATOM     42  H3  UNL     1      37.028  21.697   4.541  1.00  0.00     0.217 HD
ENDBRANCH   2  41
BRANCH   2  43
HETATM   43  C17 UNL     1      36.006  22.753   6.543  1.00  0.00     0.071 C 
BRANCH  43  44
HETATM   44  C18 UNL     1      34.526  22.958   6.559  1.00  0.00     0.040 C 
BRANCH  44  45
HETATM   45  C19 UNL     1      34.000  22.787   7.958  1.00  0.00    -0.080 C 
HETATM   46  C20 UNL     1      34.976  22.822   9.047  1.00  0.00     0.043 C 
HETATM   47  C21 UNL     1      32.706  22.624   8.053  1.00  0.00     0.052 C 
BRANCH  47  48
HETATM   48  C22 UNL     1      31.923  22.437   9.245  1.00  0.00     0.145 C 
HETATM   49  C23 UNL     1      31.792  21.038   9.827  1.00  0.00     0.096 C 
HETATM   50  O4  UNL     1      31.326  23.330   9.859  1.00  0.00    -0.294 OA
ENDBRANCH  47  48
ENDBRANCH  44  45
ENDBRANCH  43  44
ENDBRANCH   2  43
TORSDOF 16
ENDMDL
