MODEL 1
REMARK VINA RESULT: -9.463785049      0.000      0.000
REMARK  15 active torsions:
REMARK  status: ('A' for Active; 'I' for Inactive)
REMARK    1  A    between atoms: C2_2  and  C4_4 
REMARK    2  A    between atoms: C7_7  and  C8_8 
REMARK    3  A    between atoms: C8_8  and  O2_10 
REMARK    4  A    between atoms: O2_10  and  O3_11 
REMARK    5  A    between atoms: O3_11  and  C9_12 
REMARK    6  A    between atoms: C9_12  and  C16_19 
REMARK    7  A    between atoms: C10_13  and  C11_14 
REMARK    8  A    between atoms: C11_14  and  C12_15 
REMARK    9  A    between atoms: C16_19  and  C18_21 
REMARK   10  A    between atoms: C18_21  and  C19_22 
REMARK   11  A    between atoms: C19_22  and  C20_23 
REMARK   12  A    between atoms: C20_23  and  N2_28 
REMARK   13  A    between atoms: N1_24  and  O4_26 
REMARK   14  A    between atoms: C28_37  and  O5_38 
REMARK   15  A    between atoms: C29_40  and  O6_41 
ROOT
HETATM    1  C4  UNL     1      37.548  26.881   2.684  1.00  0.00     0.023 C 
HETATM    2  C5  UNL     1      37.606  27.253   4.151  1.00  0.00     0.011 C 
HETATM    3  C6  UNL     1      38.396  26.114   4.790  1.00  0.00     0.026 C 
HETATM    4  C7  UNL     1      38.083  24.885   3.958  1.00  0.00     0.082 C 
HETATM    5  C23 UNL     1      39.333  24.170   3.507  1.00  0.00    -0.059 C 
HETATM    6  C24 UNL     1      39.691  23.007   4.040  1.00  0.00    -0.022 C 
HETATM    7  C25 UNL     1      40.902  22.241   3.652  1.00  0.00     0.033 C 
HETATM    8  C26 UNL     1      41.412  22.649   2.299  1.00  0.00     0.000 C 
HETATM    9  C27 UNL     1      42.806  22.128   2.043  1.00  0.00     0.040 C 
HETATM   10  C28 UNL     1      43.183  22.392   0.596  1.00  0.00     0.147 C 
HETATM   11  C29 UNL     1      42.187  23.278  -0.086  1.00  0.00     0.147 C 
HETATM   12  C30 UNL     1      41.918  24.507   0.774  1.00  0.00     0.044 C 
HETATM   13  C31 UNL     1      41.444  24.140   2.165  1.00  0.00    -0.030 C 
HETATM   14  C32 UNL     1      42.453  24.659   3.201  1.00  0.00     0.016 C 
HETATM   15  C33 UNL     1      40.139  24.819   2.444  1.00  0.00     0.024 C 
HETATM   16  C34 UNL     1      39.244  24.946   1.230  1.00  0.00     0.010 C 
HETATM   17  C35 UNL     1      37.790  24.658   1.541  1.00  0.00     0.012 C 
HETATM   18  C36 UNL     1      37.286  25.385   2.745  1.00  0.00    -0.016 C 
HETATM   19  C37 UNL     1      35.829  25.104   2.940  1.00  0.00     0.018 C 
ENDROOT
BRANCH   4  20
HETATM   20  C8  UNL     1      37.351  23.925   4.801  1.00  0.00     0.303 C 
HETATM   21  O1  UNL     1      37.240  22.705   4.579  1.00  0.00    -0.261 OA
BRANCH  20  22
HETATM   22  O2  UNL     1      36.717  24.404   5.968  1.00  0.00    -0.152 OA
BRANCH  22  23
HETATM   23  O3  UNL     1      36.994  23.796   7.150  1.00  0.00    -0.194 OA
BRANCH  23  24
HETATM   24  C9  UNL     1      36.411  24.254   8.320  1.00  0.00     0.085 C 
HETATM   25  C10 UNL     1      35.413  23.579   8.847  1.00  0.00     0.013 C 
BRANCH  25  26
HETATM   26  C11 UNL     1      34.857  22.341   8.268  1.00  0.00     0.057 C 
BRANCH  26  27
HETATM   27  C12 UNL     1      33.950  21.696   9.264  1.00  0.00    -0.021 C 
HETATM   28  C13 UNL     1      32.650  21.719   9.038  1.00  0.00    -0.091 C 
HETATM   29  C14 UNL     1      31.763  21.063  10.054  1.00  0.00     0.042 C 
HETATM   30  C15 UNL     1      32.046  22.359   7.840  1.00  0.00     0.042 C 
ENDBRANCH  26  27
ENDBRANCH  25  26
BRANCH  24  31
HETATM   31  C16 UNL     1      36.893  25.487   8.984  1.00  0.00     0.042 C 
HETATM   32  C17 UNL     1      38.375  25.663   8.781  1.00  0.00     0.017 C 
BRANCH  31  33
HETATM   33  C18 UNL     1      36.106  26.692   8.523  1.00  0.00     0.018 C 
BRANCH  33  34
HETATM   34  C19 UNL     1      35.528  27.461   9.688  1.00  0.00     0.080 C 
BRANCH  34  35
HETATM   35  C20 UNL     1      35.489  28.895   9.352  1.00  0.00     0.113 C 
HETATM   36  N1  UNL     1      35.621  29.792  10.241  1.00  0.00    -0.256 N 
ATOM     37  H1  UNL     1      35.582  30.763   9.930  1.00  0.00     0.195 HD
BRANCH  36  38
HETATM   38  O4  UNL     1      35.813  29.574  11.576  1.00  0.00    -0.288 OA
ATOM     39  H4  UNL     1      36.272  30.151  12.174  1.00  0.00     0.244 HD
ENDBRANCH  36  38
BRANCH  35  40
HETATM   40  N2  UNL     1      35.290  29.276   7.974  1.00  0.00    -0.280 N 
HETATM   41  C21 UNL     1      35.877  30.119   7.128  1.00  0.00     0.115 A 
HETATM   42  C22 UNL     1      35.182  29.995   5.958  1.00  0.00     0.086 A 
HETATM   43  S1  UNL     1      34.232  28.860   6.755  1.00  0.00    -0.017 SA
ENDBRANCH  35  40
ENDBRANCH  34  35
ENDBRANCH  33  34
ENDBRANCH  31  33
ENDBRANCH  24  31
ENDBRANCH  23  24
ENDBRANCH  22  23
ENDBRANCH  20  22
ENDBRANCH   4  20
BRANCH   1  44
HETATM   44  C2  UNL     1      36.584  27.654   1.896  1.00  0.00    -0.088 C 
HETATM   45  C1  UNL     1      35.799  28.534   2.478  1.00  0.00     0.014 C 
HETATM   46  C3  UNL     1      36.455  27.517   0.416  1.00  0.00     0.043 C 
ENDBRANCH   1  44
BRANCH  11  47
HETATM   47  O6  UNL     1      42.748  23.755  -1.275  1.00  0.00    -0.393 OA
ATOM     48  H6  UNL     1      42.867  24.695  -1.201  1.00  0.00     0.210 HD
ENDBRANCH  11  47
BRANCH  10  49
HETATM   49  O5  UNL     1      43.208  21.164  -0.102  1.00  0.00    -0.393 OA
ATOM     50  H5  UNL     1      43.597  21.304  -0.957  1.00  0.00     0.210 HD
ENDBRANCH  10  49
TORSDOF 15
ENDMDL
MODEL 2
REMARK VINA RESULT: -9.255562761      3.867      7.082
REMARK  15 active torsions:
REMARK  status: ('A' for Active; 'I' for Inactive)
REMARK    1  A    between atoms: C2_2  and  C4_4 
REMARK    2  A    between atoms: C7_7  and  C8_8 
REMARK    3  A    between atoms: C8_8  and  O2_10 
REMARK    4  A    between atoms: O2_10  and  O3_11 
REMARK    5  A    between atoms: O3_11  and  C9_12 
REMARK    6  A    between atoms: C9_12  and  C16_19 
REMARK    7  A    between atoms: C10_13  and  C11_14 
REMARK    8  A    between atoms: C11_14  and  C12_15 
REMARK    9  A    between atoms: C16_19  and  C18_21 
REMARK   10  A    between atoms: C18_21  and  C19_22 
REMARK   11  A    between atoms: C19_22  and  C20_23 
REMARK   12  A    between atoms: C20_23  and  N2_28 
REMARK   13  A    between atoms: N1_24  and  O4_26 
REMARK   14  A    between atoms: C28_37  and  O5_38 
REMARK   15  A    between atoms: C29_40  and  O6_41 
ROOT
HETATM    1  C4  UNL     1      40.323  23.925   4.276  1.00  0.00     0.023 C 
HETATM    2  C5  UNL     1      41.062  24.920   5.146  1.00  0.00     0.011 C 
HETATM    3  C6  UNL     1      39.951  25.667   5.878  1.00  0.00     0.026 C 
HETATM    4  C7  UNL     1      38.769  25.673   4.927  1.00  0.00     0.082 C 
HETATM    5  C23 UNL     1      37.506  25.175   5.586  1.00  0.00    -0.059 C 
HETATM    6  C24 UNL     1      36.520  26.008   5.899  1.00  0.00    -0.022 C 
HETATM    7  C25 UNL     1      35.247  25.599   6.546  1.00  0.00     0.033 C 
HETATM    8  C26 UNL     1      34.982  24.130   6.379  1.00  0.00     0.000 C 
HETATM    9  C27 UNL     1      33.886  23.648   7.299  1.00  0.00     0.040 C 
HETATM   10  C28 UNL     1      33.522  22.218   6.942  1.00  0.00     0.147 C 
HETATM   11  C29 UNL     1      34.486  21.627   5.961  1.00  0.00     0.147 C 
HETATM   12  C30 UNL     1      35.915  21.858   6.440  1.00  0.00     0.044 C 
HETATM   13  C31 UNL     1      36.212  23.326   6.665  1.00  0.00    -0.030 C 
HETATM   14  C32 UNL     1      36.560  23.555   8.144  1.00  0.00     0.016 C 
HETATM   15  C33 UNL     1      37.414  23.721   5.865  1.00  0.00     0.024 C 
HETATM   16  C34 UNL     1      37.524  23.010   4.534  1.00  0.00     0.010 C 
HETATM   17  C35 UNL     1      37.964  23.930   3.414  1.00  0.00     0.012 C 
HETATM   18  C36 UNL     1      39.159  24.756   3.760  1.00  0.00    -0.016 C 
HETATM   19  C37 UNL     1      39.572  25.579   2.579  1.00  0.00     0.018 C 
ENDROOT
BRANCH   4  20
HETATM   20  C8  UNL     1      38.496  27.065   4.530  1.00  0.00     0.303 C 
HETATM   21  O1  UNL     1      37.512  27.449   3.871  1.00  0.00    -0.261 OA
BRANCH  20  22
HETATM   22  O2  UNL     1      39.411  28.066   4.922  1.00  0.00    -0.152 OA
BRANCH  22  23
HETATM   23  O3  UNL     1      39.089  28.859   5.975  1.00  0.00    -0.194 OA
BRANCH  23  24
HETATM   24  C9  UNL     1      39.680  28.649   7.210  1.00  0.00     0.085 C 
HETATM   25  C10 UNL     1      38.917  28.504   8.271  1.00  0.00     0.013 C 
BRANCH  25  26
HETATM   26  C11 UNL     1      37.443  28.549   8.239  1.00  0.00     0.057 C 
BRANCH  26  27
HETATM   27  C12 UNL     1      36.898  27.417   9.047  1.00  0.00    -0.021 C 
HETATM   28  C13 UNL     1      35.634  27.461   9.420  1.00  0.00    -0.091 C 
HETATM   29  C14 UNL     1      35.114  26.310  10.230  1.00  0.00     0.042 C 
HETATM   30  C15 UNL     1      34.725  28.587   9.076  1.00  0.00     0.042 C 
ENDBRANCH  26  27
ENDBRANCH  25  26
BRANCH  24  31
HETATM   31  C16 UNL     1      41.154  28.586   7.354  1.00  0.00     0.042 C 
HETATM   32  C17 UNL     1      41.745  29.970   7.429  1.00  0.00     0.017 C 
BRANCH  31  33
HETATM   33  C18 UNL     1      41.545  27.732   8.536  1.00  0.00     0.018 C 
BRANCH  33  34
HETATM   34  C19 UNL     1      43.010  27.884   8.875  1.00  0.00     0.080 C 
BRANCH  34  35
HETATM   35  C20 UNL     1      43.199  27.671  10.320  1.00  0.00     0.113 C 
HETATM   36  N1  UNL     1      43.613  26.563  10.781  1.00  0.00    -0.256 N 
ATOM     37  H1  UNL     1      43.719  26.492  11.794  1.00  0.00     0.195 HD
BRANCH  36  38
HETATM   38  O4  UNL     1      43.931  25.457  10.045  1.00  0.00    -0.288 OA
ATOM     39  H4  UNL     1      43.360  24.717   9.877  1.00  0.00     0.244 HD
ENDBRANCH  36  38
BRANCH  35  40
HETATM   40  N2  UNL     1      42.901  28.757  11.223  1.00  0.00    -0.280 N 
HETATM   41  C21 UNL     1      43.292  29.111  12.445  1.00  0.00     0.115 A 
HETATM   42  C22 UNL     1      42.611  30.262  12.720  1.00  0.00     0.086 A 
HETATM   43  S1  UNL     1      41.918  30.103  11.197  1.00  0.00    -0.017 SA
ENDBRANCH  35  40
ENDBRANCH  34  35
ENDBRANCH  33  34
ENDBRANCH  31  33
ENDBRANCH  24  31
ENDBRANCH  23  24
ENDBRANCH  22  23
ENDBRANCH  20  22
ENDBRANCH   4  20
BRANCH   1  44
HETATM   44  C2  UNL     1      41.145  23.287   3.243  1.00  0.00    -0.088 C 
HETATM   45  C1  UNL     1      42.340  23.755   2.960  1.00  0.00     0.014 C 
HETATM   46  C3  UNL     1      40.700  22.080   2.487  1.00  0.00     0.043 C 
ENDBRANCH   1  44
BRANCH  11  47
HETATM   47  O6  UNL     1      34.309  20.240   5.935  1.00  0.00    -0.393 OA
ATOM     48  H6  UNL     1      33.562  20.037   5.383  1.00  0.00     0.210 HD
ENDBRANCH  11  47
BRANCH  10  49
HETATM   49  O5  UNL     1      32.244  22.207   6.341  1.00  0.00    -0.393 OA
ATOM     50  H5  UNL     1      31.585  22.313   7.016  1.00  0.00     0.210 HD
ENDBRANCH  10  49
TORSDOF 15
ENDMDL
MODEL 3
REMARK VINA RESULT: -9.237845782      5.085      8.510
REMARK  15 active torsions:
REMARK  status: ('A' for Active; 'I' for Inactive)
REMARK    1  A    between atoms: C2_2  and  C4_4 
REMARK    2  A    between atoms: C7_7  and  C8_8 
REMARK    3  A    between atoms: C8_8  and  O2_10 
REMARK    4  A    between atoms: O2_10  and  O3_11 
REMARK    5  A    between atoms: O3_11  and  C9_12 
REMARK    6  A    between atoms: C9_12  and  C16_19 
REMARK    7  A    between atoms: C10_13  and  C11_14 
REMARK    8  A    between atoms: C11_14  and  C12_15 
REMARK    9  A    between atoms: C16_19  and  C18_21 
REMARK   10  A    between atoms: C18_21  and  C19_22 
REMARK   11  A    between atoms: C19_22  and  C20_23 
REMARK   12  A    between atoms: C20_23  and  N2_28 
REMARK   13  A    between atoms: N1_24  and  O4_26 
REMARK   14  A    between atoms: C28_37  and  O5_38 
REMARK   15  A    between atoms: C29_40  and  O6_41 
ROOT
HETATM    1  C4  UNL     1      37.451  25.736   6.469  1.00  0.00     0.023 C 
HETATM    2  C5  UNL     1      36.039  25.340   6.091  1.00  0.00     0.011 C 
HETATM    3  C6  UNL     1      35.159  26.223   6.971  1.00  0.00     0.026 C 
HETATM    4  C7  UNL     1      35.956  26.452   8.243  1.00  0.00     0.082 C 
HETATM    5  C23 UNL     1      36.057  27.916   8.595  1.00  0.00    -0.059 C 
HETATM    6  C24 UNL     1      35.378  28.426   9.616  1.00  0.00    -0.022 C 
HETATM    7  C25 UNL     1      35.424  29.852  10.028  1.00  0.00     0.033 C 
HETATM    8  C26 UNL     1      36.648  30.547   9.501  1.00  0.00     0.000 C 
HETATM    9  C27 UNL     1      36.540  32.048   9.627  1.00  0.00     0.040 C 
HETATM   10  C28 UNL     1      37.875  32.679   9.276  1.00  0.00     0.147 C 
HETATM   11  C29 UNL     1      38.826  31.680   8.694  1.00  0.00     0.147 C 
HETATM   12  C30 UNL     1      38.137  30.901   7.580  1.00  0.00     0.044 C 
HETATM   13  C31 UNL     1      36.872  30.219   8.057  1.00  0.00    -0.030 C 
HETATM   14  C32 UNL     1      35.668  30.778   7.282  1.00  0.00     0.016 C 
HETATM   15  C33 UNL     1      36.948  28.755   7.755  1.00  0.00     0.024 C 
HETATM   16  C34 UNL     1      38.341  28.177   7.878  1.00  0.00     0.010 C 
HETATM   17  C35 UNL     1      38.354  26.818   8.548  1.00  0.00     0.012 C 
HETATM   18  C36 UNL     1      37.351  25.868   7.980  1.00  0.00    -0.016 C 
HETATM   19  C37 UNL     1      37.479  24.532   8.643  1.00  0.00     0.018 C 
ENDROOT
BRANCH   4  20
HETATM   20  C8  UNL     1      35.241  25.816   9.362  1.00  0.00     0.303 C 
HETATM   21  O1  UNL     1      35.445  26.038  10.570  1.00  0.00    -0.261 OA
BRANCH  20  22
HETATM   22  O2  UNL     1      34.231  24.874   9.065  1.00  0.00    -0.152 OA
BRANCH  22  23
HETATM   23  O3  UNL     1      33.900  23.962  10.014  1.00  0.00    -0.194 OA
BRANCH  23  24
HETATM   24  C9  UNL     1      32.974  22.972   9.732  1.00  0.00     0.085 C 
HETATM   25  C10 UNL     1      33.390  21.824   9.241  1.00  0.00     0.013 C 
BRANCH  25  26
HETATM   26  C11 UNL     1      34.805  21.510   8.964  1.00  0.00     0.057 C 
BRANCH  26  27
HETATM   27  C12 UNL     1      35.153  21.982   7.591  1.00  0.00    -0.021 C 
HETATM   28  C13 UNL     1      34.439  21.540   6.573  1.00  0.00    -0.091 C 
HETATM   29  C14 UNL     1      34.811  22.032   5.206  1.00  0.00     0.042 C 
HETATM   30  C15 UNL     1      33.304  20.592   6.729  1.00  0.00     0.042 C 
ENDBRANCH  26  27
ENDBRANCH  25  26
BRANCH  24  31
HETATM   31  C16 UNL     1      31.528  23.184   9.973  1.00  0.00     0.042 C 
HETATM   32  C17 UNL     1      30.706  22.596   8.855  1.00  0.00     0.017 C 
BRANCH  31  33
HETATM   33  C18 UNL     1      31.120  22.647  11.325  1.00  0.00     0.018 C 
BRANCH  33  34
HETATM   34  C19 UNL     1      30.664  23.751  12.249  1.00  0.00     0.080 C 
BRANCH  34  35
HETATM   35  C20 UNL     1      30.455  23.199  13.599  1.00  0.00     0.113 C 
HETATM   36  N1  UNL     1      31.302  23.375  14.529  1.00  0.00    -0.256 N 
ATOM     37  H1  UNL     1      31.086  22.961  15.437  1.00  0.00     0.195 HD
BRANCH  36  38
HETATM   38  O4  UNL     1      32.474  24.068  14.425  1.00  0.00    -0.288 OA
ATOM     39  H4  UNL     1      33.327  23.768  14.716  1.00  0.00     0.244 HD
ENDBRANCH  36  38
BRANCH  35  40
HETATM   40  N2  UNL     1      29.255  22.440  13.857  1.00  0.00    -0.280 N 
HETATM   41  C21 UNL     1      27.947  22.666  13.753  1.00  0.00     0.115 A 
HETATM   42  C22 UNL     1      27.350  21.510  14.169  1.00  0.00     0.086 A 
HETATM   43  S1  UNL     1      28.901  20.910  14.416  1.00  0.00    -0.017 SA
ENDBRANCH  35  40
ENDBRANCH  34  35
ENDBRANCH  33  34
ENDBRANCH  31  33
ENDBRANCH  24  31
ENDBRANCH  23  24
ENDBRANCH  22  23
ENDBRANCH  20  22
ENDBRANCH   4  20
BRANCH   1  44
HETATM   44  C2  UNL     1      38.491  24.822   5.987  1.00  0.00    -0.088 C 
HETATM   45  C1  UNL     1      38.176  23.621   5.554  1.00  0.00     0.014 C 
HETATM   46  C3  UNL     1      39.934  25.197   5.932  1.00  0.00     0.043 C 
ENDBRANCH   1  44
BRANCH  11  47
HETATM   47  O6  UNL     1      39.883  32.365   8.087  1.00  0.00    -0.393 OA
ATOM     48  H6  UNL     1      39.891  32.157   7.160  1.00  0.00     0.210 HD
ENDBRANCH  11  47
BRANCH  10  49
HETATM   49  O5  UNL     1      38.464  33.191  10.453  1.00  0.00    -0.393 OA
ATOM     50  H5  UNL     1      39.398  33.288  10.313  1.00  0.00     0.210 HD
ENDBRANCH  10  49
TORSDOF 15
ENDMDL
MODEL 4
REMARK VINA RESULT: -9.044210611      3.456      8.654
REMARK  15 active torsions:
REMARK  status: ('A' for Active; 'I' for Inactive)
REMARK    1  A    between atoms: C2_2  and  C4_4 
REMARK    2  A    between atoms: C7_7  and  C8_8 
REMARK    3  A    between atoms: C8_8  and  O2_10 
REMARK    4  A    between atoms: O2_10  and  O3_11 
REMARK    5  A    between atoms: O3_11  and  C9_12 
REMARK    6  A    between atoms: C9_12  and  C16_19 
REMARK    7  A    between atoms: C10_13  and  C11_14 
REMARK    8  A    between atoms: C11_14  and  C12_15 
REMARK    9  A    between atoms: C16_19  and  C18_21 
REMARK   10  A    between atoms: C18_21  and  C19_22 
REMARK   11  A    between atoms: C19_22  and  C20_23 
REMARK   12  A    between atoms: C20_23  and  N2_28 
REMARK   13  A    between atoms: N1_24  and  O4_26 
REMARK   14  A    between atoms: C28_37  and  O5_38 
REMARK   15  A    between atoms: C29_40  and  O6_41 
ROOT
HETATM    1  C4  UNL     1      36.672  26.017   9.142  1.00  0.00     0.023 C 
HETATM    2  C5  UNL     1      37.801  25.179   8.580  1.00  0.00     0.011 C 
HETATM    3  C6  UNL     1      38.458  26.088   7.546  1.00  0.00     0.026 C 
HETATM    4  C7  UNL     1      37.343  26.967   7.010  1.00  0.00     0.082 C 
HETATM    5  C23 UNL     1      37.700  28.433   7.062  1.00  0.00    -0.059 C 
HETATM    6  C24 UNL     1      37.982  29.111   5.955  1.00  0.00    -0.022 C 
HETATM    7  C25 UNL     1      38.340  30.552   5.921  1.00  0.00     0.033 C 
HETATM    8  C26 UNL     1      37.893  31.269   7.163  1.00  0.00     0.000 C 
HETATM    9  C27 UNL     1      38.533  32.631   7.286  1.00  0.00     0.040 C 
HETATM   10  C28 UNL     1      37.892  33.385   8.438  1.00  0.00     0.147 C 
HETATM   11  C29 UNL     1      36.996  32.503   9.249  1.00  0.00     0.147 C 
HETATM   12  C30 UNL     1      37.730  31.218   9.613  1.00  0.00     0.044 C 
HETATM   13  C31 UNL     1      38.238  30.483   8.390  1.00  0.00    -0.030 C 
HETATM   14  C32 UNL     1      39.771  30.396   8.447  1.00  0.00     0.016 C 
HETATM   15  C33 UNL     1      37.717  29.080   8.397  1.00  0.00     0.024 C 
HETATM   16  C34 UNL     1      36.323  28.947   8.969  1.00  0.00     0.010 C 
HETATM   17  C35 UNL     1      35.454  27.991   8.178  1.00  0.00     0.012 C 
HETATM   18  C36 UNL     1      36.119  26.684   7.892  1.00  0.00    -0.016 C 
HETATM   19  C37 UNL     1      35.172  25.773   7.175  1.00  0.00     0.018 C 
ENDROOT
BRANCH   4  20
HETATM   20  C8  UNL     1      37.141  26.650   5.587  1.00  0.00     0.303 C 
HETATM   21  O1  UNL     1      36.402  27.276   4.804  1.00  0.00    -0.261 OA
BRANCH  20  22
HETATM   22  O2  UNL     1      37.838  25.551   5.038  1.00  0.00    -0.152 OA
BRANCH  22  23
HETATM   23  O3  UNL     1      37.125  24.586   4.404  1.00  0.00    -0.194 OA
BRANCH  23  24
HETATM   24  C9  UNL     1      37.624  23.298   4.316  1.00  0.00     0.085 C 
HETATM   25  C10 UNL     1      37.218  22.392   5.180  1.00  0.00     0.013 C 
BRANCH  25  26
HETATM   26  C11 UNL     1      36.248  22.657   6.258  1.00  0.00     0.057 C 
BRANCH  26  27
HETATM   27  C12 UNL     1      34.863  22.569   5.706  1.00  0.00    -0.021 C 
HETATM   28  C13 UNL     1      33.919  22.032   6.455  1.00  0.00    -0.091 C 
HETATM   29  C14 UNL     1      32.538  21.958   5.875  1.00  0.00     0.042 C 
HETATM   30  C15 UNL     1      34.170  21.506   7.823  1.00  0.00     0.042 C 
ENDBRANCH  26  27
ENDBRANCH  25  26
BRANCH  24  31
HETATM   31  C16 UNL     1      38.604  22.924   3.270  1.00  0.00     0.042 C 
HETATM   32  C17 UNL     1      38.454  23.804   2.055  1.00  0.00     0.017 C 
BRANCH  31  33
HETATM   33  C18 UNL     1      40.012  22.941   3.818  1.00  0.00     0.018 C 
BRANCH  33  34
HETATM   34  C19 UNL     1      41.015  22.466   2.794  1.00  0.00     0.080 C 
BRANCH  34  35
HETATM   35  C20 UNL     1      42.183  23.364   2.803  1.00  0.00     0.113 C 
HETATM   36  N1  UNL     1      43.369  22.915   2.865  1.00  0.00    -0.256 N 
ATOM     37  H1  UNL     1      44.125  23.600   2.867  1.00  0.00     0.195 HD
BRANCH  36  38
HETATM   38  O4  UNL     1      43.725  21.597   2.927  1.00  0.00    -0.288 OA
ATOM     39  H4  UNL     1      43.982  21.054   2.192  1.00  0.00     0.244 HD
ENDBRANCH  36  38
BRANCH  35  40
HETATM   40  N2  UNL     1      41.959  24.789   2.743  1.00  0.00    -0.280 N 
HETATM   41  C21 UNL     1      41.659  25.664   1.786  1.00  0.00     0.115 A 
HETATM   42  C22 UNL     1      41.592  26.874   2.415  1.00  0.00     0.086 A 
HETATM   43  S1  UNL     1      41.966  26.051   3.832  1.00  0.00    -0.017 SA
ENDBRANCH  35  40
ENDBRANCH  34  35
ENDBRANCH  33  34
ENDBRANCH  31  33
ENDBRANCH  24  31
ENDBRANCH  23  24
ENDBRANCH  22  23
ENDBRANCH  20  22
ENDBRANCH   4  20
BRANCH   1  44
HETATM   44  C2  UNL     1      35.694  25.271   9.939  1.00  0.00    -0.088 C 
HETATM   45  C1  UNL     1      35.673  23.957   9.908  1.00  0.00     0.014 C 
HETATM   46  C3  UNL     1      34.706  25.937  10.836  1.00  0.00     0.043 C 
ENDBRANCH   1  44
BRANCH  11  47
HETATM   47  O6  UNL     1      36.714  33.141  10.462  1.00  0.00    -0.393 OA
ATOM     48  H6  UNL     1      36.084  32.617  10.944  1.00  0.00     0.210 HD
ENDBRANCH  11  47
BRANCH  10  49
HETATM   49  O5  UNL     1      37.100  34.431   7.916  1.00  0.00    -0.393 OA
ATOM     50  H5  UNL     1      36.263  34.437   8.365  1.00  0.00     0.210 HD
ENDBRANCH  10  49
TORSDOF 15
ENDMDL
MODEL 5
REMARK VINA RESULT: -8.992532288      3.341      8.087
REMARK  15 active torsions:
REMARK  status: ('A' for Active; 'I' for Inactive)
REMARK    1  A    between atoms: C2_2  and  C4_4 
REMARK    2  A    between atoms: C7_7  and  C8_8 
REMARK    3  A    between atoms: C8_8  and  O2_10 
REMARK    4  A    between atoms: O2_10  and  O3_11 
REMARK    5  A    between atoms: O3_11  and  C9_12 
REMARK    6  A    between atoms: C9_12  and  C16_19 
REMARK    7  A    between atoms: C10_13  and  C11_14 
REMARK    8  A    between atoms: C11_14  and  C12_15 
REMARK    9  A    between atoms: C16_19  and  C18_21 
REMARK   10  A    between atoms: C18_21  and  C19_22 
REMARK   11  A    between atoms: C19_22  and  C20_23 
REMARK   12  A    between atoms: C20_23  and  N2_28 
REMARK   13  A    between atoms: N1_24  and  O4_26 
REMARK   14  A    between atoms: C28_37  and  O5_38 
REMARK   15  A    between atoms: C29_40  and  O6_41 
ROOT
HETATM    1  C4  UNL     1      36.524  25.750   9.035  1.00  0.00     0.023 C 
HETATM    2  C5  UNL     1      37.655  24.924   8.460  1.00  0.00     0.011 C 
HETATM    3  C6  UNL     1      38.303  25.848   7.433  1.00  0.00     0.026 C 
HETATM    4  C7  UNL     1      37.181  26.726   6.911  1.00  0.00     0.082 C 
HETATM    5  C23 UNL     1      37.530  28.193   6.978  1.00  0.00    -0.059 C 
HETATM    6  C24 UNL     1      37.804  28.884   5.877  1.00  0.00    -0.022 C 
HETATM    7  C25 UNL     1      38.153  30.328   5.857  1.00  0.00     0.033 C 
HETATM    8  C26 UNL     1      37.708  31.029   7.108  1.00  0.00     0.000 C 
HETATM    9  C27 UNL     1      38.341  32.394   7.244  1.00  0.00     0.040 C 
HETATM   10  C28 UNL     1      37.700  33.131   8.406  1.00  0.00     0.147 C 
HETATM   11  C29 UNL     1      36.812  32.236   9.212  1.00  0.00     0.147 C 
HETATM   12  C30 UNL     1      37.554  30.950   9.559  1.00  0.00     0.044 C 
HETATM   13  C31 UNL     1      38.061  30.232   8.325  1.00  0.00    -0.030 C 
HETATM   14  C32 UNL     1      39.595  30.153   8.376  1.00  0.00     0.016 C 
HETATM   15  C33 UNL     1      37.549  28.826   8.320  1.00  0.00     0.024 C 
HETATM   16  C34 UNL     1      36.157  28.679   8.895  1.00  0.00     0.010 C 
HETATM   17  C35 UNL     1      35.291  27.727   8.097  1.00  0.00     0.012 C 
HETATM   18  C36 UNL     1      35.962  26.427   7.795  1.00  0.00    -0.016 C 
HETATM   19  C37 UNL     1      35.017  25.518   7.072  1.00  0.00     0.018 C 
ENDROOT
BRANCH   4  20
HETATM   20  C8  UNL     1      36.976  26.423   5.485  1.00  0.00     0.303 C 
HETATM   21  O1  UNL     1      36.161  26.993   4.735  1.00  0.00    -0.261 OA
BRANCH  20  22
HETATM   22  O2  UNL     1      37.760  25.409   4.895  1.00  0.00    -0.152 OA
BRANCH  22  23
HETATM   23  O3  UNL     1      37.127  24.346   4.336  1.00  0.00    -0.194 OA
BRANCH  23  24
HETATM   24  C9  UNL     1      37.514  23.057   4.664  1.00  0.00     0.085 C 
HETATM   25  C10 UNL     1      36.629  22.233   5.182  1.00  0.00     0.013 C 
BRANCH  25  26
HETATM   26  C11 UNL     1      35.222  22.592   5.444  1.00  0.00     0.057 C 
BRANCH  26  27
HETATM   27  C12 UNL     1      34.773  21.933   6.706  1.00  0.00    -0.021 C 
HETATM   28  C13 UNL     1      33.478  21.782   6.912  1.00  0.00    -0.091 C 
HETATM   29  C14 UNL     1      33.057  21.115   8.188  1.00  0.00     0.042 C 
HETATM   30  C15 UNL     1      32.445  22.241   5.947  1.00  0.00     0.042 C 
ENDBRANCH  26  27
ENDBRANCH  25  26
BRANCH  24  31
HETATM   31  C16 UNL     1      38.903  22.593   4.442  1.00  0.00     0.042 C 
HETATM   32  C17 UNL     1      39.188  22.436   2.971  1.00  0.00     0.017 C 
BRANCH  31  33
HETATM   33  C18 UNL     1      39.894  23.509   5.122  1.00  0.00     0.018 C 
BRANCH  33  34
HETATM   34  C19 UNL     1      40.862  24.116   4.134  1.00  0.00     0.080 C 
BRANCH  34  35
HETATM   35  C20 UNL     1      40.791  25.585   4.226  1.00  0.00     0.113 C 
HETATM   36  N1  UNL     1      40.063  26.267   3.440  1.00  0.00    -0.256 N 
ATOM     37  H1  UNL     1      40.067  27.280   3.565  1.00  0.00     0.195 HD
BRANCH  36  38
HETATM   38  O4  UNL     1      39.274  25.768   2.443  1.00  0.00    -0.288 OA
ATOM     39  H4  UNL     1      39.211  26.109   1.559  1.00  0.00     0.244 HD
ENDBRANCH  36  38
BRANCH  35  40
HETATM   40  N2  UNL     1      41.576  26.253   5.236  1.00  0.00    -0.280 N 
HETATM   41  C21 UNL     1      42.758  26.045   5.812  1.00  0.00     0.115 A 
HETATM   42  C22 UNL     1      42.906  27.068   6.706  1.00  0.00     0.086 A 
HETATM   43  S1  UNL     1      41.400  27.609   6.189  1.00  0.00    -0.017 SA
ENDBRANCH  35  40
ENDBRANCH  34  35
ENDBRANCH  33  34
ENDBRANCH  31  33
ENDBRANCH  24  31
ENDBRANCH  23  24
ENDBRANCH  22  23
ENDBRANCH  20  22
ENDBRANCH   4  20
BRANCH   1  44
HETATM   44  C2  UNL     1      35.553  24.989   9.828  1.00  0.00    -0.088 C 
HETATM   45  C1  UNL     1      35.456  23.685   9.690  1.00  0.00     0.014 C 
HETATM   46  C3  UNL     1      34.658  25.626  10.837  1.00  0.00     0.043 C 
ENDBRANCH   1  44
BRANCH  11  47
HETATM   47  O6  UNL     1      36.530  32.859  10.432  1.00  0.00    -0.393 OA
ATOM     48  H6  UNL     1      36.726  32.253  11.137  1.00  0.00     0.210 HD
ENDBRANCH  11  47
BRANCH  10  49
HETATM   49  O5  UNL     1      36.899  34.178   7.898  1.00  0.00    -0.393 OA
ATOM     50  H5  UNL     1      37.459  34.913   7.674  1.00  0.00     0.210 HD
ENDBRANCH  10  49
TORSDOF 15
ENDMDL
