MODEL 1
REMARK VINA RESULT: -7.422601636      0.000      0.000
REMARK  5 active torsions:
REMARK  status: ('A' for Active; 'I' for Inactive)
REMARK    1  A    between atoms: C2_2  and  O1_4 
REMARK    2  A    between atoms: O1_4  and  C4_5 
REMARK       I    between atoms: C4_5  and  N1_7 
REMARK    3  A    between atoms: N1_7  and  N2_8 
REMARK    4  A    between atoms: C5_10  and  C6_11 
REMARK    5  A    between atoms: C7_12  and  O3_13 
ROOT
HETATM    1  C6  UNL     1      24.224  40.893   2.719  1.00  0.00     0.080 C 
HETATM    2  C7  UNL     1      23.891  42.367   2.789  1.00  0.00     0.130 C 
HETATM    3  C8  UNL     1      25.214  43.084   2.906  1.00  0.00     0.055 C 
HETATM    4  C9  UNL     1      26.281  42.130   2.458  1.00  0.00     0.038 C 
HETATM    5  C10 UNL     1      27.032  42.689   1.277  1.00  0.00     0.029 C 
HETATM    6 BR1  UNL     1      27.548  41.987   3.937  1.00  0.00    -0.084 Br
HETATM    7  C11 UNL     1      25.652  40.807   2.224  1.00  0.00     0.061 C 
HETATM    8  C12 UNL     1      25.624  40.357   0.787  1.00  0.00     0.035 C 
HETATM    9 CL1  UNL     1      26.556  39.556   3.150  1.00  0.00    -0.117 Cl
ENDROOT
BRANCH   1  10
HETATM   10  C5  UNL     1      24.147  40.275   4.051  1.00  0.00     0.103 C 
HETATM   11  N2  UNL     1      23.101  40.200   4.689  1.00  0.00    -0.245 N 
ATOM     12  H2  UNL     1      23.232  39.738   5.589  1.00  0.00     0.200 HD
BRANCH  11  13
HETATM   13  N1  UNL     1      21.869  40.561   4.503  1.00  0.00    -0.259 NA
HETATM   14  C4  UNL     1      20.594  40.935   4.310  1.00  0.00     0.458 C 
HETATM   15  O2  UNL     1      19.965  41.163   3.209  1.00  0.00    -0.219 OA
BRANCH  14  16
HETATM   16  O1  UNL     1      19.688  41.148   5.412  1.00  0.00    -0.287 OA
BRANCH  16  17
HETATM   17  C2  UNL     1      19.767  40.374   6.588  1.00  0.00     0.126 C 
HETATM   18  C1  UNL     1      18.374  40.064   7.044  1.00  0.00     0.040 C 
HETATM   19  C3  UNL     1      20.400  41.277   7.685  1.00  0.00     0.040 C 
ENDBRANCH  16  17
ENDBRANCH  14  16
ENDBRANCH  11  13
ENDBRANCH   1  10
BRANCH   2  20
HETATM   20  O3  UNL     1      23.242  42.836   1.654  1.00  0.00    -0.395 OA
ATOM     21  H3  UNL     1      23.183  43.783   1.622  1.00  0.00     0.210 HD
ENDBRANCH   2  20
TORSDOF 5
ENDMDL
MODEL 2
REMARK VINA RESULT: -7.270128810      2.249      2.791
REMARK  5 active torsions:
REMARK  status: ('A' for Active; 'I' for Inactive)
REMARK    1  A    between atoms: C2_2  and  O1_4 
REMARK    2  A    between atoms: O1_4  and  C4_5 
REMARK       I    between atoms: C4_5  and  N1_7 
REMARK    3  A    between atoms: N1_7  and  N2_8 
REMARK    4  A    between atoms: C5_10  and  C6_11 
REMARK    5  A    between atoms: C7_12  and  O3_13 
ROOT
HETATM    1  C6  UNL     1      25.061  41.760   3.060  1.00  0.00     0.080 C 
HETATM    2  C7  UNL     1      24.438  40.386   3.184  1.00  0.00     0.130 C 
HETATM    3  C8  UNL     1      25.245  39.485   2.281  1.00  0.00     0.055 C 
HETATM    4  C9  UNL     1      26.548  40.175   2.007  1.00  0.00     0.038 C 
HETATM    5  C10 UNL     1      27.703  39.336   2.487  1.00  0.00     0.029 C 
HETATM    6 BR1  UNL     1      26.698  40.316   0.065  1.00  0.00    -0.084 Br
HETATM    7  C11 UNL     1      26.483  41.536   2.593  1.00  0.00     0.061 C 
HETATM    8  C12 UNL     1      27.403  41.774   3.762  1.00  0.00     0.035 C 
HETATM    9 CL1  UNL     1      26.918  42.740   1.328  1.00  0.00    -0.117 Cl
ENDROOT
BRANCH   1  10
HETATM   10  C5  UNL     1      24.354  42.566   2.054  1.00  0.00     0.103 C 
HETATM   11  N2  UNL     1      23.131  42.678   2.032  1.00  0.00    -0.245 N 
ATOM     12  H2  UNL     1      22.815  43.277   1.269  1.00  0.00     0.200 HD
BRANCH  11  13
HETATM   13  N1  UNL     1      22.143  42.224   2.738  1.00  0.00    -0.259 NA
HETATM   14  C4  UNL     1      21.119  41.754   3.468  1.00  0.00     0.458 C 
HETATM   15  O2  UNL     1      19.974  41.308   3.081  1.00  0.00    -0.219 OA
BRANCH  14  16
HETATM   16  O1  UNL     1      21.179  41.684   4.908  1.00  0.00    -0.287 OA
BRANCH  16  17
HETATM   17  C2  UNL     1      20.585  40.619   5.616  1.00  0.00     0.126 C 
HETATM   18  C1  UNL     1      20.016  41.160   6.892  1.00  0.00     0.040 C 
HETATM   19  C3  UNL     1      21.731  39.647   6.020  1.00  0.00     0.040 C 
ENDBRANCH  16  17
ENDBRANCH  14  16
ENDBRANCH  11  13
ENDBRANCH   1  10
BRANCH   2  20
HETATM   20  O3  UNL     1      24.496  39.874   4.474  1.00  0.00    -0.395 OA
ATOM     21  H3  UNL     1      23.799  39.256   4.662  1.00  0.00     0.210 HD
ENDBRANCH   2  20
TORSDOF 5
ENDMDL
MODEL 3
REMARK VINA RESULT: -7.239191721      2.331      3.086
REMARK  5 active torsions:
REMARK  status: ('A' for Active; 'I' for Inactive)
REMARK    1  A    between atoms: C2_2  and  O1_4 
REMARK    2  A    between atoms: O1_4  and  C4_5 
REMARK       I    between atoms: C4_5  and  N1_7 
REMARK    3  A    between atoms: N1_7  and  N2_8 
REMARK    4  A    between atoms: C5_10  and  C6_11 
REMARK    5  A    between atoms: C7_12  and  O3_13 
ROOT
HETATM    1  C6  UNL     1      25.129  41.173   2.290  1.00  0.00     0.080 C 
HETATM    2  C7  UNL     1      24.865  40.223   1.141  1.00  0.00     0.130 C 
HETATM    3  C8  UNL     1      26.180  40.080   0.414  1.00  0.00     0.055 C 
HETATM    4  C9  UNL     1      27.260  40.540   1.346  1.00  0.00     0.038 C 
HETATM    5  C10 UNL     1      28.241  39.428   1.612  1.00  0.00     0.029 C 
HETATM    6 BR1  UNL     1      28.226  41.958   0.413  1.00  0.00    -0.084 Br
HETATM    7  C11 UNL     1      26.617  41.104   2.559  1.00  0.00     0.061 C 
HETATM    8  C12 UNL     1      26.829  40.312   3.822  1.00  0.00     0.035 C 
HETATM    9 CL1  UNL     1      27.272  42.754   2.856  1.00  0.00    -0.117 Cl
ENDROOT
BRANCH   1  10
HETATM   10  C5  UNL     1      24.778  42.552   1.920  1.00  0.00     0.103 C 
HETATM   11  N2  UNL     1      23.617  42.940   1.830  1.00  0.00    -0.245 N 
ATOM     12  H2  UNL     1      23.561  43.924   1.567  1.00  0.00     0.200 HD
BRANCH  11  13
HETATM   13  N1  UNL     1      22.444  42.411   1.987  1.00  0.00    -0.259 NA
HETATM   14  C4  UNL     1      21.229  41.863   2.149  1.00  0.00     0.458 C 
HETATM   15  O2  UNL     1      20.332  41.584   1.266  1.00  0.00    -0.219 OA
BRANCH  14  16
HETATM   16  O1  UNL     1      20.732  41.483   3.448  1.00  0.00    -0.287 OA
BRANCH  16  17
HETATM   17  C2  UNL     1      21.575  41.457   4.578  1.00  0.00     0.126 C 
HETATM   18  C1  UNL     1      22.457  40.249   4.482  1.00  0.00     0.040 C 
HETATM   19  C3  UNL     1      20.664  41.242   5.821  1.00  0.00     0.040 C 
ENDBRANCH  16  17
ENDBRANCH  14  16
ENDBRANCH  11  13
ENDBRANCH   1  10
BRANCH   2  20
HETATM   20  O3  UNL     1      24.459  38.962   1.557  1.00  0.00    -0.395 OA
ATOM     21  H3  UNL     1      24.913  38.257   1.110  1.00  0.00     0.210 HD
ENDBRANCH   2  20
TORSDOF 5
ENDMDL
MODEL 4
REMARK VINA RESULT: -6.972502420      1.530      1.692
REMARK  5 active torsions:
REMARK  status: ('A' for Active; 'I' for Inactive)
REMARK    1  A    between atoms: C2_2  and  O1_4 
REMARK    2  A    between atoms: O1_4  and  C4_5 
REMARK       I    between atoms: C4_5  and  N1_7 
REMARK    3  A    between atoms: N1_7  and  N2_8 
REMARK    4  A    between atoms: C5_10  and  C6_11 
REMARK    5  A    between atoms: C7_12  and  O3_13 
ROOT
HETATM    1  C6  UNL     1      25.131  41.390   3.184  1.00  0.00     0.080 C 
HETATM    2  C7  UNL     1      26.236  42.219   3.803  1.00  0.00     0.130 C 
HETATM    3  C8  UNL     1      27.526  41.674   3.240  1.00  0.00     0.055 C 
HETATM    4  C9  UNL     1      27.181  40.889   2.009  1.00  0.00     0.038 C 
HETATM    5  C10 UNL     1      27.871  41.467   0.801  1.00  0.00     0.029 C 
HETATM    6 BR1  UNL     1      27.897  39.093   2.284  1.00  0.00    -0.084 Br
HETATM    7  C11 UNL     1      25.703  40.816   1.905  1.00  0.00     0.061 C 
HETATM    8  C12 UNL     1      25.105  41.568   0.745  1.00  0.00     0.035 C 
HETATM    9 CL1  UNL     1      25.213  39.094   1.724  1.00  0.00    -0.117 Cl
ENDROOT
BRANCH   1  10
HETATM   10  C5  UNL     1      24.749  40.281   4.071  1.00  0.00     0.103 C 
HETATM   11  N2  UNL     1      23.600  40.118   4.472  1.00  0.00    -0.245 N 
ATOM     12  H2  UNL     1      23.517  39.298   5.074  1.00  0.00     0.200 HD
BRANCH  11  13
HETATM   13  N1  UNL     1      22.466  40.728   4.320  1.00  0.00    -0.259 NA
HETATM   14  C4  UNL     1      21.291  41.359   4.163  1.00  0.00     0.458 C 
HETATM   15  O2  UNL     1      20.773  41.872   3.101  1.00  0.00    -0.219 OA
BRANCH  14  16
HETATM   16  O1  UNL     1      20.380  41.558   5.264  1.00  0.00    -0.287 OA
BRANCH  16  17
HETATM   17  C2  UNL     1      20.220  40.584   6.270  1.00  0.00     0.126 C 
HETATM   18  C1  UNL     1      18.775  40.191   6.321  1.00  0.00     0.040 C 
HETATM   19  C3  UNL     1      20.539  41.275   7.627  1.00  0.00     0.040 C 
ENDBRANCH  16  17
ENDBRANCH  14  16
ENDBRANCH  11  13
ENDBRANCH   1  10
BRANCH   2  20
HETATM   20  O3  UNL     1      26.155  43.567   3.479  1.00  0.00    -0.395 OA
ATOM     21  H3  UNL     1      26.845  43.852   2.891  1.00  0.00     0.210 HD
ENDBRANCH   2  20
TORSDOF 5
ENDMDL
MODEL 5
REMARK VINA RESULT: -6.706851128      4.377      5.850
REMARK  5 active torsions:
REMARK  status: ('A' for Active; 'I' for Inactive)
REMARK    1  A    between atoms: C2_2  and  O1_4 
REMARK    2  A    between atoms: O1_4  and  C4_5 
REMARK       I    between atoms: C4_5  and  N1_7 
REMARK    3  A    between atoms: N1_7  and  N2_8 
REMARK    4  A    between atoms: C5_10  and  C6_11 
REMARK    5  A    between atoms: C7_12  and  O3_13 
ROOT
HETATM    1  C6  UNL     1      27.794  38.791   0.503  1.00  0.00     0.080 C 
HETATM    2  C7  UNL     1      28.901  37.836   0.893  1.00  0.00     0.130 C 
HETATM    3  C8  UNL     1      29.238  37.063  -0.359  1.00  0.00     0.055 C 
HETATM    4  C9  UNL     1      28.696  37.837  -1.524  1.00  0.00     0.038 C 
HETATM    5  C10 UNL     1      29.805  38.223  -2.467  1.00  0.00     0.029 C 
HETATM    6 BR1  UNL     1      27.510  36.621  -2.488  1.00  0.00    -0.084 Br
HETATM    7  C11 UNL     1      27.905  38.975  -0.995  1.00  0.00     0.061 C 
HETATM    8  C12 UNL     1      28.491  40.338  -1.258  1.00  0.00     0.035 C 
HETATM    9 CL1  UNL     1      26.269  38.952  -1.747  1.00  0.00    -0.117 Cl
ENDROOT
BRANCH   1  10
HETATM   10  C5  UNL     1      26.476  38.218   0.813  1.00  0.00     0.103 C 
HETATM   11  N2  UNL     1      25.772  38.630   1.731  1.00  0.00    -0.245 N 
ATOM     12  H2  UNL     1      24.892  38.119   1.798  1.00  0.00     0.200 HD
BRANCH  11  13
HETATM   13  N1  UNL     1      25.869  39.553   2.636  1.00  0.00    -0.259 NA
HETATM   14  C4  UNL     1      25.970  40.510   3.573  1.00  0.00     0.458 C 
HETATM   15  O2  UNL     1      26.989  40.860   4.279  1.00  0.00    -0.219 OA
BRANCH  14  16
HETATM   16  O1  UNL     1      24.848  41.339   3.939  1.00  0.00    -0.287 OA
BRANCH  16  17
HETATM   17  C2  UNL     1      23.526  40.972   3.611  1.00  0.00     0.126 C 
HETATM   18  C1  UNL     1      22.670  42.201   3.658  1.00  0.00     0.040 C 
HETATM   19  C3  UNL     1      23.019  40.037   4.746  1.00  0.00     0.040 C 
ENDBRANCH  16  17
ENDBRANCH  14  16
ENDBRANCH  11  13
ENDBRANCH   1  10
BRANCH   2  20
HETATM   20  O3  UNL     1      30.052  38.481   1.327  1.00  0.00    -0.395 OA
ATOM     21  H3  UNL     1      30.763  38.441   0.699  1.00  0.00     0.210 HD
ENDBRANCH   2  20
TORSDOF 5
ENDMDL
