MODEL 1
REMARK VINA RESULT: -7.519388744      0.000      0.000
REMARK  4 active torsions:
REMARK  status: ('A' for Active; 'I' for Inactive)
REMARK    1  A    between atoms: C7_7  and  C8_8 
REMARK       I    between atoms: C8_8  and  N1_10 
REMARK    2  A    between atoms: N1_10  and  C9_12 
REMARK    3  A    between atoms: C9_12  and  N2_14 
REMARK    4  A    between atoms: N2_14  and  N3_16 
ROOT
HETATM    1  C9  UNL     1      26.617  40.850   3.291  1.00  0.00     0.193 C 
HETATM    2  S1  UNL     1      27.475  42.278   3.494  1.00  0.00    -0.039 SA
ENDROOT
BRANCH   1   3
HETATM    3  N1  UNL     1      27.047  39.932   2.331  1.00  0.00    -0.302 N 
HETATM    4  C8  UNL     1      26.237  39.092   1.553  1.00  0.00     0.228 C 
HETATM    5  O1  UNL     1      25.004  39.093   1.657  1.00  0.00    -0.273 OA
ATOM      6  H1  UNL     1      28.054  39.866   2.180  1.00  0.00     0.171 HD
BRANCH   4   7
HETATM    7  C7  UNL     1      26.805  38.145   0.550  1.00  0.00     0.082 C 
HETATM    8  C2  UNL     1      28.156  38.544   0.064  1.00  0.00    -0.006 C 
HETATM    9  C1  UNL     1      29.262  37.652   0.615  1.00  0.00     0.011 C 
HETATM   10  C3  UNL     1      28.171  38.479  -1.446  1.00  0.00     0.005 C 
HETATM   11  C4  UNL     1      27.649  37.161  -1.963  1.00  0.00     0.000 C 
HETATM   12  C5  UNL     1      26.204  37.005  -1.566  1.00  0.00     0.001 C 
HETATM   13  C6  UNL     1      25.780  38.036  -0.564  1.00  0.00     0.014 C 
ENDBRANCH   4   7
ENDBRANCH   1   3
BRANCH   1  14
HETATM   14  N2  UNL     1      25.493  40.683   4.133  1.00  0.00    -0.276 N 
ATOM     15  H2  UNL     1      25.557  40.073   4.947  1.00  0.00     0.189 HD
BRANCH  14  16
HETATM   16  N3  UNL     1      24.283  41.355   3.855  1.00  0.00    -0.304 N 
HETATM   17  C10 UNL     1      23.173  40.883   4.252  1.00  0.00     0.032 C 
HETATM   18  C11 UNL     1      22.987  39.631   5.023  1.00  0.00     0.225 C 
HETATM   19  C13 UNL     1      21.824  41.456   4.047  1.00  0.00     0.129 C 
HETATM   20  O2  UNL     1      21.638  39.410   5.137  1.00  0.00    -0.346 OA
HETATM   21  C12 UNL     1      20.980  40.614   4.976  1.00  0.00     0.221 C 
HETATM   22 CL1  UNL     1      19.388  40.406   4.207  1.00  0.00    -0.070 Cl
HETATM   23 CL2  UNL     1      20.740  41.465   6.524  1.00  0.00    -0.070 Cl
ATOM     24  H3  UNL     1      24.300  42.229   3.330  1.00  0.00     0.186 HD
ENDBRANCH  14  16
ENDBRANCH   1  14
TORSDOF 4
ENDMDL
MODEL 2
REMARK VINA RESULT: -7.489332295      4.417      7.678
REMARK  4 active torsions:
REMARK  status: ('A' for Active; 'I' for Inactive)
REMARK    1  A    between atoms: C7_7  and  C8_8 
REMARK       I    between atoms: C8_8  and  N1_10 
REMARK    2  A    between atoms: N1_10  and  C9_12 
REMARK    3  A    between atoms: C9_12  and  N2_14 
REMARK    4  A    between atoms: N2_14  and  N3_16 
ROOT
HETATM    1  C9  UNL     1      27.074  41.647   3.068  1.00  0.00     0.193 C 
HETATM    2  S1  UNL     1      27.904  42.835   3.914  1.00  0.00    -0.039 SA
ENDROOT
BRANCH   1   3
HETATM    3  N1  UNL     1      25.772  41.326   3.455  1.00  0.00    -0.302 N 
HETATM    4  C8  UNL     1      24.649  41.227   2.620  1.00  0.00     0.228 C 
HETATM    5  O1  UNL     1      24.722  41.429   1.401  1.00  0.00    -0.273 OA
ATOM      6  H1  UNL     1      25.622  41.143   4.448  1.00  0.00     0.171 HD
BRANCH   4   7
HETATM    7  C7  UNL     1      23.298  40.874   3.142  1.00  0.00     0.082 C 
HETATM    8  C2  UNL     1      22.392  42.051   3.273  1.00  0.00    -0.006 C 
HETATM    9  C1  UNL     1      21.298  42.066   2.211  1.00  0.00     0.011 C 
HETATM   10  C3  UNL     1      21.755  42.027   4.643  1.00  0.00     0.005 C 
HETATM   11  C4  UNL     1      21.141  40.686   4.961  1.00  0.00     0.000 C 
HETATM   12  C5  UNL     1      22.222  39.637   4.999  1.00  0.00     0.001 C 
HETATM   13  C6  UNL     1      23.522  40.147   4.455  1.00  0.00     0.014 C 
ENDBRANCH   4   7
ENDBRANCH   1   3
BRANCH   1  14
HETATM   14  N2  UNL     1      27.778  41.049   1.997  1.00  0.00    -0.276 N 
ATOM     15  H2  UNL     1      28.075  41.619   1.205  1.00  0.00     0.189 HD
BRANCH  14  16
HETATM   16  N3  UNL     1      28.073  39.669   2.015  1.00  0.00    -0.304 N 
HETATM   17  C10 UNL     1      28.638  39.113   1.023  1.00  0.00     0.032 C 
HETATM   18  C11 UNL     1      29.053  39.786  -0.230  1.00  0.00     0.225 C 
HETATM   19  C13 UNL     1      29.014  37.689   0.881  1.00  0.00     0.129 C 
HETATM   20  O2  UNL     1      29.501  38.819  -1.093  1.00  0.00    -0.346 OA
HETATM   21  C12 UNL     1      29.884  37.715  -0.356  1.00  0.00     0.221 C 
HETATM   22 CL1  UNL     1      29.602  36.195  -1.237  1.00  0.00    -0.070 Cl
HETATM   23 CL2  UNL     1      31.604  37.776   0.109  1.00  0.00    -0.070 Cl
ATOM     24  H3  UNL     1      27.829  39.112   2.834  1.00  0.00     0.186 HD
ENDBRANCH  14  16
ENDBRANCH   1  14
TORSDOF 4
ENDMDL
MODEL 3
REMARK VINA RESULT: -7.485618173      1.263      1.723
REMARK  4 active torsions:
REMARK  status: ('A' for Active; 'I' for Inactive)
REMARK    1  A    between atoms: C7_7  and  C8_8 
REMARK       I    between atoms: C8_8  and  N1_10 
REMARK    2  A    between atoms: N1_10  and  C9_12 
REMARK    3  A    between atoms: C9_12  and  N2_14 
REMARK    4  A    between atoms: N2_14  and  N3_16 
ROOT
HETATM    1  C9  UNL     1      25.612  41.409   1.723  1.00  0.00     0.193 C 
HETATM    2  S1  UNL     1      26.415  42.860   1.978  1.00  0.00    -0.039 SA
ENDROOT
BRANCH   1   3
HETATM    3  N1  UNL     1      26.314  40.335   1.172  1.00  0.00    -0.302 N 
HETATM    4  C8  UNL     1      25.783  39.303   0.385  1.00  0.00     0.228 C 
HETATM    5  O1  UNL     1      24.580  39.254   0.096  1.00  0.00    -0.273 OA
ATOM      6  H1  UNL     1      27.316  40.298   1.361  1.00  0.00     0.171 HD
BRANCH   4   7
HETATM    7  C7  UNL     1      26.628  38.200  -0.157  1.00  0.00     0.082 C 
HETATM    8  C2  UNL     1      28.085  38.516  -0.147  1.00  0.00    -0.006 C 
HETATM    9  C1  UNL     1      28.843  37.738   0.923  1.00  0.00     0.011 C 
HETATM   10  C3  UNL     1      28.665  38.191  -1.503  1.00  0.00     0.005 C 
HETATM   11  C4  UNL     1      28.297  36.801  -1.961  1.00  0.00     0.000 C 
HETATM   12  C5  UNL     1      26.802  36.709  -2.128  1.00  0.00     0.001 C 
HETATM   13  C6  UNL     1      26.096  37.895  -1.545  1.00  0.00     0.014 C 
ENDBRANCH   4   7
ENDBRANCH   1   3
BRANCH   1  14
HETATM   14  N2  UNL     1      24.248  41.386   2.098  1.00  0.00    -0.276 N 
ATOM     15  H2  UNL     1      23.585  42.003   1.631  1.00  0.00     0.189 HD
BRANCH  14  16
HETATM   16  N3  UNL     1      23.798  40.515   3.114  1.00  0.00    -0.304 N 
HETATM   17  C10 UNL     1      22.872  40.867   3.907  1.00  0.00     0.032 C 
HETATM   18  C11 UNL     1      22.160  42.167   3.890  1.00  0.00     0.225 C 
HETATM   19  C13 UNL     1      22.288  40.082   5.016  1.00  0.00     0.129 C 
HETATM   20  O2  UNL     1      21.332  42.202   4.982  1.00  0.00    -0.346 OA
HETATM   21  C12 UNL     1      21.072  40.904   5.379  1.00  0.00     0.221 C 
HETATM   22 CL1  UNL     1      20.848  40.777   7.139  1.00  0.00    -0.070 Cl
HETATM   23 CL2  UNL     1      19.623  40.233   4.586  1.00  0.00    -0.070 Cl
ATOM     24  H3  UNL     1      24.222  39.593   3.211  1.00  0.00     0.186 HD
ENDBRANCH  14  16
ENDBRANCH   1  14
TORSDOF 4
ENDMDL
MODEL 4
REMARK VINA RESULT: -7.423774889      3.796      8.134
REMARK  4 active torsions:
REMARK  status: ('A' for Active; 'I' for Inactive)
REMARK    1  A    between atoms: C7_7  and  C8_8 
REMARK       I    between atoms: C8_8  and  N1_10 
REMARK    2  A    between atoms: N1_10  and  C9_12 
REMARK    3  A    between atoms: C9_12  and  N2_14 
REMARK    4  A    between atoms: N2_14  and  N3_16 
ROOT
HETATM    1  C9  UNL     1      23.873  41.243   3.513  1.00  0.00     0.193 C 
HETATM    2  S1  UNL     1      24.838  42.611   3.392  1.00  0.00    -0.039 SA
ENDROOT
BRANCH   1   3
HETATM    3  N1  UNL     1      22.601  41.361   4.075  1.00  0.00    -0.302 N 
HETATM    4  C8  UNL     1      22.019  40.502   5.020  1.00  0.00     0.228 C 
HETATM    5  O1  UNL     1      22.619  39.512   5.460  1.00  0.00    -0.273 OA
ATOM      6  H1  UNL     1      22.035  42.152   3.767  1.00  0.00     0.171 HD
BRANCH   4   7
HETATM    7  C7  UNL     1      20.646  40.723   5.557  1.00  0.00     0.082 C 
HETATM    8  C2  UNL     1      20.512  40.359   6.997  1.00  0.00    -0.006 C 
HETATM    9  C1  UNL     1      20.392  41.582   7.899  1.00  0.00     0.011 C 
HETATM   10  C3  UNL     1      19.287  39.491   7.170  1.00  0.00     0.005 C 
HETATM   11  C4  UNL     1      18.064  40.100   6.529  1.00  0.00     0.000 C 
HETATM   12  C5  UNL     1      18.279  40.205   5.041  1.00  0.00     0.001 C 
HETATM   13  C6  UNL     1      19.704  39.944   4.658  1.00  0.00     0.014 C 
ENDBRANCH   4   7
ENDBRANCH   1   3
BRANCH   1  14
HETATM   14  N2  UNL     1      24.441  40.044   3.023  1.00  0.00    -0.276 N 
ATOM     15  H2  UNL     1      23.844  39.347   2.579  1.00  0.00     0.189 HD
BRANCH  14  16
HETATM   16  N3  UNL     1      25.827  39.805   3.143  1.00  0.00    -0.304 N 
HETATM   17  C10 UNL     1      26.482  39.289   2.185  1.00  0.00     0.032 C 
HETATM   18  C11 UNL     1      25.927  38.884   0.872  1.00  0.00     0.225 C 
HETATM   19  C13 UNL     1      27.927  38.975   2.147  1.00  0.00     0.129 C 
HETATM   20  O2  UNL     1      26.925  38.253   0.176  1.00  0.00    -0.346 OA
HETATM   21  C12 UNL     1      28.143  38.664   0.683  1.00  0.00     0.221 C 
HETATM   22 CL1  UNL     1      29.373  37.381   0.587  1.00  0.00    -0.070 Cl
HETATM   23 CL2  UNL     1      28.775  40.103  -0.159  1.00  0.00    -0.070 Cl
ATOM     24  H3  UNL     1      26.307  40.050   4.008  1.00  0.00     0.186 HD
ENDBRANCH  14  16
ENDBRANCH   1  14
TORSDOF 4
ENDMDL
MODEL 5
REMARK VINA RESULT: -7.390556307      1.226      2.231
REMARK  4 active torsions:
REMARK  status: ('A' for Active; 'I' for Inactive)
REMARK    1  A    between atoms: C7_7  and  C8_8 
REMARK       I    between atoms: C8_8  and  N1_10 
REMARK    2  A    between atoms: N1_10  and  C9_12 
REMARK    3  A    between atoms: C9_12  and  N2_14 
REMARK    4  A    between atoms: N2_14  and  N3_16 
ROOT
HETATM    1  C9  UNL     1      25.821  41.410   2.421  1.00  0.00     0.193 C 
HETATM    2  S1  UNL     1      26.788  42.312   3.454  1.00  0.00    -0.039 SA
ENDROOT
BRANCH   1   3
HETATM    3  N1  UNL     1      26.420  40.706   1.376  1.00  0.00    -0.302 N 
HETATM    4  C8  UNL     1      25.777  39.867   0.453  1.00  0.00     0.228 C 
HETATM    5  O1  UNL     1      24.555  39.671   0.489  1.00  0.00    -0.273 OA
ATOM      6  H1  UNL     1      27.430  40.811   1.272  1.00  0.00     0.171 HD
BRANCH   4   7
HETATM    7  C7  UNL     1      26.518  39.160  -0.631  1.00  0.00     0.082 C 
HETATM    8  C2  UNL     1      25.631  38.366  -1.528  1.00  0.00    -0.006 C 
HETATM    9  C1  UNL     1      25.468  39.003  -2.903  1.00  0.00     0.011 C 
HETATM   10  C3  UNL     1      26.212  36.980  -1.688  1.00  0.00     0.005 C 
HETATM   11  C4  UNL     1      27.671  37.016  -2.071  1.00  0.00     0.000 C 
HETATM   12  C5  UNL     1      28.463  37.662  -0.963  1.00  0.00     0.001 C 
HETATM   13  C6  UNL     1      27.578  38.318   0.054  1.00  0.00     0.014 C 
ENDBRANCH   4   7
ENDBRANCH   1   3
BRANCH   1  14
HETATM   14  N2  UNL     1      24.434  41.435   2.699  1.00  0.00    -0.276 N 
ATOM     15  H2  UNL     1      23.846  42.151   2.274  1.00  0.00     0.189 HD
BRANCH  14  16
HETATM   16  N3  UNL     1      23.857  40.476   3.559  1.00  0.00    -0.304 N 
HETATM   17  C10 UNL     1      22.829  40.757   4.248  1.00  0.00     0.032 C 
HETATM   18  C11 UNL     1      22.117  42.057   4.255  1.00  0.00     0.225 C 
HETATM   19  C13 UNL     1      22.106  39.876   5.191  1.00  0.00     0.129 C 
HETATM   20  O2  UNL     1      21.148  41.995   5.224  1.00  0.00    -0.346 OA
HETATM   21  C12 UNL     1      20.846  40.667   5.460  1.00  0.00     0.221 C 
HETATM   22 CL1  UNL     1      20.387  40.379   7.154  1.00  0.00    -0.070 Cl
HETATM   23 CL2  UNL     1      19.523  40.080   4.419  1.00  0.00    -0.070 Cl
ATOM     24  H3  UNL     1      24.271  39.546   3.627  1.00  0.00     0.186 HD
ENDBRANCH  14  16
ENDBRANCH   1  14
TORSDOF 4
ENDMDL
