MODEL 1
REMARK VINA RESULT: -5.506844564      0.000      0.000
REMARK  3 active torsions:
REMARK  status: ('A' for Active; 'I' for Inactive)
REMARK    1  A    between atoms: O1_1  and  C1_3 
REMARK    2  A    between atoms: C1_3  and  C2_4 
REMARK    3  A    between atoms: C2_4  and  N1_5 
ROOT
HETATM    1  N1  UNL     1      25.251  42.009   2.589  1.00  0.00    -0.366 N 
HETATM    2  C3  UNL     1      25.738  42.538   3.844  1.00  0.00     0.220 C 
HETATM    3  S1  UNL     1      27.513  42.903   3.812  1.00  0.00    -0.035 SA
HETATM    4  N2  UNL     1      28.049  42.483   2.181  1.00  0.00    -0.327 N 
ATOM      5  H2  UNL     1      28.832  42.980   1.757  1.00  0.00     0.174 HD
HETATM    6  C4  UNL     1      27.390  41.459   1.465  1.00  0.00     0.066 A 
HETATM    7  C5  UNL     1      28.092  40.687   0.567  1.00  0.00     0.052 A 
HETATM    8  C6  UNL     1      27.461  39.680  -0.143  1.00  0.00     0.030 A 
HETATM    9 BR1  UNL     1      28.503  38.670  -1.355  1.00  0.00    -0.050 Br
HETATM   10  C7  UNL     1      26.117  39.465   0.065  1.00  0.00     0.030 A 
HETATM   11 BR2  UNL     1      25.271  38.072  -0.925  1.00  0.00    -0.050 Br
HETATM   12  C8  UNL     1      25.429  40.250   0.970  1.00  0.00     0.052 A 
HETATM   13  C9  UNL     1      26.027  41.256   1.688  1.00  0.00     0.059 A 
ENDROOT
BRANCH   1  14
HETATM   14  C2  UNL     1      23.871  42.284   2.262  1.00  0.00     0.150 C 
BRANCH  14  15
HETATM   15  C1  UNL     1      22.965  42.170   3.501  1.00  0.00     0.183 C 
BRANCH  15  16
HETATM   16  O1  UNL     1      21.865  43.015   3.346  1.00  0.00    -0.399 OA
ATOM     17  H1  UNL     1      21.944  43.745   3.949  1.00  0.00     0.209 HD
ENDBRANCH  15  16
ENDBRANCH  14  15
ENDBRANCH   1  14
TORSDOF 3
ENDMDL
MODEL 2
REMARK VINA RESULT: -5.337510871      2.351      3.201
REMARK  3 active torsions:
REMARK  status: ('A' for Active; 'I' for Inactive)
REMARK    1  A    between atoms: O1_1  and  C1_3 
REMARK    2  A    between atoms: C1_3  and  C2_4 
REMARK    3  A    between atoms: C2_4  and  N1_5 
ROOT
HETATM    1  N1  UNL     1      25.563  42.214   2.624  1.00  0.00    -0.366 N 
HETATM    2  C3  UNL     1      24.408  42.369   3.480  1.00  0.00     0.220 C 
HETATM    3  S1  UNL     1      23.566  40.799   3.816  1.00  0.00    -0.035 SA
HETATM    4  N2  UNL     1      24.504  39.571   2.958  1.00  0.00    -0.327 N 
ATOM      5  H2  UNL     1      24.543  38.617   3.315  1.00  0.00     0.174 HD
HETATM    6  C4  UNL     1      25.199  39.914   1.777  1.00  0.00     0.066 A 
HETATM    7  C5  UNL     1      25.371  38.976   0.784  1.00  0.00     0.052 A 
HETATM    8  C6  UNL     1      26.050  39.296  -0.379  1.00  0.00     0.030 A 
HETATM    9 BR1  UNL     1      26.237  37.946  -1.689  1.00  0.00    -0.050 Br
HETATM   10  C7  UNL     1      26.552  40.570  -0.524  1.00  0.00     0.030 A 
HETATM   11 BR2  UNL     1      27.483  40.986  -2.136  1.00  0.00    -0.050 Br
HETATM   12  C8  UNL     1      26.370  41.497   0.484  1.00  0.00     0.052 A 
HETATM   13  C9  UNL     1      25.701  41.210   1.648  1.00  0.00     0.059 A 
ENDROOT
BRANCH   1  14
HETATM   14  C2  UNL     1      26.633  43.169   2.801  1.00  0.00     0.150 C 
BRANCH  14  15
HETATM   15  C1  UNL     1      27.639  42.696   3.865  1.00  0.00     0.183 C 
BRANCH  15  16
HETATM   16  O1  UNL     1      27.431  43.413   5.045  1.00  0.00    -0.399 OA
ATOM     17  H1  UNL     1      26.624  43.118   5.452  1.00  0.00     0.209 HD
ENDBRANCH  15  16
ENDBRANCH  14  15
ENDBRANCH   1  14
TORSDOF 3
ENDMDL
MODEL 3
REMARK VINA RESULT: -5.193350450      6.348      7.557
REMARK  3 active torsions:
REMARK  status: ('A' for Active; 'I' for Inactive)
REMARK    1  A    between atoms: O1_1  and  C1_3 
REMARK    2  A    between atoms: C1_3  and  C2_4 
REMARK    3  A    between atoms: C2_4  and  N1_5 
ROOT
HETATM    1  N1  UNL     1      32.120  37.719  -0.101  1.00  0.00    -0.366 N 
HETATM    2  C3  UNL     1      33.172  36.907  -0.672  1.00  0.00     0.220 C 
HETATM    3  S1  UNL     1      32.873  36.488  -2.410  1.00  0.00    -0.035 SA
HETATM    4  N2  UNL     1      31.342  37.270  -2.823  1.00  0.00    -0.327 N 
ATOM      5  H2  UNL     1      31.168  37.579  -3.779  1.00  0.00     0.174 HD
HETATM    6  C4  UNL     1      30.360  37.467  -1.827  1.00  0.00     0.066 A 
HETATM    7  C5  UNL     1      29.025  37.445  -2.164  1.00  0.00     0.052 A 
HETATM    8  C6  UNL     1      28.051  37.637  -1.199  1.00  0.00     0.030 A 
HETATM    9 BR1  UNL     1      26.244  37.590  -1.752  1.00  0.00    -0.050 Br
HETATM   10  C7  UNL     1      28.442  37.851   0.104  1.00  0.00     0.030 A 
HETATM   11 BR2  UNL     1      27.080  38.111   1.414  1.00  0.00    -0.050 Br
HETATM   12  C8  UNL     1      29.786  37.870   0.422  1.00  0.00     0.052 A 
HETATM   13  C9  UNL     1      30.775  37.683  -0.512  1.00  0.00     0.059 A 
ENDROOT
BRANCH   1  14
HETATM   14  C2  UNL     1      32.502  38.619   0.963  1.00  0.00     0.150 C 
BRANCH  14  15
HETATM   15  C1  UNL     1      33.105  39.922   0.408  1.00  0.00     0.183 C 
BRANCH  15  16
HETATM   16  O1  UNL     1      33.700  40.634   1.451  1.00  0.00    -0.399 OA
ATOM     17  H1  UNL     1      33.152  40.572   2.225  1.00  0.00     0.209 HD
ENDBRANCH  15  16
ENDBRANCH  14  15
ENDBRANCH   1  14
TORSDOF 3
ENDMDL
MODEL 4
REMARK VINA RESULT: -5.181336431      0.995      1.012
REMARK  3 active torsions:
REMARK  status: ('A' for Active; 'I' for Inactive)
REMARK    1  A    between atoms: O1_1  and  C1_3 
REMARK    2  A    between atoms: C1_3  and  C2_4 
REMARK    3  A    between atoms: C2_4  and  N1_5 
ROOT
HETATM    1  N1  UNL     1      25.530  41.099   2.622  1.00  0.00    -0.366 N 
HETATM    2  C3  UNL     1      26.031  41.686   3.845  1.00  0.00     0.220 C 
HETATM    3  S1  UNL     1      27.578  42.600   3.604  1.00  0.00    -0.035 SA
HETATM    4  N2  UNL     1      27.939  42.463   1.879  1.00  0.00    -0.327 N 
ATOM      5  H2  UNL     1      28.450  43.207   1.404  1.00  0.00     0.174 HD
HETATM    6  C4  UNL     1      27.518  41.323   1.159  1.00  0.00     0.066 A 
HETATM    7  C5  UNL     1      28.264  40.867   0.096  1.00  0.00     0.052 A 
HETATM    8  C6  UNL     1      27.864  39.751  -0.620  1.00  0.00     0.030 A 
HETATM    9 BR1  UNL     1      28.952  39.196  -2.063  1.00  0.00    -0.050 Br
HETATM   10  C7  UNL     1      26.705  39.107  -0.250  1.00  0.00     0.030 A 
HETATM   11 BR2  UNL     1      26.177  37.573  -1.251  1.00  0.00    -0.050 Br
HETATM   12  C8  UNL     1      25.969  39.581   0.819  1.00  0.00     0.052 A 
HETATM   13  C9  UNL     1      26.340  40.684   1.548  1.00  0.00     0.059 A 
ENDROOT
BRANCH   1  14
HETATM   14  C2  UNL     1      24.098  40.936   2.520  1.00  0.00     0.150 C 
BRANCH  14  15
HETATM   15  C1  UNL     1      23.364  42.275   2.710  1.00  0.00     0.183 C 
BRANCH  15  16
HETATM   16  O1  UNL     1      23.516  43.050   1.560  1.00  0.00    -0.399 OA
ATOM     17  H1  UNL     1      22.668  43.391   1.297  1.00  0.00     0.209 HD
ENDBRANCH  15  16
ENDBRANCH  14  15
ENDBRANCH   1  14
TORSDOF 3
ENDMDL
MODEL 5
REMARK VINA RESULT: -5.151864262      2.601      3.537
REMARK  3 active torsions:
REMARK  status: ('A' for Active; 'I' for Inactive)
REMARK    1  A    between atoms: O1_1  and  C1_3 
REMARK    2  A    between atoms: C1_3  and  C2_4 
REMARK    3  A    between atoms: C2_4  and  N1_5 
ROOT
HETATM    1  N1  UNL     1      26.810  41.501   1.838  1.00  0.00    -0.366 N 
HETATM    2  C3  UNL     1      25.424  41.758   2.163  1.00  0.00     0.220 C 
HETATM    3  S1  UNL     1      24.424  40.247   2.222  1.00  0.00    -0.035 SA
HETATM    4  N2  UNL     1      25.546  38.928   1.865  1.00  0.00    -0.327 N 
ATOM      5  H2  UNL     1      25.385  38.001   2.257  1.00  0.00     0.174 HD
HETATM    6  C4  UNL     1      26.666  39.161   1.035  1.00  0.00     0.066 A 
HETATM    7  C5  UNL     1      27.153  38.149   0.239  1.00  0.00     0.052 A 
HETATM    8  C6  UNL     1      28.250  38.362  -0.579  1.00  0.00     0.030 A 
HETATM    9 BR1  UNL     1      28.850  36.916  -1.639  1.00  0.00    -0.050 Br
HETATM   10  C7  UNL     1      28.845  39.603  -0.580  1.00  0.00     0.030 A 
HETATM   11 BR2  UNL     1      30.354  39.869  -1.715  1.00  0.00    -0.050 Br
HETATM   12  C8  UNL     1      28.342  40.605   0.227  1.00  0.00     0.052 A 
HETATM   13  C9  UNL     1      27.256  40.426   1.048  1.00  0.00     0.059 A 
ENDROOT
BRANCH   1  14
HETATM   14  C2  UNL     1      27.783  42.426   2.372  1.00  0.00     0.150 C 
BRANCH  14  15
HETATM   15  C1  UNL     1      27.683  42.526   3.905  1.00  0.00     0.183 C 
BRANCH  15  16
HETATM   16  O1  UNL     1      27.750  43.867   4.284  1.00  0.00    -0.399 OA
ATOM     17  H1  UNL     1      27.511  43.946   5.201  1.00  0.00     0.209 HD
ENDBRANCH  15  16
ENDBRANCH  14  15
ENDBRANCH   1  14
TORSDOF 3
ENDMDL
