MODEL 1
REMARK VINA RESULT: -7.816728498      0.000      0.000
REMARK  4 active torsions:
REMARK  status: ('A' for Active; 'I' for Inactive)
REMARK    1  A    between atoms: C3_5  and  N2_6 
REMARK    2  A    between atoms: N2_6  and  C4_8 
REMARK    3  A    between atoms: C4_8  and  O1_9 
REMARK    4  A    between atoms: C4_8  and  C5_11 
ROOT
HETATM    1  C5  UNL     1      20.240  40.525   5.568  1.00  0.00     0.000 A 
HETATM    2  C6  UNL     1      19.376  40.012   4.625  1.00  0.00     0.054 A 
HETATM    3  C7  UNL     1      18.037  39.827   4.846  1.00  0.00     0.118 A 
HETATM    4  F1  UNL     1      17.232  39.317   3.881  1.00  0.00    -0.206 F 
HETATM    5  C8  UNL     1      17.501  40.161   6.065  1.00  0.00     0.065 A 
HETATM    6  C9  UNL     1      18.333  40.676   7.030  1.00  0.00     0.054 A 
HETATM    7  C10 UNL     1      17.771  41.024   8.299  1.00  0.00     0.100 C 
HETATM    8  N3  UNL     1      17.332  41.308   9.328  1.00  0.00    -0.191 NA
HETATM    9  C11 UNL     1      19.694  40.864   6.801  1.00  0.00    -0.030 A 
HETATM   10  C12 UNL     1      20.588  41.416   7.838  1.00  0.00     0.050 C 
ENDROOT
BRANCH   1  11
HETATM   11  C4  UNL     1      21.653  40.685   5.237  1.00  0.00     0.254 C 
BRANCH  11  12
HETATM   12  N2  UNL     1      21.873  41.097   3.866  1.00  0.00    -0.340 N 
ATOM     13  H2  UNL     1      21.099  41.250   3.220  1.00  0.00     0.164 HD
BRANCH  12  14
HETATM   14  C3  UNL     1      23.119  41.263   3.501  1.00  0.00     0.148 A 
HETATM   15  N1  UNL     1      24.196  40.622   3.948  1.00  0.00    -0.339 N 
HETATM   16  C2  UNL     1      25.366  40.945   3.442  1.00  0.00     0.032 A 
ATOM     17  H1  UNL     1      24.116  39.899   4.663  1.00  0.00     0.168 HD
HETATM   18  C1  UNL     1      26.654  40.272   3.883  1.00  0.00     0.070 C 
HETATM   19  C13 UNL     1      25.399  41.922   2.488  1.00  0.00     0.077 A 
HETATM   20  S1  UNL     1      23.750  42.342   2.350  1.00  0.00    -0.045 SA
HETATM   21 BR1  UNL     1      26.928  42.624   1.556  1.00  0.00    -0.041 Br
ENDBRANCH  12  14
ENDBRANCH  11  12
BRANCH  11  22
HETATM   22  O1  UNL     1      22.302  39.453   5.385  1.00  0.00    -0.372 OA
ATOM     23  H1  UNL     1      23.231  39.645   5.425  1.00  0.00     0.212 HD
ENDBRANCH  11  22
ENDBRANCH   1  11
TORSDOF 4
ENDMDL
MODEL 2
REMARK VINA RESULT: -7.745831322      2.862      3.666
REMARK  4 active torsions:
REMARK  status: ('A' for Active; 'I' for Inactive)
REMARK    1  A    between atoms: C3_5  and  N2_6 
REMARK    2  A    between atoms: N2_6  and  C4_8 
REMARK    3  A    between atoms: C4_8  and  O1_9 
REMARK    4  A    between atoms: C4_8  and  C5_11 
ROOT
HETATM    1  C5  UNL     1      21.365  41.570   3.609  1.00  0.00     0.000 A 
HETATM    2  C6  UNL     1      21.972  41.216   4.795  1.00  0.00     0.054 A 
HETATM    3  C7  UNL     1      21.342  40.513   5.787  1.00  0.00     0.118 A 
HETATM    4  F1  UNL     1      21.988  40.191   6.935  1.00  0.00    -0.206 F 
HETATM    5  C8  UNL     1      20.035  40.128   5.617  1.00  0.00     0.065 A 
HETATM    6  C9  UNL     1      19.398  40.463   4.447  1.00  0.00     0.054 A 
HETATM    7  C10 UNL     1      18.037  40.061   4.272  1.00  0.00     0.100 C 
HETATM    8  N3  UNL     1      16.937  39.743   4.119  1.00  0.00    -0.191 NA
HETATM    9  C11 UNL     1      20.042  41.179   3.439  1.00  0.00    -0.030 A 
HETATM   10  C12 UNL     1      19.357  41.539   2.182  1.00  0.00     0.050 C 
ENDROOT
BRANCH   1  11
HETATM   11  C4  UNL     1      22.121  42.322   2.611  1.00  0.00     0.254 C 
BRANCH  11  12
HETATM   12  N2  UNL     1      23.515  42.498   2.966  1.00  0.00    -0.340 N 
ATOM     13  H2  UNL     1      23.837  43.309   3.494  1.00  0.00     0.164 HD
BRANCH  12  14
HETATM   14  C3  UNL     1      24.337  41.558   2.574  1.00  0.00     0.148 A 
HETATM   15  N1  UNL     1      24.251  40.795   1.489  1.00  0.00    -0.339 N 
HETATM   16  C2  UNL     1      25.194  39.903   1.279  1.00  0.00     0.032 A 
ATOM     17  H1  UNL     1      23.473  40.897   0.836  1.00  0.00     0.168 HD
HETATM   18  C1  UNL     1      25.189  38.983   0.070  1.00  0.00     0.070 C 
HETATM   19  C13 UNL     1      26.205  39.819   2.194  1.00  0.00     0.077 A 
HETATM   20  S1  UNL     1      25.767  41.023   3.322  1.00  0.00    -0.045 SA
HETATM   21 BR1  UNL     1      27.723  38.637   2.187  1.00  0.00    -0.041 Br
ENDBRANCH  12  14
ENDBRANCH  11  12
BRANCH  11  22
HETATM   22  O1  UNL     1      21.580  43.608   2.498  1.00  0.00    -0.372 OA
ATOM     23  H1  UNL     1      20.670  43.538   2.757  1.00  0.00     0.212 HD
ENDBRANCH  11  22
ENDBRANCH   1  11
TORSDOF 4
ENDMDL
MODEL 3
REMARK VINA RESULT: -7.648897107      4.396      5.780
REMARK  4 active torsions:
REMARK  status: ('A' for Active; 'I' for Inactive)
REMARK    1  A    between atoms: C3_5  and  N2_6 
REMARK    2  A    between atoms: N2_6  and  C4_8 
REMARK    3  A    between atoms: C4_8  and  O1_9 
REMARK    4  A    between atoms: C4_8  and  C5_11 
ROOT
HETATM    1  C5  UNL     1      24.935  40.896   3.505  1.00  0.00     0.000 A 
HETATM    2  C6  UNL     1      24.407  40.029   4.438  1.00  0.00     0.054 A 
HETATM    3  C7  UNL     1      23.078  39.989   4.767  1.00  0.00     0.118 A 
HETATM    4  F1  UNL     1      22.612  39.115   5.693  1.00  0.00    -0.206 F 
HETATM    5  C8  UNL     1      22.203  40.849   4.149  1.00  0.00     0.065 A 
HETATM    6  C9  UNL     1      22.694  41.727   3.214  1.00  0.00     0.054 A 
HETATM    7  C10 UNL     1      21.780  42.621   2.572  1.00  0.00     0.100 C 
HETATM    8  N3  UNL     1      21.054  43.349   2.048  1.00  0.00    -0.191 NA
HETATM    9  C11 UNL     1      24.047  41.765   2.881  1.00  0.00    -0.030 A 
HETATM   10  C12 UNL     1      24.574  42.708   1.876  1.00  0.00     0.050 C 
ENDROOT
BRANCH   1  11
HETATM   11  C4  UNL     1      26.368  40.862   3.223  1.00  0.00     0.254 C 
BRANCH  11  12
HETATM   12  N2  UNL     1      26.920  39.523   3.241  1.00  0.00    -0.340 N 
ATOM     13  H2  UNL     1      27.155  39.051   4.113  1.00  0.00     0.164 HD
BRANCH  12  14
HETATM   14  C3  UNL     1      27.099  38.953   2.076  1.00  0.00     0.148 A 
HETATM   15  N1  UNL     1      26.175  38.492   1.239  1.00  0.00    -0.339 N 
HETATM   16  C2  UNL     1      26.574  37.951   0.109  1.00  0.00     0.032 A 
ATOM     17  H1  UNL     1      25.182  38.556   1.467  1.00  0.00     0.168 HD
HETATM   18  C1  UNL     1      25.599  37.395  -0.915  1.00  0.00     0.070 C 
HETATM   19  C13 UNL     1      27.917  37.898  -0.132  1.00  0.00     0.077 A 
HETATM   20  S1  UNL     1      28.560  38.627   1.272  1.00  0.00    -0.045 SA
HETATM   21 BR1  UNL     1      28.825  37.180  -1.668  1.00  0.00    -0.041 Br
ENDBRANCH  12  14
ENDBRANCH  11  12
BRANCH  11  22
HETATM   22  O1  UNL     1      27.048  41.580   4.214  1.00  0.00    -0.372 OA
ATOM     23  H1  UNL     1      26.744  42.478   4.148  1.00  0.00     0.212 HD
ENDBRANCH  11  22
ENDBRANCH   1  11
TORSDOF 4
ENDMDL
MODEL 4
REMARK VINA RESULT: -7.597805569      4.314      5.778
REMARK  4 active torsions:
REMARK  status: ('A' for Active; 'I' for Inactive)
REMARK    1  A    between atoms: C3_5  and  N2_6 
REMARK    2  A    between atoms: N2_6  and  C4_8 
REMARK    3  A    between atoms: C4_8  and  O1_9 
REMARK    4  A    between atoms: C4_8  and  C5_11 
ROOT
HETATM    1  C5  UNL     1      24.955  40.994   3.530  1.00  0.00     0.000 A 
HETATM    2  C6  UNL     1      24.439  40.110   4.453  1.00  0.00     0.054 A 
HETATM    3  C7  UNL     1      23.105  40.018   4.750  1.00  0.00     0.118 A 
HETATM    4  F1  UNL     1      22.651  39.129   5.667  1.00  0.00    -0.206 F 
HETATM    5  C8  UNL     1      22.213  40.841   4.108  1.00  0.00     0.065 A 
HETATM    6  C9  UNL     1      22.691  41.735   3.181  1.00  0.00     0.054 A 
HETATM    7  C10 UNL     1      21.759  42.591   2.515  1.00  0.00     0.100 C 
HETATM    8  N3  UNL     1      21.018  43.288   1.970  1.00  0.00    -0.191 NA
HETATM    9  C11 UNL     1      24.049  41.826   2.882  1.00  0.00    -0.030 A 
HETATM   10  C12 UNL     1      24.563  42.787   1.887  1.00  0.00     0.050 C 
ENDROOT
BRANCH   1  11
HETATM   11  C4  UNL     1      26.395  41.017   3.284  1.00  0.00     0.254 C 
BRANCH  11  12
HETATM   12  N2  UNL     1      27.012  39.711   3.396  1.00  0.00    -0.340 N 
ATOM     13  H2  UNL     1      27.120  39.243   4.296  1.00  0.00     0.164 HD
BRANCH  12  14
HETATM   14  C3  UNL     1      27.421  39.164   2.279  1.00  0.00     0.148 A 
HETATM   15  N1  UNL     1      28.670  38.891   1.911  1.00  0.00    -0.339 N 
HETATM   16  C2  UNL     1      28.864  38.334   0.736  1.00  0.00     0.032 A 
ATOM     17  H1  UNL     1      29.456  39.108   2.524  1.00  0.00     0.168 HD
HETATM   18  C1  UNL     1      30.249  37.982   0.223  1.00  0.00     0.070 C 
HETATM   19  C13 UNL     1      27.766  38.072  -0.033  1.00  0.00     0.077 A 
HETATM   20  S1  UNL     1      26.494  38.633   0.958  1.00  0.00    -0.045 SA
HETATM   21 BR1  UNL     1      27.699  37.273  -1.781  1.00  0.00    -0.041 Br
ENDBRANCH  12  14
ENDBRANCH  11  12
BRANCH  11  22
HETATM   22  O1  UNL     1      27.013  41.826   4.244  1.00  0.00    -0.372 OA
ATOM     23  H1  UNL     1      26.313  42.263   4.715  1.00  0.00     0.212 HD
ENDBRANCH  11  22
ENDBRANCH   1  11
TORSDOF 4
ENDMDL
MODEL 5
REMARK VINA RESULT: -7.504608285      4.085      5.600
REMARK  4 active torsions:
REMARK  status: ('A' for Active; 'I' for Inactive)
REMARK    1  A    between atoms: C3_5  and  N2_6 
REMARK    2  A    between atoms: N2_6  and  C4_8 
REMARK    3  A    between atoms: C4_8  and  O1_9 
REMARK    4  A    between atoms: C4_8  and  C5_11 
ROOT
HETATM    1  C5  UNL     1      24.784  40.731   3.604  1.00  0.00     0.000 A 
HETATM    2  C6  UNL     1      24.210  39.919   4.558  1.00  0.00     0.054 A 
HETATM    3  C7  UNL     1      22.883  39.967   4.895  1.00  0.00     0.118 A 
HETATM    4  F1  UNL     1      22.371  39.144   5.842  1.00  0.00    -0.206 F 
HETATM    5  C8  UNL     1      22.058  40.865   4.262  1.00  0.00     0.065 A 
HETATM    6  C9  UNL     1      22.595  41.690   3.305  1.00  0.00     0.054 A 
HETATM    7  C10 UNL     1      21.733  42.624   2.648  1.00  0.00     0.100 C 
HETATM    8  N3  UNL     1      21.049  43.383   2.111  1.00  0.00    -0.191 NA
HETATM    9  C11 UNL     1      23.946  41.638   2.965  1.00  0.00    -0.030 A 
HETATM   10  C12 UNL     1      24.523  42.526   1.937  1.00  0.00     0.050 C 
ENDROOT
BRANCH   1  11
HETATM   11  C4  UNL     1      26.210  40.605   3.315  1.00  0.00     0.254 C 
BRANCH  11  12
HETATM   12  N2  UNL     1      26.558  39.333   2.716  1.00  0.00    -0.340 N 
ATOM     13  H2  UNL     1      26.125  38.460   3.017  1.00  0.00     0.164 HD
BRANCH  12  14
HETATM   14  C3  UNL     1      27.460  39.364   1.769  1.00  0.00     0.148 A 
HETATM   15  N1  UNL     1      28.625  38.724   1.724  1.00  0.00    -0.339 N 
HETATM   16  C2  UNL     1      29.389  38.895   0.668  1.00  0.00     0.032 A 
ATOM     17  H1  UNL     1      28.918  38.115   2.489  1.00  0.00     0.168 HD
HETATM   18  C1  UNL     1      30.736  38.209   0.519  1.00  0.00     0.070 C 
HETATM   19  C13 UNL     1      28.935  39.724  -0.318  1.00  0.00     0.077 A 
HETATM   20  S1  UNL     1      27.427  40.228   0.305  1.00  0.00    -0.045 SA
HETATM   21 BR1  UNL     1      29.796  40.188  -1.975  1.00  0.00    -0.041 Br
ENDBRANCH  12  14
ENDBRANCH  11  12
BRANCH  11  22
HETATM   22  O1  UNL     1      26.929  40.684   4.513  1.00  0.00    -0.372 OA
ATOM     23  H1  UNL     1      27.818  40.919   4.275  1.00  0.00     0.212 HD
ENDBRANCH  11  22
ENDBRANCH   1  11
TORSDOF 4
ENDMDL
