MODEL 1
REMARK VINA RESULT: -7.408862609      0.000      0.000
REMARK  5 active torsions:
REMARK  status: ('A' for Active; 'I' for Inactive)
REMARK    1  A    between atoms: C2_2  and  O1_5 
REMARK    2  A    between atoms: O1_5  and  C5_6 
REMARK       I    between atoms: C5_6  and  N1_8 
REMARK    3  A    between atoms: C12_15  and  C13_16 
REMARK    4  A    between atoms: C13_16  and  N2_17 
REMARK       I    between atoms: N2_17  and  C14_18 
REMARK    5  A    between atoms: C14_18  and  C15_20 
ROOT
HETATM    1  C5  UNL     1      25.739  39.145   1.390  1.00  0.00     0.364 C 
HETATM    2  O2  UNL     1      24.519  38.964   1.115  1.00  0.00    -0.238 OA
HETATM    3  N1  UNL     1      26.074  40.219   2.243  1.00  0.00    -0.317 N 
HETATM    4  C6  UNL     1      27.503  40.414   2.507  1.00  0.00     0.133 C 
HETATM    5  C7  UNL     1      27.795  41.880   2.746  1.00  0.00     0.004 C 
HETATM    6  C8  UNL     1      27.300  42.779   1.648  1.00  0.00     0.007 C 
HETATM    7  C9  UNL     1      25.891  43.184   2.017  1.00  0.00     0.007 C 
HETATM    8  C10 UNL     1      25.582  42.378   3.287  1.00  0.00     0.015 C 
HETATM    9  C11 UNL     1      26.944  42.341   3.915  1.00  0.00     0.013 C 
HETATM   10  C12 UNL     1      25.067  41.051   2.813  1.00  0.00     0.145 C 
ENDROOT
BRANCH  10  11
HETATM   11  C13 UNL     1      24.233  40.318   3.860  1.00  0.00     0.184 C 
BRANCH  11  12
HETATM   12  N2  UNL     1      23.000  40.833   4.178  1.00  0.00    -0.382 NA
HETATM   13  C14 UNL     1      21.784  41.342   4.491  1.00  0.00     0.346 C 
HETATM   14  O3  UNL     1      21.224  42.326   3.907  1.00  0.00    -0.252 OA
BRANCH  13  15
HETATM   15  C15 UNL     1      20.918  40.789   5.602  1.00  0.00     0.268 C 
HETATM   16  C16 UNL     1      19.636  40.315   4.980  1.00  0.00     0.082 C 
HETATM   17  F1  UNL     1      20.599  41.771   6.523  1.00  0.00    -0.214 F 
HETATM   18 CL1  UNL     1      21.697  39.381   6.365  1.00  0.00    -0.072 Cl
ENDBRANCH  13  15
ENDBRANCH  11  12
ENDBRANCH  10  11
BRANCH   1  19
HETATM   19  O1  UNL     1      26.641  38.279   0.835  1.00  0.00    -0.294 OA
BRANCH  19  20
HETATM   20  C2  UNL     1      26.939  38.365  -0.540  1.00  0.00     0.061 C 
HETATM   21  C1  UNL     1      26.126  37.348  -1.312  1.00  0.00     0.046 C 
HETATM   22  C3  UNL     1      28.421  37.994  -0.681  1.00  0.00     0.046 C 
HETATM   23  C4  UNL     1      26.709  39.765  -1.075  1.00  0.00     0.046 C 
ENDBRANCH  19  20
ENDBRANCH   1  19
TORSDOF 5
ENDMDL
MODEL 2
REMARK VINA RESULT: -7.300865965      2.745      3.979
REMARK  5 active torsions:
REMARK  status: ('A' for Active; 'I' for Inactive)
REMARK    1  A    between atoms: C2_2  and  O1_5 
REMARK    2  A    between atoms: O1_5  and  C5_6 
REMARK       I    between atoms: C5_6  and  N1_8 
REMARK    3  A    between atoms: C12_15  and  C13_16 
REMARK    4  A    between atoms: C13_16  and  N2_17 
REMARK       I    between atoms: N2_17  and  C14_18 
REMARK    5  A    between atoms: C14_18  and  C15_20 
ROOT
HETATM    1  C5  UNL     1      28.156  42.174   0.211  1.00  0.00     0.364 C 
HETATM    2  O2  UNL     1      28.833  42.923   0.971  1.00  0.00    -0.238 OA
HETATM    3  N1  UNL     1      27.382  41.154   0.804  1.00  0.00    -0.317 N 
HETATM    4  C6  UNL     1      26.641  40.285  -0.116  1.00  0.00     0.133 C 
HETATM    5  C7  UNL     1      26.499  38.899   0.474  1.00  0.00     0.004 C 
HETATM    6  C8  UNL     1      27.806  38.286   0.893  1.00  0.00     0.007 C 
HETATM    7  C9  UNL     1      28.031  38.681   2.335  1.00  0.00     0.007 C 
HETATM    8  C10 UNL     1      26.871  39.635   2.655  1.00  0.00     0.015 C 
HETATM    9  C11 UNL     1      25.789  39.030   1.808  1.00  0.00     0.013 C 
HETATM   10  C12 UNL     1      27.329  40.995   2.220  1.00  0.00     0.145 C 
ENDROOT
BRANCH  10  11
HETATM   11  C13 UNL     1      26.576  42.133   2.902  1.00  0.00     0.184 C 
BRANCH  11  12
HETATM   12  N2  UNL     1      25.225  42.240   2.674  1.00  0.00    -0.382 NA
HETATM   13  C14 UNL     1      23.893  42.346   2.447  1.00  0.00     0.346 C 
HETATM   14  O3  UNL     1      23.361  42.826   1.394  1.00  0.00    -0.252 OA
BRANCH  13  15
HETATM   15  C15 UNL     1      22.848  41.894   3.443  1.00  0.00     0.268 C 
HETATM   16  C16 UNL     1      21.561  41.710   2.692  1.00  0.00     0.082 C 
HETATM   17  F1  UNL     1      22.632  42.858   4.413  1.00  0.00    -0.214 F 
HETATM   18 CL1  UNL     1      23.289  40.319   4.148  1.00  0.00    -0.072 Cl
ENDBRANCH  13  15
ENDBRANCH  11  12
ENDBRANCH  10  11
BRANCH   1  19
HETATM   19  O1  UNL     1      28.229  42.416  -1.134  1.00  0.00    -0.294 OA
BRANCH  19  20
HETATM   20  C2  UNL     1      29.384  42.042  -1.850  1.00  0.00     0.061 C 
HETATM   21  C1  UNL     1      30.224  43.264  -2.155  1.00  0.00     0.046 C 
HETATM   22  C3  UNL     1      28.893  41.459  -3.181  1.00  0.00     0.046 C 
HETATM   23  C4  UNL     1      30.192  40.999  -1.102  1.00  0.00     0.046 C 
ENDBRANCH  19  20
ENDBRANCH   1  19
TORSDOF 5
ENDMDL
MODEL 3
REMARK VINA RESULT: -7.167155327      3.168      4.506
REMARK  5 active torsions:
REMARK  status: ('A' for Active; 'I' for Inactive)
REMARK    1  A    between atoms: C2_2  and  O1_5 
REMARK    2  A    between atoms: O1_5  and  C5_6 
REMARK       I    between atoms: C5_6  and  N1_8 
REMARK    3  A    between atoms: C12_15  and  C13_16 
REMARK    4  A    between atoms: C13_16  and  N2_17 
REMARK       I    between atoms: N2_17  and  C14_18 
REMARK    5  A    between atoms: C14_18  and  C15_20 
ROOT
HETATM    1  C5  UNL     1      28.911  41.490  -0.607  1.00  0.00     0.364 C 
HETATM    2  O2  UNL     1      28.629  42.605  -0.082  1.00  0.00    -0.238 OA
HETATM    3  N1  UNL     1      28.188  40.355  -0.181  1.00  0.00    -0.317 N 
HETATM    4  C6  UNL     1      28.572  39.078  -0.789  1.00  0.00     0.133 C 
HETATM    5  C7  UNL     1      28.333  37.943   0.183  1.00  0.00     0.004 C 
HETATM    6  C8  UNL     1      28.988  38.147   1.520  1.00  0.00     0.007 C 
HETATM    7  C9  UNL     1      27.986  38.868   2.393  1.00  0.00     0.007 C 
HETATM    8  C10 UNL     1      26.808  39.166   1.455  1.00  0.00     0.015 C 
HETATM    9  C11 UNL     1      26.864  37.958   0.566  1.00  0.00     0.013 C 
HETATM   10  C12 UNL     1      27.141  40.464   0.781  1.00  0.00     0.145 C 
ENDROOT
BRANCH  10  11
HETATM   11  C13 UNL     1      25.918  41.188   0.226  1.00  0.00     0.184 C 
BRANCH  11  12
HETATM   12  N2  UNL     1      24.928  41.548   1.108  1.00  0.00    -0.382 NA
HETATM   13  C14 UNL     1      23.950  41.902   1.976  1.00  0.00     0.346 C 
HETATM   14  O3  UNL     1      22.769  42.253   1.653  1.00  0.00    -0.252 OA
BRANCH  13  15
HETATM   15  C15 UNL     1      24.146  41.925   3.476  1.00  0.00     0.268 C 
HETATM   16  C16 UNL     1      24.272  40.501   3.935  1.00  0.00     0.082 C 
HETATM   17  F1  UNL     1      23.048  42.475   4.115  1.00  0.00    -0.214 F 
HETATM   18 CL1  UNL     1      25.659  42.763   3.901  1.00  0.00    -0.072 Cl
ENDBRANCH  13  15
ENDBRANCH  11  12
ENDBRANCH  10  11
BRANCH   1  19
HETATM   19  O1  UNL     1      29.901  41.476  -1.550  1.00  0.00    -0.294 OA
BRANCH  19  20
HETATM   20  C2  UNL     1      29.661  42.030  -2.824  1.00  0.00     0.061 C 
HETATM   21  C1  UNL     1      28.202  41.871  -3.192  1.00  0.00     0.046 C 
HETATM   22  C3  UNL     1      30.493  41.204  -3.814  1.00  0.00     0.046 C 
HETATM   23  C4  UNL     1      30.083  43.484  -2.890  1.00  0.00     0.046 C 
ENDBRANCH  19  20
ENDBRANCH   1  19
TORSDOF 5
ENDMDL
MODEL 4
REMARK VINA RESULT: -7.004793485      2.703      4.363
REMARK  5 active torsions:
REMARK  status: ('A' for Active; 'I' for Inactive)
REMARK    1  A    between atoms: C2_2  and  O1_5 
REMARK    2  A    between atoms: O1_5  and  C5_6 
REMARK       I    between atoms: C5_6  and  N1_8 
REMARK    3  A    between atoms: C12_15  and  C13_16 
REMARK    4  A    between atoms: C13_16  and  N2_17 
REMARK       I    between atoms: N2_17  and  C14_18 
REMARK    5  A    between atoms: C14_18  and  C15_20 
ROOT
HETATM    1  C5  UNL     1      28.027  41.646  -0.509  1.00  0.00     0.364 C 
HETATM    2  O2  UNL     1      28.673  42.533   0.119  1.00  0.00    -0.238 OA
HETATM    3  N1  UNL     1      27.677  40.467   0.182  1.00  0.00    -0.317 N 
HETATM    4  C6  UNL     1      26.960  39.450  -0.595  1.00  0.00     0.133 C 
HETATM    5  C7  UNL     1      27.289  38.067  -0.075  1.00  0.00     0.004 C 
HETATM    6  C8  UNL     1      28.764  37.784  -0.007  1.00  0.00     0.007 C 
HETATM    7  C9  UNL     1      29.228  38.216   1.366  1.00  0.00     0.007 C 
HETATM    8  C10 UNL     1      27.989  38.861   2.003  1.00  0.00     0.015 C 
HETATM    9  C11 UNL     1      26.908  38.018   1.393  1.00  0.00     0.013 C 
HETATM   10  C12 UNL     1      28.001  40.293   1.559  1.00  0.00     0.145 C 
ENDROOT
BRANCH  10  11
HETATM   11  C13 UNL     1      27.189  41.213   2.465  1.00  0.00     0.184 C 
BRANCH  11  12
HETATM   12  N2  UNL     1      25.820  41.187   2.352  1.00  0.00    -0.382 NA
HETATM   13  C14 UNL     1      24.470  41.159   2.239  1.00  0.00     0.346 C 
HETATM   14  O3  UNL     1      23.823  40.681   1.251  1.00  0.00    -0.252 OA
BRANCH  13  15
HETATM   15  C15 UNL     1      23.541  41.708   3.299  1.00  0.00     0.268 C 
HETATM   16  C16 UNL     1      22.293  42.174   2.607  1.00  0.00     0.082 C 
HETATM   17  F1  UNL     1      24.101  42.803   3.935  1.00  0.00    -0.214 F 
HETATM   18 CL1  UNL     1      23.074  40.431   4.449  1.00  0.00    -0.072 Cl
ENDBRANCH  13  15
ENDBRANCH  11  12
ENDBRANCH  10  11
BRANCH   1  19
HETATM   19  O1  UNL     1      27.720  41.905  -1.817  1.00  0.00    -0.294 OA
BRANCH  19  20
HETATM   20  C2  UNL     1      28.716  41.783  -2.807  1.00  0.00     0.061 C 
HETATM   21  C1  UNL     1      29.192  43.154  -3.237  1.00  0.00     0.046 C 
HETATM   22  C3  UNL     1      28.041  41.115  -4.013  1.00  0.00     0.046 C 
HETATM   23  C4  UNL     1      29.874  40.929  -2.333  1.00  0.00     0.046 C 
ENDBRANCH  19  20
ENDBRANCH   1  19
TORSDOF 5
ENDMDL
MODEL 5
REMARK VINA RESULT: -6.970147816      4.622      7.940
REMARK  5 active torsions:
REMARK  status: ('A' for Active; 'I' for Inactive)
REMARK    1  A    between atoms: C2_2  and  O1_5 
REMARK    2  A    between atoms: O1_5  and  C5_6 
REMARK       I    between atoms: C5_6  and  N1_8 
REMARK    3  A    between atoms: C12_15  and  C13_16 
REMARK    4  A    between atoms: C13_16  and  N2_17 
REMARK       I    between atoms: N2_17  and  C14_18 
REMARK    5  A    between atoms: C14_18  and  C15_20 
ROOT
HETATM    1  C5  UNL     1      26.105  41.160   0.934  1.00  0.00     0.364 C 
HETATM    2  O2  UNL     1      27.150  41.858   1.065  1.00  0.00    -0.238 OA
HETATM    3  N1  UNL     1      26.217  39.916   0.275  1.00  0.00    -0.317 N 
HETATM    4  C6  UNL     1      24.974  39.155   0.112  1.00  0.00     0.133 C 
HETATM    5  C7  UNL     1      25.034  38.321  -1.149  1.00  0.00     0.004 C 
HETATM    6  C8  UNL     1      25.371  39.113  -2.380  1.00  0.00     0.007 C 
HETATM    7  C9  UNL     1      26.877  39.096  -2.512  1.00  0.00     0.007 C 
HETATM    8  C10 UNL     1      27.363  38.377  -1.245  1.00  0.00     0.015 C 
HETATM    9  C11 UNL     1      26.238  37.404  -1.045  1.00  0.00     0.013 C 
HETATM   10  C12 UNL     1      27.476  39.438  -0.192  1.00  0.00     0.145 C 
ENDROOT
BRANCH  10  11
HETATM   11  C13 UNL     1      28.411  39.057   0.952  1.00  0.00     0.184 C 
BRANCH  11  12
HETATM   12  N2  UNL     1      29.625  38.499   0.633  1.00  0.00    -0.382 NA
HETATM   13  C14 UNL     1      30.824  37.949   0.319  1.00  0.00     0.346 C 
HETATM   14  O3  UNL     1      31.927  38.208   0.900  1.00  0.00    -0.252 OA
BRANCH  13  15
HETATM   15  C15 UNL     1      31.001  36.933  -0.787  1.00  0.00     0.268 C 
HETATM   16  C16 UNL     1      30.896  37.667  -2.093  1.00  0.00     0.082 C 
HETATM   17  F1  UNL     1      29.996  35.982  -0.759  1.00  0.00    -0.214 F 
HETATM   18 CL1  UNL     1      32.622  36.198  -0.713  1.00  0.00    -0.072 Cl
ENDBRANCH  13  15
ENDBRANCH  11  12
ENDBRANCH  10  11
BRANCH   1  19
HETATM   19  O1  UNL     1      24.943  41.671   1.444  1.00  0.00    -0.294 OA
BRANCH  19  20
HETATM   20  C2  UNL     1      24.748  41.708   2.840  1.00  0.00     0.061 C 
HETATM   21  C1  UNL     1      25.245  40.423   3.467  1.00  0.00     0.046 C 
HETATM   22  C3  UNL     1      23.232  41.787   3.058  1.00  0.00     0.046 C 
HETATM   23  C4  UNL     1      25.419  42.914   3.466  1.00  0.00     0.046 C 
ENDBRANCH  19  20
ENDBRANCH   1  19
TORSDOF 5
ENDMDL
