MODEL 1
REMARK VINA RESULT: -6.603267171      0.000      0.000
REMARK  7 active torsions:
REMARK  status: ('A' for Active; 'I' for Inactive)
REMARK    1  A    between atoms: N1_2  and  C2_5 
REMARK    2  A    between atoms: C2_5  and  C3_6 
REMARK    3  A    between atoms: C3_6  and  C4_7 
REMARK    4  A    between atoms: C4_7  and  C5_8 
REMARK    5  A    between atoms: C5_8  and  C6_9 
REMARK    6  A    between atoms: C12_15  and  C13_16 
REMARK    7  A    between atoms: C13_16  and  N2_17 
ROOT
HETATM    1  C5  UNL     1      16.808   2.523  13.603  1.00  0.00     0.064 C 
HETATM    2  C10 UNL     1      15.569   3.395  13.404  1.00  0.00     0.039 C 
HETATM    3  C11 UNL     1      15.843   4.826  13.820  1.00  0.00     0.011 C 
HETATM    4  C12 UNL     1      16.962   5.258  12.865  1.00  0.00     0.027 C 
HETATM    5  C18 UNL     1      18.133   4.414  13.201  1.00  0.00     0.175 C 
HETATM    6  O1  UNL     1      17.940   3.279  13.875  1.00  0.00    -0.379 OA
ENDROOT
BRANCH   1   7
HETATM    7  C4  UNL     1      16.565   1.784  14.871  1.00  0.00     0.040 C 
BRANCH   7   8
HETATM    8  C3  UNL     1      17.022   2.406  16.146  1.00  0.00     0.030 C 
BRANCH   8   9
HETATM    9  C2  UNL     1      15.937   2.025  17.189  1.00  0.00     0.231 C 
BRANCH   9  10
HETATM   10  N1  UNL     1      14.682   2.648  16.815  1.00  0.00    -0.079 N 
HETATM   11  C1  UNL     1      13.627   1.682  17.043  1.00  0.00     0.266 C 
ATOM     12  H12 UNL     1      14.687   3.011  15.861  1.00  0.00     0.276 HD
ATOM     13  H11 UNL     1      14.519   3.533  17.295  1.00  0.00     0.276 HD
ENDBRANCH   9  10
ENDBRANCH   8   9
ENDBRANCH   7   8
ENDBRANCH   1   7
BRANCH   1  14
HETATM   14  C6  UNL     1      17.035   1.854  12.339  1.00  0.00     0.020 C 
HETATM   15  C7  UNL     1      16.994   0.413  12.085  1.00  0.00     0.007 C 
HETATM   16  C8  UNL     1      16.761   0.793  10.597  1.00  0.00     0.001 C 
HETATM   17  C9  UNL     1      16.076   2.039  11.194  1.00  0.00     0.007 C 
ENDBRANCH   1  14
BRANCH   4  18
HETATM   18  C13 UNL     1      17.189   6.722  12.987  1.00  0.00     0.127 C 
BRANCH  18  19
HETATM   19  N2  UNL     1      17.289   7.424  11.750  1.00  0.00    -0.380 N 
HETATM   20  C14 UNL     1      16.191   7.861  11.212  1.00  0.00     0.072 C 
HETATM   21  C15 UNL     1      14.792   7.720  11.737  1.00  0.00     0.077 C 
HETATM   22  N3  UNL     1      16.042   8.581   9.992  1.00  0.00    -0.380 N 
HETATM   23  C16 UNL     1      14.065   8.946  11.222  1.00  0.00     0.027 C 
HETATM   24  C17 UNL     1      14.812   9.348   9.981  1.00  0.00     0.121 C 
ATOM     25  H3  UNL     1      16.715   8.561   9.226  1.00  0.00     0.160 HD
ATOM     26  H2  UNL     1      18.193   7.577  11.301  1.00  0.00     0.160 HD
ENDBRANCH  18  19
ENDBRANCH   4  18
TORSDOF 7
ENDMDL
MODEL 2
REMARK VINA RESULT: -6.550089694      2.051      2.893
REMARK  7 active torsions:
REMARK  status: ('A' for Active; 'I' for Inactive)
REMARK    1  A    between atoms: N1_2  and  C2_5 
REMARK    2  A    between atoms: C2_5  and  C3_6 
REMARK    3  A    between atoms: C3_6  and  C4_7 
REMARK    4  A    between atoms: C4_7  and  C5_8 
REMARK    5  A    between atoms: C5_8  and  C6_9 
REMARK    6  A    between atoms: C12_15  and  C13_16 
REMARK    7  A    between atoms: C13_16  and  N2_17 
ROOT
HETATM    1  C5  UNL     1      16.796   2.571  13.654  1.00  0.00     0.064 C 
HETATM    2  C10 UNL     1      15.587   3.487  13.469  1.00  0.00     0.039 C 
HETATM    3  C11 UNL     1      15.902   4.897  13.928  1.00  0.00     0.011 C 
HETATM    4  C12 UNL     1      17.043   5.319  12.995  1.00  0.00     0.027 C 
HETATM    5  C18 UNL     1      18.183   4.429  13.316  1.00  0.00     0.175 C 
HETATM    6  O1  UNL     1      17.948   3.282  13.956  1.00  0.00    -0.379 OA
ENDROOT
BRANCH   1   7
HETATM    7  C4  UNL     1      16.518   1.806  14.899  1.00  0.00     0.040 C 
BRANCH   7   8
HETATM    8  C3  UNL     1      17.063   2.329  16.184  1.00  0.00     0.030 C 
BRANCH   8   9
HETATM    9  C2  UNL     1      15.842   2.399  17.139  1.00  0.00     0.231 C 
BRANCH   9  10
HETATM   10  N1  UNL     1      15.020   1.219  16.943  1.00  0.00    -0.079 N 
HETATM   11  C1  UNL     1      13.635   1.628  17.047  1.00  0.00     0.266 C 
ATOM     12  H12 UNL     1      15.258   0.459  17.580  1.00  0.00     0.276 HD
ATOM     13  H11 UNL     1      15.225   0.733  16.070  1.00  0.00     0.276 HD
ENDBRANCH   9  10
ENDBRANCH   8   9
ENDBRANCH   7   8
ENDBRANCH   1   7
BRANCH   1  14
HETATM   14  C6  UNL     1      17.013   1.930  12.374  1.00  0.00     0.020 C 
HETATM   15  C7  UNL     1      16.941   0.497  12.082  1.00  0.00     0.007 C 
HETATM   16  C8  UNL     1      16.722   0.921  10.604  1.00  0.00     0.001 C 
HETATM   17  C9  UNL     1      16.062   2.166  11.232  1.00  0.00     0.007 C 
ENDBRANCH   1  14
BRANCH   4  18
HETATM   18  C13 UNL     1      17.316   6.771  13.159  1.00  0.00     0.127 C 
BRANCH  18  19
HETATM   19  N2  UNL     1      17.978   7.129  14.369  1.00  0.00    -0.380 N 
HETATM   20  C14 UNL     1      18.832   8.106  14.325  1.00  0.00     0.072 C 
HETATM   21  C15 UNL     1      19.224   8.930  13.134  1.00  0.00     0.077 C 
HETATM   22  N3  UNL     1      19.608   8.637  15.396  1.00  0.00    -0.380 N 
HETATM   23  C16 UNL     1      19.594  10.282  13.708  1.00  0.00     0.027 C 
HETATM   24  C17 UNL     1      20.014  10.001  15.124  1.00  0.00     0.121 C 
ATOM     25  H3  UNL     1      19.846   8.124  16.244  1.00  0.00     0.160 HD
ATOM     26  H2  UNL     1      17.787   6.635  15.241  1.00  0.00     0.160 HD
ENDBRANCH  18  19
ENDBRANCH   4  18
TORSDOF 7
ENDMDL
MODEL 3
REMARK VINA RESULT: -6.526013121      1.890      3.935
REMARK  7 active torsions:
REMARK  status: ('A' for Active; 'I' for Inactive)
REMARK    1  A    between atoms: N1_2  and  C2_5 
REMARK    2  A    between atoms: C2_5  and  C3_6 
REMARK    3  A    between atoms: C3_6  and  C4_7 
REMARK    4  A    between atoms: C4_7  and  C5_8 
REMARK    5  A    between atoms: C5_8  and  C6_9 
REMARK    6  A    between atoms: C12_15  and  C13_16 
REMARK    7  A    between atoms: C13_16  and  N2_17 
ROOT
HETATM    1  C5  UNL     1      16.272   2.688  15.089  1.00  0.00     0.064 C 
HETATM    2  C10 UNL     1      17.545   3.485  15.372  1.00  0.00     0.039 C 
HETATM    3  C11 UNL     1      17.722   4.598  14.358  1.00  0.00     0.011 C 
HETATM    4  C12 UNL     1      16.481   5.471  14.581  1.00  0.00     0.027 C 
HETATM    5  C18 UNL     1      15.320   4.634  14.196  1.00  0.00     0.175 C 
HETATM    6  O1  UNL     1      15.466   3.309  14.146  1.00  0.00    -0.379 OA
ENDROOT
BRANCH   1   7
HETATM    7  C4  UNL     1      16.731   1.452  14.400  1.00  0.00     0.040 C 
BRANCH   7   8
HETATM    8  C3  UNL     1      16.978   1.515  12.931  1.00  0.00     0.030 C 
BRANCH   8   9
HETATM    9  C2  UNL     1      17.040   0.034  12.471  1.00  0.00     0.231 C 
BRANCH   9  10
HETATM   10  N1  UNL     1      17.578  -0.021  11.125  1.00  0.00    -0.079 N 
HETATM   11  C1  UNL     1      18.737   0.847  11.079  1.00  0.00     0.266 C 
ATOM     12  H12 UNL     1      16.885   0.205  10.411  1.00  0.00     0.276 HD
ATOM     13  H11 UNL     1      17.783  -0.972  10.817  1.00  0.00     0.276 HD
ENDBRANCH   9  10
ENDBRANCH   8   9
ENDBRANCH   7   8
ENDBRANCH   1   7
BRANCH   1  14
HETATM   14  C6  UNL     1      15.531   2.661  16.333  1.00  0.00     0.020 C 
HETATM   15  C7  UNL     1      14.110   2.353  16.505  1.00  0.00     0.007 C 
HETATM   16  C8  UNL     1      14.472   2.025  17.979  1.00  0.00     0.001 C 
HETATM   17  C9  UNL     1      15.838   1.626  17.382  1.00  0.00     0.007 C 
ENDBRANCH   1  14
BRANCH   4  18
HETATM   18  C13 UNL     1      16.617   6.741  13.820  1.00  0.00     0.127 C 
BRANCH  18  19
HETATM   19  N2  UNL     1      16.821   6.587  12.417  1.00  0.00    -0.380 N 
HETATM   20  C14 UNL     1      15.883   7.001  11.621  1.00  0.00     0.072 C 
HETATM   21  C15 UNL     1      14.576   7.638  11.994  1.00  0.00     0.077 C 
HETATM   22  N3  UNL     1      15.862   6.954  10.197  1.00  0.00    -0.380 N 
HETATM   23  C16 UNL     1      14.250   8.553  10.831  1.00  0.00     0.027 C 
HETATM   24  C17 UNL     1      14.961   7.950   9.652  1.00  0.00     0.121 C 
ATOM     25  H3  UNL     1      16.409   6.304   9.634  1.00  0.00     0.160 HD
ATOM     26  H2  UNL     1      17.675   6.166  12.051  1.00  0.00     0.160 HD
ENDBRANCH  18  19
ENDBRANCH   4  18
TORSDOF 7
ENDMDL
MODEL 4
REMARK VINA RESULT: -6.504354623      3.158      7.138
REMARK  7 active torsions:
REMARK  status: ('A' for Active; 'I' for Inactive)
REMARK    1  A    between atoms: N1_2  and  C2_5 
REMARK    2  A    between atoms: C2_5  and  C3_6 
REMARK    3  A    between atoms: C3_6  and  C4_7 
REMARK    4  A    between atoms: C4_7  and  C5_8 
REMARK    5  A    between atoms: C5_8  and  C6_9 
REMARK    6  A    between atoms: C12_15  and  C13_16 
REMARK    7  A    between atoms: C13_16  and  N2_17 
ROOT
HETATM    1  C5  UNL     1      19.183   6.832  13.375  1.00  0.00     0.064 C 
HETATM    2  C10 UNL     1      17.743   7.187  13.005  1.00  0.00     0.039 C 
HETATM    3  C11 UNL     1      16.861   5.955  13.024  1.00  0.00     0.011 C 
HETATM    4  C12 UNL     1      16.941   5.492  14.483  1.00  0.00     0.027 C 
HETATM    5  C18 UNL     1      18.350   5.092  14.707  1.00  0.00     0.175 C 
HETATM    6  O1  UNL     1      19.290   5.540  13.873  1.00  0.00    -0.379 OA
ENDROOT
BRANCH   1   7
HETATM    7  C4  UNL     1      19.914   6.771  12.081  1.00  0.00     0.040 C 
BRANCH   7   8
HETATM    8  C3  UNL     1      21.283   6.182  12.072  1.00  0.00     0.030 C 
BRANCH   8   9
HETATM    9  C2  UNL     1      21.163   4.900  11.207  1.00  0.00     0.231 C 
BRANCH   9  10
HETATM   10  N1  UNL     1      20.820   3.780  12.064  1.00  0.00    -0.079 N 
HETATM   11  C1  UNL     1      19.895   2.937  11.336  1.00  0.00     0.266 C 
ATOM     12  H12 UNL     1      20.459   4.072  12.973  1.00  0.00     0.276 HD
ATOM     13  H11 UNL     1      21.638   3.273  12.401  1.00  0.00     0.276 HD
ENDBRANCH   9  10
ENDBRANCH   8   9
ENDBRANCH   7   8
ENDBRANCH   1   7
BRANCH   1  14
HETATM   14  C6  UNL     1      19.557   7.734  14.444  1.00  0.00     0.020 C 
HETATM   15  C7  UNL     1      20.292   8.993  14.317  1.00  0.00     0.007 C 
HETATM   16  C8  UNL     1      19.671   9.368  15.691  1.00  0.00     0.001 C 
HETATM   17  C9  UNL     1      18.502   8.478  15.218  1.00  0.00     0.007 C 
ENDBRANCH   1  14
BRANCH   4  18
HETATM   18  C13 UNL     1      15.939   4.421  14.727  1.00  0.00     0.127 C 
BRANCH  18  19
HETATM   19  N2  UNL     1      16.469   3.204  15.249  1.00  0.00    -0.380 N 
HETATM   20  C14 UNL     1      15.806   2.613  16.195  1.00  0.00     0.072 C 
HETATM   21  C15 UNL     1      14.518   3.053  16.828  1.00  0.00     0.077 C 
HETATM   22  N3  UNL     1      16.134   1.399  16.865  1.00  0.00    -0.380 N 
HETATM   23  C16 UNL     1      13.838   1.767  17.248  1.00  0.00     0.027 C 
HETATM   24  C17 UNL     1      14.956   0.780  17.440  1.00  0.00     0.121 C 
ATOM     25  H3  UNL     1      17.076   1.015  16.931  1.00  0.00     0.160 HD
ATOM     26  H2  UNL     1      17.340   2.812  14.891  1.00  0.00     0.160 HD
ENDBRANCH  18  19
ENDBRANCH   4  18
TORSDOF 7
ENDMDL
MODEL 5
REMARK VINA RESULT: -6.412661703      3.049      6.066
REMARK  7 active torsions:
REMARK  status: ('A' for Active; 'I' for Inactive)
REMARK    1  A    between atoms: N1_2  and  C2_5 
REMARK    2  A    between atoms: C2_5  and  C3_6 
REMARK    3  A    between atoms: C3_6  and  C4_7 
REMARK    4  A    between atoms: C4_7  and  C5_8 
REMARK    5  A    between atoms: C5_8  and  C6_9 
REMARK    6  A    between atoms: C12_15  and  C13_16 
REMARK    7  A    between atoms: C13_16  and  N2_17 
ROOT
HETATM    1  C5  UNL     1      18.553   3.510  10.982  1.00  0.00     0.064 C 
HETATM    2  C10 UNL     1      17.036   3.342  11.065  1.00  0.00     0.039 C 
HETATM    3  C11 UNL     1      16.604   3.025  12.483  1.00  0.00     0.011 C 
HETATM    4  C12 UNL     1      17.051   4.265  13.267  1.00  0.00     0.027 C 
HETATM    5  C18 UNL     1      18.530   4.282  13.195  1.00  0.00     0.175 C 
HETATM    6  O1  UNL     1      19.139   3.579  12.238  1.00  0.00    -0.379 OA
ENDROOT
BRANCH   1   7
HETATM    7  C4  UNL     1      19.057   2.225  10.429  1.00  0.00     0.040 C 
BRANCH   7   8
HETATM    8  C3  UNL     1      19.049   1.025  11.314  1.00  0.00     0.030 C 
BRANCH   8   9
HETATM    9  C2  UNL     1      18.073   0.030  10.631  1.00  0.00     0.231 C 
BRANCH   9  10
HETATM   10  N1  UNL     1      17.573  -0.900  11.625  1.00  0.00    -0.079 N 
HETATM   11  C1  UNL     1      18.134  -2.202  11.330  1.00  0.00     0.266 C 
ATOM     12  H12 UNL     1      16.555  -0.911  11.682  1.00  0.00     0.276 HD
ATOM     13  H11 UNL     1      17.758  -0.597  12.582  1.00  0.00     0.276 HD
ENDBRANCH   9  10
ENDBRANCH   8   9
ENDBRANCH   7   8
ENDBRANCH   1   7
BRANCH   1  14
HETATM   14  C6  UNL     1      18.780   4.784  10.334  1.00  0.00     0.020 C 
HETATM   15  C7  UNL     1      19.554   5.027   9.115  1.00  0.00     0.007 C 
HETATM   16  C8  UNL     1      18.740   6.344   8.991  1.00  0.00     0.001 C 
HETATM   17  C9  UNL     1      17.637   5.536   9.706  1.00  0.00     0.007 C 
ENDBRANCH   1  14
BRANCH   4  18
HETATM   18  C13 UNL     1      16.491   4.217  14.644  1.00  0.00     0.127 C 
BRANCH  18  19
HETATM   19  N2  UNL     1      16.867   3.075  15.410  1.00  0.00    -0.380 N 
HETATM   20  C14 UNL     1      15.995   2.593  16.243  1.00  0.00     0.072 C 
HETATM   21  C15 UNL     1      14.607   3.094  16.512  1.00  0.00     0.077 C 
HETATM   22  N3  UNL     1      16.141   1.468  17.106  1.00  0.00    -0.380 N 
HETATM   23  C16 UNL     1      13.825   1.859  16.913  1.00  0.00     0.027 C 
HETATM   24  C17 UNL     1      14.852   0.912  17.467  1.00  0.00     0.121 C 
ATOM     25  H3  UNL     1      17.036   1.102  17.429  1.00  0.00     0.160 HD
ATOM     26  H2  UNL     1      17.789   2.651  15.308  1.00  0.00     0.160 HD
ENDBRANCH  18  19
ENDBRANCH   4  18
TORSDOF 7
ENDMDL
