MODEL 1
REMARK VINA RESULT: -7.183443563      0.000      0.000
REMARK  9 active torsions:
REMARK  status: ('A' for Active; 'I' for Inactive)
REMARK    1  A    between atoms: C2_2  and  O1_5 
REMARK    2  A    between atoms: O1_5  and  C5_6 
REMARK    3  A    between atoms: C5_6  and  C6_7 
REMARK    4  A    between atoms: C6_7  and  C7_8 
REMARK    5  A    between atoms: C7_8  and  C8_9 
REMARK    6  A    between atoms: C8_9  and  C9_10 
REMARK    7  A    between atoms: C9_10  and  C10_11 
REMARK       I    between atoms: C10_11  and  N1_13 
REMARK    8  A    between atoms: N1_13  and  C11_15 
REMARK    9  A    between atoms: C17_21  and  N2_22 
ROOT
HETATM    1  C10 UNL     1      16.807   1.219  14.950  1.00  0.00     0.218 C 
HETATM    2  O2  UNL     1      16.337   0.053  14.919  1.00  0.00    -0.274 OA
HETATM    3  N1  UNL     1      17.238   1.866  13.756  1.00  0.00    -0.351 N 
ATOM      4  H1  UNL     1      17.616   2.812  13.809  1.00  0.00     0.163 HD
ENDROOT
BRANCH   3   5
HETATM    5  C11 UNL     1      17.153   1.240  12.532  1.00  0.00     0.043 C 
HETATM    6  C12 UNL     1      17.191  -0.280  12.463  1.00  0.00     0.037 C 
HETATM    7  C13 UNL     1      17.695  -0.002  11.039  1.00  0.00    -0.003 C 
HETATM    8  C14 UNL     1      16.455   0.590  10.430  1.00  0.00     0.012 C 
HETATM    9  C18 UNL     1      18.414   1.181  11.654  1.00  0.00     0.049 C 
HETATM   10  C15 UNL     1      16.193   1.693  11.477  1.00  0.00     0.016 C 
HETATM   11  C16 UNL     1      16.884   2.922  10.934  1.00  0.00     0.040 C 
HETATM   12  C17 UNL     1      18.312   2.379  10.772  1.00  0.00     0.190 C 
BRANCH  12  13
HETATM   13  N2  UNL     1      19.287   3.387  11.097  1.00  0.00    -0.075 N 
ATOM     14  H23 UNL     1      19.558   3.346  12.080  1.00  0.00     0.274 HD
ATOM     15  H22 UNL     1      20.195   3.182  10.678  1.00  0.00     0.274 HD
ATOM     16  H21 UNL     1      18.954   4.315  10.837  1.00  0.00     0.274 HD
ENDBRANCH  12  13
ENDBRANCH   3   5
BRANCH   1  17
HETATM   17  C9  UNL     1      16.889   1.870  16.279  1.00  0.00     0.103 C 
BRANCH  17  18
HETATM   18  C8  UNL     1      15.613   2.434  16.783  1.00  0.00     0.009 C 
BRANCH  18  19
HETATM   19  C7  UNL     1      14.780   3.189  15.813  1.00  0.00     0.002 C 
BRANCH  19  20
HETATM   20  C6  UNL     1      14.767   4.682  16.074  1.00  0.00     0.026 C 
BRANCH  20  21
HETATM   21  C5  UNL     1      15.209   5.358  14.793  1.00  0.00     0.168 C 
BRANCH  21  22
HETATM   22  O1  UNL     1      16.358   4.748  14.295  1.00  0.00    -0.381 OA
BRANCH  22  23
HETATM   23  C2  UNL     1      17.398   5.620  14.107  1.00  0.00     0.050 C 
HETATM   24  C1  UNL     1      18.755   4.981  14.302  1.00  0.00     0.045 C 
HETATM   25  C3  UNL     1      17.345   6.081  12.654  1.00  0.00     0.045 C 
HETATM   26  C4  UNL     1      17.337   6.844  14.963  1.00  0.00     0.045 C 
ENDBRANCH  22  23
ENDBRANCH  21  22
ENDBRANCH  20  21
ENDBRANCH  19  20
ENDBRANCH  18  19
ENDBRANCH  17  18
ENDBRANCH   1  17
TORSDOF 9
ENDMDL
MODEL 2
REMARK VINA RESULT: -6.778741698      1.314      4.857
REMARK  9 active torsions:
REMARK  status: ('A' for Active; 'I' for Inactive)
REMARK    1  A    between atoms: C2_2  and  O1_5 
REMARK    2  A    between atoms: O1_5  and  C5_6 
REMARK    3  A    between atoms: C5_6  and  C6_7 
REMARK    4  A    between atoms: C6_7  and  C7_8 
REMARK    5  A    between atoms: C7_8  and  C8_9 
REMARK    6  A    between atoms: C8_9  and  C9_10 
REMARK    7  A    between atoms: C9_10  and  C10_11 
REMARK       I    between atoms: C10_11  and  N1_13 
REMARK    8  A    between atoms: N1_13  and  C11_15 
REMARK    9  A    between atoms: C17_21  and  N2_22 
ROOT
HETATM    1  C10 UNL     1      15.277   4.705  15.057  1.00  0.00     0.218 C 
HETATM    2  O2  UNL     1      14.945   5.839  15.488  1.00  0.00    -0.274 OA
HETATM    3  N1  UNL     1      16.263   4.570  14.038  1.00  0.00    -0.351 N 
ATOM      4  H1  UNL     1      16.514   3.638  13.706  1.00  0.00     0.163 HD
ENDROOT
BRANCH   3   5
HETATM    5  C11 UNL     1      16.885   5.672  13.493  1.00  0.00     0.043 C 
HETATM    6  C12 UNL     1      16.119   6.562  12.525  1.00  0.00     0.037 C 
HETATM    7  C13 UNL     1      17.534   6.907  12.037  1.00  0.00    -0.003 C 
HETATM    8  C14 UNL     1      18.055   7.645  13.240  1.00  0.00     0.012 C 
HETATM    9  C18 UNL     1      17.855   5.455  12.320  1.00  0.00     0.049 C 
HETATM   10  C15 UNL     1      17.754   6.575  14.309  1.00  0.00     0.016 C 
HETATM   11  C16 UNL     1      19.025   5.765  14.422  1.00  0.00     0.040 C 
HETATM   12  C17 UNL     1      19.195   5.324  12.961  1.00  0.00     0.190 C 
BRANCH  12  13
HETATM   13  N2  UNL     1      19.715   3.983  12.884  1.00  0.00    -0.075 N 
ATOM     14  H23 UNL     1      19.040   3.298  13.225  1.00  0.00     0.274 HD
ATOM     15  H22 UNL     1      19.786   3.663  11.918  1.00  0.00     0.274 HD
ATOM     16  H21 UNL     1      20.607   3.909  13.373  1.00  0.00     0.274 HD
ENDBRANCH  12  13
ENDBRANCH   3   5
BRANCH   1  17
HETATM   17  C9  UNL     1      14.594   3.536  15.660  1.00  0.00     0.103 C 
BRANCH  17  18
HETATM   18  C8  UNL     1      15.338   2.867  16.755  1.00  0.00     0.009 C 
BRANCH  18  19
HETATM   19  C7  UNL     1      15.847   1.499  16.486  1.00  0.00     0.002 C 
BRANCH  19  20
HETATM   20  C6  UNL     1      17.147   1.488  15.709  1.00  0.00     0.026 C 
BRANCH  20  21
HETATM   21  C5  UNL     1      16.830   0.967  14.323  1.00  0.00     0.168 C 
BRANCH  21  22
HETATM   22  O1  UNL     1      17.480   1.731  13.357  1.00  0.00    -0.381 OA
BRANCH  22  23
HETATM   23  C2  UNL     1      17.385   1.207  12.095  1.00  0.00     0.050 C 
HETATM   24  C1  UNL     1      16.937  -0.238  12.082  1.00  0.00     0.045 C 
HETATM   25  C3  UNL     1      16.310   1.997  11.356  1.00  0.00     0.045 C 
HETATM   26  C4  UNL     1      18.641   1.308  11.291  1.00  0.00     0.045 C 
ENDBRANCH  22  23
ENDBRANCH  21  22
ENDBRANCH  20  21
ENDBRANCH  19  20
ENDBRANCH  18  19
ENDBRANCH  17  18
ENDBRANCH   1  17
TORSDOF 9
ENDMDL
MODEL 3
REMARK VINA RESULT: -6.675497994      1.799      5.055
REMARK  9 active torsions:
REMARK  status: ('A' for Active; 'I' for Inactive)
REMARK    1  A    between atoms: C2_2  and  O1_5 
REMARK    2  A    between atoms: O1_5  and  C5_6 
REMARK    3  A    between atoms: C5_6  and  C6_7 
REMARK    4  A    between atoms: C6_7  and  C7_8 
REMARK    5  A    between atoms: C7_8  and  C8_9 
REMARK    6  A    between atoms: C8_9  and  C9_10 
REMARK    7  A    between atoms: C9_10  and  C10_11 
REMARK       I    between atoms: C10_11  and  N1_13 
REMARK    8  A    between atoms: N1_13  and  C11_15 
REMARK    9  A    between atoms: C17_21  and  N2_22 
ROOT
HETATM    1  C10 UNL     1      17.069   2.737  11.223  1.00  0.00     0.218 C 
HETATM    2  O2  UNL     1      16.175   3.448  10.696  1.00  0.00    -0.274 OA
HETATM    3  N1  UNL     1      18.186   3.331  11.878  1.00  0.00    -0.351 N 
ATOM      4  H1  UNL     1      18.897   2.732  12.297  1.00  0.00     0.163 HD
ENDROOT
BRANCH   3   5
HETATM    5  C11 UNL     1      18.324   4.700  11.958  1.00  0.00     0.043 C 
HETATM    6  C12 UNL     1      18.808   5.476  10.741  1.00  0.00     0.037 C 
HETATM    7  C13 UNL     1      19.251   6.485  11.811  1.00  0.00    -0.003 C 
HETATM    8  C14 UNL     1      17.910   6.942  12.314  1.00  0.00     0.012 C 
HETATM    9  C18 UNL     1      19.572   5.267  12.653  1.00  0.00     0.049 C 
HETATM   10  C15 UNL     1      17.306   5.560  12.637  1.00  0.00     0.016 C 
HETATM   11  C16 UNL     1      17.622   5.323  14.096  1.00  0.00     0.040 C 
HETATM   12  C17 UNL     1      19.150   5.475  14.068  1.00  0.00     0.190 C 
BRANCH  12  13
HETATM   13  N2  UNL     1      19.778   4.547  14.972  1.00  0.00    -0.075 N 
ATOM     14  H23 UNL     1      20.439   5.015  15.592  1.00  0.00     0.274 HD
ATOM     15  H22 UNL     1      19.122   4.206  15.675  1.00  0.00     0.274 HD
ATOM     16  H21 UNL     1      20.217   3.781  14.462  1.00  0.00     0.274 HD
ENDBRANCH  12  13
ENDBRANCH   3   5
BRANCH   1  17
HETATM   17  C9  UNL     1      16.898   1.268  11.123  1.00  0.00     0.103 C 
BRANCH  17  18
HETATM   18  C8  UNL     1      16.876   0.548  12.420  1.00  0.00     0.009 C 
BRANCH  18  19
HETATM   19  C7  UNL     1      16.804   1.376  13.650  1.00  0.00     0.002 C 
BRANCH  19  20
HETATM   20  C6  UNL     1      16.839   0.557  14.924  1.00  0.00     0.026 C 
BRANCH  20  21
HETATM   21  C5  UNL     1      16.888   1.537  16.077  1.00  0.00     0.168 C 
BRANCH  21  22
HETATM   22  O1  UNL     1      15.997   1.154  17.077  1.00  0.00    -0.381 OA
BRANCH  22  23
HETATM   23  C2  UNL     1      14.994   2.063  17.287  1.00  0.00     0.050 C 
HETATM   24  C1  UNL     1      13.614   1.498  17.034  1.00  0.00     0.045 C 
HETATM   25  C3  UNL     1      15.035   2.448  18.763  1.00  0.00     0.045 C 
HETATM   26  C4  UNL     1      15.129   3.324  16.496  1.00  0.00     0.045 C 
ENDBRANCH  22  23
ENDBRANCH  21  22
ENDBRANCH  20  21
ENDBRANCH  19  20
ENDBRANCH  18  19
ENDBRANCH  17  18
ENDBRANCH   1  17
TORSDOF 9
ENDMDL
MODEL 4
REMARK VINA RESULT: -6.533837514      1.956      6.074
REMARK  9 active torsions:
REMARK  status: ('A' for Active; 'I' for Inactive)
REMARK    1  A    between atoms: C2_2  and  O1_5 
REMARK    2  A    between atoms: O1_5  and  C5_6 
REMARK    3  A    between atoms: C5_6  and  C6_7 
REMARK    4  A    between atoms: C6_7  and  C7_8 
REMARK    5  A    between atoms: C7_8  and  C8_9 
REMARK    6  A    between atoms: C8_9  and  C9_10 
REMARK    7  A    between atoms: C9_10  and  C10_11 
REMARK       I    between atoms: C10_11  and  N1_13 
REMARK    8  A    between atoms: N1_13  and  C11_15 
REMARK    9  A    between atoms: C17_21  and  N2_22 
ROOT
HETATM    1  C10 UNL     1      17.080   5.243  10.929  1.00  0.00     0.218 C 
HETATM    2  O2  UNL     1      16.126   6.046  10.760  1.00  0.00    -0.274 OA
HETATM    3  N1  UNL     1      17.450   4.811  12.235  1.00  0.00    -0.351 N 
ATOM      4  H1  UNL     1      18.228   4.160  12.344  1.00  0.00     0.163 HD
ENDROOT
BRANCH   3   5
HETATM    5  C11 UNL     1      16.779   5.256  13.353  1.00  0.00     0.043 C 
HETATM    6  C12 UNL     1      16.900   6.715  13.770  1.00  0.00     0.037 C 
HETATM    7  C13 UNL     1      16.545   6.142  15.149  1.00  0.00    -0.003 C 
HETATM    8  C14 UNL     1      15.127   5.710  14.899  1.00  0.00     0.012 C 
HETATM    9  C18 UNL     1      17.380   4.948  14.734  1.00  0.00     0.049 C 
HETATM   10  C15 UNL     1      15.372   4.842  13.648  1.00  0.00     0.016 C 
HETATM   11  C16 UNL     1      15.564   3.438  14.175  1.00  0.00     0.040 C 
HETATM   12  C17 UNL     1      16.726   3.674  15.151  1.00  0.00     0.190 C 
BRANCH  12  13
HETATM   13  N2  UNL     1      17.637   2.560  15.147  1.00  0.00    -0.075 N 
ATOM     14  H23 UNL     1      17.763   2.173  16.083  1.00  0.00     0.274 HD
ATOM     15  H22 UNL     1      17.229   1.741  14.695  1.00  0.00     0.274 HD
ATOM     16  H21 UNL     1      18.529   2.818  14.724  1.00  0.00     0.274 HD
ENDBRANCH  12  13
ENDBRANCH   3   5
BRANCH   1  17
HETATM   17  C9  UNL     1      17.786   4.780   9.711  1.00  0.00     0.103 C 
BRANCH  17  18
HETATM   18  C8  UNL     1      19.265   4.866   9.770  1.00  0.00     0.009 C 
BRANCH  18  19
HETATM   19  C7  UNL     1      20.013   3.584   9.821  1.00  0.00     0.002 C 
BRANCH  19  20
HETATM   20  C6  UNL     1      20.243   3.083  11.232  1.00  0.00     0.026 C 
BRANCH  20  21
HETATM   21  C5  UNL     1      19.531   1.753  11.351  1.00  0.00     0.168 C 
BRANCH  21  22
HETATM   22  O1  UNL     1      18.323   1.908  12.027  1.00  0.00    -0.381 OA
BRANCH  22  23
HETATM   23  C2  UNL     1      17.364   1.010  11.640  1.00  0.00     0.050 C 
HETATM   24  C1  UNL     1      16.155   1.664  11.010  1.00  0.00     0.045 C 
HETATM   25  C3  UNL     1      17.982   0.122  10.564  1.00  0.00     0.045 C 
HETATM   26  C4  UNL     1      16.885   0.111  12.734  1.00  0.00     0.045 C 
ENDBRANCH  22  23
ENDBRANCH  21  22
ENDBRANCH  20  21
ENDBRANCH  19  20
ENDBRANCH  18  19
ENDBRANCH  17  18
ENDBRANCH   1  17
TORSDOF 9
ENDMDL
MODEL 5
REMARK VINA RESULT: -6.488463027      1.185      1.605
REMARK  9 active torsions:
REMARK  status: ('A' for Active; 'I' for Inactive)
REMARK    1  A    between atoms: C2_2  and  O1_5 
REMARK    2  A    between atoms: O1_5  and  C5_6 
REMARK    3  A    between atoms: C5_6  and  C6_7 
REMARK    4  A    between atoms: C6_7  and  C7_8 
REMARK    5  A    between atoms: C7_8  and  C8_9 
REMARK    6  A    between atoms: C8_9  and  C9_10 
REMARK    7  A    between atoms: C9_10  and  C10_11 
REMARK       I    between atoms: C10_11  and  N1_13 
REMARK    8  A    between atoms: N1_13  and  C11_15 
REMARK    9  A    between atoms: C17_21  and  N2_22 
ROOT
HETATM    1  C10 UNL     1      16.632   1.352  14.853  1.00  0.00     0.218 C 
HETATM    2  O2  UNL     1      16.457   0.108  14.909  1.00  0.00    -0.274 OA
HETATM    3  N1  UNL     1      16.938   1.992  13.617  1.00  0.00    -0.351 N 
ATOM      4  H1  UNL     1      17.076   3.003  13.598  1.00  0.00     0.163 HD
ENDROOT
BRANCH   3   5
HETATM    5  C11 UNL     1      17.050   1.273  12.446  1.00  0.00     0.043 C 
HETATM    6  C12 UNL     1      17.153  -0.244  12.506  1.00  0.00     0.037 C 
HETATM    7  C13 UNL     1      17.844  -0.050  11.149  1.00  0.00    -0.003 C 
HETATM    8  C14 UNL     1      16.682   0.436  10.328  1.00  0.00     0.012 C 
HETATM    9  C18 UNL     1      18.424   1.209  11.760  1.00  0.00     0.049 C 
HETATM   10  C15 UNL     1      16.235   1.600  11.236  1.00  0.00     0.016 C 
HETATM   11  C16 UNL     1      16.951   2.817  10.698  1.00  0.00     0.040 C 
HETATM   12  C17 UNL     1      18.405   2.331  10.779  1.00  0.00     0.190 C 
BRANCH  12  13
HETATM   13  N2  UNL     1      19.288   3.406  11.154  1.00  0.00    -0.075 N 
ATOM     14  H23 UNL     1      19.857   3.717  10.367  1.00  0.00     0.274 HD
ATOM     15  H22 UNL     1      18.775   4.271  11.326  1.00  0.00     0.274 HD
ATOM     16  H21 UNL     1      19.864   3.143  11.954  1.00  0.00     0.274 HD
ENDBRANCH  12  13
ENDBRANCH   3   5
BRANCH   1  17
HETATM   17  C9  UNL     1      16.507   2.102  16.124  1.00  0.00     0.103 C 
BRANCH  17  18
HETATM   18  C8  UNL     1      15.280   2.926  16.250  1.00  0.00     0.009 C 
BRANCH  18  19
HETATM   19  C7  UNL     1      15.359   4.330  15.774  1.00  0.00     0.002 C 
BRANCH  19  20
HETATM   20  C6  UNL     1      14.716   4.537  14.418  1.00  0.00     0.026 C 
BRANCH  20  21
HETATM   21  C5  UNL     1      15.361   5.763  13.805  1.00  0.00     0.168 C 
BRANCH  21  22
HETATM   22  O1  UNL     1      15.602   5.557  12.449  1.00  0.00    -0.381 OA
BRANCH  22  23
HETATM   23  C2  UNL     1      16.113   6.658  11.815  1.00  0.00     0.050 C 
HETATM   24  C1  UNL     1      16.558   6.377  10.397  1.00  0.00     0.045 C 
HETATM   25  C3  UNL     1      14.990   7.687  11.716  1.00  0.00     0.045 C 
HETATM   26  C4  UNL     1      17.249   7.311  12.535  1.00  0.00     0.045 C 
ENDBRANCH  22  23
ENDBRANCH  21  22
ENDBRANCH  20  21
ENDBRANCH  19  20
ENDBRANCH  18  19
ENDBRANCH  17  18
ENDBRANCH   1  17
TORSDOF 9
ENDMDL
