MODEL 1
REMARK VINA RESULT: -6.805911587      0.000      0.000
REMARK  2 active torsions:
REMARK  status: ('A' for Active; 'I' for Inactive)
REMARK    1  A    between atoms: C5_5  and  N1_6 
REMARK    2  A    between atoms: N1_6  and  C6_9 
ROOT
HETATM    1  N1  UNL     1      17.517   2.177  13.326  1.00  0.00    -0.066 N 
ATOM      2  H11 UNL     1      18.392   1.743  13.620  1.00  0.00     0.278 HD
ATOM      3  H12 UNL     1      17.845   3.142  13.301  1.00  0.00     0.278 HD
ENDROOT
BRANCH   1   4
HETATM    4  C5  UNL     1      16.430   1.972  14.287  1.00  0.00     0.186 C 
HETATM    5  C4  UNL     1      15.905   3.299  14.735  1.00  0.00     0.033 C 
HETATM    6  C3  UNL     1      15.152   3.249  16.017  1.00  0.00     0.006 C 
HETATM    7  C2  UNL     1      15.814   2.515  17.132  1.00  0.00    -0.019 C 
HETATM    8  C1  UNL     1      14.760   1.651  17.836  1.00  0.00     0.010 C 
HETATM    9  C12 UNL     1      16.968   1.661  16.723  1.00  0.00     0.006 C 
HETATM   10  C11 UNL     1      16.815   1.034  15.378  1.00  0.00     0.033 C 
ENDBRANCH   1   4
BRANCH   1  11
HETATM   11  C6  UNL     1      17.067   1.708  12.041  1.00  0.00     0.201 C 
HETATM   12  C7  UNL     1      16.882   0.211  11.933  1.00  0.00     0.113 C 
HETATM   13  C8  UNL     1      17.442   0.321  10.532  1.00  0.00     0.250 C 
HETATM   14  F1  UNL     1      18.327  -0.669  10.175  1.00  0.00    -0.206 F 
HETATM   15  F2  UNL     1      16.388   0.453   9.637  1.00  0.00    -0.206 F 
HETATM   16  C9  UNL     1      18.082   1.623  10.956  1.00  0.00     0.085 C 
HETATM   17  C10 UNL     1      19.508   1.392  11.383  1.00  0.00     0.018 C 
ENDBRANCH   1  11
TORSDOF 2
ENDMDL
MODEL 2
REMARK VINA RESULT: -6.773147574      1.823      2.291
REMARK  2 active torsions:
REMARK  status: ('A' for Active; 'I' for Inactive)
REMARK    1  A    between atoms: C5_5  and  N1_6 
REMARK    2  A    between atoms: N1_6  and  C6_9 
ROOT
HETATM    1  N1  UNL     1      17.802   2.250  13.483  1.00  0.00    -0.066 N 
ATOM      2  H11 UNL     1      18.312   1.554  14.027  1.00  0.00     0.278 HD
ATOM      3  H12 UNL     1      18.601   2.819  13.207  1.00  0.00     0.278 HD
ENDROOT
BRANCH   1   4
HETATM    4  C5  UNL     1      16.826   2.992  14.284  1.00  0.00     0.186 C 
HETATM    5  C4  UNL     1      15.763   3.544  13.387  1.00  0.00     0.033 C 
HETATM    6  C3  UNL     1      14.998   4.674  13.980  1.00  0.00     0.006 C 
HETATM    7  C2  UNL     1      15.814   5.757  14.597  1.00  0.00    -0.019 C 
HETATM    8  C1  UNL     1      15.161   6.158  15.927  1.00  0.00     0.010 C 
HETATM    9  C12 UNL     1      17.247   5.410  14.829  1.00  0.00     0.006 C 
HETATM   10  C11 UNL     1      17.476   3.981  15.189  1.00  0.00     0.033 C 
ENDBRANCH   1   4
BRANCH   1  11
HETATM   11  C6  UNL     1      17.110   1.678  12.358  1.00  0.00     0.201 C 
HETATM   12  C7  UNL     1      16.969   0.172  12.388  1.00  0.00     0.113 C 
HETATM   13  C8  UNL     1      17.213   0.197  10.895  1.00  0.00     0.250 C 
HETATM   14  F1  UNL     1      18.044  -0.791  10.420  1.00  0.00    -0.206 F 
HETATM   15  F2  UNL     1      15.989   0.235  10.240  1.00  0.00    -0.206 F 
HETATM   16  C9  UNL     1      17.874   1.543  11.088  1.00  0.00     0.085 C 
HETATM   17  C10 UNL     1      19.367   1.383  11.212  1.00  0.00     0.018 C 
ENDBRANCH   1  11
TORSDOF 2
ENDMDL
MODEL 3
REMARK VINA RESULT: -6.755931513      0.767      1.492
REMARK  2 active torsions:
REMARK  status: ('A' for Active; 'I' for Inactive)
REMARK    1  A    between atoms: C5_5  and  N1_6 
REMARK    2  A    between atoms: N1_6  and  C6_9 
ROOT
HETATM    1  N1  UNL     1      17.618   2.185  13.209  1.00  0.00    -0.066 N 
ATOM      2  H11 UNL     1      18.458   2.544  13.662  1.00  0.00     0.278 HD
ATOM      3  H12 UNL     1      17.511   2.926  12.516  1.00  0.00     0.278 HD
ENDROOT
BRANCH   1   4
HETATM    4  C5  UNL     1      16.476   2.092  14.121  1.00  0.00     0.186 C 
HETATM    5  C4  UNL     1      16.058   3.466  14.538  1.00  0.00     0.033 C 
HETATM    6  C3  UNL     1      15.247   3.500  15.784  1.00  0.00     0.006 C 
HETATM    7  C2  UNL     1      15.788   2.719  16.932  1.00  0.00    -0.019 C 
HETATM    8  C1  UNL     1      14.627   1.964  17.593  1.00  0.00     0.010 C 
HETATM    9  C12 UNL     1      16.874   1.757  16.581  1.00  0.00     0.006 C 
HETATM   10  C11 UNL     1      16.722   1.133  15.234  1.00  0.00     0.033 C 
ENDBRANCH   1   4
BRANCH   1  11
HETATM   11  C6  UNL     1      17.816   0.890  12.613  1.00  0.00     0.201 C 
HETATM   12  C7  UNL     1      18.861   0.838  11.521  1.00  0.00     0.113 C 
HETATM   13  C8  UNL     1      17.944  -0.124  10.796  1.00  0.00     0.250 C 
HETATM   14  F1  UNL     1      17.836   0.079   9.440  1.00  0.00    -0.206 F 
HETATM   15  F2  UNL     1      18.311  -1.423  11.122  1.00  0.00    -0.206 F 
HETATM   16  C9  UNL     1      16.806   0.441  11.616  1.00  0.00     0.085 C 
HETATM   17  C10 UNL     1      16.090   1.519  10.847  1.00  0.00     0.018 C 
ENDBRANCH   1  11
TORSDOF 2
ENDMDL
MODEL 4
REMARK VINA RESULT: -6.687124212      3.654      5.869
REMARK  2 active torsions:
REMARK  status: ('A' for Active; 'I' for Inactive)
REMARK    1  A    between atoms: C5_5  and  N1_6 
REMARK    2  A    between atoms: N1_6  and  C6_9 
ROOT
HETATM    1  N1  UNL     1      17.031   3.729  12.561  1.00  0.00    -0.066 N 
ATOM      2  H11 UNL     1      16.489   3.916  11.717  1.00  0.00     0.278 HD
ATOM      3  H12 UNL     1      17.718   4.475  12.449  1.00  0.00     0.278 HD
ENDROOT
BRANCH   1   4
HETATM    4  C5  UNL     1      17.636   2.395  12.563  1.00  0.00     0.186 C 
HETATM    5  C4  UNL     1      18.767   2.360  11.586  1.00  0.00     0.033 C 
HETATM    6  C3  UNL     1      19.152   0.989  11.155  1.00  0.00     0.006 C 
HETATM    7  C2  UNL     1      18.032   0.104  10.731  1.00  0.00    -0.019 C 
HETATM    8  C1  UNL     1      18.262  -1.290  11.331  1.00  0.00     0.010 C 
HETATM    9  C12 UNL     1      16.671   0.590  11.105  1.00  0.00     0.006 C 
HETATM   10  C11 UNL     1      16.620   1.317  12.406  1.00  0.00     0.033 C 
ENDBRANCH   1   4
BRANCH   1  11
HETATM   11  C6  UNL     1      16.251   3.865  13.764  1.00  0.00     0.201 C 
HETATM   12  C7  UNL     1      15.321   5.057  13.796  1.00  0.00     0.113 C 
HETATM   13  C8  UNL     1      15.684   5.202  15.258  1.00  0.00     0.250 C 
HETATM   14  F1  UNL     1      15.894   6.493  15.684  1.00  0.00    -0.206 F 
HETATM   15  F2  UNL     1      14.741   4.526  16.022  1.00  0.00    -0.206 F 
HETATM   16  C9  UNL     1      16.942   4.419  14.960  1.00  0.00     0.085 C 
HETATM   17  C10 UNL     1      18.094   5.354  14.702  1.00  0.00     0.018 C 
ENDBRANCH   1  11
TORSDOF 2
ENDMDL
MODEL 5
REMARK VINA RESULT: -6.657362342      1.141      1.913
REMARK  2 active torsions:
REMARK  status: ('A' for Active; 'I' for Inactive)
REMARK    1  A    between atoms: C5_5  and  N1_6 
REMARK    2  A    between atoms: N1_6  and  C6_9 
ROOT
HETATM    1  N1  UNL     1      17.600   2.527  13.690  1.00  0.00    -0.066 N 
ATOM      2  H11 UNL     1      18.599   2.678  13.545  1.00  0.00     0.278 HD
ATOM      3  H12 UNL     1      17.268   3.387  13.255  1.00  0.00     0.278 HD
ENDROOT
BRANCH   1   4
HETATM    4  C5  UNL     1      17.240   2.432  15.107  1.00  0.00     0.186 C 
HETATM    5  C4  UNL     1      16.714   1.063  15.397  1.00  0.00     0.033 C 
HETATM    6  C3  UNL     1      15.900   0.978  16.639  1.00  0.00     0.006 C 
HETATM    7  C2  UNL     1      14.843   2.017  16.794  1.00  0.00    -0.019 C 
HETATM    8  C1  UNL     1      14.865   2.518  18.244  1.00  0.00     0.010 C 
HETATM    9  C12 UNL     1      14.961   3.177  15.863  1.00  0.00     0.006 C 
HETATM   10  C11 UNL     1      16.367   3.559  15.542  1.00  0.00     0.033 C 
ENDBRANCH   1   4
BRANCH   1  11
HETATM   11  C6  UNL     1      17.115   1.344  13.029  1.00  0.00     0.201 C 
HETATM   12  C7  UNL     1      18.146   0.591  12.219  1.00  0.00     0.113 C 
HETATM   13  C8  UNL     1      17.053   0.343  11.203  1.00  0.00     0.250 C 
HETATM   14  F1  UNL     1      17.434   0.478   9.888  1.00  0.00    -0.206 F 
HETATM   15  F2  UNL     1      16.461  -0.884  11.471  1.00  0.00    -0.206 F 
HETATM   16  C9  UNL     1      16.330   1.539  11.780  1.00  0.00     0.085 C 
HETATM   17  C10 UNL     1      16.635   2.775  10.977  1.00  0.00     0.018 C 
ENDBRANCH   1  11
TORSDOF 2
ENDMDL
