MODEL 1
REMARK VINA RESULT: -6.430186946      0.000      0.000
REMARK  2 active torsions:
REMARK  status: ('A' for Active; 'I' for Inactive)
REMARK    1  A    between atoms: C2_2  and  N1_3 
REMARK    2  A    between atoms: C2_2  and  C8_12 
ROOT
HETATM    1  N1  UNL     1      16.363   3.305  14.898  1.00  0.00    -0.369 N 
ATOM      2  H1  UNL     1      16.330   2.925  13.951  1.00  0.00     0.165 HD
HETATM    3  C3  UNL     1      15.748   2.525  15.817  1.00  0.00    -0.008 C 
HETATM    4  C4  UNL     1      14.545   3.178  16.542  1.00  0.00     0.058 C 
HETATM    5  C5  UNL     1      13.982   1.912  17.207  1.00  0.00     0.085 C 
HETATM    6  C6  UNL     1      15.249   1.379  17.852  1.00  0.00     0.248 C 
HETATM    7  F1  UNL     1      15.198   0.038  18.112  1.00  0.00    -0.206 F 
HETATM    8  F2  UNL     1      15.437   2.096  19.036  1.00  0.00    -0.206 F 
HETATM    9  C7  UNL     1      16.369   1.749  16.870  1.00  0.00     0.131 C 
ENDROOT
BRANCH   1  10
HETATM   10  C2  UNL     1      17.022   4.507  14.986  1.00  0.00    -0.010 C 
HETATM   11  C1  UNL     1      18.535   4.471  15.010  1.00  0.00     0.064 C 
BRANCH  10  12
HETATM   12  C8  UNL     1      16.462   5.721  14.299  1.00  0.00    -0.013 C 
HETATM   13  C9  UNL     1      17.213   6.929  14.824  1.00  0.00     0.021 C 
HETATM   14  C10 UNL     1      16.813   5.681  12.790  1.00  0.00     0.021 C 
HETATM   15  C11 UNL     1      15.009   5.930  14.362  1.00  0.00     0.021 C 
ENDBRANCH  10  12
ENDBRANCH   1  10
TORSDOF 2
ENDMDL
MODEL 2
REMARK VINA RESULT: -6.269246527      0.287      1.200
REMARK  2 active torsions:
REMARK  status: ('A' for Active; 'I' for Inactive)
REMARK    1  A    between atoms: C2_2  and  N1_3 
REMARK    2  A    between atoms: C2_2  and  C8_12 
ROOT
HETATM    1  N1  UNL     1      16.374   3.264  14.844  1.00  0.00    -0.369 N 
ATOM      2  H1  UNL     1      16.349   2.858  13.908  1.00  0.00     0.165 HD
HETATM    3  C3  UNL     1      15.757   2.507  15.781  1.00  0.00    -0.008 C 
HETATM    4  C4  UNL     1      14.546   3.174  16.479  1.00  0.00     0.058 C 
HETATM    5  C5  UNL     1      13.984   1.924  17.175  1.00  0.00     0.085 C 
HETATM    6  C6  UNL     1      15.249   1.415  17.844  1.00  0.00     0.248 C 
HETATM    7  F1  UNL     1      15.201   0.082  18.140  1.00  0.00    -0.206 F 
HETATM    8  F2  UNL     1      15.426   2.165  19.008  1.00  0.00    -0.206 F 
HETATM    9  C7  UNL     1      16.373   1.763  16.859  1.00  0.00     0.131 C 
ENDROOT
BRANCH   1  10
HETATM   10  C2  UNL     1      17.028   4.471  14.904  1.00  0.00    -0.010 C 
HETATM   11  C1  UNL     1      18.513   4.445  15.194  1.00  0.00     0.064 C 
BRANCH  10  12
HETATM   12  C8  UNL     1      16.614   5.592  13.993  1.00  0.00    -0.013 C 
HETATM   13  C9  UNL     1      16.693   5.076  12.570  1.00  0.00     0.021 C 
HETATM   14  C10 UNL     1      15.112   5.911  14.198  1.00  0.00     0.021 C 
HETATM   15  C11 UNL     1      17.314   6.877  14.131  1.00  0.00     0.021 C 
ENDBRANCH  10  12
ENDBRANCH   1  10
TORSDOF 2
ENDMDL
MODEL 3
REMARK VINA RESULT: -5.980302504      4.143      4.982
REMARK  2 active torsions:
REMARK  status: ('A' for Active; 'I' for Inactive)
REMARK    1  A    between atoms: C2_2  and  N1_3 
REMARK    2  A    between atoms: C2_2  and  C8_12 
ROOT
HETATM    1  N1  UNL     1      16.054   3.416  12.635  1.00  0.00    -0.369 N 
ATOM      2  H1  UNL     1      15.072   3.597  12.427  1.00  0.00     0.165 HD
HETATM    3  C3  UNL     1      16.521   2.266  12.095  1.00  0.00    -0.008 C 
HETATM    4  C4  UNL     1      17.020   1.211  13.113  1.00  0.00     0.058 C 
HETATM    5  C5  UNL     1      17.137   0.020  12.148  1.00  0.00     0.085 C 
HETATM    6  C6  UNL     1      17.951   0.669  11.042  1.00  0.00     0.248 C 
HETATM    7  F1  UNL     1      17.820   0.037   9.837  1.00  0.00    -0.206 F 
HETATM    8  F2  UNL     1      19.285   0.657  11.454  1.00  0.00    -0.206 F 
HETATM    9  C7  UNL     1      17.461   2.123  11.004  1.00  0.00     0.131 C 
ENDROOT
BRANCH   1  10
HETATM   10  C2  UNL     1      16.642   4.388  13.409  1.00  0.00    -0.010 C 
HETATM   11  C1  UNL     1      17.737   5.216  12.772  1.00  0.00     0.064 C 
BRANCH  10  12
HETATM   12  C8  UNL     1      15.817   5.149  14.408  1.00  0.00    -0.013 C 
HETATM   13  C9  UNL     1      15.378   4.169  15.478  1.00  0.00     0.021 C 
HETATM   14  C10 UNL     1      16.712   6.163  15.166  1.00  0.00     0.021 C 
HETATM   15  C11 UNL     1      14.679   5.928  13.901  1.00  0.00     0.021 C 
ENDBRANCH  10  12
ENDBRANCH   1  10
TORSDOF 2
ENDMDL
MODEL 4
REMARK VINA RESULT: -5.980178839      4.150      4.957
REMARK  2 active torsions:
REMARK  status: ('A' for Active; 'I' for Inactive)
REMARK    1  A    between atoms: C2_2  and  N1_3 
REMARK    2  A    between atoms: C2_2  and  C8_12 
ROOT
HETATM    1  N1  UNL     1      16.079   3.421  12.581  1.00  0.00    -0.369 N 
ATOM      2  H1  UNL     1      15.100   3.608  12.362  1.00  0.00     0.165 HD
HETATM    3  C3  UNL     1      16.541   2.262  12.057  1.00  0.00    -0.008 C 
HETATM    4  C4  UNL     1      17.023   1.214  13.090  1.00  0.00     0.058 C 
HETATM    5  C5  UNL     1      17.139   0.012  12.138  1.00  0.00     0.085 C 
HETATM    6  C6  UNL     1      17.967   0.643  11.032  1.00  0.00     0.248 C 
HETATM    7  F1  UNL     1      17.841   0.000   9.833  1.00  0.00    -0.206 F 
HETATM    8  F2  UNL     1      19.297   0.624  11.457  1.00  0.00    -0.206 F 
HETATM    9  C7  UNL     1      17.489   2.101  10.976  1.00  0.00     0.131 C 
ENDROOT
BRANCH   1  10
HETATM   10  C2  UNL     1      16.668   4.396  13.351  1.00  0.00    -0.010 C 
HETATM   11  C1  UNL     1      17.620   5.347  12.659  1.00  0.00     0.064 C 
BRANCH  10  12
HETATM   12  C8  UNL     1      15.897   5.030  14.474  1.00  0.00    -0.013 C 
HETATM   13  C9  UNL     1      16.801   6.061  15.122  1.00  0.00     0.021 C 
HETATM   14  C10 UNL     1      14.721   5.861  13.903  1.00  0.00     0.021 C 
HETATM   15  C11 UNL     1      15.301   4.140  15.480  1.00  0.00     0.021 C 
ENDBRANCH  10  12
ENDBRANCH   1  10
TORSDOF 2
ENDMDL
MODEL 5
REMARK VINA RESULT: -5.933258533      3.343      4.381
REMARK  2 active torsions:
REMARK  status: ('A' for Active; 'I' for Inactive)
REMARK    1  A    between atoms: C2_2  and  N1_3 
REMARK    2  A    between atoms: C2_2  and  C8_12 
ROOT
HETATM    1  N1  UNL     1      17.298   2.197  13.552  1.00  0.00    -0.369 N 
ATOM      2  H1  UNL     1      18.198   2.673  13.472  1.00  0.00     0.165 HD
HETATM    3  C3  UNL     1      16.782   2.219  14.803  1.00  0.00    -0.008 C 
HETATM    4  C4  UNL     1      16.580   0.832  15.460  1.00  0.00     0.058 C 
HETATM    5  C5  UNL     1      16.310   1.312  16.896  1.00  0.00     0.085 C 
HETATM    6  C6  UNL     1      15.236   2.350  16.618  1.00  0.00     0.248 C 
HETATM    7  F1  UNL     1      15.124   3.285  17.608  1.00  0.00    -0.206 F 
HETATM    8  F2  UNL     1      14.032   1.659  16.464  1.00  0.00    -0.206 F 
HETATM    9  C7  UNL     1      15.629   2.961  15.267  1.00  0.00     0.131 C 
ENDROOT
BRANCH   1  10
HETATM   10  C2  UNL     1      16.851   1.661  12.368  1.00  0.00    -0.010 C 
HETATM   11  C1  UNL     1      16.011   2.549  11.476  1.00  0.00     0.064 C 
BRANCH  10  12
HETATM   12  C8  UNL     1      17.717   0.695  11.610  1.00  0.00    -0.013 C 
HETATM   13  C9  UNL     1      17.539  -0.671  12.243  1.00  0.00     0.021 C 
HETATM   14  C10 UNL     1      17.173   0.520  10.169  1.00  0.00     0.021 C 
HETATM   15  C11 UNL     1      19.139   1.029  11.457  1.00  0.00     0.021 C 
ENDBRANCH  10  12
ENDBRANCH   1  10
TORSDOF 2
ENDMDL
