MODEL 1
REMARK VINA RESULT: -6.700807753      0.000      0.000
REMARK  7 active torsions:
REMARK  status: ('A' for Active; 'I' for Inactive)
REMARK    1  A    between atoms: C2_2  and  N1_3 
REMARK    2  A    between atoms: N1_3  and  C3_4 
REMARK    3  A    between atoms: N1_3  and  C5_6 
REMARK    4  A    between atoms: C5_6  and  C6_7 
REMARK    5  A    between atoms: C6_7  and  N2_8 
REMARK    6  A    between atoms: C7_9  and  O1_10 
REMARK    7  A    between atoms: C10_14  and  O2_15 
ROOT
HETATM    1  N2  UNL     1      -4.103   3.140  12.750  1.00  0.00    -0.306 N 
HETATM    2  C7  UNL     1      -3.350   3.820  13.637  1.00  0.00     0.152 A 
HETATM    3  C8  UNL     1      -2.931   4.983  13.030  1.00  0.00     0.025 A 
HETATM    4  C9  UNL     1      -3.437   5.027  11.733  1.00  0.00     0.014 A 
HETATM    5  C10 UNL     1      -4.166   3.838  11.620  1.00  0.00     0.152 A 
HETATM    6  C11 UNL     1      -3.160   6.162  10.804  1.00  0.00    -0.004 C 
HETATM    7  C12 UNL     1      -2.921   5.446   9.437  1.00  0.00     0.021 C 
HETATM    8  C13 UNL     1      -1.806   6.679  11.145  1.00  0.00     0.047 C 
HETATM    9  C14 UNL     1      -1.501   6.954  12.572  1.00  0.00     0.051 C 
HETATM   10  C15 UNL     1       0.041   6.919  12.697  1.00  0.00     0.040 C 
HETATM   11  N3  UNL     1      -1.819   8.355  12.913  1.00  0.00    -0.357 N 
ATOM     12  H3  UNL     1      -1.523   8.626  13.850  1.00  0.00     0.162 HD
HETATM   13  C16 UNL     1      -2.452   9.394  12.193  1.00  0.00     0.168 C 
HETATM   14  S1  UNL     1      -2.070  10.896  12.715  1.00  0.00    -0.041 SA
HETATM   15  N4  UNL     1      -3.365   9.344  11.093  1.00  0.00    -0.362 N 
ATOM     16  H4  UNL     1      -3.546  10.300  10.786  1.00  0.00     0.162 HD
HETATM   17  C17 UNL     1      -4.109   8.475  10.274  1.00  0.00     0.089 C 
HETATM   18  C18 UNL     1      -5.591   8.598  10.709  1.00  0.00     0.026 C 
HETATM   19  C19 UNL     1      -5.205   7.481  11.705  1.00  0.00     0.010 C 
HETATM   20  C20 UNL     1      -4.270   7.055  10.598  1.00  0.00     0.021 C 
HETATM   21  C21 UNL     1      -2.068   6.066  13.595  1.00  0.00     0.148 C 
HETATM   22 CL1  UNL     1      -2.953   6.924  14.900  1.00  0.00    -0.117 Cl
ENDROOT
BRANCH   1  23
HETATM   23  C6  UNL     1      -4.704   1.867  13.043  1.00  0.00     0.153 C 
BRANCH  23  24
HETATM   24  C5  UNL     1      -3.725   0.717  13.104  1.00  0.00     0.142 C 
BRANCH  24  25
HETATM   25  N1  UNL     1      -3.738   0.051  11.861  1.00  0.00    -0.393 N 
BRANCH  25  26
HETATM   26  C2  UNL     1      -4.258  -1.257  11.806  1.00  0.00     0.117 C 
HETATM   27  C1  UNL     1      -3.104  -2.238  11.543  1.00  0.00     0.026 C 
ENDBRANCH  25  26
BRANCH  25  28
HETATM   28  C3  UNL     1      -2.896   0.461  10.828  1.00  0.00     0.054 C 
HETATM   29  C4  UNL     1      -1.598   1.071  11.235  1.00  0.00     0.054 C 
ENDBRANCH  25  28
ENDBRANCH  24  25
ENDBRANCH  23  24
ENDBRANCH   1  23
BRANCH   2  30
HETATM   30  O1  UNL     1      -3.031   3.452  14.933  1.00  0.00    -0.345 OA
ATOM     31  H1  UNL     1      -2.197   3.131  15.256  1.00  0.00     0.219 HD
ENDBRANCH   2  30
BRANCH   5  32
HETATM   32  O2  UNL     1      -4.841   3.484  10.471  1.00  0.00    -0.345 OA
ATOM     33  H2  UNL     1      -5.776   3.551  10.319  1.00  0.00     0.219 HD
ENDBRANCH   5  32
TORSDOF 7
ENDMDL
MODEL 2
REMARK VINA RESULT: -6.661645075      3.288      6.403
REMARK  7 active torsions:
REMARK  status: ('A' for Active; 'I' for Inactive)
REMARK    1  A    between atoms: C2_2  and  N1_3 
REMARK    2  A    between atoms: N1_3  and  C3_4 
REMARK    3  A    between atoms: N1_3  and  C5_6 
REMARK    4  A    between atoms: C5_6  and  C6_7 
REMARK    5  A    between atoms: C6_7  and  N2_8 
REMARK    6  A    between atoms: C7_9  and  O1_10 
REMARK    7  A    between atoms: C10_14  and  O2_15 
ROOT
HETATM    1  N2  UNL     1      -3.702   6.808   9.706  1.00  0.00    -0.306 N 
HETATM    2  C7  UNL     1      -3.692   5.479   9.484  1.00  0.00     0.152 A 
HETATM    3  C8  UNL     1      -3.408   4.855  10.678  1.00  0.00     0.025 A 
HETATM    4  C9  UNL     1      -3.237   5.820  11.667  1.00  0.00     0.014 A 
HETATM    5  C10 UNL     1      -3.435   7.029  10.989  1.00  0.00     0.152 A 
HETATM    6  C11 UNL     1      -2.913   5.470  13.081  1.00  0.00    -0.004 C 
HETATM    7  C12 UNL     1      -1.861   6.553  13.479  1.00  0.00     0.021 C 
HETATM    8  C13 UNL     1      -2.100   4.223  13.041  1.00  0.00     0.047 C 
HETATM    9  C14 UNL     1      -2.594   3.091  12.217  1.00  0.00     0.051 C 
HETATM   10  C15 UNL     1      -1.359   2.212  11.907  1.00  0.00     0.040 C 
HETATM   11  N3  UNL     1      -3.437   2.187  13.025  1.00  0.00    -0.357 N 
ATOM     12  H3  UNL     1      -3.711   1.335  12.535  1.00  0.00     0.162 HD
HETATM   13  C16 UNL     1      -3.940   2.271  14.344  1.00  0.00     0.168 C 
HETATM   14  S1  UNL     1      -4.315   0.826  15.008  1.00  0.00    -0.041 SA
HETATM   15  N4  UNL     1      -4.171   3.408  15.182  1.00  0.00    -0.362 N 
ATOM     16  H4  UNL     1      -4.464   3.071  16.099  1.00  0.00     0.162 HD
HETATM   17  C17 UNL     1      -4.146   4.813  15.221  1.00  0.00     0.089 C 
HETATM   18  C18 UNL     1      -5.620   5.293  15.200  1.00  0.00     0.026 C 
HETATM   19  C19 UNL     1      -5.430   5.238  13.668  1.00  0.00     0.010 C 
HETATM   20  C20 UNL     1      -4.008   5.618  14.004  1.00  0.00     0.021 C 
HETATM   21  C21 UNL     1      -3.278   3.390  10.952  1.00  0.00     0.148 C 
HETATM   22 CL1  UNL     1      -4.881   2.600  10.781  1.00  0.00    -0.117 Cl
ENDROOT
BRANCH   1  23
HETATM   23  C6  UNL     1      -3.958   7.775   8.673  1.00  0.00     0.153 C 
BRANCH  23  24
HETATM   24  C5  UNL     1      -5.140   8.677   8.944  1.00  0.00     0.142 C 
BRANCH  24  25
HETATM   25  N1  UNL     1      -6.309   7.889   8.965  1.00  0.00    -0.393 N 
BRANCH  25  26
HETATM   26  C2  UNL     1      -6.671   7.193   7.795  1.00  0.00     0.117 C 
HETATM   27  C1  UNL     1      -7.947   6.382   8.076  1.00  0.00     0.026 C 
ENDBRANCH  25  26
BRANCH  25  28
HETATM   28  C3  UNL     1      -7.299   8.114   9.922  1.00  0.00     0.054 C 
HETATM   29  C4  UNL     1      -6.894   7.947  11.346  1.00  0.00     0.054 C 
ENDBRANCH  25  28
ENDBRANCH  24  25
ENDBRANCH  23  24
ENDBRANCH   1  23
BRANCH   2  30
HETATM   30  O1  UNL     1      -3.922   4.819   8.289  1.00  0.00    -0.345 OA
ATOM     31  H1  UNL     1      -4.742   4.745   7.816  1.00  0.00     0.219 HD
ENDBRANCH   2  30
BRANCH   5  32
HETATM   32  O2  UNL     1      -3.354   8.255  11.614  1.00  0.00    -0.345 OA
ATOM     33  H2  UNL     1      -2.772   8.490  12.327  1.00  0.00     0.219 HD
ENDBRANCH   5  32
TORSDOF 7
ENDMDL
MODEL 3
REMARK VINA RESULT: -6.536147690      2.095      3.070
REMARK  7 active torsions:
REMARK  status: ('A' for Active; 'I' for Inactive)
REMARK    1  A    between atoms: C2_2  and  N1_3 
REMARK    2  A    between atoms: N1_3  and  C3_4 
REMARK    3  A    between atoms: N1_3  and  C5_6 
REMARK    4  A    between atoms: C5_6  and  C6_7 
REMARK    5  A    between atoms: C6_7  and  N2_8 
REMARK    6  A    between atoms: C7_9  and  O1_10 
REMARK    7  A    between atoms: C10_14  and  O2_15 
ROOT
HETATM    1  N2  UNL     1      -3.799   2.964  13.896  1.00  0.00    -0.306 N 
HETATM    2  C7  UNL     1      -2.891   3.858  14.337  1.00  0.00     0.152 A 
HETATM    3  C8  UNL     1      -2.799   4.863  13.401  1.00  0.00     0.025 A 
HETATM    4  C9  UNL     1      -3.672   4.587  12.351  1.00  0.00     0.014 A 
HETATM    5  C10 UNL     1      -4.270   3.378  12.725  1.00  0.00     0.152 A 
HETATM    6  C11 UNL     1      -3.808   5.484  11.166  1.00  0.00    -0.004 C 
HETATM    7  C12 UNL     1      -3.914   4.480   9.975  1.00  0.00     0.021 C 
HETATM    8  C13 UNL     1      -2.477   6.115  10.947  1.00  0.00     0.047 C 
HETATM    9  C14 UNL     1      -1.790   6.725  12.113  1.00  0.00     0.051 C 
HETATM   10  C15 UNL     1      -0.287   6.775  11.750  1.00  0.00     0.040 C 
HETATM   11  N3  UNL     1      -2.139   8.154  12.236  1.00  0.00    -0.357 N 
ATOM     12  H3  UNL     1      -1.608   8.646  12.954  1.00  0.00     0.162 HD
HETATM   13  C16 UNL     1      -3.066   8.974  11.553  1.00  0.00     0.168 C 
HETATM   14  S1  UNL     1      -2.708  10.569  11.601  1.00  0.00    -0.041 SA
HETATM   15  N4  UNL     1      -4.256   8.637  10.833  1.00  0.00    -0.362 N 
ATOM     16  H4  UNL     1      -4.621   9.489  10.406  1.00  0.00     0.162 HD
HETATM   17  C17 UNL     1      -5.113   7.576  10.491  1.00  0.00     0.089 C 
HETATM   18  C18 UNL     1      -6.401   7.743  11.336  1.00  0.00     0.026 C 
HETATM   19  C19 UNL     1      -5.619   6.902  12.369  1.00  0.00     0.010 C 
HETATM   20  C20 UNL     1      -5.018   6.265  11.139  1.00  0.00     0.021 C 
HETATM   21  C21 UNL     1      -1.927   6.078  13.424  1.00  0.00     0.148 C 
HETATM   22 CL1  UNL     1      -2.468   7.182  14.733  1.00  0.00    -0.117 Cl
ENDROOT
BRANCH   1  23
HETATM   23  C6  UNL     1      -4.145   1.773  14.623  1.00  0.00     0.153 C 
BRANCH  23  24
HETATM   24  C5  UNL     1      -4.080   1.921  16.127  1.00  0.00     0.142 C 
BRANCH  24  25
HETATM   25  N1  UNL     1      -5.354   2.303  16.594  1.00  0.00    -0.393 N 
BRANCH  25  26
HETATM   26  C2  UNL     1      -5.883   1.640  17.719  1.00  0.00     0.117 C 
HETATM   27  C1  UNL     1      -7.246   1.036  17.342  1.00  0.00     0.026 C 
ENDBRANCH  25  26
BRANCH  25  28
HETATM   28  C3  UNL     1      -6.244   2.978  15.758  1.00  0.00     0.054 C 
HETATM   29  C4  UNL     1      -6.297   4.460  15.906  1.00  0.00     0.054 C 
ENDBRANCH  25  28
ENDBRANCH  24  25
ENDBRANCH  23  24
ENDBRANCH   1  23
BRANCH   2  30
HETATM   30  O1  UNL     1      -2.162   3.813  15.513  1.00  0.00    -0.345 OA
ATOM     31  H1  UNL     1      -1.937   4.538  16.085  1.00  0.00     0.219 HD
ENDBRANCH   2  30
BRANCH   5  32
HETATM   32  O2  UNL     1      -5.216   2.743  11.948  1.00  0.00    -0.345 OA
ATOM     33  H2  UNL     1      -5.924   2.191  12.256  1.00  0.00     0.219 HD
ENDBRANCH   5  32
TORSDOF 7
ENDMDL
MODEL 4
REMARK VINA RESULT: -6.523785787      1.641      3.397
REMARK  7 active torsions:
REMARK  status: ('A' for Active; 'I' for Inactive)
REMARK    1  A    between atoms: C2_2  and  N1_3 
REMARK    2  A    between atoms: N1_3  and  C3_4 
REMARK    3  A    between atoms: N1_3  and  C5_6 
REMARK    4  A    between atoms: C5_6  and  C6_7 
REMARK    5  A    between atoms: C6_7  and  N2_8 
REMARK    6  A    between atoms: C7_9  and  O1_10 
REMARK    7  A    between atoms: C10_14  and  O2_15 
ROOT
HETATM    1  N2  UNL     1      -4.268   2.667  12.929  1.00  0.00    -0.306 N 
HETATM    2  C7  UNL     1      -4.643   3.234  11.766  1.00  0.00     0.152 A 
HETATM    3  C8  UNL     1      -4.195   4.536  11.767  1.00  0.00     0.025 A 
HETATM    4  C9  UNL     1      -3.524   4.785  12.962  1.00  0.00     0.014 A 
HETATM    5  C10 UNL     1      -3.606   3.568  13.649  1.00  0.00     0.152 A 
HETATM    6  C11 UNL     1      -2.918   6.111  13.279  1.00  0.00    -0.004 C 
HETATM    7  C12 UNL     1      -3.265   6.303  14.789  1.00  0.00     0.021 C 
HETATM    8  C13 UNL     1      -3.763   7.141  12.614  1.00  0.00     0.047 C 
HETATM    9  C14 UNL     1      -4.114   6.943  11.185  1.00  0.00     0.051 C 
HETATM   10  C15 UNL     1      -5.386   7.788  10.934  1.00  0.00     0.040 C 
HETATM   11  N3  UNL     1      -3.119   7.592  10.308  1.00  0.00    -0.357 N 
ATOM     12  H3  UNL     1      -3.373   7.580   9.321  1.00  0.00     0.162 HD
HETATM   13  C16 UNL     1      -1.882   8.225  10.570  1.00  0.00     0.168 C 
HETATM   14  S1  UNL     1      -1.420   9.287   9.417  1.00  0.00    -0.041 SA
HETATM   15  N4  UNL     1      -0.978   8.086  11.671  1.00  0.00    -0.362 N 
ATOM     16  H4  UNL     1      -0.227   8.766  11.552  1.00  0.00     0.162 HD
HETATM   17  C17 UNL     1      -0.733   7.367  12.854  1.00  0.00     0.089 C 
HETATM   18  C18 UNL     1       0.437   6.394  12.560  1.00  0.00     0.026 C 
HETATM   19  C19 UNL     1      -0.699   5.448  12.109  1.00  0.00     0.010 C 
HETATM   20  C20 UNL     1      -1.481   6.153  13.191  1.00  0.00     0.021 C 
HETATM   21  C21 UNL     1      -4.364   5.578  10.707  1.00  0.00     0.148 C 
HETATM   22 CL1  UNL     1      -3.410   5.123   9.256  1.00  0.00    -0.117 Cl
ENDROOT
BRANCH   1  23
HETATM   23  C6  UNL     1      -4.577   1.306  13.275  1.00  0.00     0.153 C 
BRANCH  23  24
HETATM   24  C5  UNL     1      -3.435   0.337  13.066  1.00  0.00     0.142 C 
BRANCH  24  25
HETATM   25  N1  UNL     1      -3.522  -0.181  11.758  1.00  0.00    -0.393 N 
BRANCH  25  26
HETATM   26  C2  UNL     1      -4.105  -1.451  11.577  1.00  0.00     0.117 C 
HETATM   27  C1  UNL     1      -2.987  -2.505  11.510  1.00  0.00     0.026 C 
ENDBRANCH  25  26
BRANCH  25  28
HETATM   28  C3  UNL     1      -2.696   0.306  10.744  1.00  0.00     0.054 C 
HETATM   29  C4  UNL     1      -1.569   1.182  11.174  1.00  0.00     0.054 C 
ENDBRANCH  25  28
ENDBRANCH  24  25
ENDBRANCH  23  24
ENDBRANCH   1  23
BRANCH   2  30
HETATM   30  O1  UNL     1      -5.351   2.649  10.729  1.00  0.00    -0.345 OA
ATOM     31  H1  UNL     1      -5.541   3.019   9.875  1.00  0.00     0.219 HD
ENDBRANCH   2  30
BRANCH   5  32
HETATM   32  O2  UNL     1      -3.058   3.380  14.900  1.00  0.00    -0.345 OA
ATOM     33  H2  UNL     1      -2.300   2.848  15.112  1.00  0.00     0.219 HD
ENDBRANCH   5  32
TORSDOF 7
ENDMDL
MODEL 5
REMARK VINA RESULT: -6.498608155      3.105      4.840
REMARK  7 active torsions:
REMARK  status: ('A' for Active; 'I' for Inactive)
REMARK    1  A    between atoms: C2_2  and  N1_3 
REMARK    2  A    between atoms: N1_3  and  C3_4 
REMARK    3  A    between atoms: N1_3  and  C5_6 
REMARK    4  A    between atoms: C5_6  and  C6_7 
REMARK    5  A    between atoms: C6_7  and  N2_8 
REMARK    6  A    between atoms: C7_9  and  O1_10 
REMARK    7  A    between atoms: C10_14  and  O2_15 
ROOT
HETATM    1  N2  UNL     1      -3.759   5.263  11.394  1.00  0.00    -0.306 N 
HETATM    2  C7  UNL     1      -4.019   5.145  10.077  1.00  0.00     0.152 A 
HETATM    3  C8  UNL     1      -4.968   6.086   9.748  1.00  0.00     0.025 A 
HETATM    4  C9  UNL     1      -5.307   6.809  10.890  1.00  0.00     0.014 A 
HETATM    5  C10 UNL     1      -4.510   6.241  11.891  1.00  0.00     0.152 A 
HETATM    6  C11 UNL     1      -6.317   7.906  10.872  1.00  0.00    -0.004 C 
HETATM    7  C12 UNL     1      -7.106   7.679  12.201  1.00  0.00     0.021 C 
HETATM    8  C13 UNL     1      -7.321   7.552   9.831  1.00  0.00     0.047 C 
HETATM    9  C14 UNL     1      -6.827   7.141   8.493  1.00  0.00     0.051 C 
HETATM   10  C15 UNL     1      -7.970   6.324   7.844  1.00  0.00     0.040 C 
HETATM   11  N3  UNL     1      -6.716   8.309   7.595  1.00  0.00    -0.357 N 
ATOM     12  H3  UNL     1      -6.487   8.065   6.632  1.00  0.00     0.162 HD
HETATM   13  C16 UNL     1      -6.865   9.698   7.811  1.00  0.00     0.168 C 
HETATM   14  S1  UNL     1      -7.230  10.546   6.462  1.00  0.00    -0.041 SA
HETATM   15  N4  UNL     1      -6.748  10.473   9.008  1.00  0.00    -0.362 N 
ATOM     16  H4  UNL     1      -7.004  11.436   8.789  1.00  0.00     0.162 HD
HETATM   17  C17 UNL     1      -6.414  10.411  10.372  1.00  0.00     0.089 C 
HETATM   18  C18 UNL     1      -5.024  11.078  10.530  1.00  0.00     0.026 C 
HETATM   19  C19 UNL     1      -4.505   9.652  10.241  1.00  0.00     0.010 C 
HETATM   20  C20 UNL     1      -5.766   9.234  10.957  1.00  0.00     0.021 C 
HETATM   21  C21 UNL     1      -5.591   6.351   8.414  1.00  0.00     0.148 C 
HETATM   22 CL1  UNL     1      -4.359   7.026   7.296  1.00  0.00    -0.117 Cl
ENDROOT
BRANCH   1  23
HETATM   23  C6  UNL     1      -2.816   4.427  12.086  1.00  0.00     0.153 C 
BRANCH  23  24
HETATM   24  C5  UNL     1      -3.448   3.345  12.932  1.00  0.00     0.142 C 
BRANCH  24  25
HETATM   25  N1  UNL     1      -3.211   2.099  12.314  1.00  0.00    -0.393 N 
BRANCH  25  26
HETATM   26  C2  UNL     1      -2.100   1.976  11.457  1.00  0.00     0.117 C 
HETATM   27  C1  UNL     1      -1.739   0.487  11.325  1.00  0.00     0.026 C 
ENDBRANCH  25  26
BRANCH  25  28
HETATM   28  C3  UNL     1      -4.236   1.162  12.189  1.00  0.00     0.054 C 
HETATM   29  C4  UNL     1      -5.207   1.388  11.081  1.00  0.00     0.054 C 
ENDBRANCH  25  28
ENDBRANCH  24  25
ENDBRANCH  23  24
ENDBRANCH   1  23
BRANCH   2  30
HETATM   30  O1  UNL     1      -3.456   4.253   9.180  1.00  0.00    -0.345 OA
ATOM     31  H1  UNL     1      -3.809   3.419   8.893  1.00  0.00     0.219 HD
ENDBRANCH   2  30
BRANCH   5  32
HETATM   32  O2  UNL     1      -4.538   6.673  13.200  1.00  0.00    -0.345 OA
ATOM     33  H2  UNL     1      -4.011   7.366  13.579  1.00  0.00     0.219 HD
ENDBRANCH   5  32
TORSDOF 7
ENDMDL
