MODEL 1
REMARK VINA RESULT: -8.380571835      0.000      0.000
REMARK  9 active torsions:
REMARK  status: ('A' for Active; 'I' for Inactive)
REMARK    1  A    between atoms: N1_1  and  C1_4 
REMARK    2  A    between atoms: C1_4  and  C2_6 
REMARK    3  A    between atoms: C5_10  and  N3_11 
REMARK    4  A    between atoms: N3_11  and  C6_13 
REMARK    5  A    between atoms: C7_16  and  C8_17 
REMARK    6  A    between atoms: C9_20  and  N6_21 
REMARK    7  A    between atoms: N6_21  and  C10_23 
REMARK    8  A    between atoms: C16_31  and  C17_32 
REMARK    9  A    between atoms: C21_38  and  O1_39 
ROOT
HETATM    1  C6  UNL     1      -3.515   5.825  11.952  1.00  0.00     0.138 A 
HETATM    2  N4  UNL     1      -3.884   4.637  12.450  1.00  0.00    -0.325 N 
ATOM      3  H4  UNL     1      -4.873   4.391  12.413  1.00  0.00     0.169 HD
HETATM    4  C7  UNL     1      -3.019   3.732  13.006  1.00  0.00     0.135 A 
HETATM    5  N8  UNL     1      -1.756   4.111  13.022  1.00  0.00    -0.348 N 
ATOM      6  H8  UNL     1      -1.082   3.463  13.428  1.00  0.00     0.167 HD
HETATM    7  C20 UNL     1      -1.285   5.260  12.556  1.00  0.00     0.130 A 
HETATM    8  C21 UNL     1      -2.143   6.160  12.006  1.00  0.00     0.125 A 
ENDROOT
BRANCH   4   9
HETATM    9  C8  UNL     1      -3.536   2.470  13.523  1.00  0.00     0.101 A 
HETATM   10  N5  UNL     1      -3.859   2.410  14.844  1.00  0.00    -0.188 N 
HETATM   11  C9  UNL     1      -4.321   1.298  15.424  1.00  0.00     0.678 A 
ATOM     12  H5  UNL     1      -3.743   3.248  15.414  1.00  0.00     0.184 HD
HETATM   13  N7  UNL     1      -4.465   0.210  14.648  1.00  0.00    -0.201 N 
HETATM   14  C15 UNL     1      -4.163   0.212  13.339  1.00  0.00     0.116 A 
ATOM     15  H7  UNL     1      -4.818  -0.649  15.069  1.00  0.00     0.183 HD
HETATM   16  C16 UNL     1      -3.679   1.370  12.723  1.00  0.00    -0.007 A 
BRANCH  11  17
HETATM   17  N6  UNL     1      -4.630   1.247  16.683  1.00  0.00    -0.221 N 
ATOM     18  H6  UNL     1      -3.890   1.460  17.352  1.00  0.00     0.178 HD
BRANCH  17  19
HETATM   19  C10 UNL     1      -5.913   0.921  17.216  1.00  0.00     0.099 C 
HETATM   20  C11 UNL     1      -6.059   1.238  18.679  1.00  0.00     0.026 C 
HETATM   21  C12 UNL     1      -6.316   2.708  18.750  1.00  0.00     0.002 C 
HETATM   22  C13 UNL     1      -6.986   3.077  17.425  1.00  0.00     0.002 C 
HETATM   23  C14 UNL     1      -6.936   1.831  16.573  1.00  0.00     0.026 C 
ENDBRANCH  17  19
ENDBRANCH  11  17
BRANCH  16  24
HETATM   24  C17 UNL     1      -3.366   1.438  11.300  1.00  0.00     0.022 A 
HETATM   25  C18 UNL     1      -3.070   0.139  10.549  1.00  0.00     0.010 A 
HETATM   26  C19 UNL     1      -1.970   1.110  10.775  1.00  0.00     0.010 A 
ENDBRANCH  16  24
ENDBRANCH   4   9
BRANCH   1  27
HETATM   27  N3  UNL     1      -4.260   6.652  11.461  1.00  0.00    -0.369 N 
ATOM     28  H3  UNL     1      -4.189   7.445  12.099  1.00  0.00     0.161 HD
BRANCH  27  29
HETATM   29  C5  UNL     1      -5.139   7.081  10.514  1.00  0.00     0.083 C 
HETATM   30  C4  UNL     1      -5.345   6.102   9.349  1.00  0.00     0.029 C 
HETATM   31  C3  UNL     1      -5.957   6.919   8.237  1.00  0.00     0.053 C 
HETATM   32  C2  UNL     1      -7.341   7.325   8.627  1.00  0.00     0.158 C 
HETATM   33  F1  UNL     1      -8.240   6.311   8.275  1.00  0.00    -0.235 F 
HETATM   34  C23 UNL     1      -7.525   7.779  10.025  1.00  0.00     0.053 C 
HETATM   35  C22 UNL     1      -6.513   7.369  11.031  1.00  0.00     0.029 C 
BRANCH  32  36
HETATM   36  C1  UNL     1      -7.697   8.498   7.746  1.00  0.00     0.127 C 
HETATM   37  N2  UNL     1      -8.697   9.437   8.142  1.00  0.00    -0.084 NA
BRANCH  36  38
HETATM   38  N1  UNL     1      -7.114   8.692   6.616  1.00  0.00    -0.388 N 
ATOM     39  H12 UNL     1      -7.472   9.367   5.940  1.00  0.00     0.157 HD
ATOM     40  H11 UNL     1      -6.277   8.144   6.417  1.00  0.00     0.157 HD
ENDBRANCH  36  38
ENDBRANCH  32  36
ENDBRANCH  27  29
ENDBRANCH   1  27
BRANCH   8  41
HETATM   41  O1  UNL     1      -1.708   7.396  11.494  1.00  0.00    -0.356 OA
ATOM     42  H1  UNL     1      -1.021   7.418  10.839  1.00  0.00     0.218 HD
ENDBRANCH   8  41
TORSDOF 9
ENDMDL
MODEL 2
REMARK VINA RESULT: -8.379930765      2.992      8.293
REMARK  9 active torsions:
REMARK  status: ('A' for Active; 'I' for Inactive)
REMARK    1  A    between atoms: N1_1  and  C1_4 
REMARK    2  A    between atoms: C1_4  and  C2_6 
REMARK    3  A    between atoms: C5_10  and  N3_11 
REMARK    4  A    between atoms: N3_11  and  C6_13 
REMARK    5  A    between atoms: C7_16  and  C8_17 
REMARK    6  A    between atoms: C9_20  and  N6_21 
REMARK    7  A    between atoms: N6_21  and  C10_23 
REMARK    8  A    between atoms: C16_31  and  C17_32 
REMARK    9  A    between atoms: C21_38  and  O1_39 
ROOT
HETATM    1  C6  UNL     1      -2.666   3.946  12.992  1.00  0.00     0.138 A 
HETATM    2  N4  UNL     1      -3.021   4.298  11.748  1.00  0.00    -0.325 N 
ATOM      3  H4  UNL     1      -3.759   3.761  11.293  1.00  0.00     0.169 HD
HETATM    4  C7  UNL     1      -2.455   5.332  11.049  1.00  0.00     0.135 A 
HETATM    5  N8  UNL     1      -1.509   5.984  11.695  1.00  0.00    -0.348 N 
ATOM      6  H8  UNL     1      -1.064   6.761  11.207  1.00  0.00     0.167 HD
HETATM    7  C20 UNL     1      -1.084   5.720  12.923  1.00  0.00     0.130 A 
HETATM    8  C21 UNL     1      -1.643   4.693  13.618  1.00  0.00     0.125 A 
ENDROOT
BRANCH   4   9
HETATM    9  C8  UNL     1      -2.918   5.620   9.696  1.00  0.00     0.101 A 
HETATM   10  N5  UNL     1      -3.966   6.475   9.552  1.00  0.00    -0.188 N 
HETATM   11  C9  UNL     1      -4.482   6.791   8.360  1.00  0.00     0.678 A 
ATOM     12  H5  UNL     1      -4.376   6.891  10.389  1.00  0.00     0.184 HD
HETATM   13  N7  UNL     1      -3.921   6.229   7.276  1.00  0.00    -0.201 N 
HETATM   14  C15 UNL     1      -2.883   5.378   7.358  1.00  0.00     0.116 A 
ATOM     15  H7  UNL     1      -4.297   6.456   6.356  1.00  0.00     0.183 HD
HETATM   16  C16 UNL     1      -2.338   5.041   8.600  1.00  0.00    -0.007 A 
BRANCH  11  17
HETATM   17  N6  UNL     1      -5.480   7.609   8.229  1.00  0.00    -0.221 N 
ATOM     18  H6  UNL     1      -5.408   8.509   8.702  1.00  0.00     0.178 HD
BRANCH  17  19
HETATM   19  C10 UNL     1      -6.670   7.361   7.481  1.00  0.00     0.099 C 
HETATM   20  C11 UNL     1      -7.760   6.699   8.278  1.00  0.00     0.026 C 
HETATM   21  C12 UNL     1      -8.395   7.789   9.078  1.00  0.00     0.002 C 
HETATM   22  C13 UNL     1      -8.183   9.072   8.272  1.00  0.00     0.002 C 
HETATM   23  C14 UNL     1      -7.285   8.694   7.118  1.00  0.00     0.026 C 
ENDBRANCH  17  19
ENDBRANCH  11  17
BRANCH  16  24
HETATM   24  C17 UNL     1      -1.192   4.150   8.747  1.00  0.00     0.022 A 
HETATM   25  C18 UNL     1       0.214   4.731   8.593  1.00  0.00     0.010 A 
HETATM   26  C19 UNL     1      -0.300   3.799   7.559  1.00  0.00     0.010 A 
ENDBRANCH  16  24
ENDBRANCH   4   9
BRANCH   1  27
HETATM   27  N3  UNL     1      -3.143   3.029  13.633  1.00  0.00    -0.369 N 
ATOM     28  H3  UNL     1      -2.632   2.212  13.298  1.00  0.00     0.161 HD
BRANCH  27  29
HETATM   29  C5  UNL     1      -3.996   2.513  14.560  1.00  0.00     0.083 C 
HETATM   30  C4  UNL     1      -3.381   2.325  15.954  1.00  0.00     0.029 C 
HETATM   31  C3  UNL     1      -4.293   1.361  16.673  1.00  0.00     0.053 C 
HETATM   32  C2  UNL     1      -5.605   2.025  16.936  1.00  0.00     0.158 C 
HETATM   33  F1  UNL     1      -5.534   2.736  18.139  1.00  0.00    -0.235 F 
HETATM   34  C23 UNL     1      -6.163   2.841  15.832  1.00  0.00     0.053 C 
HETATM   35  C22 UNL     1      -5.232   3.328  14.784  1.00  0.00     0.029 C 
BRANCH  32  36
HETATM   36  C1  UNL     1      -6.594   0.913  17.187  1.00  0.00     0.127 C 
HETATM   37  N2  UNL     1      -6.150  -0.412  17.479  1.00  0.00    -0.084 NA
BRANCH  36  38
HETATM   38  N1  UNL     1      -7.863   1.119  17.147  1.00  0.00    -0.388 N 
ATOM     39  H12 UNL     1      -8.523   0.354  17.005  1.00  0.00     0.157 HD
ATOM     40  H11 UNL     1      -8.189   2.079  17.262  1.00  0.00     0.157 HD
ENDBRANCH  36  38
ENDBRANCH  32  36
ENDBRANCH  27  29
ENDBRANCH   1  27
BRANCH   8  41
HETATM   41  O1  UNL     1      -1.239   4.362  14.923  1.00  0.00    -0.356 OA
ATOM     42  H1  UNL     1      -0.392   3.956  15.064  1.00  0.00     0.218 HD
ENDBRANCH   8  41
TORSDOF 9
ENDMDL
MODEL 3
REMARK VINA RESULT: -8.127379992      0.938      1.247
REMARK  9 active torsions:
REMARK  status: ('A' for Active; 'I' for Inactive)
REMARK    1  A    between atoms: N1_1  and  C1_4 
REMARK    2  A    between atoms: C1_4  and  C2_6 
REMARK    3  A    between atoms: C5_10  and  N3_11 
REMARK    4  A    between atoms: N3_11  and  C6_13 
REMARK    5  A    between atoms: C7_16  and  C8_17 
REMARK    6  A    between atoms: C9_20  and  N6_21 
REMARK    7  A    between atoms: N6_21  and  C10_23 
REMARK    8  A    between atoms: C16_31  and  C17_32 
REMARK    9  A    between atoms: C21_38  and  O1_39 
ROOT
HETATM    1  C6  UNL     1      -3.403   5.776  12.095  1.00  0.00     0.138 A 
HETATM    2  N4  UNL     1      -3.805   4.595  12.584  1.00  0.00    -0.325 N 
ATOM      3  H4  UNL     1      -4.805   4.396  12.590  1.00  0.00     0.169 HD
HETATM    4  C7  UNL     1      -2.958   3.637  13.076  1.00  0.00     0.135 A 
HETATM    5  N8  UNL     1      -1.679   3.956  13.038  1.00  0.00    -0.348 N 
ATOM      6  H8  UNL     1      -1.017   3.268  13.397  1.00  0.00     0.167 HD
HETATM    7  C20 UNL     1      -1.177   5.093  12.576  1.00  0.00     0.130 A 
HETATM    8  C21 UNL     1      -2.017   6.045  12.088  1.00  0.00     0.125 A 
ENDROOT
BRANCH   4   9
HETATM    9  C8  UNL     1      -3.509   2.388  13.590  1.00  0.00     0.101 A 
HETATM   10  N5  UNL     1      -3.840   2.335  14.909  1.00  0.00    -0.188 N 
HETATM   11  C9  UNL     1      -4.333   1.235  15.487  1.00  0.00     0.678 A 
ATOM     12  H5  UNL     1      -3.705   3.170  15.480  1.00  0.00     0.184 HD
HETATM   13  N7  UNL     1      -4.500   0.152  14.710  1.00  0.00    -0.201 N 
HETATM   14  C15 UNL     1      -4.192   0.147  13.401  1.00  0.00     0.116 A 
ATOM     15  H7  UNL     1      -4.876  -0.698  15.129  1.00  0.00     0.183 HD
HETATM   16  C16 UNL     1      -3.676   1.292  12.789  1.00  0.00    -0.007 A 
BRANCH  11  17
HETATM   17  N6  UNL     1      -4.649   1.192  16.744  1.00  0.00    -0.221 N 
ATOM     18  H6  UNL     1      -3.902   1.363  17.417  1.00  0.00     0.178 HD
BRANCH  17  19
HETATM   19  C10 UNL     1      -5.949   0.927  17.270  1.00  0.00     0.099 C 
HETATM   20  C11 UNL     1      -6.107   1.311  18.715  1.00  0.00     0.026 C 
HETATM   21  C12 UNL     1      -6.320   2.789  18.720  1.00  0.00     0.002 C 
HETATM   22  C13 UNL     1      -6.959   3.120  17.370  1.00  0.00     0.002 C 
HETATM   23  C14 UNL     1      -6.935   1.839  16.573  1.00  0.00     0.026 C 
ENDBRANCH  17  19
ENDBRANCH  11  17
BRANCH  16  24
HETATM   24  C17 UNL     1      -3.354   1.353  11.367  1.00  0.00     0.022 A 
HETATM   25  C18 UNL     1      -3.060   0.049  10.624  1.00  0.00     0.010 A 
HETATM   26  C19 UNL     1      -1.957   1.015  10.852  1.00  0.00     0.010 A 
ENDBRANCH  16  24
ENDBRANCH   4   9
BRANCH   1  27
HETATM   27  N3  UNL     1      -4.131   6.648  11.659  1.00  0.00    -0.369 N 
ATOM     28  H3  UNL     1      -3.978   7.428  12.299  1.00  0.00     0.161 HD
BRANCH  27  29
HETATM   29  C5  UNL     1      -5.042   7.137  10.773  1.00  0.00     0.083 C 
HETATM   30  C4  UNL     1      -6.196   7.919  11.415  1.00  0.00     0.029 C 
HETATM   31  C3  UNL     1      -7.282   7.971  10.368  1.00  0.00     0.053 C 
HETATM   32  C2  UNL     1      -6.835   8.836   9.235  1.00  0.00     0.158 C 
HETATM   33  F1  UNL     1      -7.149  10.171   9.517  1.00  0.00    -0.235 F 
HETATM   34  C23 UNL     1      -5.431   8.670   8.793  1.00  0.00     0.053 C 
HETATM   35  C22 UNL     1      -4.468   8.059   9.744  1.00  0.00     0.029 C 
BRANCH  32  36
HETATM   36  C1  UNL     1      -7.701   8.462   8.056  1.00  0.00     0.127 C 
HETATM   37  N2  UNL     1      -9.106   8.718   8.067  1.00  0.00    -0.084 NA
BRANCH  36  38
HETATM   38  N1  UNL     1      -7.207   7.905   7.008  1.00  0.00    -0.388 N 
ATOM     39  H12 UNL     1      -7.739   7.832   6.141  1.00  0.00     0.157 HD
ATOM     40  H11 UNL     1      -6.258   7.535   7.074  1.00  0.00     0.157 HD
ENDBRANCH  36  38
ENDBRANCH  32  36
ENDBRANCH  27  29
ENDBRANCH   1  27
BRANCH   8  41
HETATM   41  O1  UNL     1      -1.548   7.271  11.583  1.00  0.00    -0.356 OA
ATOM     42  H1  UNL     1      -0.633   7.504  11.688  1.00  0.00     0.218 HD
ENDBRANCH   8  41
TORSDOF 9
ENDMDL
MODEL 4
REMARK VINA RESULT: -8.102885655      2.861      8.814
REMARK  9 active torsions:
REMARK  status: ('A' for Active; 'I' for Inactive)
REMARK    1  A    between atoms: N1_1  and  C1_4 
REMARK    2  A    between atoms: C1_4  and  C2_6 
REMARK    3  A    between atoms: C5_10  and  N3_11 
REMARK    4  A    between atoms: N3_11  and  C6_13 
REMARK    5  A    between atoms: C7_16  and  C8_17 
REMARK    6  A    between atoms: C9_20  and  N6_21 
REMARK    7  A    between atoms: N6_21  and  C10_23 
REMARK    8  A    between atoms: C16_31  and  C17_32 
REMARK    9  A    between atoms: C21_38  and  O1_39 
ROOT
HETATM    1  C6  UNL     1      -3.240   4.182  12.719  1.00  0.00     0.138 A 
HETATM    2  N4  UNL     1      -3.747   5.389  12.433  1.00  0.00    -0.325 N 
ATOM      3  H4  UNL     1      -4.327   5.843  13.139  1.00  0.00     0.169 HD
HETATM    4  C7  UNL     1      -3.538   6.052  11.252  1.00  0.00     0.135 A 
HETATM    5  N8  UNL     1      -2.780   5.412  10.384  1.00  0.00    -0.348 N 
ATOM      6  H8  UNL     1      -2.602   5.874   9.493  1.00  0.00     0.167 HD
HETATM    7  C20 UNL     1      -2.229   4.219  10.566  1.00  0.00     0.130 A 
HETATM    8  C21 UNL     1      -2.437   3.559  11.737  1.00  0.00     0.125 A 
ENDROOT
BRANCH   4   9
HETATM    9  C8  UNL     1      -4.148   7.362  11.048  1.00  0.00     0.101 A 
HETATM   10  N5  UNL     1      -5.416   7.401  10.558  1.00  0.00    -0.188 N 
HETATM   11  C9  UNL     1      -6.061   8.547  10.314  1.00  0.00     0.678 A 
ATOM     12  H5  UNL     1      -5.895   6.520  10.369  1.00  0.00     0.184 HD
HETATM   13  N7  UNL     1      -5.406   9.691  10.574  1.00  0.00    -0.201 N 
HETATM   14  C15 UNL     1      -4.152   9.712  11.059  1.00  0.00     0.116 A 
ATOM     15  H7  UNL     1      -5.878  10.578  10.397  1.00  0.00     0.183 HD
HETATM   16  C16 UNL     1      -3.471   8.519  11.317  1.00  0.00    -0.007 A 
BRANCH  11  17
HETATM   17  N6  UNL     1      -7.271   8.579   9.850  1.00  0.00    -0.221 N 
ATOM     18  H6  UNL     1      -7.934   9.195  10.321  1.00  0.00     0.178 HD
BRANCH  17  19
HETATM   19  C10 UNL     1      -7.759   7.829   8.738  1.00  0.00     0.099 C 
HETATM   20  C11 UNL     1      -9.219   8.049   8.452  1.00  0.00     0.026 C 
HETATM   21  C12 UNL     1      -9.295   9.345   7.713  1.00  0.00     0.002 C 
HETATM   22  C13 UNL     1      -7.952   9.491   6.995  1.00  0.00     0.002 C 
HETATM   23  C14 UNL     1      -7.091   8.352   7.486  1.00  0.00     0.026 C 
ENDBRANCH  17  19
ENDBRANCH  11  17
BRANCH  16  24
HETATM   24  C17 UNL     1      -2.123   8.482  11.873  1.00  0.00     0.022 A 
HETATM   25  C18 UNL     1      -1.951   8.590  13.389  1.00  0.00     0.010 A 
HETATM   26  C19 UNL     1      -1.497   9.711  12.529  1.00  0.00     0.010 A 
ENDBRANCH  16  24
ENDBRANCH   4   9
BRANCH   1  27
HETATM   27  N3  UNL     1      -3.415   3.566  13.753  1.00  0.00    -0.369 N 
ATOM     28  H3  UNL     1      -2.481   3.514  14.161  1.00  0.00     0.161 HD
BRANCH  27  29
HETATM   29  C5  UNL     1      -4.194   2.908  14.655  1.00  0.00     0.083 C 
HETATM   30  C4  UNL     1      -3.489   2.571  15.976  1.00  0.00     0.029 C 
HETATM   31  C3  UNL     1      -4.328   1.492  16.619  1.00  0.00     0.053 C 
HETATM   32  C2  UNL     1      -5.640   2.072  17.038  1.00  0.00     0.158 C 
HETATM   33  F1  UNL     1      -5.514   2.629  18.316  1.00  0.00    -0.235 F 
HETATM   34  C23 UNL     1      -6.288   2.998  16.081  1.00  0.00     0.053 C 
HETATM   35  C22 UNL     1      -5.436   3.644  15.051  1.00  0.00     0.029 C 
BRANCH  32  36
HETATM   36  C1  UNL     1      -6.580   0.902  17.204  1.00  0.00     0.127 C 
HETATM   37  N2  UNL     1      -6.079  -0.413  17.448  1.00  0.00    -0.084 NA
BRANCH  36  38
HETATM   38  N1  UNL     1      -7.855   1.048  17.131  1.00  0.00    -0.388 N 
ATOM     39  H12 UNL     1      -8.274   1.820  16.612  1.00  0.00     0.157 HD
ATOM     40  H11 UNL     1      -8.437   0.363  17.613  1.00  0.00     0.157 HD
ENDBRANCH  36  38
ENDBRANCH  32  36
ENDBRANCH  27  29
ENDBRANCH   1  27
BRANCH   8  41
HETATM   41  O1  UNL     1      -1.882   2.292  11.993  1.00  0.00    -0.356 OA
ATOM     42  H1  UNL     1      -2.162   1.544  11.480  1.00  0.00     0.218 HD
ENDBRANCH   8  41
TORSDOF 9
ENDMDL
MODEL 5
REMARK VINA RESULT: -8.050524422      3.535      9.026
REMARK  9 active torsions:
REMARK  status: ('A' for Active; 'I' for Inactive)
REMARK    1  A    between atoms: N1_1  and  C1_4 
REMARK    2  A    between atoms: C1_4  and  C2_6 
REMARK    3  A    between atoms: C5_10  and  N3_11 
REMARK    4  A    between atoms: N3_11  and  C6_13 
REMARK    5  A    between atoms: C7_16  and  C8_17 
REMARK    6  A    between atoms: C9_20  and  N6_21 
REMARK    7  A    between atoms: N6_21  and  C10_23 
REMARK    8  A    between atoms: C16_31  and  C17_32 
REMARK    9  A    between atoms: C21_38  and  O1_39 
ROOT
HETATM    1  C6  UNL     1      -3.231   4.694  13.005  1.00  0.00     0.138 A 
HETATM    2  N4  UNL     1      -3.234   6.031  12.918  1.00  0.00    -0.325 N 
ATOM      3  H4  UNL     1      -4.054   6.530  13.264  1.00  0.00     0.169 HD
HETATM    4  C7  UNL     1      -2.206   6.772  12.396  1.00  0.00     0.135 A 
HETATM    5  N8  UNL     1      -1.177   6.067  11.969  1.00  0.00    -0.348 N 
ATOM      6  H8  UNL     1      -0.392   6.583  11.573  1.00  0.00     0.167 HD
HETATM    7  C20 UNL     1      -1.072   4.745  12.009  1.00  0.00     0.130 A 
HETATM    8  C21 UNL     1      -2.092   4.009  12.526  1.00  0.00     0.125 A 
ENDROOT
BRANCH   4   9
HETATM    9  C8  UNL     1      -2.323   8.225  12.346  1.00  0.00     0.101 A 
HETATM   10  N5  UNL     1      -2.932   8.776  11.261  1.00  0.00    -0.188 N 
HETATM   11  C9  UNL     1      -3.073  10.096  11.106  1.00  0.00     0.678 A 
ATOM     12  H5  UNL     1      -3.295   8.156  10.537  1.00  0.00     0.184 HD
HETATM   13  N7  UNL     1      -2.587  10.888  12.076  1.00  0.00    -0.201 N 
HETATM   14  C15 UNL     1      -1.977  10.399  13.170  1.00  0.00     0.116 A 
ATOM     15  H7  UNL     1      -2.684  11.899  11.980  1.00  0.00     0.183 HD
HETATM   16  C16 UNL     1      -1.824   9.020  13.341  1.00  0.00    -0.007 A 
BRANCH  11  17
HETATM   17  N6  UNL     1      -3.657  10.616  10.071  1.00  0.00    -0.221 N 
ATOM     18  H6  UNL     1      -3.157  11.356   9.578  1.00  0.00     0.178 HD
BRANCH  17  19
HETATM   19  C10 UNL     1      -4.936  10.244   9.559  1.00  0.00     0.099 C 
HETATM   20  C11 UNL     1      -6.063  10.462  10.530  1.00  0.00     0.026 C 
HETATM   21  C12 UNL     1      -6.374  11.922  10.468  1.00  0.00     0.002 C 
HETATM   22  C13 UNL     1      -5.969  12.373   9.063  1.00  0.00     0.002 C 
HETATM   23  C14 UNL     1      -5.284  11.187   8.428  1.00  0.00     0.026 C 
ENDBRANCH  17  19
ENDBRANCH  11  17
BRANCH  16  24
HETATM   24  C17 UNL     1      -1.201   8.433  14.522  1.00  0.00     0.022 A 
HETATM   25  C18 UNL     1      -2.010   8.353  15.817  1.00  0.00     0.010 A 
HETATM   26  C19 UNL     1      -0.853   9.280  15.744  1.00  0.00     0.010 A 
ENDBRANCH  16  24
ENDBRANCH   4   9
BRANCH   1  27
HETATM   27  N3  UNL     1      -4.130   4.010  13.455  1.00  0.00    -0.369 N 
ATOM     28  H3  UNL     1      -4.821   4.000  12.705  1.00  0.00     0.161 HD
BRANCH  27  29
HETATM   29  C5  UNL     1      -4.705   3.250  14.428  1.00  0.00     0.083 C 
HETATM   30  C4  UNL     1      -3.779   2.921  15.607  1.00  0.00     0.029 C 
HETATM   31  C3  UNL     1      -4.419   1.748  16.310  1.00  0.00     0.053 C 
HETATM   32  C2  UNL     1      -5.692   2.192  16.953  1.00  0.00     0.158 C 
HETATM   33  F1  UNL     1      -5.415   2.706  18.225  1.00  0.00    -0.235 F 
HETATM   34  C23 UNL     1      -6.553   3.097  16.156  1.00  0.00     0.053 C 
HETATM   35  C22 UNL     1      -5.926   3.858  15.046  1.00  0.00     0.029 C 
BRANCH  32  36
HETATM   36  C1  UNL     1      -6.498   0.939  17.195  1.00  0.00     0.127 C 
HETATM   37  N2  UNL     1      -5.855  -0.310  17.448  1.00  0.00    -0.084 NA
BRANCH  36  38
HETATM   38  N1  UNL     1      -7.784   0.953  17.180  1.00  0.00    -0.388 N 
ATOM     39  H12 UNL     1      -8.317   1.585  17.779  1.00  0.00     0.157 HD
ATOM     40  H11 UNL     1      -8.256   0.307  16.547  1.00  0.00     0.157 HD
ENDBRANCH  36  38
ENDBRANCH  32  36
ENDBRANCH  27  29
ENDBRANCH   1  27
BRANCH   8  41
HETATM   41  O1  UNL     1      -2.043   2.605  12.597  1.00  0.00    -0.356 OA
ATOM     42  H1  UNL     1      -1.293   2.181  12.997  1.00  0.00     0.218 HD
ENDBRANCH   8  41
TORSDOF 9
ENDMDL
