MODEL 1
REMARK VINA RESULT: -5.461988206      0.000      0.000
REMARK  5 active torsions:
REMARK  status: ('A' for Active; 'I' for Inactive)
REMARK    1  A    between atoms: C2_2  and  S1_4 
REMARK    2  A    between atoms: S1_4  and  C4_5 
REMARK    3  A    between atoms: C4_5  and  C5_7 
REMARK    4  A    between atoms: C8_13  and  C9_14 
REMARK    5  A    between atoms: C9_14  and  O4_15 
ROOT
HETATM    1  C5  UNL     1     -22.426  -5.621  78.007  1.00  0.00     0.233 C 
HETATM    2  O2  UNL     1     -21.886  -5.976  76.777  1.00  0.00    -0.371 OA
HETATM    3  C6  UNL     1     -22.449  -7.167  76.359  1.00  0.00     0.212 C 
HETATM    4  C7  UNL     1     -23.891  -6.913  76.028  1.00  0.00     0.217 C 
HETATM    5 BR1  UNL     1     -24.962  -8.529  76.211  1.00  0.00    -0.059 Br
HETATM    6  O3  UNL     1     -24.474  -5.915  76.761  1.00  0.00    -0.362 OA
HETATM    7  C8  UNL     1     -23.931  -5.700  78.000  1.00  0.00     0.183 C 
ENDROOT
BRANCH   1   8
HETATM    8  C4  UNL     1     -22.011  -4.275  78.450  1.00  0.00     0.217 C 
HETATM    9  O1  UNL     1     -20.833  -3.989  78.364  1.00  0.00    -0.282 OA
BRANCH   8  10
HETATM   10  S1  UNL     1     -23.108  -3.042  79.099  1.00  0.00    -0.086 SA
BRANCH  10  11
HETATM   11  C2  UNL     1     -22.973  -2.981  80.891  1.00  0.00     0.047 C 
HETATM   12  C1  UNL     1     -24.356  -2.916  81.500  1.00  0.00     0.021 C 
HETATM   13  C3  UNL     1     -22.163  -1.803  81.371  1.00  0.00     0.021 C 
ENDBRANCH  10  11
ENDBRANCH   8  10
ENDBRANCH   1   8
BRANCH   7  14
HETATM   14  C9  UNL     1     -24.352  -6.741  79.018  1.00  0.00     0.199 C 
BRANCH  14  15
HETATM   15  O4  UNL     1     -25.548  -6.372  79.631  1.00  0.00    -0.398 OA
ATOM     16  H4  UNL     1     -25.588  -6.709  80.519  1.00  0.00     0.209 HD
ENDBRANCH  14  15
ENDBRANCH   7  14
TORSDOF 5
ENDMDL
MODEL 2
REMARK VINA RESULT: -5.454424895      1.361      2.464
REMARK  5 active torsions:
REMARK  status: ('A' for Active; 'I' for Inactive)
REMARK    1  A    between atoms: C2_2  and  S1_4 
REMARK    2  A    between atoms: S1_4  and  C4_5 
REMARK    3  A    between atoms: C4_5  and  C5_7 
REMARK    4  A    between atoms: C8_13  and  C9_14 
REMARK    5  A    between atoms: C9_14  and  O4_15 
ROOT
HETATM    1  C5  UNL     1     -22.943  -4.408  78.287  1.00  0.00     0.233 C 
HETATM    2  O2  UNL     1     -24.102  -4.461  79.052  1.00  0.00    -0.371 OA
HETATM    3  C6  UNL     1     -24.990  -5.346  78.471  1.00  0.00     0.212 C 
HETATM    4  C7  UNL     1     -24.433  -6.733  78.617  1.00  0.00     0.217 C 
HETATM    5 BR1  UNL     1     -25.098  -7.921  77.226  1.00  0.00    -0.059 Br
HETATM    6  O3  UNL     1     -23.066  -6.796  78.631  1.00  0.00    -0.362 OA
HETATM    7  C8  UNL     1     -22.423  -5.785  77.966  1.00  0.00     0.183 C 
ENDROOT
BRANCH   1   8
HETATM    8  C4  UNL     1     -21.870  -3.619  78.924  1.00  0.00     0.217 C 
HETATM    9  O1  UNL     1     -20.725  -3.997  78.776  1.00  0.00    -0.282 OA
BRANCH   8  10
HETATM   10  S1  UNL     1     -22.131  -2.156  79.892  1.00  0.00    -0.086 SA
BRANCH  10  11
HETATM   11  C2  UNL     1     -22.392  -2.597  81.616  1.00  0.00     0.047 C 
HETATM   12  C1  UNL     1     -23.813  -2.264  82.012  1.00  0.00     0.021 C 
HETATM   13  C3  UNL     1     -21.438  -1.891  82.546  1.00  0.00     0.021 C 
ENDBRANCH  10  11
ENDBRANCH   8  10
ENDBRANCH   1   8
BRANCH   7  14
HETATM   14  C9  UNL     1     -22.450  -5.959  76.461  1.00  0.00     0.199 C 
BRANCH  14  15
HETATM   15  O4  UNL     1     -21.726  -7.089  76.084  1.00  0.00    -0.398 OA
ATOM     16  H4  UNL     1     -22.270  -7.683  75.579  1.00  0.00     0.209 HD
ENDBRANCH  14  15
ENDBRANCH   7  14
TORSDOF 5
ENDMDL
MODEL 3
REMARK VINA RESULT: -5.314793807      3.097      5.189
REMARK  5 active torsions:
REMARK  status: ('A' for Active; 'I' for Inactive)
REMARK    1  A    between atoms: C2_2  and  S1_4 
REMARK    2  A    between atoms: S1_4  and  C4_5 
REMARK    3  A    between atoms: C4_5  and  C5_7 
REMARK    4  A    between atoms: C8_13  and  C9_14 
REMARK    5  A    between atoms: C9_14  and  O4_15 
ROOT
HETATM    1  C5  UNL     1     -22.035  -3.435  79.324  1.00  0.00     0.233 C 
HETATM    2  O2  UNL     1     -21.319  -2.382  79.879  1.00  0.00    -0.371 OA
HETATM    3  C6  UNL     1     -22.178  -1.580  80.607  1.00  0.00     0.212 C 
HETATM    4  C7  UNL     1     -22.626  -2.350  81.815  1.00  0.00     0.217 C 
HETATM    5 BR1  UNL     1     -24.356  -1.730  82.458  1.00  0.00    -0.059 Br
HETATM    6  O3  UNL     1     -22.685  -3.705  81.635  1.00  0.00    -0.362 OA
HETATM    7  C8  UNL     1     -22.905  -4.119  80.347  1.00  0.00     0.183 C 
ENDROOT
BRANCH   1   8
HETATM    8  C4  UNL     1     -21.169  -4.439  78.673  1.00  0.00     0.217 C 
HETATM    9  O1  UNL     1     -20.030  -4.114  78.403  1.00  0.00    -0.282 OA
BRANCH   8  10
HETATM   10  S1  UNL     1     -21.672  -6.087  78.253  1.00  0.00    -0.086 SA
BRANCH  10  11
HETATM   11  C2  UNL     1     -23.029  -6.035  77.075  1.00  0.00     0.047 C 
HETATM   12  C1  UNL     1     -24.239  -6.722  77.668  1.00  0.00     0.021 C 
HETATM   13  C3  UNL     1     -22.681  -6.689  75.761  1.00  0.00     0.021 C 
ENDBRANCH  10  11
ENDBRANCH   8  10
ENDBRANCH   1   8
BRANCH   7  14
HETATM   14  C9  UNL     1     -24.349  -3.964  79.916  1.00  0.00     0.199 C 
BRANCH  14  15
HETATM   15  O4  UNL     1     -24.433  -3.230  78.734  1.00  0.00    -0.398 OA
ATOM     16  H4  UNL     1     -23.742  -2.579  78.695  1.00  0.00     0.209 HD
ENDBRANCH  14  15
ENDBRANCH   7  14
TORSDOF 5
ENDMDL
MODEL 4
REMARK VINA RESULT: -5.276705207      1.360      2.617
REMARK  5 active torsions:
REMARK  status: ('A' for Active; 'I' for Inactive)
REMARK    1  A    between atoms: C2_2  and  S1_4 
REMARK    2  A    between atoms: S1_4  and  C4_5 
REMARK    3  A    between atoms: C4_5  and  C5_7 
REMARK    4  A    between atoms: C8_13  and  C9_14 
REMARK    5  A    between atoms: C9_14  and  O4_15 
ROOT
HETATM    1  C5  UNL     1     -23.297  -4.568  78.522  1.00  0.00     0.233 C 
HETATM    2  O2  UNL     1     -24.550  -4.733  79.099  1.00  0.00    -0.371 OA
HETATM    3  C6  UNL     1     -25.306  -5.581  78.311  1.00  0.00     0.212 C 
HETATM    4  C7  UNL     1     -24.715  -6.957  78.403  1.00  0.00     0.217 C 
HETATM    5 BR1  UNL     1     -25.120  -8.017  76.820  1.00  0.00    -0.059 Br
HETATM    6  O3  UNL     1     -23.362  -6.981  78.612  1.00  0.00    -0.362 OA
HETATM    7  C8  UNL     1     -22.675  -5.889  78.149  1.00  0.00     0.183 C 
ENDROOT
BRANCH   1   8
HETATM    8  C4  UNL     1     -22.363  -3.816  79.384  1.00  0.00     0.217 C 
HETATM    9  O1  UNL     1     -21.450  -4.430  79.900  1.00  0.00    -0.282 OA
BRANCH   8  10
HETATM   10  S1  UNL     1     -22.476  -2.079  79.723  1.00  0.00    -0.086 SA
BRANCH  10  11
HETATM   11  C2  UNL     1     -22.839  -1.814  81.463  1.00  0.00     0.047 C 
HETATM   12  C1  UNL     1     -21.555  -1.869  82.261  1.00  0.00     0.021 C 
HETATM   13  C3  UNL     1     -23.809  -2.828  82.015  1.00  0.00     0.021 C 
ENDBRANCH  10  11
ENDBRANCH   8  10
ENDBRANCH   1   8
BRANCH   7  14
HETATM   14  C9  UNL     1     -22.478  -5.909  76.647  1.00  0.00     0.199 C 
BRANCH  14  15
HETATM   15  O4  UNL     1     -21.688  -6.994  76.270  1.00  0.00    -0.398 OA
ATOM     16  H4  UNL     1     -20.999  -6.716  75.677  1.00  0.00     0.209 HD
ENDBRANCH  14  15
ENDBRANCH   7  14
TORSDOF 5
ENDMDL
MODEL 5
REMARK VINA RESULT: -5.187814398      1.285      1.705
REMARK  5 active torsions:
REMARK  status: ('A' for Active; 'I' for Inactive)
REMARK    1  A    between atoms: C2_2  and  S1_4 
REMARK    2  A    between atoms: S1_4  and  C4_5 
REMARK    3  A    between atoms: C4_5  and  C5_7 
REMARK    4  A    between atoms: C8_13  and  C9_14 
REMARK    5  A    between atoms: C9_14  and  O4_15 
ROOT
HETATM    1  C5  UNL     1     -23.663  -5.203  78.510  1.00  0.00     0.233 C 
HETATM    2  O2  UNL     1     -22.841  -5.381  77.404  1.00  0.00    -0.371 OA
HETATM    3  C6  UNL     1     -22.981  -6.675  76.936  1.00  0.00     0.212 C 
HETATM    4  C7  UNL     1     -24.357  -6.815  76.353  1.00  0.00     0.217 C 
HETATM    5 BR1  UNL     1     -24.970  -8.663  76.403  1.00  0.00    -0.059 Br
HETATM    6  O3  UNL     1     -25.306  -6.023  76.939  1.00  0.00    -0.362 OA
HETATM    7  C8  UNL     1     -25.066  -5.685  78.246  1.00  0.00     0.183 C 
ENDROOT
BRANCH   1   8
HETATM    8  C4  UNL     1     -23.709  -3.801  78.971  1.00  0.00     0.217 C 
HETATM    9  O1  UNL     1     -24.761  -3.204  78.862  1.00  0.00    -0.282 OA
BRANCH   8  10
HETATM   10  S1  UNL     1     -22.337  -2.922  79.672  1.00  0.00    -0.086 SA
BRANCH  10  11
HETATM   11  C2  UNL     1     -22.851  -2.076  81.173  1.00  0.00     0.047 C 
HETATM   12  C1  UNL     1     -21.635  -1.753  82.012  1.00  0.00     0.021 C 
HETATM   13  C3  UNL     1     -23.819  -2.890  81.995  1.00  0.00     0.021 C 
ENDBRANCH  10  11
ENDBRANCH   8  10
ENDBRANCH   1   8
BRANCH   7  14
HETATM   14  C9  UNL     1     -25.364  -6.815  79.211  1.00  0.00     0.199 C 
BRANCH  14  15
HETATM   15  O4  UNL     1     -26.124  -6.356  80.285  1.00  0.00    -0.398 OA
ATOM     16  H4  UNL     1     -26.288  -7.058  80.904  1.00  0.00     0.209 HD
ENDBRANCH  14  15
ENDBRANCH   7  14
TORSDOF 5
ENDMDL
