MODEL 1
REMARK VINA RESULT: -8.017075634      0.000      0.000
REMARK  3 active torsions:
REMARK  status: ('A' for Active; 'I' for Inactive)
REMARK    1  A    between atoms: O1_1  and  C1_3 
REMARK    2  A    between atoms: N1_6  and  C4_7 
REMARK    3  A    between atoms: C7_13  and  C8_14 
ROOT
HETATM    1  C4  UNL     1     -23.009  -4.551  79.281  1.00  0.00     0.680 A 
HETATM    2  N2  UNL     1     -21.731  -4.614  78.793  1.00  0.00    -0.199 N 
ATOM      3  H2  UNL     1     -21.061  -3.916  79.115  1.00  0.00     0.183 HD
HETATM    4  C5  UNL     1     -21.309  -5.529  77.926  1.00  0.00     0.150 A 
HETATM    5  C6  UNL     1     -22.199  -6.466  77.491  1.00  0.00     0.155 A 
HETATM    6  F1  UNL     1     -21.853  -7.475  76.628  1.00  0.00    -0.203 F 
HETATM    7  C7  UNL     1     -23.530  -6.461  77.954  1.00  0.00     0.071 A 
HETATM    8  N4  UNL     1     -23.856  -5.498  78.829  1.00  0.00    -0.192 N 
ATOM      9  H4  UNL     1     -24.815  -5.480  79.177  1.00  0.00     0.184 HD
ENDROOT
BRANCH   7  10
HETATM   10  C8  UNL     1     -24.479  -7.414  77.325  1.00  0.00     0.045 C 
HETATM   11  C9  UNL     1     -25.794  -6.636  77.234  1.00  0.00     0.041 C 
HETATM   12  C10 UNL     1     -26.914  -7.477  76.735  1.00  0.00     0.273 C 
HETATM   13  N3  UNL     1     -26.715  -7.923  75.373  1.00  0.00     0.088 N 
HETATM   14  C11 UNL     1     -26.040  -9.166  75.272  1.00  0.00     0.272 C 
HETATM   15  C15 UNL     1     -26.060  -6.912  74.584  1.00  0.00     0.272 C 
HETATM   16  C12 UNL     1     -24.564  -9.139  75.579  1.00  0.00     0.035 C 
HETATM   17  C13 UNL     1     -24.070  -7.765  75.889  1.00  0.00    -0.001 C 
HETATM   18  C14 UNL     1     -24.618  -6.743  74.906  1.00  0.00     0.035 C 
ENDBRANCH   7  10
BRANCH   1  19
HETATM   19  N1  UNL     1     -23.318  -3.457  80.108  1.00  0.00    -0.215 N 
HETATM   20  C3  UNL     1     -24.356  -3.152  81.038  1.00  0.00     0.144 C 
HETATM   21  C2  UNL     1     -23.868  -1.950  81.860  1.00  0.00     0.054 C 
HETATM   22  C1  UNL     1     -22.387  -1.960  81.574  1.00  0.00     0.138 C 
HETATM   23  C16 UNL     1     -22.424  -2.258  80.067  1.00  0.00     0.173 C 
BRANCH  22  24
HETATM   24  O1  UNL     1     -21.797  -3.025  82.255  1.00  0.00    -0.394 OA
ATOM     25  H1  UNL     1     -21.283  -3.540  81.643  1.00  0.00     0.210 HD
ENDBRANCH  22  24
ENDBRANCH   1  19
TORSDOF 3
ENDMDL
MODEL 2
REMARK VINA RESULT: -7.765458485      1.241      1.978
REMARK  3 active torsions:
REMARK  status: ('A' for Active; 'I' for Inactive)
REMARK    1  A    between atoms: O1_1  and  C1_3 
REMARK    2  A    between atoms: N1_6  and  C4_7 
REMARK    3  A    between atoms: C7_13  and  C8_14 
ROOT
HETATM    1  C4  UNL     1     -23.353  -5.381  78.091  1.00  0.00     0.680 A 
HETATM    2  N2  UNL     1     -22.029  -5.721  78.028  1.00  0.00    -0.199 N 
ATOM      3  H2  UNL     1     -21.386  -5.263  78.675  1.00  0.00     0.183 HD
HETATM    4  C5  UNL     1     -21.528  -6.611  77.178  1.00  0.00     0.150 A 
HETATM    5  C6  UNL     1     -22.381  -7.228  76.310  1.00  0.00     0.155 A 
HETATM    6  F1  UNL     1     -21.971  -8.188  75.421  1.00  0.00    -0.203 F 
HETATM    7  C7  UNL     1     -23.757  -6.926  76.322  1.00  0.00     0.071 A 
HETATM    8  N4  UNL     1     -24.164  -6.015  77.220  1.00  0.00    -0.192 N 
ATOM      9  H4  UNL     1     -25.158  -5.786  77.244  1.00  0.00     0.184 HD
ENDROOT
BRANCH   7  10
HETATM   10  C8  UNL     1     -24.599  -7.520  75.253  1.00  0.00     0.045 C 
HETATM   11  C9  UNL     1     -25.203  -8.770  75.894  1.00  0.00     0.041 C 
HETATM   12  C10 UNL     1     -25.992  -9.578  74.927  1.00  0.00     0.273 C 
HETATM   13  N3  UNL     1     -27.160  -8.878  74.436  1.00  0.00     0.088 N 
HETATM   14  C11 UNL     1     -26.920  -8.122  73.260  1.00  0.00     0.272 C 
HETATM   15  C15 UNL     1     -27.749  -8.063  75.466  1.00  0.00     0.272 C 
HETATM   16  C12 UNL     1     -26.123  -6.855  73.445  1.00  0.00     0.035 C 
HETATM   17  C13 UNL     1     -25.770  -6.605  74.873  1.00  0.00    -0.001 C 
HETATM   18  C14 UNL     1     -26.961  -6.844  75.789  1.00  0.00     0.035 C 
ENDBRANCH   7  10
BRANCH   1  19
HETATM   19  N1  UNL     1     -23.700  -4.344  78.975  1.00  0.00    -0.215 N 
HETATM   20  C3  UNL     1     -24.551  -4.227  80.114  1.00  0.00     0.144 C 
HETATM   21  C2  UNL     1     -24.164  -2.918  80.818  1.00  0.00     0.054 C 
HETATM   22  C1  UNL     1     -22.813  -2.630  80.211  1.00  0.00     0.138 C 
HETATM   23  C16 UNL     1     -23.113  -2.987  78.747  1.00  0.00     0.173 C 
BRANCH  22  24
HETATM   24  O1  UNL     1     -21.876  -3.521  80.736  1.00  0.00    -0.394 OA
ATOM     25  H1  UNL     1     -21.471  -3.131  81.503  1.00  0.00     0.210 HD
ENDBRANCH  22  24
ENDBRANCH   1  19
TORSDOF 3
ENDMDL
MODEL 3
REMARK VINA RESULT: -7.473679535      1.376      1.735
REMARK  3 active torsions:
REMARK  status: ('A' for Active; 'I' for Inactive)
REMARK    1  A    between atoms: O1_1  and  C1_3 
REMARK    2  A    between atoms: N1_6  and  C4_7 
REMARK    3  A    between atoms: C7_13  and  C8_14 
ROOT
HETATM    1  C4  UNL     1     -23.481  -5.442  78.006  1.00  0.00     0.680 A 
HETATM    2  N2  UNL     1     -22.203  -5.724  77.604  1.00  0.00    -0.199 N 
ATOM      3  H2  UNL     1     -21.443  -5.172  78.003  1.00  0.00     0.183 HD
HETATM    4  C5  UNL     1     -21.890  -6.672  76.726  1.00  0.00     0.150 A 
HETATM    5  C6  UNL     1     -22.899  -7.413  76.187  1.00  0.00     0.155 A 
HETATM    6  F1  UNL     1     -22.679  -8.438  75.304  1.00  0.00    -0.203 F 
HETATM    7  C7  UNL     1     -24.238  -7.178  76.558  1.00  0.00     0.071 A 
HETATM    8  N4  UNL     1     -24.450  -6.200  77.453  1.00  0.00    -0.192 N 
ATOM      9  H4  UNL     1     -25.413  -6.017  77.735  1.00  0.00     0.184 HD
ENDROOT
BRANCH   7  10
HETATM   10  C8  UNL     1     -25.295  -7.917  75.821  1.00  0.00     0.045 C 
HETATM   11  C9  UNL     1     -26.606  -7.313  76.329  1.00  0.00     0.041 C 
HETATM   12  C10 UNL     1     -27.799  -8.018  75.790  1.00  0.00     0.273 C 
HETATM   13  N3  UNL     1     -27.924  -7.886  74.354  1.00  0.00     0.088 N 
HETATM   14  C11 UNL     1     -27.272  -8.914  73.627  1.00  0.00     0.272 C 
HETATM   15  C15 UNL     1     -27.495  -6.585  73.911  1.00  0.00     0.272 C 
HETATM   16  C12 UNL     1     -25.766  -8.843  73.596  1.00  0.00     0.035 C 
HETATM   17  C13 UNL     1     -25.235  -7.646  74.313  1.00  0.00    -0.001 C 
HETATM   18  C14 UNL     1     -26.021  -6.393  73.957  1.00  0.00     0.035 C 
ENDBRANCH   7  10
BRANCH   1  19
HETATM   19  N1  UNL     1     -23.648  -4.339  78.860  1.00  0.00    -0.215 N 
HETATM   20  C3  UNL     1     -24.390  -4.083  80.052  1.00  0.00     0.144 C 
HETATM   21  C2  UNL     1     -23.815  -2.795  80.658  1.00  0.00     0.054 C 
HETATM   22  C1  UNL     1     -22.493  -2.679  79.941  1.00  0.00     0.138 C 
HETATM   23  C16 UNL     1     -22.942  -3.063  78.522  1.00  0.00     0.173 C 
BRANCH  22  24
HETATM   24  O1  UNL     1     -21.616  -3.643  80.439  1.00  0.00    -0.394 OA
ATOM     25  H1  UNL     1     -21.039  -3.239  81.077  1.00  0.00     0.210 HD
ENDBRANCH  22  24
ENDBRANCH   1  19
TORSDOF 3
ENDMDL
MODEL 4
REMARK VINA RESULT: -7.273738596      2.154      3.303
REMARK  3 active torsions:
REMARK  status: ('A' for Active; 'I' for Inactive)
REMARK    1  A    between atoms: O1_1  and  C1_3 
REMARK    2  A    between atoms: N1_6  and  C4_7 
REMARK    3  A    between atoms: C7_13  and  C8_14 
ROOT
HETATM    1  C4  UNL     1     -24.121  -5.714  78.261  1.00  0.00     0.680 A 
HETATM    2  N2  UNL     1     -25.156  -5.736  79.157  1.00  0.00    -0.199 N 
ATOM      3  H2  UNL     1     -25.033  -5.246  80.043  1.00  0.00     0.183 HD
HETATM    4  C5  UNL     1     -26.312  -6.357  78.944  1.00  0.00     0.150 A 
HETATM    5  C6  UNL     1     -26.485  -7.015  77.763  1.00  0.00     0.155 A 
HETATM    6  F1  UNL     1     -27.652  -7.653  77.431  1.00  0.00    -0.203 F 
HETATM    7  C7  UNL     1     -25.461  -7.031  76.794  1.00  0.00     0.071 A 
HETATM    8  N4  UNL     1     -24.333  -6.373  77.104  1.00  0.00    -0.192 N 
ATOM      9  H4  UNL     1     -23.582  -6.372  76.414  1.00  0.00     0.184 HD
ENDROOT
BRANCH   7  10
HETATM   10  C8  UNL     1     -25.659  -7.891  75.600  1.00  0.00     0.045 C 
HETATM   11  C9  UNL     1     -25.320  -6.981  74.417  1.00  0.00     0.041 C 
HETATM   12  C10 UNL     1     -25.580  -7.637  73.108  1.00  0.00     0.273 C 
HETATM   13  N3  UNL     1     -24.730  -8.785  72.878  1.00  0.00     0.088 N 
HETATM   14  C11 UNL     1     -25.283 -10.006  73.341  1.00  0.00     0.272 C 
HETATM   15  C15 UNL     1     -23.413  -8.573  73.420  1.00  0.00     0.272 C 
HETATM   16  C12 UNL     1     -25.296 -10.196  74.837  1.00  0.00     0.035 C 
HETATM   17  C13 UNL     1     -24.663  -9.057  75.564  1.00  0.00    -0.001 C 
HETATM   18  C14 UNL     1     -23.359  -8.633  74.905  1.00  0.00     0.035 C 
ENDBRANCH   7  10
BRANCH   1  19
HETATM   19  N1  UNL     1     -22.929  -5.102  78.685  1.00  0.00    -0.215 N 
HETATM   20  C3  UNL     1     -21.607  -4.985  78.160  1.00  0.00     0.144 C 
HETATM   21  C2  UNL     1     -20.918  -3.866  78.954  1.00  0.00     0.054 C 
HETATM   22  C1  UNL     1     -22.094  -3.167  79.588  1.00  0.00     0.138 C 
HETATM   23  C16 UNL     1     -22.922  -4.393  80.003  1.00  0.00     0.173 C 
BRANCH  22  24
HETATM   24  O1  UNL     1     -22.776  -2.441  78.611  1.00  0.00    -0.394 OA
ATOM     25  H1  UNL     1     -23.022  -3.026  77.903  1.00  0.00     0.210 HD
ENDBRANCH  22  24
ENDBRANCH   1  19
TORSDOF 3
ENDMDL
MODEL 5
REMARK VINA RESULT: -7.139389788      0.796      1.610
REMARK  3 active torsions:
REMARK  status: ('A' for Active; 'I' for Inactive)
REMARK    1  A    between atoms: O1_1  and  C1_3 
REMARK    2  A    between atoms: N1_6  and  C4_7 
REMARK    3  A    between atoms: C7_13  and  C8_14 
ROOT
HETATM    1  C4  UNL     1     -23.251  -4.404  79.190  1.00  0.00     0.680 A 
HETATM    2  N2  UNL     1     -21.951  -4.809  79.053  1.00  0.00    -0.199 N 
ATOM      3  H2  UNL     1     -21.254  -4.400  79.676  1.00  0.00     0.183 HD
HETATM    4  C5  UNL     1     -21.539  -5.701  78.158  1.00  0.00     0.150 A 
HETATM    5  C6  UNL     1     -22.464  -6.252  77.320  1.00  0.00     0.155 A 
HETATM    6  F1  UNL     1     -22.148  -7.208  76.390  1.00  0.00    -0.203 F 
HETATM    7  C7  UNL     1     -23.821  -5.881  77.408  1.00  0.00     0.071 A 
HETATM    8  N4  UNL     1     -24.135  -4.974  78.346  1.00  0.00    -0.192 N 
ATOM      9  H4  UNL     1     -25.114  -4.696  78.425  1.00  0.00     0.184 HD
ENDROOT
BRANCH   7  10
HETATM   10  C8  UNL     1     -24.744  -6.404  76.369  1.00  0.00     0.045 C 
HETATM   11  C9  UNL     1     -23.819  -6.956  75.282  1.00  0.00     0.041 C 
HETATM   12  C10 UNL     1     -24.569  -7.420  74.085  1.00  0.00     0.273 C 
HETATM   13  N3  UNL     1     -25.433  -8.546  74.368  1.00  0.00     0.088 N 
HETATM   14  C11 UNL     1     -26.744  -8.175  74.762  1.00  0.00     0.272 C 
HETATM   15  C15 UNL     1     -24.834  -9.433  75.330  1.00  0.00     0.272 C 
HETATM   16  C12 UNL     1     -26.875  -7.605  76.151  1.00  0.00     0.035 C 
HETATM   17  C13 UNL     1     -25.576  -7.584  76.886  1.00  0.00    -0.001 C 
HETATM   18  C14 UNL     1     -24.822  -8.894  76.716  1.00  0.00     0.035 C 
ENDBRANCH   7  10
BRANCH   1  19
HETATM   19  N1  UNL     1     -23.501  -3.374  80.114  1.00  0.00    -0.215 N 
HETATM   20  C3  UNL     1     -24.503  -3.114  81.095  1.00  0.00     0.144 C 
HETATM   21  C2  UNL     1     -23.953  -2.003  82.000  1.00  0.00     0.054 C 
HETATM   22  C1  UNL     1     -22.481  -2.038  81.672  1.00  0.00     0.138 C 
HETATM   23  C16 UNL     1     -22.566  -2.206  80.147  1.00  0.00     0.173 C 
BRANCH  22  24
HETATM   24  O1  UNL     1     -21.912  -3.176  82.245  1.00  0.00    -0.394 OA
ATOM     25  H1  UNL     1     -22.452  -3.462  82.972  1.00  0.00     0.210 HD
ENDBRANCH  22  24
ENDBRANCH   1  19
TORSDOF 3
ENDMDL
