MODEL 1
REMARK VINA RESULT: -6.111824315      0.000      0.000
REMARK  3 active torsions:
REMARK  status: ('A' for Active; 'I' for Inactive)
REMARK    1  A    between atoms: C2_2  and  O1_3 
REMARK    2  A    between atoms: O1_3  and  C3_4 
REMARK    3  A    between atoms: C8_14  and  C9_15 
ROOT
HETATM    1  C1  UNL     1     -23.598  -7.681  78.775  1.00  0.00     0.048 C 
HETATM    2  C2  UNL     1     -23.227  -6.248  78.442  1.00  0.00     0.082 C 
HETATM    3  C7  UNL     1     -24.495  -5.562  77.998  1.00  0.00     0.157 C 
HETATM    4  N1  UNL     1     -24.794  -6.339  76.784  1.00  0.00    -0.390 N 
ATOM      5  H1  UNL     1     -25.731  -6.523  76.425  1.00  0.00     0.159 HD
HETATM    6  C8  UNL     1     -23.702  -6.755  76.238  1.00  0.00     0.008 C 
HETATM    7  C11 UNL     1     -22.537  -6.298  77.065  1.00  0.00     0.096 C 
ENDROOT
BRANCH   2   8
HETATM    8  O1  UNL     1     -22.432  -5.613  79.298  1.00  0.00    -0.339 OA
BRANCH   8   9
HETATM    9  C3  UNL     1     -22.295  -4.295  79.368  1.00  0.00     0.362 C 
HETATM   10  O2  UNL     1     -22.981  -3.690  80.475  1.00  0.00    -0.350 OA
HETATM   11  C4  UNL     1     -22.900  -2.323  80.197  1.00  0.00     0.198 C 
HETATM   12  C5  UNL     1     -21.579  -1.853  80.744  1.00  0.00     0.205 C 
HETATM   13  O3  UNL     1     -20.593  -2.791  80.266  1.00  0.00    -0.316 OA
HETATM   14  C6  UNL     1     -20.940  -3.713  79.285  1.00  0.00     0.314 C 
HETATM   15  O4  UNL     1     -20.155  -4.025  78.392  1.00  0.00    -0.260 OA
ENDBRANCH   8   9
ENDBRANCH   2   8
BRANCH   6  16
HETATM   16  C9  UNL     1     -23.531  -7.552  75.033  1.00  0.00     0.032 C 
HETATM   17  C10 UNL     1     -22.433  -8.240  74.798  1.00  0.00     0.058 C 
HETATM   18 BR1  UNL     1     -22.175  -9.292  73.238  1.00  0.00    -0.064 Br
ENDBRANCH   6  16
TORSDOF 3
ENDMDL
MODEL 2
REMARK VINA RESULT: -5.972909960      2.870      3.585
REMARK  3 active torsions:
REMARK  status: ('A' for Active; 'I' for Inactive)
REMARK    1  A    between atoms: C2_2  and  O1_3 
REMARK    2  A    between atoms: O1_3  and  C3_4 
REMARK    3  A    between atoms: C8_14  and  C9_15 
ROOT
HETATM    1  C1  UNL     1     -25.113  -4.041  78.297  1.00  0.00     0.048 C 
HETATM    2  C2  UNL     1     -24.221  -5.176  78.763  1.00  0.00     0.082 C 
HETATM    3  C7  UNL     1     -23.814  -5.944  77.531  1.00  0.00     0.157 C 
HETATM    4  N1  UNL     1     -25.130  -6.437  77.091  1.00  0.00    -0.390 N 
ATOM      5  H1  UNL     1     -25.393  -6.610  76.120  1.00  0.00     0.159 HD
HETATM    6  C8  UNL     1     -25.903  -6.618  78.107  1.00  0.00     0.008 C 
HETATM    7  C11 UNL     1     -25.165  -6.240  79.357  1.00  0.00     0.096 C 
ENDROOT
BRANCH   2   8
HETATM    8  O1  UNL     1     -23.286  -4.882  79.662  1.00  0.00    -0.339 OA
BRANCH   8   9
HETATM    9  C3  UNL     1     -22.798  -3.667  79.875  1.00  0.00     0.362 C 
HETATM   10  O2  UNL     1     -22.995  -3.178  81.211  1.00  0.00    -0.350 OA
HETATM   11  C4  UNL     1     -22.635  -1.831  81.120  1.00  0.00     0.198 C 
HETATM   12  C5  UNL     1     -21.143  -1.774  81.306  1.00  0.00     0.205 C 
HETATM   13  O3  UNL     1     -20.592  -2.774  80.425  1.00  0.00    -0.316 OA
HETATM   14  C6  UNL     1     -21.407  -3.376  79.472  1.00  0.00     0.314 C 
HETATM   15  O4  UNL     1     -20.987  -3.649  78.350  1.00  0.00    -0.260 OA
ENDBRANCH   8   9
ENDBRANCH   2   8
BRANCH   6  16
HETATM   16  C9  UNL     1     -27.279  -7.091  78.134  1.00  0.00     0.032 C 
HETATM   17  C10 UNL     1     -27.983  -7.137  79.245  1.00  0.00     0.058 C 
HETATM   18 BR1  UNL     1     -29.780  -7.746  79.317  1.00  0.00    -0.064 Br
ENDBRANCH   6  16
TORSDOF 3
ENDMDL
MODEL 3
REMARK VINA RESULT: -5.887068940      1.824      2.252
REMARK  3 active torsions:
REMARK  status: ('A' for Active; 'I' for Inactive)
REMARK    1  A    between atoms: C2_2  and  O1_3 
REMARK    2  A    between atoms: O1_3  and  C3_4 
REMARK    3  A    between atoms: C8_14  and  C9_15 
ROOT
HETATM    1  C1  UNL     1     -22.501  -6.304  76.979  1.00  0.00     0.048 C 
HETATM    2  C2  UNL     1     -23.139  -6.260  78.355  1.00  0.00     0.082 C 
HETATM    3  C7  UNL     1     -23.624  -7.656  78.656  1.00  0.00     0.157 C 
HETATM    4  N1  UNL     1     -24.635  -7.808  77.596  1.00  0.00    -0.390 N 
ATOM      5  H1  UNL     1     -24.886  -8.692  77.152  1.00  0.00     0.159 HD
HETATM    6  C8  UNL     1     -25.159  -6.666  77.309  1.00  0.00     0.008 C 
HETATM    7  C11 UNL     1     -24.521  -5.608  78.161  1.00  0.00     0.096 C 
ENDROOT
BRANCH   2   8
HETATM    8  O1  UNL     1     -22.483  -5.600  79.306  1.00  0.00    -0.339 OA
BRANCH   8   9
HETATM    9  C3  UNL     1     -22.341  -4.283  79.352  1.00  0.00     0.362 C 
HETATM   10  O2  UNL     1     -23.026  -3.654  80.447  1.00  0.00    -0.350 OA
HETATM   11  C4  UNL     1     -22.940  -2.293  80.145  1.00  0.00     0.198 C 
HETATM   12  C5  UNL     1     -21.618  -1.818  80.684  1.00  0.00     0.205 C 
HETATM   13  O3  UNL     1     -20.634  -2.768  80.223  1.00  0.00    -0.316 OA
HETATM   14  C6  UNL     1     -20.985  -3.707  79.259  1.00  0.00     0.314 C 
HETATM   15  O4  UNL     1     -20.200  -4.037  78.372  1.00  0.00    -0.260 OA
ENDBRANCH   8   9
ENDBRANCH   2   8
BRANCH   6  16
HETATM   16  C9  UNL     1     -26.189  -6.354  76.330  1.00  0.00     0.032 C 
HETATM   17  C10 UNL     1     -26.118  -6.768  75.082  1.00  0.00     0.058 C 
HETATM   18 BR1  UNL     1     -27.444  -6.382  73.778  1.00  0.00    -0.064 Br
ENDBRANCH   6  16
TORSDOF 3
ENDMDL
MODEL 4
REMARK VINA RESULT: -5.873423324      2.163      2.818
REMARK  3 active torsions:
REMARK  status: ('A' for Active; 'I' for Inactive)
REMARK    1  A    between atoms: C2_2  and  O1_3 
REMARK    2  A    between atoms: O1_3  and  C3_4 
REMARK    3  A    between atoms: C8_14  and  C9_15 
ROOT
HETATM    1  C1  UNL     1     -22.408  -4.110  77.425  1.00  0.00     0.048 C 
HETATM    2  C2  UNL     1     -22.300  -5.116  78.555  1.00  0.00     0.082 C 
HETATM    3  C7  UNL     1     -21.392  -6.219  78.070  1.00  0.00     0.157 C 
HETATM    4  N1  UNL     1     -22.200  -6.743  76.956  1.00  0.00    -0.390 N 
ATOM      5  H1  UNL     1     -21.819  -7.165  76.108  1.00  0.00     0.159 HD
HETATM    6  C8  UNL     1     -23.456  -6.591  77.202  1.00  0.00     0.008 C 
HETATM    7  C11 UNL     1     -23.615  -5.919  78.535  1.00  0.00     0.096 C 
ENDROOT
BRANCH   2   8
HETATM    8  O1  UNL     1     -22.109  -4.634  79.780  1.00  0.00    -0.339 OA
BRANCH   8   9
HETATM    9  C3  UNL     1     -22.697  -3.548  80.264  1.00  0.00     0.362 C 
HETATM   10  O2  UNL     1     -23.918  -3.807  80.977  1.00  0.00    -0.350 OA
HETATM   11  C4  UNL     1     -24.460  -2.533  81.163  1.00  0.00     0.198 C 
HETATM   12  C5  UNL     1     -23.833  -1.980  82.415  1.00  0.00     0.205 C 
HETATM   13  O3  UNL     1     -22.412  -2.195  82.278  1.00  0.00    -0.316 OA
HETATM   14  C6  UNL     1     -21.893  -2.592  81.051  1.00  0.00     0.314 C 
HETATM   15  O4  UNL     1     -20.815  -2.163  80.644  1.00  0.00    -0.260 OA
ENDBRANCH   8   9
ENDBRANCH   2   8
BRANCH   6  16
HETATM   16  C9  UNL     1     -24.598  -6.962  76.382  1.00  0.00     0.032 C 
HETATM   17  C10 UNL     1     -25.839  -6.791  76.788  1.00  0.00     0.058 C 
HETATM   18 BR1  UNL     1     -27.353  -7.261  75.744  1.00  0.00    -0.064 Br
ENDBRANCH   6  16
TORSDOF 3
ENDMDL
MODEL 5
REMARK VINA RESULT: -5.802948419      2.631      3.075
REMARK  3 active torsions:
REMARK  status: ('A' for Active; 'I' for Inactive)
REMARK    1  A    between atoms: C2_2  and  O1_3 
REMARK    2  A    between atoms: O1_3  and  C3_4 
REMARK    3  A    between atoms: C8_14  and  C9_15 
ROOT
HETATM    1  C1  UNL     1     -23.561  -6.693  75.754  1.00  0.00     0.048 C 
HETATM    2  C2  UNL     1     -24.291  -7.026  77.041  1.00  0.00     0.082 C 
HETATM    3  C7  UNL     1     -24.713  -8.470  76.942  1.00  0.00     0.157 C 
HETATM    4  N1  UNL     1     -25.640  -8.387  75.801  1.00  0.00    -0.390 N 
ATOM      5  H1  UNL     1     -25.809  -9.137  75.131  1.00  0.00     0.159 HD
HETATM    6  C8  UNL     1     -26.209  -7.230  75.770  1.00  0.00     0.008 C 
HETATM    7  C11 UNL     1     -25.692  -6.400  76.908  1.00  0.00     0.096 C 
ENDROOT
BRANCH   2   8
HETATM    8  O1  UNL     1     -23.739  -6.606  78.176  1.00  0.00    -0.339 OA
BRANCH   8   9
HETATM    9  C3  UNL     1     -23.459  -5.340  78.457  1.00  0.00     0.362 C 
HETATM   10  O2  UNL     1     -24.272  -4.773  79.497  1.00  0.00    -0.350 OA
HETATM   11  C4  UNL     1     -23.971  -3.410  79.436  1.00  0.00     0.198 C 
HETATM   12  C5  UNL     1     -22.738  -3.208  80.275  1.00  0.00     0.205 C 
HETATM   13  O3  UNL     1     -21.798  -4.218  79.854  1.00  0.00    -0.316 OA
HETATM   14  C6  UNL     1     -22.054  -4.958  78.705  1.00  0.00     0.314 C 
HETATM   15  O4  UNL     1     -21.151  -5.275  77.934  1.00  0.00    -0.260 OA
ENDBRANCH   8   9
ENDBRANCH   2   8
BRANCH   6  16
HETATM   16  C9  UNL     1     -27.188  -6.720  74.822  1.00  0.00     0.032 C 
HETATM   17  C10 UNL     1     -26.851  -6.320  73.613  1.00  0.00     0.058 C 
HETATM   18 BR1  UNL     1     -28.100  -5.651  72.350  1.00  0.00    -0.064 Br
ENDBRANCH   6  16
TORSDOF 3
ENDMDL
