MODEL 1
REMARK VINA RESULT: -8.089478612      0.000      0.000
REMARK  7 active torsions:
REMARK  status: ('A' for Active; 'I' for Inactive)
REMARK    1  A    between atoms: C3_3  and  C5_5 
REMARK    2  A    between atoms: C5_5  and  C6_6 
REMARK    3  A    between atoms: C6_6  and  N1_7 
REMARK    4  A    between atoms: C6_6  and  C14_20 
REMARK       I    between atoms: N1_7  and  C7_9 
REMARK    5  A    between atoms: C7_9  and  C8_11 
REMARK    6  A    between atoms: C8_11  and  N2_13 
REMARK       I    between atoms: N2_13  and  C10_15 
REMARK    7  A    between atoms: C10_15  and  C11_17 
REMARK       I    between atoms: C14_20  and  N3_22 
ROOT
HETATM    1  C1  UNL     1       0.676  -2.885  81.377  1.00  0.00     0.012 C 
HETATM    2  C2  UNL     1       0.440  -1.703  81.397  1.00  0.00    -0.113 C 
HETATM    3  C3  UNL     1       0.139  -0.302  81.464  1.00  0.00     0.062 C 
HETATM    4  C4  UNL     1      -1.121  -0.062  80.601  1.00  0.00     0.023 C 
ENDROOT
BRANCH   3   5
HETATM    5  C5  UNL     1       1.205   0.638  81.142  1.00  0.00     0.051 C 
BRANCH   5   6
HETATM    6  C6  UNL     1       0.975   2.093  81.060  1.00  0.00     0.177 C 
BRANCH   6   7
HETATM    7  N1  UNL     1       1.023   2.535  82.485  1.00  0.00    -0.346 N 
HETATM    8  C7  UNL     1      -0.120   2.923  83.189  1.00  0.00     0.240 C 
HETATM    9  O1  UNL     1      -1.232   2.901  82.607  1.00  0.00    -0.271 OA
ATOM     10  H1  UNL     1       1.924   2.554  82.963  1.00  0.00     0.163 HD
BRANCH   8  11
HETATM   11  C8  UNL     1      -0.072   3.358  84.599  1.00  0.00     0.172 C 
HETATM   12  C9  UNL     1      -0.285   4.859  84.644  1.00  0.00     0.042 C 
BRANCH  11  13
HETATM   13  N2  UNL     1      -1.066   2.679  85.410  1.00  0.00    -0.348 N 
HETATM   14  C10 UNL     1      -0.736   1.544  86.190  1.00  0.00     0.222 C 
HETATM   15  O2  UNL     1       0.420   1.099  86.203  1.00  0.00    -0.273 OA
ATOM     16  H2  UNL     1      -2.025   3.027  85.418  1.00  0.00     0.163 HD
BRANCH  14  17
HETATM   17  C11 UNL     1      -1.792   0.893  86.998  1.00  0.00     0.078 A 
HETATM   18  C12 UNL     1      -2.543   1.746  87.969  1.00  0.00     0.015 A 
HETATM   19  C13 UNL     1      -3.220   1.179  86.750  1.00  0.00     0.015 A 
ENDBRANCH  14  17
ENDBRANCH  11  13
ENDBRANCH   8  11
ENDBRANCH   6   7
BRANCH   6  20
HETATM   20  C14 UNL     1       1.995   2.921  80.410  1.00  0.00     0.240 C 
HETATM   21  O3  UNL     1       1.865   3.243  79.211  1.00  0.00    -0.271 OA
HETATM   22  N3  UNL     1       3.124   3.347  81.137  1.00  0.00    -0.364 N 
HETATM   23  C15 UNL     1       4.160   4.169  80.513  1.00  0.00     0.149 C 
ATOM     24  H3  UNL     1       3.220   3.078  82.117  1.00  0.00     0.161 HD
ENDBRANCH   6  20
ENDBRANCH   5   6
ENDBRANCH   3   5
TORSDOF 7
ENDMDL
MODEL 2
REMARK VINA RESULT: -7.348065646      0.713      1.373
REMARK  7 active torsions:
REMARK  status: ('A' for Active; 'I' for Inactive)
REMARK    1  A    between atoms: C3_3  and  C5_5 
REMARK    2  A    between atoms: C5_5  and  C6_6 
REMARK    3  A    between atoms: C6_6  and  N1_7 
REMARK    4  A    between atoms: C6_6  and  C14_20 
REMARK       I    between atoms: N1_7  and  C7_9 
REMARK    5  A    between atoms: C7_9  and  C8_11 
REMARK    6  A    between atoms: C8_11  and  N2_13 
REMARK       I    between atoms: N2_13  and  C10_15 
REMARK    7  A    between atoms: C10_15  and  C11_17 
REMARK       I    between atoms: C14_20  and  N3_22 
ROOT
HETATM    1  C1  UNL     1      -1.767   0.675  80.642  1.00  0.00     0.012 C 
HETATM    2  C2  UNL     1      -0.629   0.279  80.668  1.00  0.00    -0.113 C 
HETATM    3  C3  UNL     1       0.721  -0.207  80.652  1.00  0.00     0.062 C 
HETATM    4  C4  UNL     1       0.720  -1.588  81.347  1.00  0.00     0.023 C 
ENDROOT
BRANCH   3   5
HETATM    5  C5  UNL     1       1.763   0.665  81.180  1.00  0.00     0.051 C 
BRANCH   5   6
HETATM    6  C6  UNL     1       1.648   2.136  81.154  1.00  0.00     0.177 C 
BRANCH   6   7
HETATM    7  N1  UNL     1       1.468   2.498  82.592  1.00  0.00    -0.346 N 
HETATM    8  C7  UNL     1       0.345   3.187  83.057  1.00  0.00     0.240 C 
HETATM    9  O1  UNL     1      -0.550   3.518  82.241  1.00  0.00    -0.271 OA
ATOM     10  H1  UNL     1       2.192   2.230  83.260  1.00  0.00     0.163 HD
BRANCH   8  11
HETATM   11  C8  UNL     1       0.168   3.542  84.479  1.00  0.00     0.172 C 
HETATM   12  C9  UNL     1      -0.142   5.025  84.567  1.00  0.00     0.042 C 
BRANCH  11  13
HETATM   13  N2  UNL     1      -0.887   2.765  85.104  1.00  0.00    -0.348 N 
HETATM   14  C10 UNL     1      -0.596   1.656  85.935  1.00  0.00     0.222 C 
HETATM   15  O2  UNL     1       0.576   1.318  86.153  1.00  0.00    -0.273 OA
ATOM     16  H2  UNL     1      -1.860   3.024  84.941  1.00  0.00     0.163 HD
BRANCH  14  17
HETATM   17  C11 UNL     1      -1.713   0.901  86.546  1.00  0.00     0.078 A 
HETATM   18  C12 UNL     1      -2.242   1.389  87.856  1.00  0.00     0.015 A 
HETATM   19  C13 UNL     1      -3.074   1.474  86.604  1.00  0.00     0.015 A 
ENDBRANCH  14  17
ENDBRANCH  11  13
ENDBRANCH   8  11
ENDBRANCH   6   7
BRANCH   6  20
HETATM   20  C14 UNL     1       2.820   2.916  80.749  1.00  0.00     0.240 C 
HETATM   21  O3  UNL     1       2.965   3.248  79.554  1.00  0.00    -0.271 OA
HETATM   22  N3  UNL     1       3.785   3.286  81.707  1.00  0.00    -0.364 N 
HETATM   23  C15 UNL     1       4.968   4.060  81.329  1.00  0.00     0.149 C 
ATOM     24  H3  UNL     1       3.656   3.010  82.681  1.00  0.00     0.161 HD
ENDBRANCH   6  20
ENDBRANCH   5   6
ENDBRANCH   3   5
TORSDOF 7
ENDMDL
MODEL 3
REMARK VINA RESULT: -7.196359693      2.584      5.621
REMARK  7 active torsions:
REMARK  status: ('A' for Active; 'I' for Inactive)
REMARK    1  A    between atoms: C3_3  and  C5_5 
REMARK    2  A    between atoms: C5_5  and  C6_6 
REMARK    3  A    between atoms: C6_6  and  N1_7 
REMARK    4  A    between atoms: C6_6  and  C14_20 
REMARK       I    between atoms: N1_7  and  C7_9 
REMARK    5  A    between atoms: C7_9  and  C8_11 
REMARK    6  A    between atoms: C8_11  and  N2_13 
REMARK       I    between atoms: N2_13  and  C10_15 
REMARK    7  A    between atoms: C10_15  and  C11_17 
REMARK       I    between atoms: C14_20  and  N3_22 
ROOT
HETATM    1  C1  UNL     1       2.256   1.529  81.016  1.00  0.00     0.012 C 
HETATM    2  C2  UNL     1       1.262   0.924  81.329  1.00  0.00    -0.113 C 
HETATM    3  C3  UNL     1       0.106   0.164  81.709  1.00  0.00     0.062 C 
HETATM    4  C4  UNL     1      -0.613  -0.259  80.407  1.00  0.00     0.023 C 
ENDROOT
BRANCH   3   5
HETATM    5  C5  UNL     1      -0.814   0.761  82.668  1.00  0.00     0.051 C 
BRANCH   5   6
HETATM    6  C6  UNL     1      -0.369   1.259  83.984  1.00  0.00     0.177 C 
BRANCH   6   7
HETATM    7  N1  UNL     1      -0.825   2.681  83.992  1.00  0.00    -0.346 N 
HETATM    8  C7  UNL     1       0.067   3.754  83.938  1.00  0.00     0.240 C 
HETATM    9  O1  UNL     1       1.300   3.523  83.880  1.00  0.00    -0.271 OA
ATOM     10  H1  UNL     1      -1.825   2.875  84.038  1.00  0.00     0.163 HD
BRANCH   8  11
HETATM   11  C8  UNL     1      -0.385   5.160  83.945  1.00  0.00     0.172 C 
HETATM   12  C9  UNL     1      -1.652   5.251  84.776  1.00  0.00     0.042 C 
BRANCH  11  13
HETATM   13  N2  UNL     1       0.632   6.054  84.469  1.00  0.00    -0.348 N 
HETATM   14  C10 UNL     1       1.206   7.071  83.669  1.00  0.00     0.222 C 
HETATM   15  O2  UNL     1       0.852   7.227  82.492  1.00  0.00    -0.273 OA
ATOM     16  H2  UNL     1       0.939   5.947  85.436  1.00  0.00     0.163 HD
BRANCH  14  17
HETATM   17  C11 UNL     1       2.239   7.953  84.258  1.00  0.00     0.078 A 
HETATM   18  C12 UNL     1       1.850   9.364  84.563  1.00  0.00     0.015 A 
HETATM   19  C13 UNL     1       2.152   8.387  85.668  1.00  0.00     0.015 A 
ENDBRANCH  14  17
ENDBRANCH  11  13
ENDBRANCH   8  11
ENDBRANCH   6   7
BRANCH   6  20
HETATM   20  C14 UNL     1      -0.988   0.693  85.185  1.00  0.00     0.240 C 
HETATM   21  O3  UNL     1      -1.174  -0.539  85.269  1.00  0.00    -0.271 OA
HETATM   22  N3  UNL     1      -1.378   1.540  86.241  1.00  0.00    -0.364 N 
HETATM   23  C15 UNL     1      -2.004   1.003  87.450  1.00  0.00     0.149 C 
ATOM     24  H3  UNL     1      -1.220   2.545  86.163  1.00  0.00     0.161 HD
ENDBRANCH   6  20
ENDBRANCH   5   6
ENDBRANCH   3   5
TORSDOF 7
ENDMDL
MODEL 4
REMARK VINA RESULT: -7.190641199      1.536      6.953
REMARK  7 active torsions:
REMARK  status: ('A' for Active; 'I' for Inactive)
REMARK    1  A    between atoms: C3_3  and  C5_5 
REMARK    2  A    between atoms: C5_5  and  C6_6 
REMARK    3  A    between atoms: C6_6  and  N1_7 
REMARK    4  A    between atoms: C6_6  and  C14_20 
REMARK       I    between atoms: N1_7  and  C7_9 
REMARK    5  A    between atoms: C7_9  and  C8_11 
REMARK    6  A    between atoms: C8_11  and  N2_13 
REMARK       I    between atoms: N2_13  and  C10_15 
REMARK    7  A    between atoms: C10_15  and  C11_17 
REMARK       I    between atoms: C14_20  and  N3_22 
ROOT
HETATM    1  C1  UNL     1       0.925   7.122  84.529  1.00  0.00     0.012 C 
HETATM    2  C2  UNL     1       0.279   6.110  84.428  1.00  0.00    -0.113 C 
HETATM    3  C3  UNL     1      -0.500   4.916  84.261  1.00  0.00     0.062 C 
HETATM    4  C4  UNL     1      -1.906   5.201  84.835  1.00  0.00     0.023 C 
ENDROOT
BRANCH   3   5
HETATM    5  C5  UNL     1       0.054   3.668  84.772  1.00  0.00     0.051 C 
BRANCH   5   6
HETATM    6  C6  UNL     1      -0.600   2.365  84.547  1.00  0.00     0.177 C 
BRANCH   6   7
HETATM    7  N1  UNL     1       0.335   1.661  83.620  1.00  0.00    -0.346 N 
HETATM    8  C7  UNL     1      -0.109   0.954  82.500  1.00  0.00     0.240 C 
HETATM    9  O1  UNL     1      -1.340   0.904  82.258  1.00  0.00    -0.271 OA
ATOM     10  H1  UNL     1       1.337   1.698  83.811  1.00  0.00     0.163 HD
BRANCH   8  11
HETATM   11  C8  UNL     1       0.817   0.259  81.583  1.00  0.00     0.172 C 
HETATM   12  C9  UNL     1       0.119  -0.974  81.042  1.00  0.00     0.042 C 
BRANCH  11  13
HETATM   13  N2  UNL     1       1.248   1.118  80.495  1.00  0.00    -0.348 N 
HETATM   14  C10 UNL     1       2.294   2.057  80.664  1.00  0.00     0.222 C 
HETATM   15  O2  UNL     1       2.874   2.171  81.752  1.00  0.00    -0.273 OA
ATOM     16  H2  UNL     1       0.787   1.043  79.588  1.00  0.00     0.163 HD
BRANCH  14  17
HETATM   17  C11 UNL     1       2.691   2.906  79.518  1.00  0.00     0.078 A 
HETATM   18  C12 UNL     1       2.201   4.318  79.503  1.00  0.00     0.015 A 
HETATM   19  C13 UNL     1       3.662   4.006  79.689  1.00  0.00     0.015 A 
ENDBRANCH  14  17
ENDBRANCH  11  13
ENDBRANCH   8  11
ENDBRANCH   6   7
BRANCH   6  20
HETATM   20  C14 UNL     1      -0.719   1.443  85.679  1.00  0.00     0.240 C 
HETATM   21  O3  UNL     1       0.307   0.946  86.189  1.00  0.00    -0.271 OA
HETATM   22  N3  UNL     1      -1.990   1.114  86.189  1.00  0.00    -0.364 N 
HETATM   23  C15 UNL     1      -2.139   0.191  87.315  1.00  0.00     0.149 C 
ATOM     24  H3  UNL     1      -2.822   1.526  85.765  1.00  0.00     0.161 HD
ENDBRANCH   6  20
ENDBRANCH   5   6
ENDBRANCH   3   5
TORSDOF 7
ENDMDL
MODEL 5
REMARK VINA RESULT: -7.140059481      1.687      6.708
REMARK  7 active torsions:
REMARK  status: ('A' for Active; 'I' for Inactive)
REMARK    1  A    between atoms: C3_3  and  C5_5 
REMARK    2  A    between atoms: C5_5  and  C6_6 
REMARK    3  A    between atoms: C6_6  and  N1_7 
REMARK    4  A    between atoms: C6_6  and  C14_20 
REMARK       I    between atoms: N1_7  and  C7_9 
REMARK    5  A    between atoms: C7_9  and  C8_11 
REMARK    6  A    between atoms: C8_11  and  N2_13 
REMARK       I    between atoms: N2_13  and  C10_15 
REMARK    7  A    between atoms: C10_15  and  C11_17 
REMARK       I    between atoms: C14_20  and  N3_22 
ROOT
HETATM    1  C1  UNL     1      -1.350   5.557  83.099  1.00  0.00     0.012 C 
HETATM    2  C2  UNL     1      -0.397   5.144  83.711  1.00  0.00    -0.113 C 
HETATM    3  C3  UNL     1       0.742   4.696  84.460  1.00  0.00     0.062 C 
HETATM    4  C4  UNL     1       1.965   4.761  83.517  1.00  0.00     0.023 C 
ENDROOT
BRANCH   3   5
HETATM    5  C5  UNL     1       0.646   3.409  85.137  1.00  0.00     0.051 C 
BRANCH   5   6
HETATM    6  C6  UNL     1      -0.425   2.439  84.838  1.00  0.00     0.177 C 
BRANCH   6   7
HETATM    7  N1  UNL     1       0.133   1.641  83.707  1.00  0.00    -0.346 N 
HETATM    8  C7  UNL     1      -0.531   1.505  82.485  1.00  0.00     0.240 C 
HETATM    9  O1  UNL     1      -1.639   2.072  82.326  1.00  0.00    -0.271 OA
ATOM     10  H1  UNL     1       1.034   1.178  83.830  1.00  0.00     0.163 HD
BRANCH   8  11
HETATM   11  C8  UNL     1       0.023   0.716  81.366  1.00  0.00     0.172 C 
HETATM   12  C9  UNL     1      -1.121  -0.000  80.673  1.00  0.00     0.042 C 
BRANCH  11  13
HETATM   13  N2  UNL     1       0.747   1.549  80.423  1.00  0.00    -0.348 N 
HETATM   14  C10 UNL     1       2.060   2.005  80.695  1.00  0.00     0.222 C 
HETATM   15  O2  UNL     1       2.629   1.702  81.752  1.00  0.00    -0.273 OA
ATOM     16  H2  UNL     1       0.300   1.811  79.544  1.00  0.00     0.163 HD
BRANCH  14  17
HETATM   17  C11 UNL     1       2.749   2.852  79.695  1.00  0.00     0.078 A 
HETATM   18  C12 UNL     1       2.625   4.333  79.842  1.00  0.00     0.015 A 
HETATM   19  C13 UNL     1       3.943   3.640  80.063  1.00  0.00     0.015 A 
ENDBRANCH  14  17
ENDBRANCH  11  13
ENDBRANCH   8  11
ENDBRANCH   6   7
BRANCH   6  20
HETATM   20  C14 UNL     1      -0.744   1.426  85.848  1.00  0.00     0.240 C 
HETATM   21  O3  UNL     1       0.151   0.669  86.276  1.00  0.00    -0.271 OA
HETATM   22  N3  UNL     1      -2.063   1.304  86.329  1.00  0.00    -0.364 N 
HETATM   23  C15 UNL     1      -2.412   0.297  87.332  1.00  0.00     0.149 C 
ATOM     24  H3  UNL     1      -2.787   1.928  85.973  1.00  0.00     0.161 HD
ENDBRANCH   6  20
ENDBRANCH   5   6
ENDBRANCH   3   5
TORSDOF 7
ENDMDL
