MODEL 1
REMARK VINA RESULT: -6.332133381      0.000      0.000
REMARK  8 active torsions:
REMARK  status: ('A' for Active; 'I' for Inactive)
REMARK    1  A    between atoms: C2_2  and  C3_3 
REMARK    2  A    between atoms: C2_2  and  N2_14 
REMARK    3  A    between atoms: C3_3  and  N1_4 
REMARK    4  A    between atoms: N1_4  and  C5_7 
REMARK    5  A    between atoms: C7_9  and  C8_10 
REMARK    6  A    between atoms: N2_14  and  C10_16 
REMARK    7  A    between atoms: C10_16  and  C11_17 
REMARK    8  A    between atoms: C11_17  and  N3_18 
ROOT
HETATM    1  C3  UNL     1      -0.950   1.952  82.915  1.00  0.00     0.336 C 
ENDROOT
BRANCH   1   2
HETATM    2  C2  UNL     1       0.035   1.076  82.218  1.00  0.00     0.110 C 
HETATM    3  C1  UNL     1      -0.455  -0.340  82.134  1.00  0.00     0.034 C 
BRANCH   2   4
HETATM    4  N2  UNL     1       0.537   1.547  80.990  1.00  0.00    -0.394 N 
ATOM      5  H2  UNL     1      -0.111   1.913  80.292  1.00  0.00     0.159 HD
BRANCH   4   6
HETATM    6  C10 UNL     1       1.907   1.524  80.707  1.00  0.00     0.086 C 
BRANCH   6   7
HETATM    7  C11 UNL     1       2.545   2.790  80.302  1.00  0.00     0.316 C 
BRANCH   7   8
HETATM    8  N3  UNL     1       3.529   3.298  81.246  1.00  0.00     0.093 N 
HETATM    9  C12 UNL     1       4.783   3.688  80.658  1.00  0.00     0.274 C 
HETATM   10  C13 UNL     1       4.538   5.124  80.993  1.00  0.00     0.060 C 
HETATM   11  C14 UNL     1       3.356   4.593  81.782  1.00  0.00     0.274 C 
ENDBRANCH   7   8
ENDBRANCH   6   7
ENDBRANCH   4   6
ENDBRANCH   2   4
ENDBRANCH   1   2
BRANCH   1  12
HETATM   12  N1  UNL     1      -0.340   2.824  83.918  1.00  0.00     0.016 N 
HETATM   13  C4  UNL     1      -0.846   4.173  83.520  1.00  0.00     0.357 C 
HETATM   14  O1  UNL     1       0.961   2.919  83.690  1.00  0.00    -0.064 OA
BRANCH  12  15
HETATM   15  C5  UNL     1      -0.772   2.625  85.230  1.00  0.00     0.256 C 
HETATM   16  C6  UNL     1      -2.252   2.458  85.526  1.00  0.00     0.057 C 
HETATM   17  C7  UNL     1      -1.783   1.633  86.739  1.00  0.00     0.092 C 
HETATM   18  C9  UNL     1      -0.565   1.292  85.890  1.00  0.00     0.057 C 
BRANCH  17  19
HETATM   19  C8  UNL     1      -2.679   0.496  87.037  1.00  0.00     0.177 C 
HETATM   20  O2  UNL     1      -3.920   0.672  87.006  1.00  0.00    -0.648 OA
HETATM   21  O3  UNL     1      -2.172  -0.735  87.341  1.00  0.00    -0.648 OA
ENDBRANCH  17  19
ENDBRANCH  12  15
ENDBRANCH   1  12
TORSDOF 8
ENDMDL
MODEL 2
REMARK VINA RESULT: -6.330425573      0.912      1.140
REMARK  8 active torsions:
REMARK  status: ('A' for Active; 'I' for Inactive)
REMARK    1  A    between atoms: C2_2  and  C3_3 
REMARK    2  A    between atoms: C2_2  and  N2_14 
REMARK    3  A    between atoms: C3_3  and  N1_4 
REMARK    4  A    between atoms: N1_4  and  C5_7 
REMARK    5  A    between atoms: C7_9  and  C8_10 
REMARK    6  A    between atoms: N2_14  and  C10_16 
REMARK    7  A    between atoms: C10_16  and  C11_17 
REMARK    8  A    between atoms: C11_17  and  N3_18 
ROOT
HETATM    1  C3  UNL     1      -0.837   2.174  82.865  1.00  0.00     0.336 C 
ENDROOT
BRANCH   1   2
HETATM    2  C2  UNL     1       0.062   1.088  82.382  1.00  0.00     0.110 C 
HETATM    3  C1  UNL     1      -0.598  -0.256  82.486  1.00  0.00     0.034 C 
BRANCH   2   4
HETATM    4  N2  UNL     1       0.678   1.291  81.131  1.00  0.00    -0.394 N 
ATOM      5  H2  UNL     1       0.099   1.488  80.315  1.00  0.00     0.159 HD
BRANCH   4   6
HETATM    6  C10 UNL     1       2.068   1.227  80.986  1.00  0.00     0.086 C 
BRANCH   6   7
HETATM    7  C11 UNL     1       2.796   2.493  80.791  1.00  0.00     0.316 C 
BRANCH   7   8
HETATM    8  N3  UNL     1       1.954   3.625  80.436  1.00  0.00     0.093 N 
HETATM    9  C12 UNL     1       2.334   4.873  81.042  1.00  0.00     0.274 C 
HETATM   10  C13 UNL     1       2.710   5.447  79.714  1.00  0.00     0.060 C 
HETATM   11  C14 UNL     1       2.078   4.191  79.148  1.00  0.00     0.274 C 
ENDBRANCH   7   8
ENDBRANCH   6   7
ENDBRANCH   4   6
ENDBRANCH   2   4
ENDBRANCH   1   2
BRANCH   1  12
HETATM   12  N1  UNL     1      -0.250   2.978  83.937  1.00  0.00     0.016 N 
HETATM   13  C4  UNL     1      -0.596   4.370  83.519  1.00  0.00     0.357 C 
HETATM   14  O1  UNL     1       1.070   2.958  83.831  1.00  0.00    -0.064 OA
BRANCH  12  15
HETATM   15  C5  UNL     1      -0.819   2.803  85.199  1.00  0.00     0.256 C 
HETATM   16  C6  UNL     1      -2.293   2.462  85.327  1.00  0.00     0.057 C 
HETATM   17  C7  UNL     1      -1.885   1.781  86.648  1.00  0.00     0.092 C 
HETATM   18  C9  UNL     1      -0.536   1.552  85.979  1.00  0.00     0.057 C 
BRANCH  17  19
HETATM   19  C8  UNL     1      -2.666   0.556  86.923  1.00  0.00     0.177 C 
HETATM   20  O2  UNL     1      -3.914   0.634  87.010  1.00  0.00    -0.648 OA
HETATM   21  O3  UNL     1      -2.045  -0.651  87.080  1.00  0.00    -0.648 OA
ENDBRANCH  17  19
ENDBRANCH  12  15
ENDBRANCH   1  12
TORSDOF 8
ENDMDL
MODEL 3
REMARK VINA RESULT: -6.314029606      2.713      6.016
REMARK  8 active torsions:
REMARK  status: ('A' for Active; 'I' for Inactive)
REMARK    1  A    between atoms: C2_2  and  C3_3 
REMARK    2  A    between atoms: C2_2  and  N2_14 
REMARK    3  A    between atoms: C3_3  and  N1_4 
REMARK    4  A    between atoms: N1_4  and  C5_7 
REMARK    5  A    between atoms: C7_9  and  C8_10 
REMARK    6  A    between atoms: N2_14  and  C10_16 
REMARK    7  A    between atoms: C10_16  and  C11_17 
REMARK    8  A    between atoms: C11_17  and  N3_18 
ROOT
HETATM    1  C3  UNL     1      -0.993   3.343  82.838  1.00  0.00     0.336 C 
ENDROOT
BRANCH   1   2
HETATM    2  C2  UNL     1       0.080   3.805  83.763  1.00  0.00     0.110 C 
HETATM    3  C1  UNL     1      -0.369   4.984  84.577  1.00  0.00     0.034 C 
BRANCH   2   4
HETATM    4  N2  UNL     1       0.705   2.816  84.547  1.00  0.00    -0.394 N 
ATOM      5  H2  UNL     1       1.604   2.436  84.248  1.00  0.00     0.159 HD
BRANCH   4   6
HETATM    6  C10 UNL     1       0.120   2.344  85.726  1.00  0.00     0.086 C 
BRANCH   6   7
HETATM    7  C11 UNL     1      -0.453   0.985  85.712  1.00  0.00     0.316 C 
BRANCH   7   8
HETATM    8  N3  UNL     1      -1.880   0.930  85.984  1.00  0.00     0.093 N 
HETATM    9  C12 UNL     1      -2.231   0.336  87.247  1.00  0.00     0.274 C 
HETATM   10  C13 UNL     1      -2.748   1.642  87.759  1.00  0.00     0.060 C 
HETATM   11  C14 UNL     1      -2.557   2.119  86.333  1.00  0.00     0.274 C 
ENDBRANCH   7   8
ENDBRANCH   6   7
ENDBRANCH   4   6
ENDBRANCH   2   4
ENDBRANCH   1   2
BRANCH   1  12
HETATM   12  N1  UNL     1      -0.595   3.369  81.431  1.00  0.00     0.016 N 
HETATM   13  C4  UNL     1       0.760   3.996  81.494  1.00  0.00     0.357 C 
HETATM   14  O1  UNL     1      -1.310   4.278  80.786  1.00  0.00    -0.064 OA
BRANCH  12  15
HETATM   15  C5  UNL     1      -0.413   2.120  80.835  1.00  0.00     0.256 C 
HETATM   16  C6  UNL     1       0.679   1.192  81.335  1.00  0.00     0.057 C 
HETATM   17  C7  UNL     1      -0.232   0.059  80.824  1.00  0.00     0.092 C 
HETATM   18  C9  UNL     1      -1.385   1.011  81.116  1.00  0.00     0.057 C 
BRANCH  17  19
HETATM   19  C8  UNL     1      -0.179  -1.146  81.677  1.00  0.00     0.177 C 
HETATM   20  O2  UNL     1       0.428  -2.162  81.264  1.00  0.00    -0.648 OA
HETATM   21  O3  UNL     1      -0.779  -1.162  82.905  1.00  0.00    -0.648 OA
ENDBRANCH  17  19
ENDBRANCH  12  15
ENDBRANCH   1  12
TORSDOF 8
ENDMDL
MODEL 4
REMARK VINA RESULT: -6.289827886      1.738      3.474
REMARK  8 active torsions:
REMARK  status: ('A' for Active; 'I' for Inactive)
REMARK    1  A    between atoms: C2_2  and  C3_3 
REMARK    2  A    between atoms: C2_2  and  N2_14 
REMARK    3  A    between atoms: C3_3  and  N1_4 
REMARK    4  A    between atoms: N1_4  and  C5_7 
REMARK    5  A    between atoms: C7_9  and  C8_10 
REMARK    6  A    between atoms: N2_14  and  C10_16 
REMARK    7  A    between atoms: C10_16  and  C11_17 
REMARK    8  A    between atoms: C11_17  and  N3_18 
ROOT
HETATM    1  C3  UNL     1       0.442   3.870  83.891  1.00  0.00     0.336 C 
ENDROOT
BRANCH   1   2
HETATM    2  C2  UNL     1       0.778   3.780  82.441  1.00  0.00     0.110 C 
HETATM    3  C1  UNL     1       1.083   5.132  81.864  1.00  0.00     0.034 C 
BRANCH   2   4
HETATM    4  N2  UNL     1       1.731   2.810  82.074  1.00  0.00    -0.394 N 
ATOM      5  H2  UNL     1       2.556   2.675  82.659  1.00  0.00     0.159 HD
BRANCH   4   6
HETATM    6  C10 UNL     1       1.569   2.029  80.925  1.00  0.00     0.086 C 
BRANCH   6   7
HETATM    7  C11 UNL     1       1.854   0.587  81.030  1.00  0.00     0.316 C 
BRANCH   7   8
HETATM    8  N3  UNL     1       0.808  -0.275  80.503  1.00  0.00     0.093 N 
HETATM    9  C12 UNL     1       0.607  -1.497  81.235  1.00  0.00     0.274 C 
HETATM   10  C13 UNL     1      -0.750  -1.054  81.677  1.00  0.00     0.060 C 
HETATM   11  C14 UNL     1      -0.542   0.089  80.702  1.00  0.00     0.274 C 
ENDBRANCH   7   8
ENDBRANCH   6   7
ENDBRANCH   4   6
ENDBRANCH   2   4
ENDBRANCH   1   2
BRANCH   1  12
HETATM   12  N1  UNL     1      -0.965   3.593  84.177  1.00  0.00     0.016 N 
HETATM   13  C4  UNL     1      -1.261   2.456  83.255  1.00  0.00     0.357 C 
HETATM   14  O1  UNL     1      -1.716   4.569  83.690  1.00  0.00    -0.064 OA
BRANCH  12  15
HETATM   15  C5  UNL     1      -1.235   3.124  85.463  1.00  0.00     0.256 C 
HETATM   16  C6  UNL     1      -2.654   2.755  85.855  1.00  0.00     0.057 C 
HETATM   17  C7  UNL     1      -1.988   1.784  86.848  1.00  0.00     0.092 C 
HETATM   18  C9  UNL     1      -0.843   1.726  85.845  1.00  0.00     0.057 C 
BRANCH  17  19
HETATM   19  C8  UNL     1      -2.745   0.525  87.012  1.00  0.00     0.177 C 
HETATM   20  O2  UNL     1      -3.997   0.556  86.977  1.00  0.00    -0.648 OA
HETATM   21  O3  UNL     1      -2.097  -0.663  87.198  1.00  0.00    -0.648 OA
ENDBRANCH  17  19
ENDBRANCH  12  15
ENDBRANCH   1  12
TORSDOF 8
ENDMDL
MODEL 5
REMARK VINA RESULT: -6.242981398      3.101      6.359
REMARK  8 active torsions:
REMARK  status: ('A' for Active; 'I' for Inactive)
REMARK    1  A    between atoms: C2_2  and  C3_3 
REMARK    2  A    between atoms: C2_2  and  N2_14 
REMARK    3  A    between atoms: C3_3  and  N1_4 
REMARK    4  A    between atoms: N1_4  and  C5_7 
REMARK    5  A    between atoms: C7_9  and  C8_10 
REMARK    6  A    between atoms: N2_14  and  C10_16 
REMARK    7  A    between atoms: C10_16  and  C11_17 
REMARK    8  A    between atoms: C11_17  and  N3_18 
ROOT
HETATM    1  C3  UNL     1      -0.009   4.691  82.373  1.00  0.00     0.336 C 
ENDROOT
BRANCH   1   2
HETATM    2  C2  UNL     1       0.421   4.223  83.722  1.00  0.00     0.110 C 
HETATM    3  C1  UNL     1       1.758   4.792  84.099  1.00  0.00     0.034 C 
BRANCH   2   4
HETATM    4  N2  UNL     1      -0.525   4.336  84.759  1.00  0.00    -0.394 N 
ATOM      5  H2  UNL     1      -0.486   5.141  85.385  1.00  0.00     0.159 HD
BRANCH   4   6
HETATM    6  C10 UNL     1      -1.517   3.368  84.948  1.00  0.00     0.086 C 
BRANCH   6   7
HETATM    7  C11 UNL     1      -1.105   2.063  85.497  1.00  0.00     0.316 C 
BRANCH   7   8
HETATM    8  N3  UNL     1      -1.692   1.739  86.788  1.00  0.00     0.093 N 
HETATM    9  C12 UNL     1      -3.001   2.291  87.010  1.00  0.00     0.274 C 
HETATM   10  C13 UNL     1      -3.617   0.929  87.013  1.00  0.00     0.060 C 
HETATM   11  C14 UNL     1      -2.184   0.434  87.007  1.00  0.00     0.274 C 
ENDBRANCH   7   8
ENDBRANCH   6   7
ENDBRANCH   4   6
ENDBRANCH   2   4
ENDBRANCH   1   2
BRANCH   1  12
HETATM   12  N1  UNL     1      -0.139   3.608  81.399  1.00  0.00     0.016 N 
HETATM   13  C4  UNL     1       0.978   3.898  80.449  1.00  0.00     0.357 C 
HETATM   14  O1  UNL     1      -1.216   3.809  80.656  1.00  0.00    -0.064 OA
BRANCH  12  15
HETATM   15  C5  UNL     1       0.099   2.325  81.892  1.00  0.00     0.256 C 
HETATM   16  C6  UNL     1      -0.886   1.206  81.606  1.00  0.00     0.057 C 
HETATM   17  C7  UNL     1       0.334   0.275  81.742  1.00  0.00     0.092 C 
HETATM   18  C9  UNL     1       1.151   1.464  81.254  1.00  0.00     0.057 C 
BRANCH  17  19
HETATM   19  C8  UNL     1       0.282  -0.875  80.815  1.00  0.00     0.177 C 
HETATM   20  O2  UNL     1       0.546  -2.022  81.247  1.00  0.00    -0.648 OA
HETATM   21  O3  UNL     1      -0.053  -0.701  79.501  1.00  0.00    -0.648 OA
ENDBRANCH  17  19
ENDBRANCH  12  15
ENDBRANCH   1  12
TORSDOF 8
ENDMDL
