MODEL 1
REMARK VINA RESULT: -7.389212273      0.000      0.000
REMARK  7 active torsions:
REMARK  status: ('A' for Active; 'I' for Inactive)
REMARK    1  A    between atoms: N2_4  and  N3_6 
REMARK    2  A    between atoms: C1_8  and  N4_9 
REMARK    3  A    between atoms: C5_17  and  C6_18 
REMARK       I    between atoms: C6_18  and  N6_20 
REMARK    4  A    between atoms: N6_20  and  C7_22 
REMARK    5  A    between atoms: C7_22  and  C8_23 
REMARK    6  A    between atoms: C7_22  and  C12_27 
REMARK    7  A    between atoms: C8_23  and  C9_24 
ROOT
HETATM    1  N4  UNL     1      -0.322   0.587  81.781  1.00  0.00    -0.356 N 
ATOM      2  H4  UNL     1      -1.074   0.880  82.405  1.00  0.00     0.166 HD
HETATM    3  C2  UNL     1       0.610   1.416  81.526  1.00  0.00     0.029 C 
HETATM    4  C3  UNL     1       1.773   1.131  80.632  1.00  0.00     0.082 C 
HETATM    5  C4  UNL     1       2.523   2.470  80.600  1.00  0.00     0.239 C 
HETATM    6  N5  UNL     1       2.252   2.945  81.963  1.00  0.00    -0.057 N 
ATOM      7  H51 UNL     1       2.611   3.873  82.189  1.00  0.00     0.278 HD
ATOM      8  H52 UNL     1       2.767   2.474  82.707  1.00  0.00     0.278 HD
HETATM    9  C5  UNL     1       0.791   2.799  82.006  1.00  0.00     0.322 C 
ENDROOT
BRANCH   9  10
HETATM   10  C6  UNL     1       0.268   2.995  83.358  1.00  0.00     0.255 C 
HETATM   11  O1  UNL     1       1.069   3.017  84.345  1.00  0.00    -0.271 OA
HETATM   12  N6  UNL     1      -1.103   3.164  83.623  1.00  0.00    -0.346 N 
ATOM     13  H6  UNL     1      -1.749   3.145  82.834  1.00  0.00     0.163 HD
BRANCH  12  14
HETATM   14  C7  UNL     1      -1.652   3.364  84.949  1.00  0.00     0.174 C 
BRANCH  14  15
HETATM   15  C8  UNL     1      -2.427   2.170  85.457  1.00  0.00     0.039 C 
BRANCH  15  16
HETATM   16  C9  UNL     1      -1.766   1.648  86.692  1.00  0.00    -0.012 A 
HETATM   17  C10 UNL     1      -2.614   1.735  87.947  1.00  0.00     0.005 A 
HETATM   18  C11 UNL     1      -2.246   0.424  87.376  1.00  0.00     0.005 A 
ENDBRANCH  15  16
ENDBRANCH  14  15
BRANCH  14  19
HETATM   19  C12 UNL     1      -2.513   4.594  84.965  1.00  0.00     0.254 C 
HETATM   20  N7  UNL     1      -2.721   5.277  83.746  1.00  0.00    -0.060 NA
HETATM   21  O2  UNL     1      -3.053   5.042  86.005  1.00  0.00    -0.275 OA
ENDBRANCH  14  19
ENDBRANCH  12  14
ENDBRANCH   9  10
BRANCH   1  22
HETATM   22  C1  UNL     1      -0.369  -0.725  81.241  1.00  0.00     0.199 C 
HETATM   23  N3  UNL     1       0.399  -1.676  81.609  1.00  0.00    -0.282 N 
ATOM     24  H3  UNL     1       1.101  -1.521  82.332  1.00  0.00     0.189 HD
BRANCH  23  25
HETATM   25  N2  UNL     1       0.267  -2.926  81.011  1.00  0.00    -0.248 N 
HETATM   26  N1  UNL     1       1.040  -3.852  81.361  1.00  0.00    -0.331 N 
ATOM     27  H12 UNL     1       1.749  -3.673  82.074  1.00  0.00     0.178 HD
ATOM     28  H11 UNL     1       0.944  -4.767  80.924  1.00  0.00     0.178 HD
ATOM     29  H2  UNL     1      -0.446  -3.088  80.301  1.00  0.00     0.207 HD
ENDBRANCH  23  25
ENDBRANCH   1  22
TORSDOF 7
ENDMDL
MODEL 2
REMARK VINA RESULT: -7.353088161      1.857      2.844
REMARK  7 active torsions:
REMARK  status: ('A' for Active; 'I' for Inactive)
REMARK    1  A    between atoms: N2_4  and  N3_6 
REMARK    2  A    between atoms: C1_8  and  N4_9 
REMARK    3  A    between atoms: C5_17  and  C6_18 
REMARK       I    between atoms: C6_18  and  N6_20 
REMARK    4  A    between atoms: N6_20  and  C7_22 
REMARK    5  A    between atoms: C7_22  and  C8_23 
REMARK    6  A    between atoms: C7_22  and  C12_27 
REMARK    7  A    between atoms: C8_23  and  C9_24 
ROOT
HETATM    1  N4  UNL     1       0.158  -0.036  81.265  1.00  0.00    -0.356 N 
ATOM      2  H4  UNL     1      -0.833  -0.008  81.503  1.00  0.00     0.166 HD
HETATM    3  C2  UNL     1       0.835   1.039  81.364  1.00  0.00     0.029 C 
HETATM    4  C3  UNL     1       2.291   1.152  81.049  1.00  0.00     0.082 C 
HETATM    5  C4  UNL     1       2.572   2.649  81.244  1.00  0.00     0.239 C 
HETATM    6  N5  UNL     1       1.640   2.941  82.342  1.00  0.00    -0.057 N 
ATOM      7  H51 UNL     1       1.594   3.917  82.636  1.00  0.00     0.278 HD
ATOM      8  H52 UNL     1       1.913   2.590  83.260  1.00  0.00     0.278 HD
HETATM    9  C5  UNL     1       0.400   2.383  81.787  1.00  0.00     0.322 C 
ENDROOT
BRANCH   9  10
HETATM   10  C6  UNL     1      -0.666   2.337  82.789  1.00  0.00     0.255 C 
HETATM   11  O1  UNL     1      -1.851   2.662  82.464  1.00  0.00    -0.271 OA
HETATM   12  N6  UNL     1      -0.437   1.941  84.120  1.00  0.00    -0.346 N 
ATOM     13  H6  UNL     1       0.513   1.681  84.386  1.00  0.00     0.163 HD
BRANCH  12  14
HETATM   14  C7  UNL     1      -1.469   1.882  85.134  1.00  0.00     0.174 C 
BRANCH  14  15
HETATM   15  C8  UNL     1      -1.594   3.159  85.932  1.00  0.00     0.039 C 
BRANCH  15  16
HETATM   16  C9  UNL     1      -2.651   4.019  85.318  1.00  0.00    -0.012 A 
HETATM   17  C10 UNL     1      -2.658   5.456  85.804  1.00  0.00     0.005 A 
HETATM   18  C11 UNL     1      -2.316   5.135  84.404  1.00  0.00     0.005 A 
ENDBRANCH  15  16
ENDBRANCH  14  15
BRANCH  14  19
HETATM   19  C12 UNL     1      -1.222   0.715  86.047  1.00  0.00     0.254 C 
HETATM   20  N7  UNL     1      -2.340  -0.012  86.514  1.00  0.00    -0.060 NA
HETATM   21  O2  UNL     1      -0.076   0.357  86.411  1.00  0.00    -0.275 OA
ENDBRANCH  14  19
ENDBRANCH  12  14
ENDBRANCH   9  10
BRANCH   1  22
HETATM   22  C1  UNL     1       0.714  -1.271  80.838  1.00  0.00     0.199 C 
HETATM   23  N3  UNL     1       0.863  -2.286  81.596  1.00  0.00    -0.282 N 
ATOM     24  H3  UNL     1       0.577  -2.246  82.574  1.00  0.00     0.189 HD
BRANCH  23  25
HETATM   25  N2  UNL     1       1.420  -3.449  81.072  1.00  0.00    -0.248 N 
HETATM   26  N1  UNL     1       0.837  -4.544  81.267  1.00  0.00    -0.331 N 
ATOM     27  H12 UNL     1      -0.031  -4.563  81.804  1.00  0.00     0.178 HD
ATOM     28  H11 UNL     1       1.245  -5.396  80.884  1.00  0.00     0.178 HD
ATOM     29  H2  UNL     1       2.288  -3.413  80.538  1.00  0.00     0.207 HD
ENDBRANCH  23  25
ENDBRANCH   1  22
TORSDOF 7
ENDMDL
MODEL 3
REMARK VINA RESULT: -7.328374708      2.373      4.539
REMARK  7 active torsions:
REMARK  status: ('A' for Active; 'I' for Inactive)
REMARK    1  A    between atoms: N2_4  and  N3_6 
REMARK    2  A    between atoms: C1_8  and  N4_9 
REMARK    3  A    between atoms: C5_17  and  C6_18 
REMARK       I    between atoms: C6_18  and  N6_20 
REMARK    4  A    between atoms: N6_20  and  C7_22 
REMARK    5  A    between atoms: C7_22  and  C8_23 
REMARK    6  A    between atoms: C7_22  and  C12_27 
REMARK    7  A    between atoms: C8_23  and  C9_24 
ROOT
HETATM    1  N4  UNL     1       1.531   2.483  82.300  1.00  0.00    -0.356 N 
ATOM      2  H4  UNL     1       1.171   2.705  83.228  1.00  0.00     0.166 HD
HETATM    3  C2  UNL     1       1.074   1.454  81.704  1.00  0.00     0.029 C 
HETATM    4  C3  UNL     1       1.505   1.003  80.346  1.00  0.00     0.082 C 
HETATM    5  C4  UNL     1       0.729  -0.307  80.153  1.00  0.00     0.239 C 
HETATM    6  N5  UNL     1      -0.503   0.017  80.884  1.00  0.00    -0.057 N 
ATOM      7  H51 UNL     1      -1.189  -0.735  80.952  1.00  0.00     0.278 HD
ATOM      8  H52 UNL     1      -1.137   0.666  80.418  1.00  0.00     0.278 HD
HETATM    9  C5  UNL     1       0.063   0.481  82.158  1.00  0.00     0.322 C 
ENDROOT
BRANCH   9  10
HETATM   10  C6  UNL     1      -0.958   1.091  83.011  1.00  0.00     0.255 C 
HETATM   11  O1  UNL     1      -1.925   1.723  82.482  1.00  0.00    -0.271 OA
HETATM   12  N6  UNL     1      -0.919   1.009  84.415  1.00  0.00    -0.346 N 
ATOM     13  H6  UNL     1      -0.143   0.505  84.844  1.00  0.00     0.163 HD
BRANCH  12  14
HETATM   14  C7  UNL     1      -1.914   1.598  85.288  1.00  0.00     0.174 C 
BRANCH  14  15
HETATM   15  C8  UNL     1      -1.576   3.010  85.707  1.00  0.00     0.039 C 
BRANCH  15  16
HETATM   16  C9  UNL     1      -2.474   3.963  84.987  1.00  0.00    -0.012 A 
HETATM   17  C10 UNL     1      -2.337   5.410  85.421  1.00  0.00     0.005 A 
HETATM   18  C11 UNL     1      -1.940   4.990  84.062  1.00  0.00     0.005 A 
ENDBRANCH  15  16
ENDBRANCH  14  15
BRANCH  14  19
HETATM   19  C12 UNL     1      -2.117   0.726  86.493  1.00  0.00     0.254 C 
HETATM   20  N7  UNL     1      -3.426   0.273  86.773  1.00  0.00    -0.060 NA
HETATM   21  O2  UNL     1      -1.185   0.383  87.259  1.00  0.00    -0.275 OA
ENDBRANCH  14  19
ENDBRANCH  12  14
ENDBRANCH   9  10
BRANCH   1  22
HETATM   22  C1  UNL     1       2.515   3.337  81.737  1.00  0.00     0.199 C 
HETATM   23  N3  UNL     1       3.724   3.394  82.140  1.00  0.00    -0.282 N 
ATOM     24  H3  UNL     1       4.040   2.806  82.911  1.00  0.00     0.189 HD
BRANCH  23  25
HETATM   25  N2  UNL     1       4.608   4.269  81.515  1.00  0.00    -0.248 N 
HETATM   26  N1  UNL     1       5.823   4.235  81.831  1.00  0.00    -0.331 N 
ATOM     27  H12 UNL     1       6.141   3.571  82.537  1.00  0.00     0.178 HD
ATOM     28  H11 UNL     1       6.471   4.876  81.373  1.00  0.00     0.178 HD
ATOM     29  H2  UNL     1       4.275   4.927  80.811  1.00  0.00     0.207 HD
ENDBRANCH  23  25
ENDBRANCH   1  22
TORSDOF 7
ENDMDL
MODEL 4
REMARK VINA RESULT: -7.149546685      2.071      4.508
REMARK  7 active torsions:
REMARK  status: ('A' for Active; 'I' for Inactive)
REMARK    1  A    between atoms: N2_4  and  N3_6 
REMARK    2  A    between atoms: C1_8  and  N4_9 
REMARK    3  A    between atoms: C5_17  and  C6_18 
REMARK       I    between atoms: C6_18  and  N6_20 
REMARK    4  A    between atoms: N6_20  and  C7_22 
REMARK    5  A    between atoms: C7_22  and  C8_23 
REMARK    6  A    between atoms: C7_22  and  C12_27 
REMARK    7  A    between atoms: C8_23  and  C9_24 
ROOT
HETATM    1  N4  UNL     1       1.485   2.655  82.183  1.00  0.00    -0.356 N 
ATOM      2  H4  UNL     1       1.020   3.206  82.905  1.00  0.00     0.166 HD
HETATM    3  C2  UNL     1       1.018   1.503  81.906  1.00  0.00     0.029 C 
HETATM    4  C3  UNL     1       1.591   0.584  80.877  1.00  0.00     0.082 C 
HETATM    5  C4  UNL     1       0.723  -0.675  81.014  1.00  0.00     0.239 C 
HETATM    6  N5  UNL     1      -0.563  -0.059  81.369  1.00  0.00    -0.057 N 
ATOM      7  H51 UNL     1      -1.324  -0.707  81.571  1.00  0.00     0.278 HD
ATOM      8  H52 UNL     1      -1.054   0.411  80.609  1.00  0.00     0.278 HD
HETATM    9  C5  UNL     1      -0.142   0.799  82.485  1.00  0.00     0.322 C 
ENDROOT
BRANCH   9  10
HETATM   10  C6  UNL     1      -1.208   1.716  82.892  1.00  0.00     0.255 C 
HETATM   11  O1  UNL     1      -2.107   2.046  82.057  1.00  0.00    -0.271 OA
HETATM   12  N6  UNL     1      -1.287   2.257  84.188  1.00  0.00    -0.346 N 
ATOM     13  H6  UNL     1      -0.566   1.996  84.861  1.00  0.00     0.163 HD
BRANCH  12  14
HETATM   14  C7  UNL     1      -2.329   3.163  84.624  1.00  0.00     0.174 C 
BRANCH  14  15
HETATM   15  C8  UNL     1      -1.962   4.619  84.453  1.00  0.00     0.039 C 
BRANCH  15  16
HETATM   16  C9  UNL     1      -0.473   4.748  84.426  1.00  0.00    -0.012 A 
HETATM   17  C10 UNL     1       0.064   5.645  83.327  1.00  0.00     0.005 A 
HETATM   18  C11 UNL     1       0.206   6.025  84.747  1.00  0.00     0.005 A 
ENDBRANCH  15  16
ENDBRANCH  14  15
BRANCH  14  19
HETATM   19  C12 UNL     1      -2.691   2.877  86.052  1.00  0.00     0.254 C 
HETATM   20  N7  UNL     1      -2.216   1.679  86.632  1.00  0.00    -0.060 NA
HETATM   21  O2  UNL     1      -3.391   3.647  86.753  1.00  0.00    -0.275 OA
ENDBRANCH  14  19
ENDBRANCH  12  14
ENDBRANCH   9  10
BRANCH   1  22
HETATM   22  C1  UNL     1       2.622   3.211  81.540  1.00  0.00     0.199 C 
HETATM   23  N3  UNL     1       3.774   3.303  82.080  1.00  0.00    -0.282 N 
ATOM     24  H3  UNL     1       3.926   2.968  83.031  1.00  0.00     0.189 HD
BRANCH  23  25
HETATM   25  N2  UNL     1       4.821   3.866  81.357  1.00  0.00    -0.248 N 
HETATM   26  N1  UNL     1       5.672   4.563  81.962  1.00  0.00    -0.331 N 
ATOM     27  H12 UNL     1       5.583   4.706  82.968  1.00  0.00     0.178 HD
ATOM     28  H11 UNL     1       6.439   4.976  81.432  1.00  0.00     0.178 HD
ATOM     29  H2  UNL     1       4.896   3.715  80.351  1.00  0.00     0.207 HD
ENDBRANCH  23  25
ENDBRANCH   1  22
TORSDOF 7
ENDMDL
MODEL 5
REMARK VINA RESULT: -7.139955291      2.581      4.702
REMARK  7 active torsions:
REMARK  status: ('A' for Active; 'I' for Inactive)
REMARK    1  A    between atoms: N2_4  and  N3_6 
REMARK    2  A    between atoms: C1_8  and  N4_9 
REMARK    3  A    between atoms: C5_17  and  C6_18 
REMARK       I    between atoms: C6_18  and  N6_20 
REMARK    4  A    between atoms: N6_20  and  C7_22 
REMARK    5  A    between atoms: C7_22  and  C8_23 
REMARK    6  A    between atoms: C7_22  and  C12_27 
REMARK    7  A    between atoms: C8_23  and  C9_24 
ROOT
HETATM    1  N4  UNL     1       1.144   4.208  82.243  1.00  0.00    -0.356 N 
ATOM      2  H4  UNL     1       0.447   3.494  82.032  1.00  0.00     0.166 HD
HETATM    3  C2  UNL     1       0.829   5.142  83.050  1.00  0.00     0.029 C 
HETATM    4  C3  UNL     1       1.741   6.256  83.451  1.00  0.00     0.082 C 
HETATM    5  C4  UNL     1       0.849   7.130  84.343  1.00  0.00     0.239 C 
HETATM    6  N5  UNL     1       0.013   6.092  84.962  1.00  0.00    -0.057 N 
ATOM      7  H51 UNL     1      -0.724   6.428  85.583  1.00  0.00     0.278 HD
ATOM      8  H52 UNL     1       0.469   5.522  85.674  1.00  0.00     0.278 HD
HETATM    9  C5  UNL     1      -0.441   5.373  83.763  1.00  0.00     0.322 C 
ENDROOT
BRANCH   9  10
HETATM   10  C6  UNL     1      -1.124   4.126  84.109  1.00  0.00     0.255 C 
HETATM   11  O1  UNL     1      -2.368   4.006  83.881  1.00  0.00    -0.271 OA
HETATM   12  N6  UNL     1      -0.455   3.033  84.691  1.00  0.00    -0.346 N 
ATOM     13  H6  UNL     1       0.543   3.127  84.877  1.00  0.00     0.163 HD
BRANCH  12  14
HETATM   14  C7  UNL     1      -1.100   1.785  85.042  1.00  0.00     0.174 C 
BRANCH  14  15
HETATM   15  C8  UNL     1      -0.825   1.352  86.463  1.00  0.00     0.039 C 
BRANCH  15  16
HETATM   16  C9  UNL     1      -2.099   0.883  87.088  1.00  0.00    -0.012 A 
HETATM   17  C10 UNL     1      -2.687   1.834  88.114  1.00  0.00     0.005 A 
HETATM   18  C11 UNL     1      -3.388   1.570  86.841  1.00  0.00     0.005 A 
ENDBRANCH  15  16
ENDBRANCH  14  15
BRANCH  14  19
HETATM   19  C12 UNL     1      -0.691   0.710  84.077  1.00  0.00     0.254 C 
HETATM   20  N7  UNL     1       0.116   1.076  82.977  1.00  0.00    -0.060 NA
HETATM   21  O2  UNL     1      -1.030  -0.492  84.201  1.00  0.00    -0.275 OA
ENDBRANCH  14  19
ENDBRANCH  12  14
ENDBRANCH   9  10
BRANCH   1  22
HETATM   22  C1  UNL     1       2.417   4.112  81.621  1.00  0.00     0.199 C 
HETATM   23  N3  UNL     1       3.402   3.466  82.111  1.00  0.00    -0.282 N 
ATOM     24  H3  UNL     1       3.308   2.977  83.001  1.00  0.00     0.189 HD
BRANCH  23  25
HETATM   25  N2  UNL     1       4.608   3.436  81.416  1.00  0.00    -0.248 N 
HETATM   26  N1  UNL     1       5.528   4.219  81.761  1.00  0.00    -0.331 N 
ATOM     27  H12 UNL     1       5.378   4.860  82.540  1.00  0.00     0.178 HD
ATOM     28  H11 UNL     1       6.411   4.197  81.252  1.00  0.00     0.178 HD
ATOM     29  H2  UNL     1       4.743   2.790  80.639  1.00  0.00     0.207 HD
ENDBRANCH  23  25
ENDBRANCH   1  22
TORSDOF 7
ENDMDL
