MODEL 1
REMARK VINA RESULT: -6.938016151      0.000      0.000
REMARK  9 active torsions:
REMARK  status: ('A' for Active; 'I' for Inactive)
REMARK    1  A    between atoms: C3_5  and  N2_6 
REMARK    2  A    between atoms: C3_5  and  C13_21 
REMARK    3  A    between atoms: N2_6  and  C4_8 
REMARK    4  A    between atoms: C4_8  and  C5_9 
REMARK    5  A    between atoms: C4_8  and  C6_12 
REMARK    6  A    between atoms: C5_9  and  O1_10 
REMARK    7  A    between atoms: C6_12  and  C7_13 
REMARK    8  A    between atoms: C7_13  and  C8_14 
REMARK    9  A    between atoms: C10_18  and  C11_19 
ROOT
HETATM    1  C1  UNL     1       4.467   3.685  81.001  1.00  0.00     0.123 C 
HETATM    2  C2  UNL     1       3.264   3.480  81.129  1.00  0.00    -0.074 C 
HETATM    3  N1  UNL     1       1.935   3.220  81.258  1.00  0.00    -0.315 N 
ATOM      4  H1  UNL     1       1.628   2.347  80.829  1.00  0.00     0.176 HD
HETATM    5  C3  UNL     1       1.029   3.874  81.815  1.00  0.00     0.088 C 
ENDROOT
BRANCH   5   6
HETATM    6  N2  UNL     1      -0.299   3.246  81.737  1.00  0.00    -0.372 N 
ATOM      7  H2  UNL     1      -1.028   3.699  81.186  1.00  0.00     0.161 HD
BRANCH   6   8
HETATM    8  C4  UNL     1      -0.603   2.019  82.408  1.00  0.00     0.107 C 
BRANCH   8   9
HETATM    9  C5  UNL     1      -1.030   0.925  81.403  1.00  0.00     0.189 C 
BRANCH   9  10
HETATM   10  O1  UNL     1      -1.289   1.431  80.155  1.00  0.00    -0.399 OA
ATOM     11  H1  UNL     1      -2.179   1.262  79.871  1.00  0.00     0.209 HD
ENDBRANCH   9  10
ENDBRANCH   8   9
BRANCH   8  12
HETATM   12  C6  UNL     1      -1.689   2.210  83.395  1.00  0.00     0.046 C 
BRANCH  12  13
HETATM   13  C7  UNL     1      -1.389   1.971  84.829  1.00  0.00     0.048 A 
HETATM   14  C9  UNL     1      -1.117   3.071  85.815  1.00  0.00     0.029 A 
HETATM   15  C10 UNL     1      -2.470   2.514  85.756  1.00  0.00     0.026 A 
BRANCH  13  16
HETATM   16  C8  UNL     1      -0.775   0.677  85.244  1.00  0.00     0.240 C 
HETATM   17  N3  UNL     1       0.299   0.696  86.157  1.00  0.00    -0.061 NA
HETATM   18  O2  UNL     1      -1.160  -0.436  84.821  1.00  0.00    -0.276 OA
ENDBRANCH  13  16
BRANCH  15  19
HETATM   19  C11 UNL     1      -3.091   1.663  86.773  1.00  0.00    -0.031 C 
HETATM   20  C12 UNL     1      -2.731   1.786  88.040  1.00  0.00     0.007 C 
ENDBRANCH  15  19
ENDBRANCH  12  13
ENDBRANCH   8  12
ENDBRANCH   6   8
ENDBRANCH   5   6
BRANCH   5  21
HETATM   21  C13 UNL     1       1.136   5.147  82.531  1.00  0.00     0.054 C 
HETATM   22  C14 UNL     1       1.481   5.053  83.989  1.00  0.00     0.012 C 
HETATM   23  C15 UNL     1       0.321   5.959  84.305  1.00  0.00     0.002 C 
HETATM   24  C16 UNL     1      -0.166   5.811  82.891  1.00  0.00     0.012 C 
ENDBRANCH   5  21
TORSDOF 9
ENDMDL
MODEL 2
REMARK VINA RESULT: -6.926757016      1.471      1.622
REMARK  9 active torsions:
REMARK  status: ('A' for Active; 'I' for Inactive)
REMARK    1  A    between atoms: C3_5  and  N2_6 
REMARK    2  A    between atoms: C3_5  and  C13_21 
REMARK    3  A    between atoms: N2_6  and  C4_8 
REMARK    4  A    between atoms: C4_8  and  C5_9 
REMARK    5  A    between atoms: C4_8  and  C6_12 
REMARK    6  A    between atoms: C5_9  and  O1_10 
REMARK    7  A    between atoms: C6_12  and  C7_13 
REMARK    8  A    between atoms: C7_13  and  C8_14 
REMARK    9  A    between atoms: C10_18  and  C11_19 
ROOT
HETATM    1  C1  UNL     1       4.921   4.051  81.003  1.00  0.00     0.123 C 
HETATM    2  C2  UNL     1       3.835   3.481  81.006  1.00  0.00    -0.074 C 
HETATM    3  N1  UNL     1       2.648   2.817  81.016  1.00  0.00    -0.315 N 
ATOM      4  H1  UNL     1       2.728   1.800  81.018  1.00  0.00     0.176 HD
HETATM    5  C3  UNL     1       1.476   3.248  81.024  1.00  0.00     0.088 C 
ENDROOT
BRANCH   5   6
HETATM    6  N2  UNL     1       0.450   2.193  81.034  1.00  0.00    -0.372 N 
ATOM      7  H2  UNL     1      -0.171   2.101  80.230  1.00  0.00     0.161 HD
BRANCH   6   8
HETATM    8  C4  UNL     1       0.292   1.293  82.135  1.00  0.00     0.107 C 
BRANCH   8   9
HETATM    9  C5  UNL     1       0.228  -0.173  81.651  1.00  0.00     0.189 C 
BRANCH   9  10
HETATM   10  O1  UNL     1      -0.852  -0.848  82.161  1.00  0.00    -0.399 OA
ATOM     11  H1  UNL     1      -0.912  -1.738  81.836  1.00  0.00     0.209 HD
ENDBRANCH   9  10
ENDBRANCH   8   9
BRANCH   8  12
HETATM   12  C6  UNL     1      -0.938   1.599  82.898  1.00  0.00     0.046 C 
BRANCH  12  13
HETATM   13  C7  UNL     1      -0.812   1.919  84.342  1.00  0.00     0.048 A 
HETATM   14  C9  UNL     1      -0.482   3.287  84.864  1.00  0.00     0.029 A 
HETATM   15  C10 UNL     1      -1.889   2.881  84.829  1.00  0.00     0.026 A 
BRANCH  13  16
HETATM   16  C8  UNL     1      -0.429   0.842  85.301  1.00  0.00     0.240 C 
HETATM   17  N3  UNL     1      -1.036  -0.424  85.179  1.00  0.00    -0.061 NA
HETATM   18  O2  UNL     1       0.406   1.002  86.219  1.00  0.00    -0.276 OA
ENDBRANCH  13  16
BRANCH  15  19
HETATM   19  C11 UNL     1      -2.717   2.562  85.993  1.00  0.00    -0.031 C 
HETATM   20  C12 UNL     1      -3.162   3.538  86.768  1.00  0.00     0.007 C 
ENDBRANCH  15  19
ENDBRANCH  12  13
ENDBRANCH   8  12
ENDBRANCH   6   8
ENDBRANCH   5   6
BRANCH   5  21
HETATM   21  C13 UNL     1       1.019   4.639  81.040  1.00  0.00     0.054 C 
HETATM   22  C14 UNL     1       1.027   5.316  82.381  1.00  0.00     0.012 C 
HETATM   23  C15 UNL     1      -0.394   5.755  82.149  1.00  0.00     0.002 C 
HETATM   24  C16 UNL     1      -0.470   4.844  80.957  1.00  0.00     0.012 C 
ENDBRANCH   5  21
TORSDOF 9
ENDMDL
MODEL 3
REMARK VINA RESULT: -6.792792498      1.344      1.606
REMARK  9 active torsions:
REMARK  status: ('A' for Active; 'I' for Inactive)
REMARK    1  A    between atoms: C3_5  and  N2_6 
REMARK    2  A    between atoms: C3_5  and  C13_21 
REMARK    3  A    between atoms: N2_6  and  C4_8 
REMARK    4  A    between atoms: C4_8  and  C5_9 
REMARK    5  A    between atoms: C4_8  and  C6_12 
REMARK    6  A    between atoms: C5_9  and  O1_10 
REMARK    7  A    between atoms: C6_12  and  C7_13 
REMARK    8  A    between atoms: C7_13  and  C8_14 
REMARK    9  A    between atoms: C10_18  and  C11_19 
ROOT
HETATM    1  C1  UNL     1       0.518   5.240  78.651  1.00  0.00     0.123 C 
HETATM    2  C2  UNL     1       0.582   4.383  79.527  1.00  0.00    -0.074 C 
HETATM    3  N1  UNL     1       0.649   3.408  80.473  1.00  0.00    -0.315 N 
ATOM      4  H1  UNL     1       0.412   2.474  80.139  1.00  0.00     0.176 HD
HETATM    5  C3  UNL     1       0.952   3.468  81.682  1.00  0.00     0.088 C 
ENDROOT
BRANCH   5   6
HETATM    6  N2  UNL     1       0.905   2.172  82.377  1.00  0.00    -0.372 N 
ATOM      7  H2  UNL     1       1.771   1.780  82.747  1.00  0.00     0.161 HD
BRANCH   6   8
HETATM    8  C4  UNL     1      -0.314   1.443  82.551  1.00  0.00     0.107 C 
BRANCH   8   9
HETATM    9  C5  UNL     1      -0.987   1.152  81.190  1.00  0.00     0.189 C 
BRANCH   9  10
HETATM   10  O1  UNL     1      -2.171   1.825  81.035  1.00  0.00    -0.399 OA
ATOM     11  H1  UNL     1      -2.833   1.301  80.599  1.00  0.00     0.209 HD
ENDBRANCH   9  10
ENDBRANCH   8   9
BRANCH   8  12
HETATM   12  C6  UNL     1      -1.263   2.192  83.402  1.00  0.00     0.046 C 
BRANCH  12  13
HETATM   13  C7  UNL     1      -1.179   2.021  84.874  1.00  0.00     0.048 A 
HETATM   14  C9  UNL     1      -1.099   3.167  85.840  1.00  0.00     0.029 A 
HETATM   15  C10 UNL     1      -2.407   2.553  85.602  1.00  0.00     0.026 A 
BRANCH  13  16
HETATM   16  C8  UNL     1      -0.591   0.770  85.434  1.00  0.00     0.240 C 
HETATM   17  N3  UNL     1      -1.133  -0.471  85.042  1.00  0.00    -0.061 NA
HETATM   18  O2  UNL     1       0.364   0.758  86.242  1.00  0.00    -0.276 OA
ENDBRANCH  13  16
BRANCH  15  19
HETATM   19  C11 UNL     1      -3.147   1.717  86.549  1.00  0.00    -0.031 C 
HETATM   20  C12 UNL     1      -2.883   1.800  87.842  1.00  0.00     0.007 C 
ENDBRANCH  15  19
ENDBRANCH  12  13
ENDBRANCH   8  12
ENDBRANCH   6   8
ENDBRANCH   5   6
BRANCH   5  21
HETATM   21  C13 UNL     1       1.354   4.642  82.461  1.00  0.00     0.054 C 
HETATM   22  C14 UNL     1       1.681   4.390  83.905  1.00  0.00     0.012 C 
HETATM   23  C15 UNL     1       0.761   5.518  84.292  1.00  0.00     0.002 C 
HETATM   24  C16 UNL     1       0.241   5.563  82.884  1.00  0.00     0.012 C 
ENDBRANCH   5  21
TORSDOF 9
ENDMDL
MODEL 4
REMARK VINA RESULT: -6.676310367      1.572      2.761
REMARK  9 active torsions:
REMARK  status: ('A' for Active; 'I' for Inactive)
REMARK    1  A    between atoms: C3_5  and  N2_6 
REMARK    2  A    between atoms: C3_5  and  C13_21 
REMARK    3  A    between atoms: N2_6  and  C4_8 
REMARK    4  A    between atoms: C4_8  and  C5_9 
REMARK    5  A    between atoms: C4_8  and  C6_12 
REMARK    6  A    between atoms: C5_9  and  O1_10 
REMARK    7  A    between atoms: C6_12  and  C7_13 
REMARK    8  A    between atoms: C7_13  and  C8_14 
REMARK    9  A    between atoms: C10_18  and  C11_19 
ROOT
HETATM    1  C1  UNL     1      -1.034   6.789  81.619  1.00  0.00     0.123 C 
HETATM    2  C2  UNL     1      -0.854   5.587  81.452  1.00  0.00    -0.074 C 
HETATM    3  N1  UNL     1      -0.691   4.250  81.263  1.00  0.00    -0.315 N 
ATOM      4  H1  UNL     1      -1.551   3.704  81.312  1.00  0.00     0.176 HD
HETATM    5  C3  UNL     1       0.340   3.581  81.041  1.00  0.00     0.088 C 
ENDROOT
BRANCH   5   6
HETATM    6  N2  UNL     1       0.096   2.137  80.894  1.00  0.00    -0.372 N 
ATOM      7  H2  UNL     1      -0.077   1.759  79.962  1.00  0.00     0.161 HD
BRANCH   6   8
HETATM    8  C4  UNL     1       0.094   1.246  82.013  1.00  0.00     0.107 C 
BRANCH   8   9
HETATM    9  C5  UNL     1       0.144  -0.228  81.552  1.00  0.00     0.189 C 
BRANCH   9  10
HETATM   10  O1  UNL     1      -0.821  -0.999  82.149  1.00  0.00    -0.399 OA
ATOM     11  H1  UNL     1      -0.558  -1.907  82.238  1.00  0.00     0.209 HD
ENDBRANCH   9  10
ENDBRANCH   8   9
BRANCH   8  12
HETATM   12  C6  UNL     1      -1.113   1.445  82.846  1.00  0.00     0.046 C 
BRANCH  12  13
HETATM   13  C7  UNL     1      -0.934   1.741  84.289  1.00  0.00     0.048 A 
HETATM   14  C9  UNL     1      -0.487   3.075  84.814  1.00  0.00     0.029 A 
HETATM   15  C10 UNL     1      -1.922   2.780  84.805  1.00  0.00     0.026 A 
BRANCH  13  16
HETATM   16  C8  UNL     1      -0.618   0.629  85.232  1.00  0.00     0.240 C 
HETATM   17  N3  UNL     1       0.330   0.850  86.251  1.00  0.00    -0.061 NA
HETATM   18  O2  UNL     1      -1.149  -0.502  85.167  1.00  0.00    -0.276 OA
ENDBRANCH  13  16
BRANCH  15  19
HETATM   19  C11 UNL     1      -2.750   2.517  85.984  1.00  0.00    -0.031 C 
HETATM   20  C12 UNL     1      -3.175   3.526  86.725  1.00  0.00     0.007 C 
ENDBRANCH  15  19
ENDBRANCH  12  13
ENDBRANCH   8  12
ENDBRANCH   6   8
ENDBRANCH   5   6
BRANCH   5  21
HETATM   21  C13 UNL     1       1.718   4.055  80.896  1.00  0.00     0.054 C 
HETATM   22  C14 UNL     1       2.664   3.118  80.202  1.00  0.00     0.012 C 
HETATM   23  C15 UNL     1       3.637   3.286  81.339  1.00  0.00     0.002 C 
HETATM   24  C16 UNL     1       2.571   3.985  82.134  1.00  0.00     0.012 C 
ENDBRANCH   5  21
TORSDOF 9
ENDMDL
MODEL 5
REMARK VINA RESULT: -6.482448040      1.827      6.100
REMARK  9 active torsions:
REMARK  status: ('A' for Active; 'I' for Inactive)
REMARK    1  A    between atoms: C3_5  and  N2_6 
REMARK    2  A    between atoms: C3_5  and  C13_21 
REMARK    3  A    between atoms: N2_6  and  C4_8 
REMARK    4  A    between atoms: C4_8  and  C5_9 
REMARK    5  A    between atoms: C4_8  and  C6_12 
REMARK    6  A    between atoms: C5_9  and  O1_10 
REMARK    7  A    between atoms: C6_12  and  C7_13 
REMARK    8  A    between atoms: C7_13  and  C8_14 
REMARK    9  A    between atoms: C10_18  and  C11_19 
ROOT
HETATM    1  C1  UNL     1      -2.674   0.674  87.249  1.00  0.00     0.123 C 
HETATM    2  C2  UNL     1      -1.951   0.725  86.259  1.00  0.00    -0.074 C 
HETATM    3  N1  UNL     1      -1.163   0.750  85.150  1.00  0.00    -0.315 N 
ATOM      4  H1  UNL     1      -1.137  -0.124  84.626  1.00  0.00     0.176 HD
HETATM    5  C3  UNL     1      -0.467   1.668  84.669  1.00  0.00     0.088 C 
ENDROOT
BRANCH   5   6
HETATM    6  N2  UNL     1       0.249   1.294  83.439  1.00  0.00    -0.372 N 
ATOM      7  H2  UNL     1       1.032   0.643  83.503  1.00  0.00     0.161 HD
BRANCH   6   8
HETATM    8  C4  UNL     1      -0.115   1.814  82.156  1.00  0.00     0.107 C 
BRANCH   8   9
HETATM    9  C5  UNL     1      -1.212   0.949  81.496  1.00  0.00     0.189 C 
BRANCH   9  10
HETATM   10  O1  UNL     1      -2.240   1.702  80.990  1.00  0.00    -0.399 OA
ATOM     11  H1  UNL     1      -1.997   2.164  80.196  1.00  0.00     0.209 HD
ENDBRANCH   9  10
ENDBRANCH   8   9
BRANCH   8  12
HETATM   12  C6  UNL     1       1.057   1.868  81.255  1.00  0.00     0.046 C 
BRANCH  12  13
HETATM   13  C7  UNL     1       1.473   3.188  80.717  1.00  0.00     0.048 A 
HETATM   14  C9  UNL     1       2.744   3.883  81.112  1.00  0.00     0.029 A 
HETATM   15  C10 UNL     1       2.737   3.108  79.869  1.00  0.00     0.026 A 
BRANCH  13  16
HETATM   16  C8  UNL     1       0.434   4.143  80.234  1.00  0.00     0.240 C 
HETATM   17  N3  UNL     1       0.491   5.484  80.663  1.00  0.00    -0.061 NA
HETATM   18  O2  UNL     1      -0.498   3.817  79.465  1.00  0.00    -0.276 OA
ENDBRANCH  13  16
BRANCH  15  19
HETATM   19  C11 UNL     1       2.775   3.661  78.514  1.00  0.00    -0.031 C 
HETATM   20  C12 UNL     1       3.931   4.038  77.992  1.00  0.00     0.007 C 
ENDBRANCH  15  19
ENDBRANCH  12  13
ENDBRANCH   8  12
ENDBRANCH   6   8
ENDBRANCH   5   6
BRANCH   5  21
HETATM   21  C13 UNL     1      -0.300   3.036  85.162  1.00  0.00     0.054 C 
HETATM   22  C14 UNL     1      -1.292   4.043  84.653  1.00  0.00     0.012 C 
HETATM   23  C15 UNL     1      -0.153   4.954  84.283  1.00  0.00     0.002 C 
HETATM   24  C16 UNL     1       0.814   3.831  84.534  1.00  0.00     0.012 C 
ENDBRANCH   5  21
TORSDOF 9
ENDMDL
