MODEL 1
REMARK VINA RESULT: -6.215781871      0.000      0.000
REMARK  9 active torsions:
REMARK  status: ('A' for Active; 'I' for Inactive)
REMARK    1  A    between atoms: C2_2  and  C4_4 
REMARK    2  A    between atoms: C4_4  and  N1_5 
REMARK    3  A    between atoms: N1_5  and  C5_6 
REMARK    4  A    between atoms: C5_6  and  C6_7 
REMARK    5  A    between atoms: C6_7  and  C7_8 
REMARK    6  A    between atoms: C7_8  and  C8_9 
REMARK    7  A    between atoms: C8_9  and  N2_10 
REMARK    8  A    between atoms: C14_18  and  O1_19 
REMARK    9  A    between atoms: C15_21  and  O2_22 
ROOT
HETATM    1  N1  UNL     1      -1.144   2.260  84.895  1.00  0.00    -0.036 N 
HETATM    2  C13 UNL     1      -2.191   1.877  85.804  1.00  0.00     0.276 C 
HETATM    3  C14 UNL     1      -1.570   0.514  86.056  1.00  0.00     0.201 C 
HETATM    4  C15 UNL     1      -0.375   1.114  85.386  1.00  0.00     0.354 C 
ENDROOT
BRANCH   1   5
HETATM    5  C4  UNL     1      -0.478   3.489  85.119  1.00  0.00     0.244 C 
BRANCH   5   6
HETATM    6  C2  UNL     1      -1.016   4.690  84.401  1.00  0.00     0.003 C 
HETATM    7  C1  UNL     1      -2.305   5.078  85.144  1.00  0.00     0.011 C 
HETATM    8  C3  UNL     1      -0.107   5.891  84.527  1.00  0.00     0.011 C 
ENDBRANCH   5   6
ENDBRANCH   1   5
BRANCH   1   9
HETATM    9  C5  UNL     1      -1.498   2.138  83.503  1.00  0.00     0.241 C 
BRANCH   9  10
HETATM   10  C6  UNL     1      -0.693   1.143  82.740  1.00  0.00     0.030 C 
BRANCH  10  11
HETATM   11  C7  UNL     1      -0.574   1.731  81.332  1.00  0.00     0.032 C 
BRANCH  11  12
HETATM   12  C8  UNL     1       0.837   1.845  80.867  1.00  0.00     0.272 C 
BRANCH  12  13
HETATM   13  N2  UNL     1       1.238   3.128  80.428  1.00  0.00     0.091 N 
HETATM   14  C9  UNL     1       2.585   3.115  79.893  1.00  0.00     0.291 C 
HETATM   15  C10 UNL     1       3.637   2.851  80.934  1.00  0.00     0.144 C 
HETATM   16  N3  UNL     1       3.533   3.659  82.105  1.00  0.00    -0.418 N 
HETATM   17  C11 UNL     1       2.203   3.944  82.545  1.00  0.00     0.144 C 
ATOM     18  H3  UNL     1       4.354   4.011  82.595  1.00  0.00     0.153 HD
HETATM   19  C12 UNL     1       1.200   4.114  81.461  1.00  0.00     0.291 C 
ENDBRANCH  12  13
ENDBRANCH  11  12
ENDBRANCH  10  11
ENDBRANCH   9  10
ENDBRANCH   1   9
BRANCH   4  20
HETATM   20  O2  UNL     1       0.671   1.429  86.230  1.00  0.00    -0.367 OA
ATOM     21  H2  UNL     1       0.574   1.121  87.123  1.00  0.00     0.212 HD
ENDBRANCH   4  20
BRANCH   3  22
HETATM   22  O1  UNL     1      -1.348   0.233  87.405  1.00  0.00    -0.389 OA
ATOM     23  H1  UNL     1      -1.894  -0.464  87.749  1.00  0.00     0.210 HD
ENDBRANCH   3  22
TORSDOF 9
ENDMDL
MODEL 2
REMARK VINA RESULT: -6.092755342      0.815      1.374
REMARK  9 active torsions:
REMARK  status: ('A' for Active; 'I' for Inactive)
REMARK    1  A    between atoms: C2_2  and  C4_4 
REMARK    2  A    between atoms: C4_4  and  N1_5 
REMARK    3  A    between atoms: N1_5  and  C5_6 
REMARK    4  A    between atoms: C5_6  and  C6_7 
REMARK    5  A    between atoms: C6_7  and  C7_8 
REMARK    6  A    between atoms: C7_8  and  C8_9 
REMARK    7  A    between atoms: C8_9  and  N2_10 
REMARK    8  A    between atoms: C14_18  and  O1_19 
REMARK    9  A    between atoms: C15_21  and  O2_22 
ROOT
HETATM    1  N1  UNL     1      -1.163   2.250  84.916  1.00  0.00    -0.036 N 
HETATM    2  C13 UNL     1      -2.192   1.900  85.858  1.00  0.00     0.276 C 
HETATM    3  C14 UNL     1      -1.598   0.524  86.103  1.00  0.00     0.201 C 
HETATM    4  C15 UNL     1      -0.409   1.089  85.394  1.00  0.00     0.354 C 
ENDROOT
BRANCH   1   5
HETATM    5  C4  UNL     1      -0.460   3.463  85.111  1.00  0.00     0.244 C 
BRANCH   5   6
HETATM    6  C2  UNL     1      -0.952   4.658  84.351  1.00  0.00     0.003 C 
HETATM    7  C1  UNL     1      -2.201   5.148  85.104  1.00  0.00     0.011 C 
HETATM    8  C3  UNL     1       0.021   5.813  84.402  1.00  0.00     0.011 C 
ENDBRANCH   5   6
ENDBRANCH   1   5
BRANCH   1   9
HETATM    9  C5  UNL     1      -1.561   2.127  83.536  1.00  0.00     0.241 C 
BRANCH   9  10
HETATM   10  C6  UNL     1      -0.770   1.143  82.744  1.00  0.00     0.030 C 
BRANCH  10  11
HETATM   11  C7  UNL     1      -0.878   1.626  81.296  1.00  0.00     0.032 C 
BRANCH  11  12
HETATM   12  C8  UNL     1       0.060   2.739  80.982  1.00  0.00     0.272 C 
BRANCH  12  13
HETATM   13  N2  UNL     1       1.398   2.552  81.401  1.00  0.00     0.091 N 
HETATM   14  C9  UNL     1       1.914   3.719  82.087  1.00  0.00     0.291 C 
HETATM   15  C10 UNL     1       2.083   4.912  81.186  1.00  0.00     0.144 C 
HETATM   16  N3  UNL     1       2.785   4.648  79.973  1.00  0.00    -0.418 N 
HETATM   17  C11 UNL     1       2.526   3.379  79.370  1.00  0.00     0.144 C 
ATOM     18  H3  UNL     1       3.431   5.323  79.563  1.00  0.00     0.153 HD
HETATM   19  C12 UNL     1       2.290   2.262  80.322  1.00  0.00     0.291 C 
ENDBRANCH  12  13
ENDBRANCH  11  12
ENDBRANCH  10  11
ENDBRANCH   9  10
ENDBRANCH   1   9
BRANCH   4  20
HETATM   20  O2  UNL     1       0.669   1.383  86.204  1.00  0.00    -0.367 OA
ATOM     21  H2  UNL     1       0.614   1.041  87.088  1.00  0.00     0.212 HD
ENDBRANCH   4  20
BRANCH   3  22
HETATM   22  O1  UNL     1      -1.344   0.247  87.447  1.00  0.00    -0.389 OA
ATOM     23  H1  UNL     1      -0.455   0.439  87.720  1.00  0.00     0.210 HD
ENDBRANCH   3  22
TORSDOF 9
ENDMDL
MODEL 3
REMARK VINA RESULT: -6.064634147      1.801      3.262
REMARK  9 active torsions:
REMARK  status: ('A' for Active; 'I' for Inactive)
REMARK    1  A    between atoms: C2_2  and  C4_4 
REMARK    2  A    between atoms: C4_4  and  N1_5 
REMARK    3  A    between atoms: N1_5  and  C5_6 
REMARK    4  A    between atoms: C5_6  and  C6_7 
REMARK    5  A    between atoms: C6_7  and  C7_8 
REMARK    6  A    between atoms: C7_8  and  C8_9 
REMARK    7  A    between atoms: C8_9  and  N2_10 
REMARK    8  A    between atoms: C14_18  and  O1_19 
REMARK    9  A    between atoms: C15_21  and  O2_22 
ROOT
HETATM    1  N1  UNL     1      -0.814   1.987  84.812  1.00  0.00    -0.036 N 
HETATM    2  C13 UNL     1      -1.524   2.487  83.665  1.00  0.00     0.276 C 
HETATM    3  C14 UNL     1      -0.802   1.545  82.719  1.00  0.00     0.201 C 
HETATM    4  C15 UNL     1      -0.375   0.864  83.980  1.00  0.00     0.354 C 
ENDROOT
BRANCH   1   5
HETATM    5  C4  UNL     1      -1.567   1.562  85.934  1.00  0.00     0.244 C 
BRANCH   5   6
HETATM    6  C2  UNL     1      -2.982   2.049  86.022  1.00  0.00     0.003 C 
HETATM    7  C1  UNL     1      -3.729   1.011  86.877  1.00  0.00     0.011 C 
HETATM    8  C3  UNL     1      -3.095   3.348  86.786  1.00  0.00     0.011 C 
ENDBRANCH   5   6
ENDBRANCH   1   5
BRANCH   1   9
HETATM    9  C5  UNL     1       0.278   2.824  85.240  1.00  0.00     0.241 C 
BRANCH   9  10
HETATM   10  C6  UNL     1       0.252   4.211  84.695  1.00  0.00     0.030 C 
BRANCH  10  11
HETATM   11  C7  UNL     1       1.660   4.443  84.141  1.00  0.00     0.032 C 
BRANCH  11  12
HETATM   12  C8  UNL     1       1.719   4.371  82.655  1.00  0.00     0.272 C 
BRANCH  12  13
HETATM   13  N2  UNL     1       2.917   3.849  82.111  1.00  0.00     0.091 N 
HETATM   14  C9  UNL     1       3.583   4.812  81.258  1.00  0.00     0.291 C 
HETATM   15  C10 UNL     1       2.827   5.111  79.994  1.00  0.00     0.144 C 
HETATM   16  N3  UNL     1       2.399   3.960  79.269  1.00  0.00    -0.418 N 
HETATM   17  C11 UNL     1       1.974   2.850  80.064  1.00  0.00     0.144 C 
ATOM     18  H3  UNL     1       2.396   3.930  78.250  1.00  0.00     0.153 HD
HETATM   19  C12 UNL     1       2.714   2.664  81.339  1.00  0.00     0.291 C 
ENDBRANCH  12  13
ENDBRANCH  11  12
ENDBRANCH  10  11
ENDBRANCH   9  10
ENDBRANCH   1   9
BRANCH   4  20
HETATM   20  O2  UNL     1      -1.005  -0.337  84.237  1.00  0.00    -0.367 OA
ATOM     21  H2  UNL     1      -0.431  -1.044  84.504  1.00  0.00     0.212 HD
ENDBRANCH   4  20
BRANCH   3  22
HETATM   22  O1  UNL     1      -1.654   0.758  81.942  1.00  0.00    -0.389 OA
ATOM     23  H1  UNL     1      -1.223   0.322  81.217  1.00  0.00     0.210 HD
ENDBRANCH   3  22
TORSDOF 9
ENDMDL
MODEL 4
REMARK VINA RESULT: -6.007871148      1.582      3.205
REMARK  9 active torsions:
REMARK  status: ('A' for Active; 'I' for Inactive)
REMARK    1  A    between atoms: C2_2  and  C4_4 
REMARK    2  A    between atoms: C4_4  and  N1_5 
REMARK    3  A    between atoms: N1_5  and  C5_6 
REMARK    4  A    between atoms: C5_6  and  C6_7 
REMARK    5  A    between atoms: C6_7  and  C7_8 
REMARK    6  A    between atoms: C7_8  and  C8_9 
REMARK    7  A    between atoms: C8_9  and  N2_10 
REMARK    8  A    between atoms: C14_18  and  O1_19 
REMARK    9  A    between atoms: C15_21  and  O2_22 
ROOT
HETATM    1  N1  UNL     1      -1.189   1.953  84.656  1.00  0.00    -0.036 N 
HETATM    2  C13 UNL     1      -1.372   1.874  83.231  1.00  0.00     0.276 C 
HETATM    3  C14 UNL     1      -0.352   0.758  83.091  1.00  0.00     0.201 C 
HETATM    4  C15 UNL     1      -0.476   0.675  84.578  1.00  0.00     0.354 C 
ENDROOT
BRANCH   1   5
HETATM    5  C4  UNL     1      -2.334   1.879  85.485  1.00  0.00     0.244 C 
BRANCH   5   6
HETATM    6  C2  UNL     1      -2.181   2.371  86.893  1.00  0.00     0.003 C 
HETATM    7  C1  UNL     1      -3.367   3.319  87.136  1.00  0.00     0.011 C 
HETATM    8  C3  UNL     1      -2.342   1.264  87.909  1.00  0.00     0.011 C 
ENDBRANCH   5   6
ENDBRANCH   1   5
BRANCH   1   9
HETATM    9  C5  UNL     1      -0.341   3.038  85.081  1.00  0.00     0.241 C 
BRANCH   9  10
HETATM   10  C6  UNL     1      -0.643   4.352  84.445  1.00  0.00     0.030 C 
BRANCH  10  11
HETATM   11  C7  UNL     1       0.724   4.992  84.195  1.00  0.00     0.032 C 
BRANCH  11  12
HETATM   12  C8  UNL     1       1.631   4.130  83.386  1.00  0.00     0.272 C 
BRANCH  12  13
HETATM   13  N2  UNL     1       2.141   4.714  82.203  1.00  0.00     0.091 N 
HETATM   14  C9  UNL     1       1.140   4.770  81.157  1.00  0.00     0.291 C 
HETATM   15  C10 UNL     1       0.749   3.414  80.636  1.00  0.00     0.144 C 
HETATM   16  N3  UNL     1       1.844   2.571  80.285  1.00  0.00    -0.418 N 
HETATM   17  C11 UNL     1       2.992   2.663  81.132  1.00  0.00     0.144 C 
ATOM     18  H3  UNL     1       1.810   1.944  79.482  1.00  0.00     0.153 HD
HETATM   19  C12 UNL     1       3.272   4.018  81.675  1.00  0.00     0.291 C 
ENDBRANCH  12  13
ENDBRANCH  11  12
ENDBRANCH  10  11
ENDBRANCH   9  10
ENDBRANCH   1   9
BRANCH   4  20
HETATM   20  O2  UNL     1      -1.180  -0.417  85.045  1.00  0.00    -0.367 OA
ATOM     21  H2  UNL     1      -1.540  -0.981  84.372  1.00  0.00     0.212 HD
ENDBRANCH   4  20
BRANCH   3  22
HETATM   22  O1  UNL     1      -0.838  -0.378  82.443  1.00  0.00    -0.389 OA
ATOM     23  H1  UNL     1      -0.471  -0.517  81.578  1.00  0.00     0.210 HD
ENDBRANCH   3  22
TORSDOF 9
ENDMDL
MODEL 5
REMARK VINA RESULT: -5.936271075      1.880      3.266
REMARK  9 active torsions:
REMARK  status: ('A' for Active; 'I' for Inactive)
REMARK    1  A    between atoms: C2_2  and  C4_4 
REMARK    2  A    between atoms: C4_4  and  N1_5 
REMARK    3  A    between atoms: N1_5  and  C5_6 
REMARK    4  A    between atoms: C5_6  and  C6_7 
REMARK    5  A    between atoms: C6_7  and  C7_8 
REMARK    6  A    between atoms: C7_8  and  C8_9 
REMARK    7  A    between atoms: C8_9  and  N2_10 
REMARK    8  A    between atoms: C14_18  and  O1_19 
REMARK    9  A    between atoms: C15_21  and  O2_22 
ROOT
HETATM    1  N1  UNL     1      -0.925   2.442  84.602  1.00  0.00    -0.036 N 
HETATM    2  C13 UNL     1      -1.838   2.909  83.594  1.00  0.00     0.276 C 
HETATM    3  C14 UNL     1      -1.123   2.146  82.493  1.00  0.00     0.201 C 
HETATM    4  C15 UNL     1      -0.449   1.452  83.633  1.00  0.00     0.354 C 
ENDROOT
BRANCH   1   5
HETATM    5  C4  UNL     1      -1.462   1.838  85.765  1.00  0.00     0.244 C 
BRANCH   5   6
HETATM    6  C2  UNL     1      -2.916   2.080  86.042  1.00  0.00     0.003 C 
HETATM    7  C1  UNL     1      -3.369   0.917  86.941  1.00  0.00     0.011 C 
HETATM    8  C3  UNL     1      -3.145   3.329  86.861  1.00  0.00     0.011 C 
ENDBRANCH   5   6
ENDBRANCH   1   5
BRANCH   1   9
HETATM    9  C5  UNL     1       0.090   3.398  84.967  1.00  0.00     0.241 C 
BRANCH   9  10
HETATM   10  C6  UNL     1      -0.291   4.823  84.757  1.00  0.00     0.030 C 
BRANCH  10  11
HETATM   11  C7  UNL     1       0.955   5.480  84.160  1.00  0.00     0.032 C 
BRANCH  11  12
HETATM   12  C8  UNL     1       1.778   4.538  83.350  1.00  0.00     0.272 C 
BRANCH  12  13
HETATM   13  N2  UNL     1       1.891   4.847  81.974  1.00  0.00     0.091 N 
HETATM   14  C9  UNL     1       2.143   3.663  81.178  1.00  0.00     0.291 C 
HETATM   15  C10 UNL     1       3.497   3.057  81.426  1.00  0.00     0.144 C 
HETATM   16  N3  UNL     1       4.582   3.981  81.372  1.00  0.00    -0.418 N 
HETATM   17  C11 UNL     1       4.317   5.280  81.904  1.00  0.00     0.144 C 
ATOM     18  H3  UNL     1       5.489   3.730  80.978  1.00  0.00     0.153 HD
HETATM   19  C12 UNL     1       2.934   5.781  81.691  1.00  0.00     0.291 C 
ENDBRANCH  12  13
ENDBRANCH  11  12
ENDBRANCH  10  11
ENDBRANCH   9  10
ENDBRANCH   1   9
BRANCH   4  20
HETATM   20  O2  UNL     1      -0.872   0.158  83.861  1.00  0.00    -0.367 OA
ATOM     21  H2  UNL     1      -1.711   0.080  84.300  1.00  0.00     0.212 HD
ENDBRANCH   4  20
BRANCH   3  22
HETATM   22  O1  UNL     1      -1.952   1.298  81.759  1.00  0.00    -0.389 OA
ATOM     23  H1  UNL     1      -1.597   0.427  81.629  1.00  0.00     0.210 HD
ENDBRANCH   3  22
TORSDOF 9
ENDMDL
