MODEL 1
REMARK VINA RESULT: -7.740271065      0.000      0.000
REMARK  6 active torsions:
REMARK  status: ('A' for Active; 'I' for Inactive)
REMARK    1  A    between atoms: C2_2  and  C3_3 
REMARK    2  A    between atoms: C3_3  and  C4_4 
REMARK    3  A    between atoms: C4_4  and  C5_5 
REMARK    4  A    between atoms: C9_10  and  O2_11 
REMARK    5  A    between atoms: C10_13  and  C11_14 
REMARK    6  A    between atoms: C11_14  and  N1_15 
ROOT
HETATM    1  C5  UNL     1     -12.905  11.003 -29.205  1.00  0.00     0.060 A 
HETATM    2  O1  UNL     1     -12.647  12.219 -29.690  1.00  0.00    -0.314 OA
HETATM    3  C6  UNL     1     -12.042  12.160 -30.839  1.00  0.00     0.090 A 
HETATM    4  C7  UNL     1     -11.638  13.245 -31.599  1.00  0.00     0.041 C 
HETATM    5  C8  UNL     1     -10.962  13.261 -32.789  1.00  0.00     0.040 C 
HETATM    6  C9  UNL     1     -10.377  12.218 -33.515  1.00  0.00     0.081 C 
HETATM    7  C10 UNL     1     -10.367  10.900 -33.102  1.00  0.00     0.063 C 
HETATM    8  C18 UNL     1     -11.283  10.303 -32.268  1.00  0.00     0.199 C 
HETATM    9  O3  UNL     1     -11.654   9.132 -32.544  1.00  0.00    -0.286 OA
HETATM   10  C19 UNL     1     -11.899  10.798 -31.119  1.00  0.00     0.057 A 
HETATM   11  C20 UNL     1     -12.444  10.060 -30.092  1.00  0.00    -0.015 A 
HETATM   12  C21 UNL     1     -12.530   8.566 -30.042  1.00  0.00     0.052 C 
ENDROOT
BRANCH   7  13
HETATM   13  C11 UNL     1      -9.294  10.074 -33.636  1.00  0.00     0.104 C 
BRANCH  13  14
HETATM   14  N1  UNL     1      -8.032  10.097 -33.081  1.00  0.00    -0.387 N 
HETATM   15  C12 UNL     1      -6.848  10.102 -33.804  1.00  0.00     0.132 C 
HETATM   16  C13 UNL     1      -6.125   8.748 -33.662  1.00  0.00     0.094 C 
HETATM   17  S1  UNL     1      -6.044   8.275 -31.905  1.00  0.00    -0.157 SA
HETATM   18  C14 UNL     1      -7.618   8.761 -31.150  1.00  0.00     0.017 C 
HETATM   19  C15 UNL     1      -7.494   8.865 -29.644  1.00  0.00     0.028 C 
HETATM   20  C16 UNL     1      -8.652   7.751 -31.560  1.00  0.00     0.028 C 
HETATM   21  C17 UNL     1      -7.929  10.160 -31.689  1.00  0.00     0.142 C 
ENDBRANCH  13  14
ENDBRANCH   7  13
BRANCH   6  22
HETATM   22  O2  UNL     1      -9.771  12.527 -34.720  1.00  0.00    -0.360 OA
ATOM     23  H2  UNL     1      -9.212  11.871 -35.119  1.00  0.00     0.217 HD
ENDBRANCH   6  22
BRANCH   1  24
HETATM   24  C4  UNL     1     -13.576  10.753 -27.915  1.00  0.00     0.065 C 
BRANCH  24  25
HETATM   25  C3  UNL     1     -14.462  11.852 -27.440  1.00  0.00     0.006 C 
BRANCH  25  26
HETATM   26  C2  UNL     1     -14.326  12.274 -26.024  1.00  0.00    -0.004 C 
HETATM   27  C1  UNL     1     -15.426  11.646 -25.173  1.00  0.00     0.005 C 
ENDBRANCH  25  26
ENDBRANCH  24  25
ENDBRANCH   1  24
TORSDOF 6
ENDMDL
MODEL 2
REMARK VINA RESULT: -7.557227939      0.837      1.739
REMARK  6 active torsions:
REMARK  status: ('A' for Active; 'I' for Inactive)
REMARK    1  A    between atoms: C2_2  and  C3_3 
REMARK    2  A    between atoms: C3_3  and  C4_4 
REMARK    3  A    between atoms: C4_4  and  C5_5 
REMARK    4  A    between atoms: C9_10  and  O2_11 
REMARK    5  A    between atoms: C10_13  and  C11_14 
REMARK    6  A    between atoms: C11_14  and  N1_15 
ROOT
HETATM    1  C5  UNL     1     -12.955  11.064 -29.153  1.00  0.00     0.060 A 
HETATM    2  O1  UNL     1     -12.579  12.270 -29.583  1.00  0.00    -0.314 OA
HETATM    3  C6  UNL     1     -12.028  12.211 -30.759  1.00  0.00     0.090 A 
HETATM    4  C7  UNL     1     -11.533  13.287 -31.477  1.00  0.00     0.041 C 
HETATM    5  C8  UNL     1     -10.903  13.297 -32.692  1.00  0.00     0.040 C 
HETATM    6  C9  UNL     1     -10.466  12.239 -33.497  1.00  0.00     0.081 C 
HETATM    7  C10 UNL     1     -10.590  10.907 -33.155  1.00  0.00     0.063 C 
HETATM    8  C18 UNL     1     -11.535  10.367 -32.316  1.00  0.00     0.199 C 
HETATM    9  O3  UNL     1     -12.045   9.262 -32.636  1.00  0.00    -0.286 OA
HETATM   10  C19 UNL     1     -12.049  10.860 -31.116  1.00  0.00     0.057 A 
HETATM   11  C20 UNL     1     -12.635  10.128 -30.107  1.00  0.00    -0.015 A 
HETATM   12  C21 UNL     1     -12.886   8.652 -30.132  1.00  0.00     0.052 C 
ENDROOT
BRANCH   7  13
HETATM   13  C11 UNL     1      -9.637  10.000 -33.778  1.00  0.00     0.104 C 
BRANCH  13  14
HETATM   14  N1  UNL     1      -8.695   9.329 -33.027  1.00  0.00    -0.387 N 
HETATM   15  C12 UNL     1      -8.981   8.509 -31.945  1.00  0.00     0.132 C 
HETATM   16  C13 UNL     1      -8.534   9.177 -30.630  1.00  0.00     0.094 C 
HETATM   17  S1  UNL     1      -6.827   9.791 -30.801  1.00  0.00    -0.157 SA
HETATM   18  C14 UNL     1      -6.668  10.457 -32.478  1.00  0.00     0.017 C 
HETATM   19  C15 UNL     1      -5.214  10.548 -32.896  1.00  0.00     0.028 C 
HETATM   20  C16 UNL     1      -7.344  11.799 -32.503  1.00  0.00     0.028 C 
HETATM   21  C17 UNL     1      -7.354   9.446 -33.401  1.00  0.00     0.142 C 
ENDBRANCH  13  14
ENDBRANCH   7  13
BRANCH   6  22
HETATM   22  O2  UNL     1      -9.875  12.548 -34.709  1.00  0.00    -0.360 OA
ATOM     23  H2  UNL     1      -9.303  11.901 -35.103  1.00  0.00     0.217 HD
ENDBRANCH   6  22
BRANCH   1  24
HETATM   24  C4  UNL     1     -13.600  10.815 -27.849  1.00  0.00     0.065 C 
BRANCH  24  25
HETATM   25  C3  UNL     1     -14.511  11.897 -27.379  1.00  0.00     0.006 C 
BRANCH  25  26
HETATM   26  C2  UNL     1     -14.397  12.315 -25.960  1.00  0.00    -0.004 C 
HETATM   27  C1  UNL     1     -15.496  11.666 -25.124  1.00  0.00     0.005 C 
ENDBRANCH  25  26
ENDBRANCH  24  25
ENDBRANCH   1  24
TORSDOF 6
ENDMDL
MODEL 3
REMARK VINA RESULT: -7.363837400      1.133      1.221
REMARK  6 active torsions:
REMARK  status: ('A' for Active; 'I' for Inactive)
REMARK    1  A    between atoms: C2_2  and  C3_3 
REMARK    2  A    between atoms: C3_3  and  C4_4 
REMARK    3  A    between atoms: C4_4  and  C5_5 
REMARK    4  A    between atoms: C9_10  and  O2_11 
REMARK    5  A    between atoms: C10_13  and  C11_14 
REMARK    6  A    between atoms: C11_14  and  N1_15 
ROOT
HETATM    1  C5  UNL     1     -12.628  11.593 -28.494  1.00  0.00     0.060 A 
HETATM    2  O1  UNL     1     -12.585  12.468 -29.501  1.00  0.00    -0.314 OA
HETATM    3  C6  UNL     1     -12.139  11.923 -30.594  1.00  0.00     0.090 A 
HETATM    4  C7  UNL     1     -11.976  12.562 -31.811  1.00  0.00     0.041 C 
HETATM    5  C8  UNL     1     -11.473  12.069 -32.984  1.00  0.00     0.040 C 
HETATM    6  C9  UNL     1     -10.870  10.838 -33.268  1.00  0.00     0.081 C 
HETATM    7  C10 UNL     1     -10.647   9.853 -32.326  1.00  0.00     0.063 C 
HETATM    8  C18 UNL     1     -11.363   9.657 -31.169  1.00  0.00     0.199 C 
HETATM    9  O3  UNL     1     -11.624   8.472 -30.832  1.00  0.00    -0.286 OA
HETATM   10  C19 UNL     1     -11.873  10.590 -30.267  1.00  0.00     0.057 A 
HETATM   11  C20 UNL     1     -12.181  10.373 -28.942  1.00  0.00    -0.015 A 
HETATM   12  C21 UNL     1     -12.079   9.062 -28.226  1.00  0.00     0.052 C 
ENDROOT
BRANCH   7  13
HETATM   13  C11 UNL     1      -9.564   8.925 -32.621  1.00  0.00     0.104 C 
BRANCH  13  14
HETATM   14  N1  UNL     1      -8.251   9.256 -32.362  1.00  0.00    -0.387 N 
HETATM   15  C12 UNL     1      -7.234   9.259 -33.305  1.00  0.00     0.132 C 
HETATM   16  C13 UNL     1      -6.260   8.092 -33.051  1.00  0.00     0.094 C 
HETATM   17  S1  UNL     1      -5.785   8.058 -31.293  1.00  0.00    -0.157 SA
HETATM   18  C14 UNL     1      -7.265   8.479 -30.335  1.00  0.00     0.017 C 
HETATM   19  C15 UNL     1      -6.901   8.948 -28.941  1.00  0.00     0.028 C 
HETATM   20  C16 UNL     1      -8.150   7.265 -30.305  1.00  0.00     0.028 C 
HETATM   21  C17 UNL     1      -7.919   9.655 -31.065  1.00  0.00     0.142 C 
ENDBRANCH  13  14
ENDBRANCH   7  13
BRANCH   6  22
HETATM   22  O2  UNL     1     -10.475  10.595 -34.571  1.00  0.00    -0.360 OA
ATOM     23  H2  UNL     1     -10.580   9.714 -34.912  1.00  0.00     0.217 HD
ENDBRANCH   6  22
BRANCH   1  24
HETATM   24  C4  UNL     1     -13.083  11.924 -27.130  1.00  0.00     0.065 C 
BRANCH  24  25
HETATM   25  C3  UNL     1     -14.558  11.871 -26.926  1.00  0.00     0.006 C 
BRANCH  25  26
HETATM   26  C2  UNL     1     -15.045  11.541 -25.563  1.00  0.00    -0.004 C 
HETATM   27  C1  UNL     1     -15.045  12.786 -24.682  1.00  0.00     0.005 C 
ENDBRANCH  25  26
ENDBRANCH  24  25
ENDBRANCH   1  24
TORSDOF 6
ENDMDL
MODEL 4
REMARK VINA RESULT: -7.314324228      0.863      1.683
REMARK  6 active torsions:
REMARK  status: ('A' for Active; 'I' for Inactive)
REMARK    1  A    between atoms: C2_2  and  C3_3 
REMARK    2  A    between atoms: C3_3  and  C4_4 
REMARK    3  A    between atoms: C4_4  and  C5_5 
REMARK    4  A    between atoms: C9_10  and  O2_11 
REMARK    5  A    between atoms: C10_13  and  C11_14 
REMARK    6  A    between atoms: C11_14  and  N1_15 
ROOT
HETATM    1  C5  UNL     1     -13.116  10.943 -29.129  1.00  0.00     0.060 A 
HETATM    2  O1  UNL     1     -12.833  12.157 -29.606  1.00  0.00    -0.314 OA
HETATM    3  C6  UNL     1     -12.090  12.093 -30.671  1.00  0.00     0.090 A 
HETATM    4  C7  UNL     1     -11.625  13.174 -31.401  1.00  0.00     0.041 C 
HETATM    5  C8  UNL     1     -10.807  13.187 -32.498  1.00  0.00     0.040 C 
HETATM    6  C9  UNL     1     -10.108  12.147 -33.122  1.00  0.00     0.081 C 
HETATM    7  C10 UNL     1     -10.114  10.839 -32.680  1.00  0.00     0.063 C 
HETATM    8  C18 UNL     1     -11.109  10.231 -31.951  1.00  0.00     0.199 C 
HETATM    9  O3  UNL     1     -11.411   9.044 -32.243  1.00  0.00    -0.286 OA
HETATM   10  C19 UNL     1     -11.876  10.730 -30.899  1.00  0.00     0.057 A 
HETATM   11  C20 UNL     1     -12.523   9.997 -29.929  1.00  0.00    -0.015 A 
HETATM   12  C21 UNL     1     -12.573   8.502 -29.855  1.00  0.00     0.052 C 
ENDROOT
BRANCH   7  13
HETATM   13  C11 UNL     1      -8.961  10.035 -33.058  1.00  0.00     0.104 C 
BRANCH  13  14
HETATM   14  N1  UNL     1      -8.351   9.192 -32.153  1.00  0.00    -0.387 N 
HETATM   15  C12 UNL     1      -8.046   9.524 -30.841  1.00  0.00     0.132 C 
HETATM   16  C13 UNL     1      -6.523   9.677 -30.664  1.00  0.00     0.094 C 
HETATM   17  S1  UNL     1      -5.671   8.242 -31.396  1.00  0.00    -0.157 SA
HETATM   18  C14 UNL     1      -6.561   7.814 -32.915  1.00  0.00     0.017 C 
HETATM   19  C15 UNL     1      -6.262   6.392 -33.343  1.00  0.00     0.028 C 
HETATM   20  C16 UNL     1      -6.170   8.811 -33.970  1.00  0.00     0.028 C 
HETATM   21  C17 UNL     1      -8.050   7.893 -32.568  1.00  0.00     0.142 C 
ENDBRANCH  13  14
ENDBRANCH   7  13
BRANCH   6  22
HETATM   22  O2  UNL     1      -9.367  12.450 -34.250  1.00  0.00    -0.360 OA
ATOM     23  H2  UNL     1      -9.679  13.148 -34.814  1.00  0.00     0.217 HD
ENDBRANCH   6  22
BRANCH   1  24
HETATM   24  C4  UNL     1     -13.934  10.699 -27.925  1.00  0.00     0.065 C 
BRANCH  24  25
HETATM   25  C3  UNL     1     -13.975  11.825 -26.950  1.00  0.00     0.006 C 
BRANCH  25  26
HETATM   26  C2  UNL     1     -14.821  11.651 -25.743  1.00  0.00    -0.004 C 
HETATM   27  C1  UNL     1     -14.822  12.925 -24.905  1.00  0.00     0.005 C 
ENDBRANCH  25  26
ENDBRANCH  24  25
ENDBRANCH   1  24
TORSDOF 6
ENDMDL
MODEL 5
REMARK VINA RESULT: -7.041634410      2.535      4.020
REMARK  6 active torsions:
REMARK  status: ('A' for Active; 'I' for Inactive)
REMARK    1  A    between atoms: C2_2  and  C3_3 
REMARK    2  A    between atoms: C3_3  and  C4_4 
REMARK    3  A    between atoms: C4_4  and  C5_5 
REMARK    4  A    between atoms: C9_10  and  O2_11 
REMARK    5  A    between atoms: C10_13  and  C11_14 
REMARK    6  A    between atoms: C11_14  and  N1_15 
ROOT
HETATM    1  C5  UNL     1     -10.755  11.743 -31.594  1.00  0.00     0.060 A 
HETATM    2  O1  UNL     1      -9.676  12.512 -31.753  1.00  0.00    -0.314 OA
HETATM    3  C6  UNL     1      -8.606  11.804 -31.960  1.00  0.00     0.090 A 
HETATM    4  C7  UNL     1      -7.330  12.302 -32.162  1.00  0.00     0.041 C 
HETATM    5  C8  UNL     1      -6.156  11.622 -32.339  1.00  0.00     0.040 C 
HETATM    6  C9  UNL     1      -5.876  10.254 -32.247  1.00  0.00     0.081 C 
HETATM    7  C10 UNL     1      -6.812   9.296 -31.910  1.00  0.00     0.063 C 
HETATM    8  C18 UNL     1      -8.170   9.384 -32.101  1.00  0.00     0.199 C 
HETATM    9  O3  UNL     1      -8.778   8.352 -32.491  1.00  0.00    -0.286 OA
HETATM   10  C19 UNL     1      -9.027  10.471 -31.931  1.00  0.00     0.057 A 
HETATM   11  C20 UNL     1     -10.384  10.424 -31.702  1.00  0.00    -0.015 A 
HETATM   12  C21 UNL     1     -11.217   9.181 -31.649  1.00  0.00     0.052 C 
ENDROOT
BRANCH   7  13
HETATM   13  C11 UNL     1      -6.286   8.071 -31.326  1.00  0.00     0.104 C 
BRANCH  13  14
HETATM   14  N1  UNL     1      -5.845   8.034 -30.021  1.00  0.00    -0.387 N 
HETATM   15  C12 UNL     1      -4.745   7.315 -29.575  1.00  0.00     0.132 C 
HETATM   16  C13 UNL     1      -5.196   6.115 -28.721  1.00  0.00     0.094 C 
HETATM   17  S1  UNL     1      -6.410   6.664 -27.479  1.00  0.00    -0.157 SA
HETATM   18  C14 UNL     1      -7.468   7.899 -28.279  1.00  0.00     0.017 C 
HETATM   19  C15 UNL     1      -8.177   8.760 -27.254  1.00  0.00     0.028 C 
HETATM   20  C16 UNL     1      -8.436   7.166 -29.164  1.00  0.00     0.028 C 
HETATM   21  C17 UNL     1      -6.527   8.806 -29.077  1.00  0.00     0.142 C 
ENDBRANCH  13  14
ENDBRANCH   7  13
BRANCH   6  22
HETATM   22  O2  UNL     1      -4.583   9.838 -32.508  1.00  0.00    -0.360 OA
ATOM     23  H2  UNL     1      -4.301   9.006 -32.146  1.00  0.00     0.217 HD
ENDBRANCH   6  22
BRANCH   1  24
HETATM   24  C4  UNL     1     -12.111  12.264 -31.336  1.00  0.00     0.065 C 
BRANCH  24  25
HETATM   25  C3  UNL     1     -12.451  12.457 -29.897  1.00  0.00     0.006 C 
BRANCH  25  26
HETATM   26  C2  UNL     1     -12.912  11.267 -29.141  1.00  0.00    -0.004 C 
HETATM   27  C1  UNL     1     -11.817  10.778 -28.199  1.00  0.00     0.005 C 
ENDBRANCH  25  26
ENDBRANCH  24  25
ENDBRANCH   1  24
TORSDOF 6
ENDMDL
