MODEL 1
REMARK VINA RESULT: -7.238251432      0.000      0.000
REMARK  6 active torsions:
REMARK  status: ('A' for Active; 'I' for Inactive)
REMARK    1  A    between atoms: N1_2  and  C2_5 
REMARK    2  A    between atoms: C2_5  and  C3_6 
REMARK    3  A    between atoms: C3_6  and  C4_7 
REMARK    4  A    between atoms: C4_7  and  C5_8 
REMARK    5  A    between atoms: C5_8  and  N2_9 
REMARK    6  A    between atoms: C13_18  and  N3_19 
ROOT
HETATM    1  N2  UNL     1     -12.669   8.473 -29.238  1.00  0.00    -0.323 N 
HETATM    2  C6  UNL     1     -12.225   7.314 -28.704  1.00  0.00     0.163 A 
HETATM    3  O1  UNL     1     -12.474   6.449 -27.758  1.00  0.00    -0.297 OA
HETATM    4  C7  UNL     1     -11.610   5.474 -27.771  1.00  0.00     0.052 A 
HETATM    5  C8  UNL     1     -11.513   4.283 -26.885  1.00  0.00     0.077 C 
HETATM    6  C9  UNL     1     -10.713   5.714 -28.814  1.00  0.00     0.050 A 
HETATM    7  C10 UNL     1     -11.105   6.887 -29.410  1.00  0.00     0.047 A 
HETATM    8  C11 UNL     1     -10.874   7.822 -30.397  1.00  0.00     0.079 A 
HETATM    9  C12 UNL     1     -11.871   8.780 -30.244  1.00  0.00     0.092 A 
HETATM   10  C13 UNL     1     -11.871   9.855 -31.134  1.00  0.00     0.068 A 
HETATM   11  C14 UNL     1     -10.891   9.916 -32.114  1.00  0.00     0.020 A 
HETATM   12  C15 UNL     1     -10.844  10.957 -33.021  1.00  0.00     0.023 A 
HETATM   13  C16 UNL     1      -9.862  11.024 -34.011  1.00  0.00    -0.055 A 
HETATM   14  C17 UNL     1      -9.874  12.170 -34.949  1.00  0.00     0.049 C 
HETATM   15  C18 UNL     1      -8.914  10.041 -34.097  1.00  0.00    -0.054 A 
HETATM   16  C19 UNL     1      -7.843  10.067 -35.136  1.00  0.00     0.049 C 
HETATM   17  C20 UNL     1      -8.967   8.998 -33.182  1.00  0.00     0.038 A 
HETATM   18  C21 UNL     1      -9.925   8.906 -32.196  1.00  0.00     0.047 A 
HETATM   19  N4  UNL     1      -9.929   7.857 -31.323  1.00  0.00    -0.348 N 
HETATM   20  C22 UNL     1      -8.891   6.901 -31.518  1.00  0.00     0.156 C 
ENDROOT
BRANCH   1  21
HETATM   21  C5  UNL     1     -13.818   9.203 -28.765  1.00  0.00     0.131 C 
BRANCH  21  22
HETATM   22  C4  UNL     1     -13.474  10.204 -27.690  1.00  0.00     0.022 C 
BRANCH  22  23
HETATM   23  C3  UNL     1     -14.446  11.351 -27.617  1.00  0.00     0.029 C 
BRANCH  23  24
HETATM   24  C2  UNL     1     -14.702  11.749 -26.206  1.00  0.00     0.231 C 
BRANCH  24  25
HETATM   25  N1  UNL     1     -14.660  10.596 -25.306  1.00  0.00    -0.079 N 
HETATM   26  C1  UNL     1     -15.373  10.836 -24.083  1.00  0.00     0.266 C 
ATOM     27  H12 UNL     1     -13.700  10.307 -25.122  1.00  0.00     0.276 HD
ATOM     28  H11 UNL     1     -14.998   9.753 -25.770  1.00  0.00     0.276 HD
ENDBRANCH  24  25
ENDBRANCH  23  24
ENDBRANCH  22  23
ENDBRANCH  21  22
ENDBRANCH   1  21
BRANCH  10  29
HETATM   29  N3  UNL     1     -12.763  10.745 -31.032  1.00  0.00    -0.396 N 
ATOM     30  H32 UNL     1     -12.526  11.723 -30.870  1.00  0.00     0.156 HD
ATOM     31  H31 UNL     1     -13.744  10.481 -31.116  1.00  0.00     0.156 HD
ENDBRANCH  10  29
TORSDOF 6
ENDMDL
MODEL 2
REMARK VINA RESULT: -7.111911433      1.213      1.309
REMARK  6 active torsions:
REMARK  status: ('A' for Active; 'I' for Inactive)
REMARK    1  A    between atoms: N1_2  and  C2_5 
REMARK    2  A    between atoms: C2_5  and  C3_6 
REMARK    3  A    between atoms: C3_6  and  C4_7 
REMARK    4  A    between atoms: C4_7  and  C5_8 
REMARK    5  A    between atoms: C5_8  and  N2_9 
REMARK    6  A    between atoms: C13_18  and  N3_19 
ROOT
HETATM    1  N2  UNL     1     -12.751   8.698 -29.441  1.00  0.00    -0.323 N 
HETATM    2  C6  UNL     1     -12.371   7.939 -28.389  1.00  0.00     0.163 A 
HETATM    3  O1  UNL     1     -12.814   7.420 -27.275  1.00  0.00    -0.297 OA
HETATM    4  C7  UNL     1     -11.882   6.742 -26.669  1.00  0.00     0.052 A 
HETATM    5  C8  UNL     1     -11.939   5.990 -25.386  1.00  0.00     0.077 C 
HETATM    6  C9  UNL     1     -10.724   6.818 -27.447  1.00  0.00     0.050 A 
HETATM    7  C10 UNL     1     -11.037   7.581 -28.545  1.00  0.00     0.047 A 
HETATM    8  C11 UNL     1     -10.606   8.145 -29.727  1.00  0.00     0.079 A 
HETATM    9  C12 UNL     1     -11.708   8.824 -30.239  1.00  0.00     0.092 A 
HETATM   10  C13 UNL     1     -11.542   9.492 -31.453  1.00  0.00     0.068 A 
HETATM   11  C14 UNL     1     -10.307   9.448 -32.082  1.00  0.00     0.020 A 
HETATM   12  C15 UNL     1     -10.089  10.091 -33.285  1.00  0.00     0.023 A 
HETATM   13  C16 UNL     1      -8.848  10.050 -33.924  1.00  0.00    -0.055 A 
HETATM   14  C17 UNL     1      -8.687  10.763 -35.212  1.00  0.00     0.049 C 
HETATM   15  C18 UNL     1      -7.812   9.359 -33.356  1.00  0.00    -0.054 A 
HETATM   16  C19 UNL     1      -6.467   9.286 -34.000  1.00  0.00     0.049 C 
HETATM   17  C20 UNL     1      -8.038   8.716 -32.148  1.00  0.00     0.038 A 
HETATM   18  C21 UNL     1      -9.252   8.740 -31.495  1.00  0.00     0.047 A 
HETATM   19  N4  UNL     1      -9.418   8.088 -30.307  1.00  0.00    -0.348 N 
HETATM   20  C22 UNL     1      -8.265   7.406 -29.822  1.00  0.00     0.156 C 
ENDROOT
BRANCH   1  21
HETATM   21  C5  UNL     1     -14.073   9.243 -29.620  1.00  0.00     0.131 C 
BRANCH  21  22
HETATM   22  C4  UNL     1     -14.486  10.159 -28.494  1.00  0.00     0.022 C 
BRANCH  22  23
HETATM   23  C3  UNL     1     -13.578  11.350 -28.339  1.00  0.00     0.029 C 
BRANCH  23  24
HETATM   24  C2  UNL     1     -13.604  11.867 -26.943  1.00  0.00     0.231 C 
BRANCH  24  25
HETATM   25  N1  UNL     1     -14.381  10.996 -26.061  1.00  0.00    -0.079 N 
HETATM   26  C1  UNL     1     -15.156  11.739 -25.108  1.00  0.00     0.266 C 
ATOM     27  H12 UNL     1     -13.783  10.313 -25.597  1.00  0.00     0.276 HD
ATOM     28  H11 UNL     1     -14.970  10.359 -26.598  1.00  0.00     0.276 HD
ENDBRANCH  24  25
ENDBRANCH  23  24
ENDBRANCH  22  23
ENDBRANCH  21  22
ENDBRANCH   1  21
BRANCH  10  29
HETATM   29  N3  UNL     1     -12.520  10.117 -31.955  1.00  0.00    -0.396 N 
ATOM     30  H32 UNL     1     -13.328  10.386 -31.393  1.00  0.00     0.156 HD
ATOM     31  H31 UNL     1     -12.502  10.362 -32.944  1.00  0.00     0.156 HD
ENDBRANCH  10  29
TORSDOF 6
ENDMDL
MODEL 3
REMARK VINA RESULT: -7.070994968      1.768      5.882
REMARK  6 active torsions:
REMARK  status: ('A' for Active; 'I' for Inactive)
REMARK    1  A    between atoms: N1_2  and  C2_5 
REMARK    2  A    between atoms: C2_5  and  C3_6 
REMARK    3  A    between atoms: C3_6  and  C4_7 
REMARK    4  A    between atoms: C4_7  and  C5_8 
REMARK    5  A    between atoms: C5_8  and  N2_9 
REMARK    6  A    between atoms: C13_18  and  N3_19 
ROOT
HETATM    1  N2  UNL     1     -12.215   9.428 -29.850  1.00  0.00    -0.323 N 
HETATM    2  C6  UNL     1     -11.495   9.533 -30.989  1.00  0.00     0.163 A 
HETATM    3  O1  UNL     1     -11.349  10.273 -32.055  1.00  0.00    -0.297 OA
HETATM    4  C7  UNL     1     -10.414   9.802 -32.831  1.00  0.00     0.052 A 
HETATM    5  C8  UNL     1      -9.916  10.319 -34.134  1.00  0.00     0.077 C 
HETATM    6  C9  UNL     1      -9.897   8.654 -32.226  1.00  0.00     0.050 A 
HETATM    7  C10 UNL     1     -10.586   8.482 -31.051  1.00  0.00     0.047 A 
HETATM    8  C11 UNL     1     -10.769   7.726 -29.912  1.00  0.00     0.079 A 
HETATM    9  C12 UNL     1     -11.788   8.358 -29.206  1.00  0.00     0.092 A 
HETATM   10  C13 UNL     1     -12.174   7.789 -27.991  1.00  0.00     0.068 A 
HETATM   11  C14 UNL     1     -11.533   6.640 -27.552  1.00  0.00     0.020 A 
HETATM   12  C15 UNL     1     -11.875   6.037 -26.358  1.00  0.00     0.023 A 
HETATM   13  C16 UNL     1     -11.233   4.880 -25.910  1.00  0.00    -0.055 A 
HETATM   14  C17 UNL     1     -11.653   4.289 -24.619  1.00  0.00     0.049 C 
HETATM   15  C18 UNL     1     -10.238   4.319 -26.663  1.00  0.00    -0.054 A 
HETATM   16  C19 UNL     1      -9.522   3.084 -26.227  1.00  0.00     0.049 C 
HETATM   17  C20 UNL     1      -9.900   4.930 -27.862  1.00  0.00     0.038 A 
HETATM   18  C21 UNL     1     -10.516   6.072 -28.328  1.00  0.00     0.047 A 
HETATM   19  N4  UNL     1     -10.142   6.630 -29.516  1.00  0.00    -0.348 N 
HETATM   20  C22 UNL     1      -9.095   5.952 -30.204  1.00  0.00     0.156 C 
ENDROOT
BRANCH   1  21
HETATM   21  C5  UNL     1     -13.248  10.350 -29.447  1.00  0.00     0.131 C 
BRANCH  21  22
HETATM   22  C4  UNL     1     -12.697  11.661 -28.944  1.00  0.00     0.022 C 
BRANCH  22  23
HETATM   23  C3  UNL     1     -12.897  11.857 -27.466  1.00  0.00     0.029 C 
BRANCH  23  24
HETATM   24  C2  UNL     1     -14.341  11.800 -27.108  1.00  0.00     0.231 C 
BRANCH  24  25
HETATM   25  N1  UNL     1     -14.555  11.104 -25.839  1.00  0.00    -0.079 N 
HETATM   26  C1  UNL     1     -15.379  11.857 -24.938  1.00  0.00     0.266 C 
ATOM     27  H12 UNL     1     -13.667  10.852 -25.404  1.00  0.00     0.276 HD
ATOM     28  H11 UNL     1     -14.933  10.169 -25.991  1.00  0.00     0.276 HD
ENDBRANCH  24  25
ENDBRANCH  23  24
ENDBRANCH  22  23
ENDBRANCH  21  22
ENDBRANCH   1  21
BRANCH  10  29
HETATM   29  N3  UNL     1     -13.093   8.335 -27.316  1.00  0.00    -0.396 N 
ATOM     30  H32 UNL     1     -14.061   8.018 -27.376  1.00  0.00     0.156 HD
ATOM     31  H31 UNL     1     -12.864   9.108 -26.693  1.00  0.00     0.156 HD
ENDBRANCH  10  29
TORSDOF 6
ENDMDL
MODEL 4
REMARK VINA RESULT: -7.070400884      1.920      5.634
REMARK  6 active torsions:
REMARK  status: ('A' for Active; 'I' for Inactive)
REMARK    1  A    between atoms: N1_2  and  C2_5 
REMARK    2  A    between atoms: C2_5  and  C3_6 
REMARK    3  A    between atoms: C3_6  and  C4_7 
REMARK    4  A    between atoms: C4_7  and  C5_8 
REMARK    5  A    between atoms: C5_8  and  N2_9 
REMARK    6  A    between atoms: C13_18  and  N3_19 
ROOT
HETATM    1  N2  UNL     1     -11.762   9.419 -30.764  1.00  0.00    -0.323 N 
HETATM    2  C6  UNL     1     -11.110   9.751 -31.901  1.00  0.00     0.163 A 
HETATM    3  O1  UNL     1     -11.104  10.624 -32.872  1.00  0.00    -0.297 OA
HETATM    4  C7  UNL     1     -10.151  10.374 -33.725  1.00  0.00     0.052 A 
HETATM    5  C8  UNL     1      -9.778  11.101 -34.968  1.00  0.00     0.077 C 
HETATM    6  C9  UNL     1      -9.469   9.239 -33.280  1.00  0.00     0.050 A 
HETATM    7  C10 UNL     1     -10.080   8.842 -32.117  1.00  0.00     0.047 A 
HETATM    8  C11 UNL     1     -10.118   7.938 -31.075  1.00  0.00     0.079 A 
HETATM    9  C12 UNL     1     -11.177   8.344 -30.269  1.00  0.00     0.092 A 
HETATM   10  C13 UNL     1     -11.436   7.591 -29.123  1.00  0.00     0.068 A 
HETATM   11  C14 UNL     1     -10.638   6.491 -28.847  1.00  0.00     0.020 A 
HETATM   12  C15 UNL     1     -10.850   5.711 -27.727  1.00  0.00     0.023 A 
HETATM   13  C16 UNL     1     -10.049   4.602 -27.442  1.00  0.00    -0.055 A 
HETATM   14  C17 UNL     1     -10.336   3.813 -26.223  1.00  0.00     0.049 C 
HETATM   15  C18 UNL     1      -9.025   4.268 -28.285  1.00  0.00    -0.054 A 
HETATM   16  C19 UNL     1      -8.142   3.093 -28.025  1.00  0.00     0.049 C 
HETATM   17  C20 UNL     1      -8.817   5.056 -29.409  1.00  0.00     0.038 A 
HETATM   18  C21 UNL     1      -9.592   6.155 -29.714  1.00  0.00     0.047 A 
HETATM   19  N4  UNL     1      -9.341   6.894 -30.834  1.00  0.00    -0.348 N 
HETATM   20  C22 UNL     1      -8.249   6.443 -31.628  1.00  0.00     0.156 C 
ENDROOT
BRANCH   1  21
HETATM   21  C5  UNL     1     -12.883  10.145 -30.224  1.00  0.00     0.131 C 
BRANCH  21  22
HETATM   22  C4  UNL     1     -12.484  11.464 -29.609  1.00  0.00     0.022 C 
BRANCH  22  23
HETATM   23  C3  UNL     1     -12.638  11.487 -28.112  1.00  0.00     0.029 C 
BRANCH  23  24
HETATM   24  C2  UNL     1     -14.074  11.478 -27.720  1.00  0.00     0.231 C 
BRANCH  24  25
HETATM   25  N1  UNL     1     -14.285  10.756 -26.465  1.00  0.00    -0.079 N 
HETATM   26  C1  UNL     1     -14.922  11.572 -25.469  1.00  0.00     0.266 C 
ATOM     27  H12 UNL     1     -13.412  10.363 -26.115  1.00  0.00     0.276 HD
ATOM     28  H11 UNL     1     -14.803   9.891 -26.619  1.00  0.00     0.276 HD
ENDBRANCH  24  25
ENDBRANCH  23  24
ENDBRANCH  22  23
ENDBRANCH  21  22
ENDBRANCH   1  21
BRANCH  10  29
HETATM   29  N3  UNL     1     -12.386   7.928 -28.361  1.00  0.00    -0.396 N 
ATOM     30  H32 UNL     1     -12.383   7.699 -27.368  1.00  0.00     0.156 HD
ATOM     31  H31 UNL     1     -13.176   8.446 -28.746  1.00  0.00     0.156 HD
ENDBRANCH  10  29
TORSDOF 6
ENDMDL
MODEL 5
REMARK VINA RESULT: -7.066833065      2.499      5.789
REMARK  6 active torsions:
REMARK  status: ('A' for Active; 'I' for Inactive)
REMARK    1  A    between atoms: N1_2  and  C2_5 
REMARK    2  A    between atoms: C2_5  and  C3_6 
REMARK    3  A    between atoms: C3_6  and  C4_7 
REMARK    4  A    between atoms: C4_7  and  C5_8 
REMARK    5  A    between atoms: C5_8  and  N2_9 
REMARK    6  A    between atoms: C13_18  and  N3_19 
ROOT
HETATM    1  N2  UNL     1     -13.064  10.654 -28.717  1.00  0.00    -0.323 N 
HETATM    2  C6  UNL     1     -12.434  11.323 -29.708  1.00  0.00     0.163 A 
HETATM    3  O1  UNL     1     -12.487  12.425 -30.407  1.00  0.00    -0.297 OA
HETATM    4  C7  UNL     1     -11.518  12.479 -31.275  1.00  0.00     0.052 A 
HETATM    5  C8  UNL     1     -11.193  13.539 -32.267  1.00  0.00     0.077 C 
HETATM    6  C9  UNL     1     -10.758  11.315 -31.139  1.00  0.00     0.050 A 
HETATM    7  C10 UNL     1     -11.343  10.577 -30.139  1.00  0.00     0.047 A 
HETATM    8  C11 UNL     1     -11.319   9.426 -29.380  1.00  0.00     0.079 A 
HETATM    9  C12 UNL     1     -12.406   9.526 -28.517  1.00  0.00     0.092 A 
HETATM   10  C13 UNL     1     -12.614   8.476 -27.623  1.00  0.00     0.068 A 
HETATM   11  C14 UNL     1     -11.742   7.398 -27.637  1.00  0.00     0.020 A 
HETATM   12  C15 UNL     1     -11.901   6.331 -26.774  1.00  0.00     0.023 A 
HETATM   13  C16 UNL     1     -11.026   5.244 -26.781  1.00  0.00    -0.055 A 
HETATM   14  C17 UNL     1     -11.259   4.136 -25.826  1.00  0.00     0.049 C 
HETATM   15  C18 UNL     1      -9.978   5.219 -27.661  1.00  0.00    -0.054 A 
HETATM   16  C19 UNL     1      -9.015   4.080 -27.708  1.00  0.00     0.049 C 
HETATM   17  C20 UNL     1      -9.824   6.293 -28.526  1.00  0.00     0.038 A 
HETATM   18  C21 UNL     1     -10.672   7.380 -28.540  1.00  0.00     0.047 A 
HETATM   19  N4  UNL     1     -10.472   8.410 -29.413  1.00  0.00    -0.348 N 
HETATM   20  C22 UNL     1      -9.348   8.264 -30.276  1.00  0.00     0.156 C 
ENDROOT
BRANCH   1  21
HETATM   21  C5  UNL     1     -14.235  11.129 -28.025  1.00  0.00     0.131 C 
BRANCH  21  22
HETATM   22  C4  UNL     1     -13.900  12.017 -26.851  1.00  0.00     0.022 C 
BRANCH  22  23
HETATM   23  C3  UNL     1     -14.765  11.754 -25.648  1.00  0.00     0.029 C 
BRANCH  23  24
HETATM   24  C2  UNL     1     -14.820  12.946 -24.757  1.00  0.00     0.231 C 
BRANCH  24  25
HETATM   25  N1  UNL     1     -15.396  12.617 -23.453  1.00  0.00    -0.079 N 
HETATM   26  C1  UNL     1     -16.823  12.469 -23.511  1.00  0.00     0.266 C 
ATOM     27  H12 UNL     1     -15.125  13.302 -22.747  1.00  0.00     0.276 HD
ATOM     28  H11 UNL     1     -14.956  11.788 -23.054  1.00  0.00     0.276 HD
ENDBRANCH  24  25
ENDBRANCH  23  24
ENDBRANCH  22  23
ENDBRANCH  21  22
ENDBRANCH   1  21
BRANCH  10  29
HETATM   29  N3  UNL     1     -13.588   8.530 -26.819  1.00  0.00    -0.396 N 
ATOM     30  H32 UNL     1     -13.869   7.722 -26.263  1.00  0.00     0.156 HD
ATOM     31  H31 UNL     1     -14.106   9.403 -26.719  1.00  0.00     0.156 HD
ENDBRANCH  10  29
TORSDOF 6
ENDMDL
