MODEL 1
REMARK VINA RESULT: -6.288349439      0.000      0.000
REMARK  8 active torsions:
REMARK  status: ('A' for Active; 'I' for Inactive)
REMARK    1  A    between atoms: O1_2  and  C2_3 
REMARK    2  A    between atoms: C4_5  and  O2_6 
REMARK    3  A    between atoms: O2_6  and  C5_7 
REMARK    4  A    between atoms: C5_7  and  C6_9 
REMARK    5  A    between atoms: C10_13  and  O4_14 
REMARK    6  A    between atoms: O4_14  and  C11_15 
REMARK    7  A    between atoms: C11_15  and  C14_18 
REMARK    8  A    between atoms: C16_22  and  C17_23 
ROOT
HETATM    1  C2  UNL     1      -9.661   6.479 -30.624  1.00  0.00     0.078 A 
HETATM    2  C3  UNL     1      -8.862   6.990 -31.594  1.00  0.00     0.077 A 
HETATM    3  C4  UNL     1      -8.989   8.303 -32.084  1.00  0.00     0.115 A 
HETATM    4  C10 UNL     1      -9.964   9.105 -31.561  1.00  0.00     0.105 A 
HETATM    5  C15 UNL     1     -10.791   8.542 -30.542  1.00  0.00     0.050 A 
HETATM    6  C16 UNL     1     -10.641   7.265 -30.088  1.00  0.00    -0.014 A 
ENDROOT
BRANCH   3   7
HETATM    7  O2  UNL     1      -8.116   8.726 -33.083  1.00  0.00    -0.275 OA
BRANCH   7   8
HETATM    8  C5  UNL     1      -6.805   9.071 -32.773  1.00  0.00     0.271 C 
HETATM    9  O3  UNL     1      -5.939   8.179 -33.086  1.00  0.00    -0.264 OA
BRANCH   8  10
HETATM   10  C6  UNL     1      -6.368  10.331 -32.146  1.00  0.00     0.037 C 
HETATM   11  C7  UNL     1      -6.303  10.116 -30.651  1.00  0.00     0.025 C 
HETATM   12  C8  UNL     1      -4.913  10.527 -32.633  1.00  0.00     0.025 C 
HETATM   13  C9  UNL     1      -7.140  11.537 -32.536  1.00  0.00     0.025 C 
ENDBRANCH   8  10
ENDBRANCH   7   8
ENDBRANCH   3   7
BRANCH   4  14
HETATM   14  O4  UNL     1     -10.209  10.355 -31.917  1.00  0.00    -0.327 OA
BRANCH  14  15
HETATM   15  C11 UNL     1     -10.905  11.312 -32.468  1.00  0.00     0.148 C 
HETATM   16  C12 UNL     1     -10.702  12.706 -31.846  1.00  0.00     0.058 C 
HETATM   17  C13 UNL     1     -12.409  11.086 -32.605  1.00  0.00     0.058 C 
BRANCH  15  18
HETATM   18  C14 UNL     1     -10.420  11.530 -33.908  1.00  0.00     0.209 C 
HETATM   19  O5  UNL     1     -10.261  10.563 -34.689  1.00  0.00    -0.646 OA
HETATM   20  O6  UNL     1     -10.170  12.817 -34.305  1.00  0.00    -0.646 OA
ENDBRANCH  15  18
ENDBRANCH  14  15
ENDBRANCH   4  14
BRANCH   1  21
HETATM   21  O1  UNL     1      -9.557   5.191 -30.125  1.00  0.00    -0.355 OA
HETATM   22  C1  UNL     1      -9.216   4.134 -31.005  1.00  0.00     0.210 C 
ENDBRANCH   1  21
BRANCH   6  23
HETATM   23  C17 UNL     1     -11.537   6.766 -29.034  1.00  0.00    -0.021 C 
HETATM   24  C18 UNL     1     -12.370   5.589 -29.523  1.00  0.00     0.019 C 
HETATM   25  C19 UNL     1     -12.518   7.871 -28.701  1.00  0.00     0.019 C 
HETATM   26  C20 UNL     1     -10.854   6.349 -27.780  1.00  0.00     0.019 C 
ENDBRANCH   6  23
TORSDOF 8
ENDMDL
MODEL 2
REMARK VINA RESULT: -6.225992166      1.911      4.612
REMARK  8 active torsions:
REMARK  status: ('A' for Active; 'I' for Inactive)
REMARK    1  A    between atoms: O1_2  and  C2_3 
REMARK    2  A    between atoms: C4_5  and  O2_6 
REMARK    3  A    between atoms: O2_6  and  C5_7 
REMARK    4  A    between atoms: C5_7  and  C6_9 
REMARK    5  A    between atoms: C10_13  and  O4_14 
REMARK    6  A    between atoms: O4_14  and  C11_15 
REMARK    7  A    between atoms: C11_15  and  C14_18 
REMARK    8  A    between atoms: C16_22  and  C17_23 
ROOT
HETATM    1  C2  UNL     1     -10.635   6.928 -30.265  1.00  0.00     0.078 A 
HETATM    2  C3  UNL     1     -11.497   7.972 -30.346  1.00  0.00     0.077 A 
HETATM    3  C4  UNL     1     -11.377   8.997 -31.303  1.00  0.00     0.115 A 
HETATM    4  C10 UNL     1     -10.343   8.942 -32.194  1.00  0.00     0.105 A 
HETATM    5  C15 UNL     1      -9.451   7.833 -32.087  1.00  0.00     0.050 A 
HETATM    6  C16 UNL     1      -9.595   6.855 -31.148  1.00  0.00    -0.014 A 
ENDROOT
BRANCH   3   7
HETATM    7  O2  UNL     1     -12.318  10.024 -31.296  1.00  0.00    -0.275 OA
BRANCH   7   8
HETATM    8  C5  UNL     1     -12.270  11.017 -30.324  1.00  0.00     0.271 C 
HETATM    9  O3  UNL     1     -11.667  12.086 -30.694  1.00  0.00    -0.264 OA
BRANCH   8  10
HETATM   10  C6  UNL     1     -12.842  10.929 -28.969  1.00  0.00     0.037 C 
HETATM   11  C7  UNL     1     -11.717  10.639 -28.000  1.00  0.00     0.025 C 
HETATM   12  C8  UNL     1     -13.340  12.359 -28.659  1.00  0.00     0.025 C 
HETATM   13  C9  UNL     1     -13.997  10.008 -28.824  1.00  0.00     0.025 C 
ENDBRANCH   8  10
ENDBRANCH   7   8
ENDBRANCH   3   7
BRANCH   4  14
HETATM   14  O4  UNL     1     -10.097   9.827 -33.147  1.00  0.00    -0.327 OA
BRANCH  14  15
HETATM   15  C11 UNL     1      -9.333  10.571 -33.899  1.00  0.00     0.148 C 
HETATM   16  C12 UNL     1      -9.721  10.607 -35.389  1.00  0.00     0.058 C 
HETATM   17  C13 UNL     1      -7.829  10.322 -33.823  1.00  0.00     0.058 C 
BRANCH  15  18
HETATM   18  C14 UNL     1      -9.496  12.042 -33.490  1.00  0.00     0.209 C 
HETATM   19  O5  UNL     1     -10.215  12.823 -34.155  1.00  0.00    -0.646 OA
HETATM   20  O6  UNL     1      -8.826  12.466 -32.372  1.00  0.00    -0.646 OA
ENDBRANCH  15  18
ENDBRANCH  14  15
ENDBRANCH   4  14
BRANCH   1  21
HETATM   21  O1  UNL     1     -10.730   5.907 -29.334  1.00  0.00    -0.355 OA
HETATM   22  C1  UNL     1     -12.011   5.425 -28.965  1.00  0.00     0.210 C 
ENDBRANCH   1  21
BRANCH   6  23
HETATM   23  C17 UNL     1      -8.629   5.746 -31.109  1.00  0.00    -0.021 C 
HETATM   24  C18 UNL     1      -7.791   5.784 -29.838  1.00  0.00     0.019 C 
HETATM   25  C19 UNL     1      -7.664   5.934 -32.260  1.00  0.00     0.019 C 
HETATM   26  C20 UNL     1      -9.230   4.390 -31.215  1.00  0.00     0.019 C 
ENDBRANCH   6  23
TORSDOF 8
ENDMDL
MODEL 3
REMARK VINA RESULT: -6.190122425      2.148      4.687
REMARK  8 active torsions:
REMARK  status: ('A' for Active; 'I' for Inactive)
REMARK    1  A    between atoms: O1_2  and  C2_3 
REMARK    2  A    between atoms: C4_5  and  O2_6 
REMARK    3  A    between atoms: O2_6  and  C5_7 
REMARK    4  A    between atoms: C5_7  and  C6_9 
REMARK    5  A    between atoms: C10_13  and  O4_14 
REMARK    6  A    between atoms: O4_14  and  C11_15 
REMARK    7  A    between atoms: C11_15  and  C14_18 
REMARK    8  A    between atoms: C16_22  and  C17_23 
ROOT
HETATM    1  C2  UNL     1     -10.843   7.051 -30.182  1.00  0.00     0.078 A 
HETATM    2  C3  UNL     1     -11.879   7.922 -30.103  1.00  0.00     0.077 A 
HETATM    3  C4  UNL     1     -11.954   9.101 -30.869  1.00  0.00     0.115 A 
HETATM    4  C10 UNL     1     -10.935   9.384 -31.734  1.00  0.00     0.105 A 
HETATM    5  C15 UNL     1      -9.856   8.450 -31.797  1.00  0.00     0.050 A 
HETATM    6  C16 UNL     1      -9.815   7.316 -31.041  1.00  0.00    -0.014 A 
ENDROOT
BRANCH   3   7
HETATM    7  O2  UNL     1     -13.063   9.926 -30.709  1.00  0.00    -0.275 OA
BRANCH   7   8
HETATM    8  C5  UNL     1     -13.528  10.242 -29.438  1.00  0.00     0.271 C 
HETATM    9  O3  UNL     1     -14.486   9.495 -29.028  1.00  0.00    -0.264 OA
BRANCH   8  10
HETATM   10  C6  UNL     1     -13.017  11.320 -28.572  1.00  0.00     0.037 C 
HETATM   11  C7  UNL     1     -11.753  10.827 -27.904  1.00  0.00     0.025 C 
HETATM   12  C8  UNL     1     -12.598  12.442 -29.549  1.00  0.00     0.025 C 
HETATM   13  C9  UNL     1     -14.002  11.894 -27.622  1.00  0.00     0.025 C 
ENDBRANCH   8  10
ENDBRANCH   7   8
ENDBRANCH   3   7
BRANCH   4  14
HETATM   14  O4  UNL     1     -10.860  10.448 -32.517  1.00  0.00    -0.327 OA
BRANCH  14  15
HETATM   15  C11 UNL     1     -10.483  11.656 -32.836  1.00  0.00     0.148 C 
HETATM   16  C12 UNL     1      -9.419  12.272 -31.910  1.00  0.00     0.058 C 
HETATM   17  C13 UNL     1     -11.582  12.699 -33.028  1.00  0.00     0.058 C 
BRANCH  15  18
HETATM   18  C14 UNL     1      -9.753  11.621 -34.186  1.00  0.00     0.209 C 
HETATM   19  O5  UNL     1     -10.039  12.433 -35.097  1.00  0.00    -0.646 OA
HETATM   20  O6  UNL     1      -8.781  10.671 -34.356  1.00  0.00    -0.646 OA
ENDBRANCH  15  18
ENDBRANCH  14  15
ENDBRANCH   4  14
BRANCH   1  21
HETATM   21  O1  UNL     1     -10.744   5.885 -29.439  1.00  0.00    -0.355 OA
HETATM   22  C1  UNL     1     -11.927   5.187 -29.089  1.00  0.00     0.210 C 
ENDBRANCH   1  21
BRANCH   6  23
HETATM   23  C17 UNL     1      -8.664   6.408 -31.170  1.00  0.00    -0.021 C 
HETATM   24  C18 UNL     1      -7.836   6.377 -29.892  1.00  0.00     0.019 C 
HETATM   25  C19 UNL     1      -7.759   6.959 -32.250  1.00  0.00     0.019 C 
HETATM   26  C20 UNL     1      -9.013   5.004 -31.518  1.00  0.00     0.019 C 
ENDBRANCH   6  23
TORSDOF 8
ENDMDL
MODEL 4
REMARK VINA RESULT: -6.112109034      1.968      4.615
REMARK  8 active torsions:
REMARK  status: ('A' for Active; 'I' for Inactive)
REMARK    1  A    between atoms: O1_2  and  C2_3 
REMARK    2  A    between atoms: C4_5  and  O2_6 
REMARK    3  A    between atoms: O2_6  and  C5_7 
REMARK    4  A    between atoms: C5_7  and  C6_9 
REMARK    5  A    between atoms: C10_13  and  O4_14 
REMARK    6  A    between atoms: O4_14  and  C11_15 
REMARK    7  A    between atoms: C11_15  and  C14_18 
REMARK    8  A    between atoms: C16_22  and  C17_23 
ROOT
HETATM    1  C2  UNL     1     -10.505   7.083 -30.381  1.00  0.00     0.078 A 
HETATM    2  C3  UNL     1     -11.438   8.067 -30.357  1.00  0.00     0.077 A 
HETATM    3  C4  UNL     1     -11.465   9.126 -31.284  1.00  0.00     0.115 A 
HETATM    4  C10 UNL     1     -10.506   9.168 -32.256  1.00  0.00     0.105 A 
HETATM    5  C15 UNL     1      -9.536   8.120 -32.259  1.00  0.00     0.050 A 
HETATM    6  C16 UNL     1      -9.539   7.107 -31.346  1.00  0.00    -0.014 A 
ENDROOT
BRANCH   3   7
HETATM    7  O2  UNL     1     -12.468  10.084 -31.167  1.00  0.00    -0.275 OA
BRANCH   7   8
HETATM    8  C5  UNL     1     -12.362  11.103 -30.227  1.00  0.00     0.271 C 
HETATM    9  O3  UNL     1     -11.679  12.114 -30.622  1.00  0.00    -0.264 OA
BRANCH   8  10
HETATM   10  C6  UNL     1     -12.956  11.101 -28.878  1.00  0.00     0.037 C 
HETATM   11  C7  UNL     1     -13.987   9.997 -28.819  1.00  0.00     0.025 C 
HETATM   12  C8  UNL     1     -11.800  10.683 -27.940  1.00  0.00     0.025 C 
HETATM   13  C9  UNL     1     -13.468  12.412 -28.406  1.00  0.00     0.025 C 
ENDBRANCH   8  10
ENDBRANCH   7   8
ENDBRANCH   3   7
BRANCH   4  14
HETATM   14  O4  UNL     1     -10.398  10.096 -33.194  1.00  0.00    -0.327 OA
BRANCH  14  15
HETATM   15  C11 UNL     1      -9.798  11.058 -33.839  1.00  0.00     0.148 C 
HETATM   16  C12 UNL     1     -10.554  12.400 -33.859  1.00  0.00     0.058 C 
HETATM   17  C13 UNL     1      -9.350  10.763 -35.269  1.00  0.00     0.058 C 
BRANCH  15  18
HETATM   18  C14 UNL     1      -8.502  11.431 -33.105  1.00  0.00     0.209 C 
HETATM   19  O5  UNL     1      -7.417  10.870 -33.383  1.00  0.00    -0.646 OA
HETATM   20  O6  UNL     1      -8.578  12.399 -32.138  1.00  0.00    -0.646 OA
ENDBRANCH  15  18
ENDBRANCH  14  15
ENDBRANCH   4  14
BRANCH   1  21
HETATM   21  O1  UNL     1     -10.456   6.031 -29.482  1.00  0.00    -0.355 OA
HETATM   22  C1  UNL     1     -11.658   5.574 -28.886  1.00  0.00     0.210 C 
ENDBRANCH   1  21
BRANCH   6  23
HETATM   23  C17 UNL     1      -8.501   6.067 -31.423  1.00  0.00    -0.021 C 
HETATM   24  C18 UNL     1      -7.509   6.187 -30.273  1.00  0.00     0.019 C 
HETATM   25  C19 UNL     1      -7.709   6.298 -32.693  1.00  0.00     0.019 C 
HETATM   26  C20 UNL     1      -9.015   4.672 -31.434  1.00  0.00     0.019 C 
ENDBRANCH   6  23
TORSDOF 8
ENDMDL
MODEL 5
REMARK VINA RESULT: -6.106328326      1.365      4.329
REMARK  8 active torsions:
REMARK  status: ('A' for Active; 'I' for Inactive)
REMARK    1  A    between atoms: O1_2  and  C2_3 
REMARK    2  A    between atoms: C4_5  and  O2_6 
REMARK    3  A    between atoms: O2_6  and  C5_7 
REMARK    4  A    between atoms: C5_7  and  C6_9 
REMARK    5  A    between atoms: C10_13  and  O4_14 
REMARK    6  A    between atoms: O4_14  and  C11_15 
REMARK    7  A    between atoms: C11_15  and  C14_18 
REMARK    8  A    between atoms: C16_22  and  C17_23 
ROOT
HETATM    1  C2  UNL     1     -10.609   7.041 -30.224  1.00  0.00     0.078 A 
HETATM    2  C3  UNL     1     -10.902   8.359 -30.349  1.00  0.00     0.077 A 
HETATM    3  C4  UNL     1      -9.995   9.304 -30.864  1.00  0.00     0.115 A 
HETATM    4  C10 UNL     1      -8.758   8.877 -31.257  1.00  0.00     0.105 A 
HETATM    5  C15 UNL     1      -8.476   7.484 -31.115  1.00  0.00     0.050 A 
HETATM    6  C16 UNL     1      -9.378   6.594 -30.612  1.00  0.00    -0.014 A 
ENDROOT
BRANCH   3   7
HETATM    7  O2  UNL     1     -10.398  10.634 -30.947  1.00  0.00    -0.275 OA
BRANCH   7   8
HETATM    8  C5  UNL     1     -10.897  11.145 -32.140  1.00  0.00     0.271 C 
HETATM    9  O3  UNL     1     -11.401  10.261 -32.921  1.00  0.00    -0.264 OA
BRANCH   8  10
HETATM   10  C6  UNL     1     -10.891  12.563 -32.544  1.00  0.00     0.037 C 
HETATM   11  C7  UNL     1     -10.450  12.639 -33.988  1.00  0.00     0.025 C 
HETATM   12  C8  UNL     1     -12.377  12.988 -32.508  1.00  0.00     0.025 C 
HETATM   13  C9  UNL     1     -10.138  13.476 -31.648  1.00  0.00     0.025 C 
ENDBRANCH   8  10
ENDBRANCH   7   8
ENDBRANCH   3   7
BRANCH   4  14
HETATM   14  O4  UNL     1      -7.800   9.641 -31.757  1.00  0.00    -0.327 OA
BRANCH  14  15
HETATM   15  C11 UNL     1      -7.175  10.282 -32.707  1.00  0.00     0.148 C 
HETATM   16  C12 UNL     1      -6.916  11.773 -32.426  1.00  0.00     0.058 C 
HETATM   17  C13 UNL     1      -7.753  10.174 -34.115  1.00  0.00     0.058 C 
BRANCH  15  18
HETATM   18  C14 UNL     1      -5.749   9.728 -32.839  1.00  0.00     0.209 C 
HETATM   19  O5  UNL     1      -5.332   8.826 -32.076  1.00  0.00    -0.646 OA
HETATM   20  O6  UNL     1      -4.952  10.257 -33.820  1.00  0.00    -0.646 OA
ENDBRANCH  15  18
ENDBRANCH  14  15
ENDBRANCH   4  14
BRANCH   1  21
HETATM   21  O1  UNL     1     -11.482   6.091 -29.720  1.00  0.00    -0.355 OA
HETATM   22  C1  UNL     1     -12.102   6.318 -28.466  1.00  0.00     0.210 C 
ENDBRANCH   1  21
BRANCH   6  23
HETATM   23  C17 UNL     1      -9.003   5.175 -30.501  1.00  0.00    -0.021 C 
HETATM   24  C18 UNL     1      -8.804   4.766 -29.048  1.00  0.00     0.019 C 
HETATM   25  C19 UNL     1      -7.661   4.998 -31.180  1.00  0.00     0.019 C 
HETATM   26  C20 UNL     1      -9.970   4.225 -31.112  1.00  0.00     0.019 C 
ENDBRANCH   6  23
TORSDOF 8
ENDMDL
