MODEL 1
REMARK VINA RESULT: -8.693459595      0.000      0.000
REMARK  5 active torsions:
REMARK  status: ('A' for Active; 'I' for Inactive)
REMARK    1  A    between atoms: C5_5  and  N1_6 
REMARK    2  A    between atoms: C6_9  and  C7_10 
REMARK    3  A    between atoms: C7_10  and  N3_11 
REMARK    4  A    between atoms: N3_11  and  C8_14 
REMARK    5  A    between atoms: C18_26  and  C19_27 
ROOT
HETATM    1  N1  UNL     1     -16.677   8.961 -22.123  1.00  0.00    -0.219 N 
HETATM    2  N2  UNL     1     -17.425   8.976 -21.022  1.00  0.00    -0.277 N 
ATOM      3  H2  UNL     1     -17.818   9.817 -20.601  1.00  0.00     0.189 HD
HETATM    4  C6  UNL     1     -17.591   7.729 -20.540  1.00  0.00     0.123 A 
HETATM    5  N4  UNL     1     -16.917   6.935 -21.387  1.00  0.00    -0.331 N 
ATOM      6  H4  UNL     1     -16.843   5.920 -21.307  1.00  0.00     0.168 HD
HETATM    7  C18 UNL     1     -16.356   7.676 -22.356  1.00  0.00     0.111 A 
ENDROOT
BRANCH   4   8
HETATM    8  C7  UNL     1     -18.377   7.344 -19.302  1.00  0.00     0.310 C 
BRANCH   8   9
HETATM    9  N3  UNL     1     -17.545   6.731 -18.331  1.00  0.00    -0.060 N 
ATOM     10  H32 UNL     1     -16.842   6.130 -18.760  1.00  0.00     0.278 HD
ATOM     11  H31 UNL     1     -16.920   7.405 -17.889  1.00  0.00     0.278 HD
BRANCH   9  12
HETATM   12  C8  UNL     1     -18.335   6.021 -17.361  1.00  0.00     0.127 C 
HETATM   13  C9  UNL     1     -17.892   4.597 -17.298  1.00  0.00     0.043 C 
HETATM   14  C10 UNL     1     -18.776   3.822 -16.323  1.00  0.00    -0.012 C 
HETATM   15  C11 UNL     1     -18.628   4.518 -14.972  1.00  0.00     0.009 C 
HETATM   16  C15 UNL     1     -20.216   3.876 -16.710  1.00  0.00     0.009 C 
HETATM   17  C12 UNL     1     -19.180   5.919 -15.046  1.00  0.00    -0.012 C 
HETATM   18  C13 UNL     1     -20.604   5.967 -15.496  1.00  0.00     0.009 C 
HETATM   19  C17 UNL     1     -18.268   6.694 -16.007  1.00  0.00     0.043 C 
HETATM   20  C14 UNL     1     -20.666   5.313 -16.853  1.00  0.00    -0.012 C 
HETATM   21  C16 UNL     1     -19.787   6.039 -17.803  1.00  0.00     0.043 C 
ENDBRANCH   9  12
ENDBRANCH   8   9
ENDBRANCH   4   8
BRANCH   1  22
HETATM   22  C5  UNL     1     -16.330  10.130 -22.855  1.00  0.00     0.170 A 
HETATM   23  C4  UNL     1     -16.732  11.405 -22.520  1.00  0.00     0.061 A 
HETATM   24  C3  UNL     1     -16.161  12.215 -23.507  1.00  0.00     0.036 A 
HETATM   25  C2  UNL     1     -15.459  11.393 -24.368  1.00  0.00     0.051 A 
HETATM   26  C1  UNL     1     -14.701  11.862 -25.564  1.00  0.00     0.077 C 
HETATM   27  O1  UNL     1     -15.586  10.169 -23.945  1.00  0.00    -0.297 OA
ENDBRANCH   1  22
BRANCH   7  28
HETATM   28  C19 UNL     1     -15.529   7.172 -23.482  1.00  0.00     0.055 C 
HETATM   29  C20 UNL     1     -14.205   6.607 -23.012  1.00  0.00     0.012 C 
HETATM   30  C21 UNL     1     -14.382   5.530 -24.091  1.00  0.00     0.002 C 
HETATM   31  C22 UNL     1     -15.884   5.783 -23.953  1.00  0.00     0.012 C 
ENDBRANCH   7  28
TORSDOF 5
ENDMDL
MODEL 2
REMARK VINA RESULT: -8.622920792      0.075      1.413
REMARK  5 active torsions:
REMARK  status: ('A' for Active; 'I' for Inactive)
REMARK    1  A    between atoms: C5_5  and  N1_6 
REMARK    2  A    between atoms: C6_9  and  C7_10 
REMARK    3  A    between atoms: C7_10  and  N3_11 
REMARK    4  A    between atoms: N3_11  and  C8_14 
REMARK    5  A    between atoms: C18_26  and  C19_27 
ROOT
HETATM    1  N1  UNL     1     -16.682   8.966 -22.133  1.00  0.00    -0.219 N 
HETATM    2  N2  UNL     1     -17.438   8.988 -21.039  1.00  0.00    -0.277 N 
ATOM      3  H2  UNL     1     -17.832   9.831 -20.623  1.00  0.00     0.189 HD
HETATM    4  C6  UNL     1     -17.612   7.742 -20.554  1.00  0.00     0.123 A 
HETATM    5  N4  UNL     1     -16.934   6.943 -21.393  1.00  0.00    -0.331 N 
ATOM      6  H4  UNL     1     -16.864   5.929 -21.309  1.00  0.00     0.168 HD
HETATM    7  C18 UNL     1     -16.363   7.680 -22.360  1.00  0.00     0.111 A 
ENDROOT
BRANCH   4   8
HETATM    8  C7  UNL     1     -18.410   7.364 -19.322  1.00  0.00     0.310 C 
BRANCH   8   9
HETATM    9  N3  UNL     1     -17.591   6.740 -18.347  1.00  0.00    -0.060 N 
ATOM     10  H32 UNL     1     -16.890   6.134 -18.773  1.00  0.00     0.278 HD
ATOM     11  H31 UNL     1     -16.963   7.407 -17.898  1.00  0.00     0.278 HD
BRANCH   9  12
HETATM   12  C8  UNL     1     -18.394   6.032 -17.385  1.00  0.00     0.127 C 
HETATM   13  C9  UNL     1     -18.213   6.641 -16.034  1.00  0.00     0.043 C 
HETATM   14  C10 UNL     1     -19.006   5.847 -14.998  1.00  0.00    -0.012 C 
HETATM   15  C11 UNL     1     -20.464   5.899 -15.449  1.00  0.00     0.009 C 
HETATM   16  C15 UNL     1     -18.592   4.414 -14.955  1.00  0.00     0.009 C 
HETATM   17  C12 UNL     1     -20.626   5.185 -16.767  1.00  0.00    -0.012 C 
HETATM   18  C13 UNL     1     -20.149   3.770 -16.732  1.00  0.00     0.009 C 
HETATM   19  C17 UNL     1     -19.848   6.007 -17.804  1.00  0.00     0.043 C 
HETATM   20  C14 UNL     1     -18.696   3.798 -16.333  1.00  0.00    -0.012 C 
HETATM   21  C16 UNL     1     -17.918   4.592 -17.316  1.00  0.00     0.043 C 
ENDBRANCH   9  12
ENDBRANCH   8   9
ENDBRANCH   4   8
BRANCH   1  22
HETATM   22  C5  UNL     1     -16.325  10.132 -22.866  1.00  0.00     0.170 A 
HETATM   23  C4  UNL     1     -16.717  11.410 -22.532  1.00  0.00     0.061 A 
HETATM   24  C3  UNL     1     -16.139  12.215 -23.519  1.00  0.00     0.036 A 
HETATM   25  C2  UNL     1     -15.442  11.387 -24.379  1.00  0.00     0.051 A 
HETATM   26  C1  UNL     1     -14.679  11.849 -25.574  1.00  0.00     0.077 C 
HETATM   27  O1  UNL     1     -15.579  10.164 -23.955  1.00  0.00    -0.297 OA
ENDBRANCH   1  22
BRANCH   7  28
HETATM   28  C19 UNL     1     -15.527   7.170 -23.477  1.00  0.00     0.055 C 
HETATM   29  C20 UNL     1     -14.207   6.606 -22.994  1.00  0.00     0.012 C 
HETATM   30  C21 UNL     1     -14.377   5.524 -24.069  1.00  0.00     0.002 C 
HETATM   31  C22 UNL     1     -15.879   5.778 -23.943  1.00  0.00     0.012 C 
ENDBRANCH   7  28
TORSDOF 5
ENDMDL
MODEL 3
REMARK VINA RESULT: -8.385217336      4.789     12.041
REMARK  5 active torsions:
REMARK  status: ('A' for Active; 'I' for Inactive)
REMARK    1  A    between atoms: C5_5  and  N1_6 
REMARK    2  A    between atoms: C6_9  and  C7_10 
REMARK    3  A    between atoms: C7_10  and  N3_11 
REMARK    4  A    between atoms: N3_11  and  C8_14 
REMARK    5  A    between atoms: C18_26  and  C19_27 
ROOT
HETATM    1  N1  UNL     1     -14.654   9.734 -24.997  1.00  0.00    -0.219 N 
HETATM    2  N2  UNL     1     -14.091   9.631 -26.198  1.00  0.00    -0.277 N 
ATOM      3  H2  UNL     1     -13.790   8.755 -26.623  1.00  0.00     0.189 HD
HETATM    4  C6  UNL     1     -13.974  10.842 -26.776  1.00  0.00     0.123 A 
HETATM    5  N4  UNL     1     -14.489  11.705 -25.886  1.00  0.00    -0.331 N 
ATOM      6  H4  UNL     1     -14.553  12.715 -26.017  1.00  0.00     0.168 HD
HETATM    7  C18 UNL     1     -14.907  11.039 -24.797  1.00  0.00     0.111 A 
ENDROOT
BRANCH   4   8
HETATM    8  C7  UNL     1     -13.381  11.130 -28.141  1.00  0.00     0.310 C 
BRANCH   8   9
HETATM    9  N3  UNL     1     -12.721   9.991 -28.669  1.00  0.00    -0.060 N 
ATOM     10  H32 UNL     1     -12.035   9.615 -28.015  1.00  0.00     0.278 HD
ATOM     11  H31 UNL     1     -13.342   9.184 -28.720  1.00  0.00     0.278 HD
BRANCH   9  12
HETATM   12  C8  UNL     1     -12.131  10.292 -29.946  1.00  0.00     0.127 C 
HETATM   13  C9  UNL     1     -10.697   9.879 -29.948  1.00  0.00     0.043 C 
HETATM   14  C10 UNL     1     -10.049  10.263 -31.276  1.00  0.00    -0.012 C 
HETATM   15  C11 UNL     1     -10.843   9.540 -32.360  1.00  0.00     0.009 C 
HETATM   16  C15 UNL     1     -10.143  11.729 -31.541  1.00  0.00     0.009 C 
HETATM   17  C12 UNL     1     -12.259  10.056 -32.399  1.00  0.00    -0.012 C 
HETATM   18  C13 UNL     1     -12.342  11.534 -32.600  1.00  0.00     0.009 C 
HETATM   19  C17 UNL     1     -12.908   9.640 -31.070  1.00  0.00     0.043 C 
HETATM   20  C14 UNL     1     -11.584  12.182 -31.470  1.00  0.00    -0.012 C 
HETATM   21  C16 UNL     1     -12.186  11.793 -30.170  1.00  0.00     0.043 C 
ENDBRANCH   9  12
ENDBRANCH   8   9
ENDBRANCH   4   8
BRANCH   1  22
HETATM   22  C5  UNL     1     -14.906   8.620 -24.148  1.00  0.00     0.170 A 
HETATM   23  C4  UNL     1     -14.138   7.477 -24.117  1.00  0.00     0.061 A 
HETATM   24  C3  UNL     1     -14.754   6.676 -23.150  1.00  0.00     0.036 A 
HETATM   25  C2  UNL     1     -15.843   7.372 -22.662  1.00  0.00     0.051 A 
HETATM   26  C1  UNL     1     -16.774   6.870 -21.610  1.00  0.00     0.077 C 
HETATM   27  O1  UNL     1     -15.895   8.517 -23.279  1.00  0.00    -0.297 OA
ENDBRANCH   1  22
BRANCH   7  28
HETATM   28  C19 UNL     1     -15.533  11.634 -23.588  1.00  0.00     0.055 C 
HETATM   29  C20 UNL     1     -15.419  13.144 -23.568  1.00  0.00     0.012 C 
HETATM   30  C21 UNL     1     -16.833  13.154 -22.972  1.00  0.00     0.002 C 
HETATM   31  C22 UNL     1     -17.029  11.810 -23.675  1.00  0.00     0.012 C 
ENDBRANCH   7  28
TORSDOF 5
ENDMDL
MODEL 4
REMARK VINA RESULT: -8.058184975      7.166     13.692
REMARK  5 active torsions:
REMARK  status: ('A' for Active; 'I' for Inactive)
REMARK    1  A    between atoms: C5_5  and  N1_6 
REMARK    2  A    between atoms: C6_9  and  C7_10 
REMARK    3  A    between atoms: C7_10  and  N3_11 
REMARK    4  A    between atoms: N3_11  and  C8_14 
REMARK    5  A    between atoms: C18_26  and  C19_27 
ROOT
HETATM    1  N1  UNL     1     -12.140   7.224 -27.538  1.00  0.00    -0.219 N 
HETATM    2  N2  UNL     1     -12.312   8.538 -27.656  1.00  0.00    -0.277 N 
ATOM      3  H2  UNL     1     -12.505   9.169 -26.878  1.00  0.00     0.189 HD
HETATM    4  C6  UNL     1     -12.195   8.922 -28.942  1.00  0.00     0.123 A 
HETATM    5  N4  UNL     1     -11.942   7.792 -29.621  1.00  0.00    -0.331 N 
ATOM      6  H4  UNL     1     -11.798   7.734 -30.630  1.00  0.00     0.168 HD
HETATM    7  C18 UNL     1     -11.907   6.750 -28.775  1.00  0.00     0.111 A 
ENDROOT
BRANCH   4   8
HETATM    8  C7  UNL     1     -12.328  10.336 -29.471  1.00  0.00     0.310 C 
BRANCH   8   9
HETATM    9  N3  UNL     1     -12.609  10.345 -30.861  1.00  0.00    -0.060 N 
ATOM     10  H32 UNL     1     -12.762   9.403 -31.221  1.00  0.00     0.278 HD
ATOM     11  H31 UNL     1     -13.529  10.735 -31.058  1.00  0.00     0.278 HD
BRANCH   9  12
HETATM   12  C8  UNL     1     -11.572  11.031 -31.585  1.00  0.00     0.127 C 
HETATM   13  C9  UNL     1     -11.875  12.492 -31.633  1.00  0.00     0.043 C 
HETATM   14  C10 UNL     1     -10.816  13.213 -32.463  1.00  0.00    -0.012 C 
HETATM   15  C11 UNL     1      -9.480  12.938 -31.778  1.00  0.00     0.009 C 
HETATM   16  C15 UNL     1     -10.735  12.678 -33.854  1.00  0.00     0.009 C 
HETATM   17  C12 UNL     1      -9.157  11.466 -31.840  1.00  0.00    -0.012 C 
HETATM   18  C13 UNL     1      -9.142  10.925 -33.232  1.00  0.00     0.009 C 
HETATM   19  C17 UNL     1     -10.212  10.756 -30.980  1.00  0.00     0.043 C 
HETATM   20  C14 UNL     1     -10.503  11.183 -33.827  1.00  0.00    -0.012 C 
HETATM   21  C16 UNL     1     -11.545  10.512 -33.012  1.00  0.00     0.043 C 
ENDBRANCH   9  12
ENDBRANCH   8   9
ENDBRANCH   4   8
BRANCH   1  22
HETATM   22  C5  UNL     1     -12.208   6.529 -26.298  1.00  0.00     0.170 A 
HETATM   23  C4  UNL     1     -11.154   5.849 -25.730  1.00  0.00     0.061 A 
HETATM   24  C3  UNL     1     -11.679   5.335 -24.540  1.00  0.00     0.036 A 
HETATM   25  C2  UNL     1     -13.001   5.729 -24.461  1.00  0.00     0.051 A 
HETATM   26  C1  UNL     1     -13.927   5.389 -23.342  1.00  0.00     0.077 C 
HETATM   27  O1  UNL     1     -13.272   6.434 -25.522  1.00  0.00    -0.297 OA
ENDBRANCH   1  22
BRANCH   7  28
HETATM   28  C19 UNL     1     -11.657   5.331 -29.135  1.00  0.00     0.055 C 
HETATM   29  C20 UNL     1     -12.753   4.761 -30.012  1.00  0.00     0.012 C 
HETATM   30  C21 UNL     1     -11.643   4.011 -30.760  1.00  0.00     0.002 C 
HETATM   31  C22 UNL     1     -10.712   5.132 -30.294  1.00  0.00     0.012 C 
ENDBRANCH   7  28
TORSDOF 5
ENDMDL
MODEL 5
REMARK VINA RESULT: -8.031271078      9.205     14.516
REMARK  5 active torsions:
REMARK  status: ('A' for Active; 'I' for Inactive)
REMARK    1  A    between atoms: C5_5  and  N1_6 
REMARK    2  A    between atoms: C6_9  and  C7_10 
REMARK    3  A    between atoms: C7_10  and  N3_11 
REMARK    4  A    between atoms: N3_11  and  C8_14 
REMARK    5  A    between atoms: C18_26  and  C19_27 
ROOT
HETATM    1  N1  UNL     1     -11.796   6.251 -29.083  1.00  0.00    -0.219 N 
HETATM    2  N2  UNL     1     -12.488   7.379 -29.223  1.00  0.00    -0.277 N 
ATOM      3  H2  UNL     1     -13.384   7.568 -28.775  1.00  0.00     0.189 HD
HETATM    4  C6  UNL     1     -11.843   8.237 -30.037  1.00  0.00     0.123 A 
HETATM    5  N4  UNL     1     -10.719   7.598 -30.397  1.00  0.00    -0.331 N 
ATOM      6  H4  UNL     1     -10.001   7.977 -31.016  1.00  0.00     0.168 HD
HETATM    7  C18 UNL     1     -10.681   6.386 -29.821  1.00  0.00     0.111 A 
ENDROOT
BRANCH   4   8
HETATM    8  C7  UNL     1     -12.317   9.621 -30.437  1.00  0.00     0.310 C 
BRANCH   8   9
HETATM    9  N3  UNL     1     -12.327   9.776 -31.847  1.00  0.00    -0.060 N 
ATOM     10  H32 UNL     1     -12.123   8.898 -32.326  1.00  0.00     0.278 HD
ATOM     11  H31 UNL     1     -13.271   9.927 -32.203  1.00  0.00     0.278 HD
BRANCH   9  12
HETATM   12  C8  UNL     1     -11.430  10.825 -32.250  1.00  0.00     0.127 C 
HETATM   13  C9  UNL     1     -12.214  12.012 -32.702  1.00  0.00     0.043 C 
HETATM   14  C10 UNL     1     -11.266  13.100 -33.199  1.00  0.00    -0.012 C 
HETATM   15  C11 UNL     1     -10.356  13.441 -32.021  1.00  0.00     0.009 C 
HETATM   16  C15 UNL     1     -10.404  12.622 -34.319  1.00  0.00     0.009 C 
HETATM   17  C12 UNL     1      -9.505  12.251 -31.660  1.00  0.00    -0.012 C 
HETATM   18  C13 UNL     1      -8.694  11.738 -32.805  1.00  0.00     0.009 C 
HETATM   19  C17 UNL     1     -10.467  11.174 -31.136  1.00  0.00     0.043 C 
HETATM   20  C14 UNL     1      -9.655  11.373 -33.906  1.00  0.00    -0.012 C 
HETATM   21  C16 UNL     1     -10.602  10.336 -33.426  1.00  0.00     0.043 C 
ENDBRANCH   9  12
ENDBRANCH   8   9
ENDBRANCH   4   8
BRANCH   1  22
HETATM   22  C5  UNL     1     -12.229   5.157 -28.283  1.00  0.00     0.170 A 
HETATM   23  C4  UNL     1     -12.933   4.074 -28.762  1.00  0.00     0.061 A 
HETATM   24  C3  UNL     1     -13.134   3.270 -27.635  1.00  0.00     0.036 A 
HETATM   25  C2  UNL     1     -12.548   3.906 -26.557  1.00  0.00     0.051 A 
HETATM   26  C1  UNL     1     -12.537   3.381 -25.161  1.00  0.00     0.077 C 
HETATM   27  O1  UNL     1     -12.024   5.018 -26.985  1.00  0.00    -0.297 OA
ENDBRANCH   1  22
BRANCH   7  28
HETATM   28  C19 UNL     1      -9.604   5.373 -29.971  1.00  0.00     0.055 C 
HETATM   29  C20 UNL     1      -9.873   4.415 -31.112  1.00  0.00     0.012 C 
HETATM   30  C21 UNL     1      -8.366   4.469 -31.397  1.00  0.00     0.002 C 
HETATM   31  C22 UNL     1      -8.394   5.849 -30.738  1.00  0.00     0.012 C 
ENDBRANCH   7  28
TORSDOF 5
ENDMDL
