MODEL 1
REMARK VINA RESULT: -6.123836301      0.000      0.000
REMARK  7 active torsions:
REMARK  status: ('A' for Active; 'I' for Inactive)
REMARK    1  A    between atoms: C2_2  and  C3_3 
REMARK    2  A    between atoms: C3_3  and  C5_5 
REMARK    3  A    between atoms: C3_3  and  C14_22 
REMARK       I    between atoms: C5_5  and  N1_7 
REMARK    4  A    between atoms: N1_7  and  C6_9 
REMARK    5  A    between atoms: C7_12  and  S1_13 
REMARK    6  A    between atoms: C9_15  and  S2_16 
REMARK    7  A    between atoms: S2_16  and  C10_17 
ROOT
HETATM    1  C6  UNL     1     -10.340   8.260 -30.279  1.00  0.00     0.153 A 
HETATM    2  N2  UNL     1      -9.777   7.125 -30.697  1.00  0.00    -0.330 N 
ATOM      3  H2  UNL     1      -8.949   7.141 -31.293  1.00  0.00     0.168 HD
HETATM    4  C7  UNL     1     -10.308   5.995 -30.325  1.00  0.00     0.095 A 
HETATM    5  C9  UNL     1     -11.418   6.037 -29.523  1.00  0.00     0.079 A 
HETATM    6  S3  UNL     1     -11.651   7.721 -29.338  1.00  0.00    -0.044 SA
ENDROOT
BRANCH   1   7
HETATM    7  N1  UNL     1      -9.980   9.500 -30.527  1.00  0.00    -0.306 N 
HETATM    8  C5  UNL     1      -8.935   9.789 -31.441  1.00  0.00     0.238 C 
HETATM    9  O1  UNL     1      -7.797   9.309 -31.206  1.00  0.00    -0.272 OA
ATOM     10  H1  UNL     1     -10.459  10.266 -30.055  1.00  0.00     0.171 HD
BRANCH   8  11
HETATM   11  C3  UNL     1      -9.133  10.628 -32.651  1.00  0.00     0.086 C 
HETATM   12  C4  UNL     1      -7.869  11.423 -32.891  1.00  0.00     0.033 C 
BRANCH  11  13
HETATM   13  C2  UNL     1      -9.381   9.777 -33.876  1.00  0.00     0.021 C 
HETATM   14  C1  UNL     1      -9.392  10.646 -35.117  1.00  0.00     0.006 C 
ENDBRANCH  11  13
BRANCH  11  15
HETATM   15  C14 UNL     1     -10.253  11.596 -32.452  1.00  0.00     0.070 A 
HETATM   16  C15 UNL     1     -10.139  12.956 -32.194  1.00  0.00     0.036 A 
HETATM   17  C16 UNL     1     -11.410  13.478 -32.078  1.00  0.00     0.027 A 
HETATM   18  C17 UNL     1     -12.253  12.405 -32.273  1.00  0.00     0.142 A 
HETATM   19  O2  UNL     1     -11.532  11.329 -32.488  1.00  0.00    -0.326 OA
ENDBRANCH  11  15
ENDBRANCH   8  11
ENDBRANCH   1   7
BRANCH   4  20
HETATM   20  S1  UNL     1      -9.625   4.380 -30.846  1.00  0.00    -0.115 SA
HETATM   21  C8  UNL     1      -8.280   3.893 -29.737  1.00  0.00     0.097 C 
ENDBRANCH   4  20
BRANCH   5  22
HETATM   22  S2  UNL     1     -12.368   4.666 -28.845  1.00  0.00    -0.111 SA
BRANCH  22  23
HETATM   23  C10 UNL     1     -12.070   4.490 -27.064  1.00  0.00     0.003 C 
HETATM   24  C11 UNL     1     -13.133   3.569 -26.514  1.00  0.00     0.026 C 
HETATM   25  C12 UNL     1     -12.099   5.825 -26.365  1.00  0.00     0.026 C 
HETATM   26  C13 UNL     1     -10.694   3.899 -26.833  1.00  0.00     0.026 C 
ENDBRANCH  22  23
ENDBRANCH   5  22
TORSDOF 7
ENDMDL
MODEL 2
REMARK VINA RESULT: -6.085503688      1.857      3.883
REMARK  7 active torsions:
REMARK  status: ('A' for Active; 'I' for Inactive)
REMARK    1  A    between atoms: C2_2  and  C3_3 
REMARK    2  A    between atoms: C3_3  and  C5_5 
REMARK    3  A    between atoms: C3_3  and  C14_22 
REMARK       I    between atoms: C5_5  and  N1_7 
REMARK    4  A    between atoms: N1_7  and  C6_9 
REMARK    5  A    between atoms: C7_12  and  S1_13 
REMARK    6  A    between atoms: C9_15  and  S2_16 
REMARK    7  A    between atoms: S2_16  and  C10_17 
ROOT
HETATM    1  C6  UNL     1     -10.574   8.782 -31.018  1.00  0.00     0.153 A 
HETATM    2  N2  UNL     1     -11.653   9.282 -30.412  1.00  0.00    -0.330 N 
ATOM      3  H2  UNL     1     -12.129  10.102 -30.788  1.00  0.00     0.168 HD
HETATM    4  C7  UNL     1     -12.083   8.699 -29.330  1.00  0.00     0.095 A 
HETATM    5  C9  UNL     1     -11.402   7.601 -28.875  1.00  0.00     0.079 A 
HETATM    6  S3  UNL     1     -10.157   7.456 -30.038  1.00  0.00    -0.044 SA
ENDROOT
BRANCH   1   7
HETATM    7  N1  UNL     1      -9.971   9.203 -32.108  1.00  0.00    -0.306 N 
HETATM    8  C5  UNL     1     -10.421  10.359 -32.793  1.00  0.00     0.238 C 
HETATM    9  O1  UNL     1     -11.602  10.367 -33.222  1.00  0.00    -0.272 OA
ATOM     10  H1  UNL     1      -9.166   8.689 -32.466  1.00  0.00     0.171 HD
BRANCH   8  11
HETATM   11  C3  UNL     1      -9.558  11.546 -33.022  1.00  0.00     0.086 C 
HETATM   12  C4  UNL     1     -10.008  12.224 -34.298  1.00  0.00     0.033 C 
BRANCH  11  13
HETATM   13  C2  UNL     1      -9.692  12.548 -31.897  1.00  0.00     0.021 C 
HETATM   14  C1  UNL     1     -10.863  13.472 -32.164  1.00  0.00     0.006 C 
ENDBRANCH  11  13
BRANCH  11  15
HETATM   15  C14 UNL     1      -8.130  11.144 -33.195  1.00  0.00     0.070 A 
HETATM   16  C15 UNL     1      -7.029  11.689 -32.546  1.00  0.00     0.036 A 
HETATM   17  C16 UNL     1      -5.901  11.033 -32.992  1.00  0.00     0.027 A 
HETATM   18  C17 UNL     1      -6.366  10.106 -33.902  1.00  0.00     0.142 A 
HETATM   19  O2  UNL     1      -7.673  10.209 -33.986  1.00  0.00    -0.326 OA
ENDBRANCH  11  15
ENDBRANCH   8  11
ENDBRANCH   1   7
BRANCH   4  20
HETATM   20  S1  UNL     1     -13.546   9.305 -28.414  1.00  0.00    -0.115 SA
HETATM   21  C8  UNL     1     -13.299  11.031 -27.930  1.00  0.00     0.097 C 
ENDBRANCH   4  20
BRANCH   5  22
HETATM   22  S2  UNL     1     -11.746   6.584 -27.429  1.00  0.00    -0.111 SA
BRANCH  22  23
HETATM   23  C10 UNL     1     -11.773   4.824 -27.868  1.00  0.00     0.003 C 
HETATM   24  C11 UNL     1     -10.343   4.336 -27.879  1.00  0.00     0.026 C 
HETATM   25  C12 UNL     1     -12.431   4.597 -29.204  1.00  0.00     0.026 C 
HETATM   26  C13 UNL     1     -12.580   4.055 -26.841  1.00  0.00     0.026 C 
ENDBRANCH  22  23
ENDBRANCH   5  22
TORSDOF 7
ENDMDL
MODEL 3
REMARK VINA RESULT: -6.045895383      1.616      3.066
REMARK  7 active torsions:
REMARK  status: ('A' for Active; 'I' for Inactive)
REMARK    1  A    between atoms: C2_2  and  C3_3 
REMARK    2  A    between atoms: C3_3  and  C5_5 
REMARK    3  A    between atoms: C3_3  and  C14_22 
REMARK       I    between atoms: C5_5  and  N1_7 
REMARK    4  A    between atoms: N1_7  and  C6_9 
REMARK    5  A    between atoms: C7_12  and  S1_13 
REMARK    6  A    between atoms: C9_15  and  S2_16 
REMARK    7  A    between atoms: S2_16  and  C10_17 
ROOT
HETATM    1  C6  UNL     1      -9.539   7.944 -32.032  1.00  0.00     0.153 A 
HETATM    2  N2  UNL     1      -9.275   6.637 -32.102  1.00  0.00    -0.330 N 
ATOM      3  H2  UNL     1      -9.052   6.198 -32.996  1.00  0.00     0.168 HD
HETATM    4  C7  UNL     1      -9.309   5.937 -31.005  1.00  0.00     0.095 A 
HETATM    5  C9  UNL     1      -9.613   6.584 -29.836  1.00  0.00     0.079 A 
HETATM    6  S3  UNL     1      -9.841   8.191 -30.377  1.00  0.00    -0.044 SA
ENDROOT
BRANCH   1   7
HETATM    7  N1  UNL     1      -9.563   8.833 -33.000  1.00  0.00    -0.306 N 
HETATM    8  C5  UNL     1     -10.280  10.048 -32.858  1.00  0.00     0.238 C 
HETATM    9  O1  UNL     1     -11.516   9.980 -32.640  1.00  0.00    -0.272 OA
ATOM     10  H1  UNL     1      -9.057   8.647 -33.865  1.00  0.00     0.171 HD
BRANCH   8  11
HETATM   11  C3  UNL     1      -9.633  11.381 -32.960  1.00  0.00     0.086 C 
HETATM   12  C4  UNL     1      -9.962  11.968 -34.315  1.00  0.00     0.033 C 
BRANCH  11  13
HETATM   13  C2  UNL     1     -10.162  12.330 -31.908  1.00  0.00     0.021 C 
HETATM   14  C1  UNL     1     -10.971  13.431 -32.563  1.00  0.00     0.006 C 
ENDBRANCH  11  13
BRANCH  11  15
HETATM   15  C14 UNL     1      -8.147  11.263 -32.859  1.00  0.00     0.070 A 
HETATM   16  C15 UNL     1      -7.341  11.775 -31.850  1.00  0.00     0.036 A 
HETATM   17  C16 UNL     1      -6.033  11.444 -32.138  1.00  0.00     0.027 A 
HETATM   18  C17 UNL     1      -6.099  10.738 -33.321  1.00  0.00     0.142 A 
HETATM   19  O2  UNL     1      -7.353  10.658 -33.702  1.00  0.00    -0.326 OA
ENDBRANCH  11  15
ENDBRANCH   8  11
ENDBRANCH   1   7
BRANCH   4  20
HETATM   20  S1  UNL     1      -8.973   4.139 -30.986  1.00  0.00    -0.115 SA
HETATM   21  C8  UNL     1      -7.222   3.835 -31.326  1.00  0.00     0.097 C 
ENDBRANCH   4  20
BRANCH   5  22
HETATM   22  S2  UNL     1      -9.732   5.905 -28.173  1.00  0.00    -0.111 SA
BRANCH  22  23
HETATM   23  C10 UNL     1     -11.458   5.546 -27.743  1.00  0.00     0.003 C 
HETATM   24  C11 UNL     1     -11.961   6.686 -26.888  1.00  0.00     0.026 C 
HETATM   25  C12 UNL     1     -11.584   4.231 -27.017  1.00  0.00     0.026 C 
HETATM   26  C13 UNL     1     -12.286   5.435 -29.007  1.00  0.00     0.026 C 
ENDBRANCH  22  23
ENDBRANCH   5  22
TORSDOF 7
ENDMDL
MODEL 4
REMARK VINA RESULT: -6.031542111      3.108      7.926
REMARK  7 active torsions:
REMARK  status: ('A' for Active; 'I' for Inactive)
REMARK    1  A    between atoms: C2_2  and  C3_3 
REMARK    2  A    between atoms: C3_3  and  C5_5 
REMARK    3  A    between atoms: C3_3  and  C14_22 
REMARK       I    between atoms: C5_5  and  N1_7 
REMARK    4  A    between atoms: N1_7  and  C6_9 
REMARK    5  A    between atoms: C7_12  and  S1_13 
REMARK    6  A    between atoms: C9_15  and  S2_16 
REMARK    7  A    between atoms: S2_16  and  C10_17 
ROOT
HETATM    1  C6  UNL     1     -10.926   8.303 -27.765  1.00  0.00     0.153 A 
HETATM    2  N2  UNL     1     -11.828   9.285 -27.719  1.00  0.00    -0.330 N 
ATOM      3  H2  UNL     1     -12.527   9.317 -26.976  1.00  0.00     0.168 HD
HETATM    4  C7  UNL     1     -11.797  10.201 -28.644  1.00  0.00     0.095 A 
HETATM    5  C9  UNL     1     -10.834  10.105 -29.614  1.00  0.00     0.079 A 
HETATM    6  S3  UNL     1     -10.009   8.682 -29.147  1.00  0.00    -0.044 SA
ENDROOT
BRANCH   1   7
HETATM    7  N1  UNL     1     -10.772   7.285 -26.948  1.00  0.00    -0.306 N 
HETATM    8  C5  UNL     1     -11.829   6.369 -26.713  1.00  0.00     0.238 C 
HETATM    9  O1  UNL     1     -12.906   6.819 -26.247  1.00  0.00    -0.272 OA
ATOM     10  H1  UNL     1      -9.879   7.152 -26.475  1.00  0.00     0.171 HD
BRANCH   8  11
HETATM   11  C3  UNL     1     -11.711   4.915 -26.994  1.00  0.00     0.086 C 
HETATM   12  C4  UNL     1     -10.433   4.410 -26.359  1.00  0.00     0.033 C 
BRANCH  11  13
HETATM   13  C2  UNL     1     -12.862   4.143 -26.389  1.00  0.00     0.021 C 
HETATM   14  C1  UNL     1     -12.406   3.440 -25.127  1.00  0.00     0.006 C 
ENDBRANCH  11  13
BRANCH  11  15
HETATM   15  C14 UNL     1     -11.625   4.660 -28.463  1.00  0.00     0.070 A 
HETATM   16  C15 UNL     1     -12.647   4.207 -29.288  1.00  0.00     0.036 A 
HETATM   17  C16 UNL     1     -12.149   4.106 -30.570  1.00  0.00     0.027 A 
HETATM   18  C17 UNL     1     -10.833   4.506 -30.472  1.00  0.00     0.142 A 
HETATM   19  O2  UNL     1     -10.574   4.819 -29.223  1.00  0.00    -0.326 OA
ENDBRANCH  11  15
ENDBRANCH   8  11
ENDBRANCH   1   7
BRANCH   4  20
HETATM   20  S1  UNL     1     -12.991  11.586 -28.684  1.00  0.00    -0.115 SA
HETATM   21  C8  UNL     1     -13.711  11.827 -27.041  1.00  0.00     0.097 C 
ENDBRANCH   4  20
BRANCH   5  22
HETATM   22  S2  UNL     1     -10.529  11.203 -31.008  1.00  0.00    -0.111 SA
BRANCH  22  23
HETATM   23  C10 UNL     1     -10.935  10.386 -32.576  1.00  0.00     0.003 C 
HETATM   24  C11 UNL     1     -12.425  10.136 -32.587  1.00  0.00     0.026 C 
HETATM   25  C12 UNL     1     -10.171   9.098 -32.742  1.00  0.00     0.026 C 
HETATM   26  C13 UNL     1     -10.547  11.284 -33.734  1.00  0.00     0.026 C 
ENDBRANCH  22  23
ENDBRANCH   5  22
TORSDOF 7
ENDMDL
MODEL 5
REMARK VINA RESULT: -6.028682045      1.770      4.246
REMARK  7 active torsions:
REMARK  status: ('A' for Active; 'I' for Inactive)
REMARK    1  A    between atoms: C2_2  and  C3_3 
REMARK    2  A    between atoms: C3_3  and  C5_5 
REMARK    3  A    between atoms: C3_3  and  C14_22 
REMARK       I    between atoms: C5_5  and  N1_7 
REMARK    4  A    between atoms: N1_7  and  C6_9 
REMARK    5  A    between atoms: C7_12  and  S1_13 
REMARK    6  A    between atoms: C9_15  and  S2_16 
REMARK    7  A    between atoms: S2_16  and  C10_17 
ROOT
HETATM    1  C6  UNL     1      -9.586   7.900 -32.389  1.00  0.00     0.153 A 
HETATM    2  N2  UNL     1     -10.064   7.853 -31.144  1.00  0.00    -0.330 N 
ATOM      3  H2  UNL     1     -10.561   8.650 -30.745  1.00  0.00     0.168 HD
HETATM    4  C7  UNL     1      -9.883   6.766 -30.451  1.00  0.00     0.095 A 
HETATM    5  C9  UNL     1      -9.210   5.728 -31.041  1.00  0.00     0.079 A 
HETATM    6  S3  UNL     1      -8.864   6.373 -32.587  1.00  0.00    -0.044 SA
ENDROOT
BRANCH   1   7
HETATM    7  N1  UNL     1      -9.651   8.882 -33.261  1.00  0.00    -0.306 N 
HETATM    8  C5  UNL     1     -10.327  10.090 -32.953  1.00  0.00     0.238 C 
HETATM    9  O1  UNL     1     -11.547  10.024 -32.659  1.00  0.00    -0.272 OA
ATOM     10  H1  UNL     1      -9.208   8.773 -34.173  1.00  0.00     0.171 HD
BRANCH   8  11
HETATM   11  C3  UNL     1      -9.654  11.414 -32.967  1.00  0.00     0.086 C 
HETATM   12  C4  UNL     1      -9.971  12.095 -34.281  1.00  0.00     0.033 C 
BRANCH  11  13
HETATM   13  C2  UNL     1     -10.164  12.302 -31.854  1.00  0.00     0.021 C 
HETATM   14  C1  UNL     1     -10.946  13.462 -32.434  1.00  0.00     0.006 C 
ENDBRANCH  11  13
BRANCH  11  15
HETATM   15  C14 UNL     1      -8.171  11.262 -32.876  1.00  0.00     0.070 A 
HETATM   16  C15 UNL     1      -7.344  11.768 -31.882  1.00  0.00     0.036 A 
HETATM   17  C16 UNL     1      -6.047  11.401 -32.175  1.00  0.00     0.027 A 
HETATM   18  C17 UNL     1      -6.140  10.679 -33.346  1.00  0.00     0.142 A 
HETATM   19  O2  UNL     1      -7.399  10.625 -33.716  1.00  0.00    -0.326 OA
ENDBRANCH  11  15
ENDBRANCH   8  11
ENDBRANCH   1   7
BRANCH   4  20
HETATM   20  S1  UNL     1     -10.487   6.595 -28.733  1.00  0.00    -0.115 SA
HETATM   21  C8  UNL     1     -12.062   5.704 -28.719  1.00  0.00     0.097 C 
ENDBRANCH   4  20
BRANCH   5  22
HETATM   22  S2  UNL     1      -8.809   4.113 -30.355  1.00  0.00    -0.111 SA
BRANCH  22  23
HETATM   23  C10 UNL     1      -7.013   3.881 -30.253  1.00  0.00     0.003 C 
HETATM   24  C11 UNL     1      -6.542   3.378 -31.598  1.00  0.00     0.026 C 
HETATM   25  C12 UNL     1      -6.642   2.916 -29.157  1.00  0.00     0.026 C 
HETATM   26  C13 UNL     1      -6.346   5.201 -29.925  1.00  0.00     0.026 C 
ENDBRANCH  22  23
ENDBRANCH   5  22
TORSDOF 7
ENDMDL
