MODEL 1
REMARK VINA RESULT: -7.018576106      0.000      0.000
REMARK  6 active torsions:
REMARK  status: ('A' for Active; 'I' for Inactive)
REMARK    1  A    between atoms: C2_2  and  C3_3 
REMARK    2  A    between atoms: C2_2  and  N2_8 
REMARK    3  A    between atoms: N1_4  and  O1_6 
REMARK    4  A    between atoms: N2_8  and  N3_9 
REMARK       I    between atoms: N3_9  and  C4_11 
REMARK    5  A    between atoms: C4_11  and  O3_13 
REMARK    6  A    between atoms: O3_13  and  C5_14 
ROOT
HETATM    1  N3  UNL     1     -39.024 -21.571   9.757  1.00  0.00    -0.248 N 
ATOM      2  H3  UNL     1     -38.548 -20.903  10.363  1.00  0.00     0.187 HD
HETATM    3  C4  UNL     1     -39.858 -22.555  10.344  1.00  0.00     0.378 C 
HETATM    4  O2  UNL     1     -40.439 -23.379   9.560  1.00  0.00    -0.237 OA
ENDROOT
BRANCH   1   5
HETATM    5  N2  UNL     1     -38.831 -21.484   8.374  1.00  0.00    -0.127 NA
BRANCH   5   6
HETATM    6  C2  UNL     1     -39.824 -20.616   7.800  1.00  0.00     0.135 C 
HETATM    7  C1  UNL     1     -39.075 -19.396   7.251  1.00  0.00     0.035 C 
BRANCH   6   8
HETATM    8  C3  UNL     1     -40.587 -21.261   6.693  1.00  0.00     0.109 C 
HETATM    9  N1  UNL     1     -41.487 -22.120   6.943  1.00  0.00    -0.283 N 
ATOM     10  H1  UNL     1     -41.639 -22.325   7.931  1.00  0.00     0.192 HD
BRANCH   9  11
HETATM   11  O1  UNL     1     -42.271 -22.799   6.079  1.00  0.00    -0.291 OA
ATOM     12  H1  UNL     1     -42.087 -23.054   5.183  1.00  0.00     0.244 HD
ENDBRANCH   9  11
ENDBRANCH   6   8
ENDBRANCH   5   6
ENDBRANCH   1   5
BRANCH   3  13
HETATM   13  O3  UNL     1     -40.108 -22.715  11.677  1.00  0.00    -0.276 OA
BRANCH  13  14
HETATM   14  C5  UNL     1     -41.193 -22.161  12.367  1.00  0.00     0.279 C 
HETATM   15  C6  UNL     1     -42.446 -21.884  11.615  1.00  0.00     0.248 C 
HETATM   16  O4  UNL     1     -42.867 -23.141  12.067  1.00  0.00    -0.280 OA
HETATM   17  N4  UNL     1     -41.995 -23.102  13.127  1.00  0.00    -0.066 NA
ENDBRANCH  13  14
ENDBRANCH   3  13
TORSDOF 6
ENDMDL
MODEL 2
REMARK VINA RESULT: -6.789994326      2.279      2.849
REMARK  6 active torsions:
REMARK  status: ('A' for Active; 'I' for Inactive)
REMARK    1  A    between atoms: C2_2  and  C3_3 
REMARK    2  A    between atoms: C2_2  and  N2_8 
REMARK    3  A    between atoms: N1_4  and  O1_6 
REMARK    4  A    between atoms: N2_8  and  N3_9 
REMARK       I    between atoms: N3_9  and  C4_11 
REMARK    5  A    between atoms: C4_11  and  O3_13 
REMARK    6  A    between atoms: O3_13  and  C5_14 
ROOT
HETATM    1  N3  UNL     1     -41.599 -22.055   8.166  1.00  0.00    -0.248 N 
ATOM      2  H3  UNL     1     -42.094 -22.934   8.316  1.00  0.00     0.187 HD
HETATM    3  C4  UNL     1     -41.245 -21.269   9.292  1.00  0.00     0.378 C 
HETATM    4  O2  UNL     1     -40.629 -20.171   9.073  1.00  0.00    -0.237 OA
ENDROOT
BRANCH   1   5
HETATM    5  N2  UNL     1     -41.294 -21.666   6.858  1.00  0.00    -0.127 NA
BRANCH   5   6
HETATM    6  C2  UNL     1     -41.941 -22.550   5.927  1.00  0.00     0.135 C 
HETATM    7  C1  UNL     1     -42.131 -21.758   4.629  1.00  0.00     0.035 C 
BRANCH   6   8
HETATM    8  C3  UNL     1     -41.141 -23.776   5.639  1.00  0.00     0.109 C 
HETATM    9  N1  UNL     1     -41.647 -24.740   4.987  1.00  0.00    -0.283 N 
ATOM     10  H1  UNL     1     -42.613 -24.611   4.687  1.00  0.00     0.192 HD
BRANCH   9  11
HETATM   11  O1  UNL     1     -41.080 -25.914   4.638  1.00  0.00    -0.291 OA
ATOM     12  H1  UNL     1     -41.443 -26.790   4.694  1.00  0.00     0.244 HD
ENDBRANCH   9  11
ENDBRANCH   6   8
ENDBRANCH   5   6
ENDBRANCH   1   5
BRANCH   3  13
HETATM   13  O3  UNL     1     -41.497 -21.567  10.600  1.00  0.00    -0.276 OA
BRANCH  13  14
HETATM   14  C5  UNL     1     -41.641 -22.860  11.119  1.00  0.00     0.279 C 
HETATM   15  C6  UNL     1     -40.838 -23.239  12.311  1.00  0.00     0.248 C 
HETATM   16  O4  UNL     1     -41.967 -22.871  13.055  1.00  0.00    -0.280 OA
HETATM   17  N4  UNL     1     -42.795 -23.062  11.977  1.00  0.00    -0.066 NA
ENDBRANCH  13  14
ENDBRANCH   3  13
TORSDOF 6
ENDMDL
MODEL 3
REMARK VINA RESULT: -6.735847493      1.453      1.586
REMARK  6 active torsions:
REMARK  status: ('A' for Active; 'I' for Inactive)
REMARK    1  A    between atoms: C2_2  and  C3_3 
REMARK    2  A    between atoms: C2_2  and  N2_8 
REMARK    3  A    between atoms: N1_4  and  O1_6 
REMARK    4  A    between atoms: N2_8  and  N3_9 
REMARK       I    between atoms: N3_9  and  C4_11 
REMARK    5  A    between atoms: C4_11  and  O3_13 
REMARK    6  A    between atoms: O3_13  and  C5_14 
ROOT
HETATM    1  N3  UNL     1     -40.753 -21.655   9.086  1.00  0.00    -0.248 N 
ATOM      2  H3  UNL     1     -41.688 -22.043   8.962  1.00  0.00     0.187 HD
HETATM    3  C4  UNL     1     -39.839 -22.330   9.934  1.00  0.00     0.378 C 
HETATM    4  O2  UNL     1     -38.677 -21.818  10.072  1.00  0.00    -0.237 OA
ENDROOT
BRANCH   1   5
HETATM    5  N2  UNL     1     -40.418 -20.475   8.415  1.00  0.00    -0.127 NA
BRANCH   5   6
HETATM    6  C2  UNL     1     -40.222 -20.752   7.017  1.00  0.00     0.135 C 
HETATM    7  C1  UNL     1     -38.734 -21.071   6.838  1.00  0.00     0.035 C 
BRANCH   6   8
HETATM    8  C3  UNL     1     -41.032 -21.909   6.536  1.00  0.00     0.109 C 
HETATM    9  N1  UNL     1     -41.924 -21.749   5.647  1.00  0.00    -0.283 N 
ATOM     10  H1  UNL     1     -42.036 -20.795   5.302  1.00  0.00     0.192 HD
BRANCH   9  11
HETATM   11  O1  UNL     1     -42.744 -22.669   5.097  1.00  0.00    -0.291 OA
ATOM     12  H1  UNL     1     -43.485 -22.535   4.518  1.00  0.00     0.244 HD
ENDBRANCH   9  11
ENDBRANCH   6   8
ENDBRANCH   5   6
ENDBRANCH   1   5
BRANCH   3  13
HETATM   13  O3  UNL     1     -40.075 -23.483  10.626  1.00  0.00    -0.276 OA
BRANCH  13  14
HETATM   14  C5  UNL     1     -41.040 -23.639  11.628  1.00  0.00     0.279 C 
HETATM   15  C6  UNL     1     -40.968 -22.761  12.826  1.00  0.00     0.248 C 
HETATM   16  O4  UNL     1     -41.881 -21.943  12.147  1.00  0.00    -0.280 OA
HETATM   17  N4  UNL     1     -42.314 -22.992  11.374  1.00  0.00    -0.066 NA
ENDBRANCH  13  14
ENDBRANCH   3  13
TORSDOF 6
ENDMDL
MODEL 4
REMARK VINA RESULT: -6.719283387      2.439      5.389
REMARK  6 active torsions:
REMARK  status: ('A' for Active; 'I' for Inactive)
REMARK    1  A    between atoms: C2_2  and  C3_3 
REMARK    2  A    between atoms: C2_2  and  N2_8 
REMARK    3  A    between atoms: N1_4  and  O1_6 
REMARK    4  A    between atoms: N2_8  and  N3_9 
REMARK       I    between atoms: N3_9  and  C4_11 
REMARK    5  A    between atoms: C4_11  and  O3_13 
REMARK    6  A    between atoms: O3_13  and  C5_14 
ROOT
HETATM    1  N3  UNL     1     -41.399 -20.920  10.441  1.00  0.00    -0.248 N 
ATOM      2  H3  UNL     1     -41.350 -19.978  10.830  1.00  0.00     0.187 HD
HETATM    3  C4  UNL     1     -40.986 -21.130   9.101  1.00  0.00     0.378 C 
HETATM    4  O2  UNL     1     -41.061 -22.319   8.642  1.00  0.00    -0.237 OA
ENDROOT
BRANCH   1   5
HETATM    5  N2  UNL     1     -41.870 -21.960  11.249  1.00  0.00    -0.127 NA
BRANCH   5   6
HETATM    6  C2  UNL     1     -40.823 -22.400  12.132  1.00  0.00     0.135 C 
HETATM    7  C1  UNL     1     -41.511 -22.988  13.368  1.00  0.00     0.035 C 
BRANCH   6   8
HETATM    8  C3  UNL     1     -39.946 -23.440  11.519  1.00  0.00     0.109 C 
HETATM    9  N1  UNL     1     -40.446 -24.496  11.022  1.00  0.00    -0.283 N 
ATOM     10  H1  UNL     1     -41.461 -24.570  11.076  1.00  0.00     0.192 HD
BRANCH   9  11
HETATM   11  O1  UNL     1     -39.814 -25.533  10.433  1.00  0.00    -0.291 OA
ATOM     12  H1  UNL     1     -39.476 -25.598   9.548  1.00  0.00     0.244 HD
ENDBRANCH   9  11
ENDBRANCH   6   8
ENDBRANCH   5   6
ENDBRANCH   1   5
BRANCH   3  13
HETATM   13  O3  UNL     1     -40.512 -20.181   8.241  1.00  0.00    -0.276 OA
BRANCH  13  14
HETATM   14  C5  UNL     1     -39.165 -19.828   8.092  1.00  0.00     0.279 C 
HETATM   15  C6  UNL     1     -38.286 -20.710   7.279  1.00  0.00     0.248 C 
HETATM   16  O4  UNL     1     -38.576 -19.841   6.219  1.00  0.00    -0.280 OA
HETATM   17  N4  UNL     1     -38.892 -18.821   7.083  1.00  0.00    -0.066 NA
ENDBRANCH  13  14
ENDBRANCH   3  13
TORSDOF 6
ENDMDL
MODEL 5
REMARK VINA RESULT: -6.646802676      1.824      2.055
REMARK  6 active torsions:
REMARK  status: ('A' for Active; 'I' for Inactive)
REMARK    1  A    between atoms: C2_2  and  C3_3 
REMARK    2  A    between atoms: C2_2  and  N2_8 
REMARK    3  A    between atoms: N1_4  and  O1_6 
REMARK    4  A    between atoms: N2_8  and  N3_9 
REMARK       I    between atoms: N3_9  and  C4_11 
REMARK    5  A    between atoms: C4_11  and  O3_13 
REMARK    6  A    between atoms: O3_13  and  C5_14 
ROOT
HETATM    1  N3  UNL     1     -40.255 -22.369   9.772  1.00  0.00    -0.248 N 
ATOM      2  H3  UNL     1     -40.136 -21.425  10.138  1.00  0.00     0.187 HD
HETATM    3  C4  UNL     1     -40.091 -23.469  10.650  1.00  0.00     0.378 C 
HETATM    4  O2  UNL     1     -40.243 -24.640  10.162  1.00  0.00    -0.237 OA
ENDROOT
BRANCH   1   5
HETATM    5  N2  UNL     1     -40.576 -22.533   8.420  1.00  0.00    -0.127 NA
BRANCH   5   6
HETATM    6  C2  UNL     1     -40.255 -21.333   7.697  1.00  0.00     0.135 C 
HETATM    7  C1  UNL     1     -39.531 -20.408   8.681  1.00  0.00     0.035 C 
BRANCH   6   8
HETATM    8  C3  UNL     1     -39.372 -21.584   6.520  1.00  0.00     0.109 C 
HETATM    9  N1  UNL     1     -38.109 -21.550   6.642  1.00  0.00    -0.283 N 
ATOM     10  H1  UNL     1     -37.761 -21.345   7.578  1.00  0.00     0.192 HD
BRANCH   9  11
HETATM   11  O1  UNL     1     -37.164 -21.749   5.699  1.00  0.00    -0.291 OA
ATOM     12  H1  UNL     1     -36.790 -22.568   5.395  1.00  0.00     0.244 HD
ENDBRANCH   9  11
ENDBRANCH   6   8
ENDBRANCH   5   6
ENDBRANCH   1   5
BRANCH   3  13
HETATM   13  O3  UNL     1     -39.782 -23.406  11.979  1.00  0.00    -0.276 OA
BRANCH  13  14
HETATM   14  C5  UNL     1     -40.508 -22.697  12.943  1.00  0.00     0.279 C 
HETATM   15  C6  UNL     1     -41.765 -22.019  12.528  1.00  0.00     0.248 C 
HETATM   16  O4  UNL     1     -42.411 -23.181  12.972  1.00  0.00    -0.280 OA
HETATM   17  N4  UNL     1     -41.361 -23.503  13.797  1.00  0.00    -0.066 NA
ENDBRANCH  13  14
ENDBRANCH   3  13
TORSDOF 6
ENDMDL
