MODEL 1
REMARK VINA RESULT: -6.265454077      0.000      0.000
REMARK  4 active torsions:
REMARK  status: ('A' for Active; 'I' for Inactive)
REMARK    1  A    between atoms: O1_1  and  N1_3 
REMARK    2  A    between atoms: N1_3  and  N2_5 
REMARK    3  A    between atoms: N2_5  and  C1_7 
REMARK    4  A    between atoms: C2_8  and  N3_9 
ROOT
HETATM    1  C1  UNL     1     -41.445 -22.140  11.337  1.00  0.00     0.158 A 
HETATM    2  C2  UNL     1     -40.407 -22.569  10.533  1.00  0.00     0.205 A 
HETATM    3  C3  UNL     1     -39.964 -21.744   9.529  1.00  0.00     0.295 A 
HETATM    4  O4  UNL     1     -39.038 -22.061   8.762  1.00  0.00    -0.264 OA
HETATM    5  N4  UNL     1     -40.533 -20.501   9.315  1.00  0.00    -0.261 N 
ATOM      6  H4  UNL     1     -40.197 -19.895   8.566  1.00  0.00     0.190 HD
HETATM    7  N5  UNL     1     -41.507 -20.124  10.090  1.00  0.00    -0.262 N 
ATOM      8  H5  UNL     1     -41.929 -19.207   9.938  1.00  0.00     0.190 HD
HETATM    9  C4  UNL     1     -41.980 -20.893  11.085  1.00  0.00     0.290 A 
HETATM   10  O5  UNL     1     -42.933 -20.481  11.807  1.00  0.00    -0.264 OA
ENDROOT
BRANCH   1  11
HETATM   11  N2  UNL     1     -41.906 -22.980  12.370  1.00  0.00    -0.274 N 
ATOM     12  H2  UNL     1     -42.557 -23.739  12.168  1.00  0.00     0.189 HD
BRANCH  11  13
HETATM   13  N1  UNL     1     -41.458 -22.758  13.675  1.00  0.00    -0.209 N 
ATOM     14  H1  UNL     1     -42.081 -22.278  14.325  1.00  0.00     0.215 HD
BRANCH  13  15
HETATM   15  O1  UNL     1     -40.337 -23.117  14.084  1.00  0.00    -0.274 OA
ATOM     16  H1  UNL     1     -39.566 -22.562  14.043  1.00  0.00     0.246 HD
ENDBRANCH  13  15
ENDBRANCH  11  13
ENDBRANCH   1  11
BRANCH   2  17
HETATM   17  N3  UNL     1     -39.802 -23.848  10.768  1.00  0.00    -0.107 N 
HETATM   18  O2  UNL     1     -40.276 -24.880  10.313  1.00  0.00    -0.531 OA
HETATM   19  O3  UNL     1     -38.655 -23.842  11.534  1.00  0.00    -0.531 OA
ENDBRANCH   2  17
TORSDOF 4
ENDMDL
MODEL 2
REMARK VINA RESULT: -6.235655754      1.720      3.557
REMARK  4 active torsions:
REMARK  status: ('A' for Active; 'I' for Inactive)
REMARK    1  A    between atoms: O1_1  and  N1_3 
REMARK    2  A    between atoms: N1_3  and  N2_5 
REMARK    3  A    between atoms: N2_5  and  C1_7 
REMARK    4  A    between atoms: C2_8  and  N3_9 
ROOT
HETATM    1  C1  UNL     1     -40.949 -22.136  10.210  1.00  0.00     0.158 A 
HETATM    2  C2  UNL     1     -40.742 -22.993  11.273  1.00  0.00     0.205 A 
HETATM    3  C3  UNL     1     -41.077 -22.574  12.537  1.00  0.00     0.295 A 
HETATM    4  O4  UNL     1     -40.916 -23.287  13.543  1.00  0.00    -0.264 OA
HETATM    5  N4  UNL     1     -41.617 -21.319  12.760  1.00  0.00    -0.261 N 
ATOM      6  H4  UNL     1     -41.863 -21.017  13.702  1.00  0.00     0.190 HD
HETATM    7  N5  UNL     1     -41.803 -20.535  11.738  1.00  0.00    -0.262 N 
ATOM      8  H5  UNL     1     -42.203 -19.610  11.897  1.00  0.00     0.190 HD
HETATM    9  C4  UNL     1     -41.490 -20.895  10.483  1.00  0.00     0.290 A 
HETATM   10  O5  UNL     1     -41.687 -20.092   9.525  1.00  0.00    -0.264 OA
ENDROOT
BRANCH   1  11
HETATM   11  N2  UNL     1     -40.608 -22.558   8.910  1.00  0.00    -0.274 N 
ATOM     12  H2  UNL     1     -39.684 -22.943   8.717  1.00  0.00     0.189 HD
BRANCH  11  13
HETATM   13  N1  UNL     1     -41.556 -22.440   7.890  1.00  0.00    -0.209 N 
ATOM     14  H1  UNL     1     -42.343 -23.088   7.883  1.00  0.00     0.215 HD
BRANCH  13  15
HETATM   15  O1  UNL     1     -41.487 -21.582   6.988  1.00  0.00    -0.274 OA
ATOM     16  H1  UNL     1     -42.251 -21.178   6.593  1.00  0.00     0.246 HD
ENDBRANCH  13  15
ENDBRANCH  11  13
ENDBRANCH   1  11
BRANCH   2  17
HETATM   17  N3  UNL     1     -40.202 -24.302  11.042  1.00  0.00    -0.107 N 
HETATM   18  O2  UNL     1     -39.055 -24.467  10.651  1.00  0.00    -0.531 OA
HETATM   19  O3  UNL     1     -41.054 -25.359  11.286  1.00  0.00    -0.531 OA
ENDBRANCH   2  17
TORSDOF 4
ENDMDL
MODEL 3
REMARK VINA RESULT: -5.980429402      2.454      3.524
REMARK  4 active torsions:
REMARK  status: ('A' for Active; 'I' for Inactive)
REMARK    1  A    between atoms: O1_1  and  N1_3 
REMARK    2  A    between atoms: N1_3  and  N2_5 
REMARK    3  A    between atoms: N2_5  and  C1_7 
REMARK    4  A    between atoms: C2_8  and  N3_9 
ROOT
HETATM    1  C1  UNL     1     -40.393 -20.950   8.664  1.00  0.00     0.158 A 
HETATM    2  C2  UNL     1     -40.892 -22.205   8.373  1.00  0.00     0.205 A 
HETATM    3  C3  UNL     1     -40.909 -22.623   7.066  1.00  0.00     0.295 A 
HETATM    4  O4  UNL     1     -41.345 -23.737   6.725  1.00  0.00    -0.264 OA
HETATM    5  N4  UNL     1     -40.437 -21.817   6.045  1.00  0.00    -0.261 N 
ATOM      6  H4  UNL     1     -40.453 -22.136   5.077  1.00  0.00     0.190 HD
HETATM    7  N5  UNL     1     -39.970 -20.641   6.351  1.00  0.00    -0.262 N 
ATOM      8  H5  UNL     1     -39.619 -20.043   5.603  1.00  0.00     0.190 HD
HETATM    9  C4  UNL     1     -39.934 -20.182   7.613  1.00  0.00     0.290 A 
HETATM   10  O5  UNL     1     -39.476 -19.028   7.855  1.00  0.00    -0.264 OA
ENDROOT
BRANCH   1  11
HETATM   11  N2  UNL     1     -40.372 -20.513  10.003  1.00  0.00    -0.274 N 
ATOM     12  H2  UNL     1     -39.486 -20.391  10.493  1.00  0.00     0.189 HD
BRANCH  11  13
HETATM   13  N1  UNL     1     -41.584 -20.249  10.648  1.00  0.00    -0.209 N 
ATOM     14  H1  UNL     1     -42.306 -19.743  10.136  1.00  0.00     0.215 HD
BRANCH  13  15
HETATM   15  O1  UNL     1     -41.825 -20.602  11.820  1.00  0.00    -0.274 OA
ATOM     16  H1  UNL     1     -41.870 -19.993  12.548  1.00  0.00     0.246 HD
ENDBRANCH  13  15
ENDBRANCH  11  13
ENDBRANCH   1  11
BRANCH   2  17
HETATM   17  N3  UNL     1     -41.362 -23.051   9.432  1.00  0.00    -0.107 N 
HETATM   18  O2  UNL     1     -42.422 -22.839  10.005  1.00  0.00    -0.531 OA
HETATM   19  O3  UNL     1     -40.548 -24.114   9.762  1.00  0.00    -0.531 OA
ENDBRANCH   2  17
TORSDOF 4
ENDMDL
MODEL 4
REMARK VINA RESULT: -5.949534747      1.528      3.205
REMARK  4 active torsions:
REMARK  status: ('A' for Active; 'I' for Inactive)
REMARK    1  A    between atoms: O1_1  and  N1_3 
REMARK    2  A    between atoms: N1_3  and  N2_5 
REMARK    3  A    between atoms: N2_5  and  C1_7 
REMARK    4  A    between atoms: C2_8  and  N3_9 
ROOT
HETATM    1  C1  UNL     1     -40.400 -22.806  11.127  1.00  0.00     0.158 A 
HETATM    2  C2  UNL     1     -40.576 -21.866  10.129  1.00  0.00     0.205 A 
HETATM    3  C3  UNL     1     -41.413 -20.804  10.362  1.00  0.00     0.295 A 
HETATM    4  O4  UNL     1     -41.624 -19.921   9.512  1.00  0.00    -0.264 OA
HETATM    5  N4  UNL     1     -42.075 -20.659  11.568  1.00  0.00    -0.261 N 
ATOM      6  H4  UNL     1     -42.695 -19.866  11.732  1.00  0.00     0.190 HD
HETATM    7  N5  UNL     1     -41.887 -21.559  12.490  1.00  0.00    -0.262 N 
ATOM      8  H5  UNL     1     -42.371 -21.455  13.382  1.00  0.00     0.190 HD
HETATM    9  C4  UNL     1     -41.081 -22.618  12.313  1.00  0.00     0.290 A 
HETATM   10  O5  UNL     1     -40.938 -23.468  13.239  1.00  0.00    -0.264 OA
ENDROOT
BRANCH   1  11
HETATM   11  N2  UNL     1     -39.543 -23.900  10.897  1.00  0.00    -0.274 N 
ATOM     12  H2  UNL     1     -38.534 -23.763  10.838  1.00  0.00     0.189 HD
BRANCH  11  13
HETATM   13  N1  UNL     1     -40.096 -25.175  10.750  1.00  0.00    -0.209 N 
ATOM     14  H1  UNL     1     -41.069 -25.316  11.025  1.00  0.00     0.215 HD
BRANCH  13  15
HETATM   15  O1  UNL     1     -39.461 -26.149  10.300  1.00  0.00    -0.274 OA
ATOM     16  H1  UNL     1     -39.840 -27.014  10.192  1.00  0.00     0.246 HD
ENDBRANCH  13  15
ENDBRANCH  11  13
ENDBRANCH   1  11
BRANCH   2  17
HETATM   17  N3  UNL     1     -39.874 -22.004   8.886  1.00  0.00    -0.107 N 
HETATM   18  O2  UNL     1     -38.722 -21.614   8.748  1.00  0.00    -0.531 OA
HETATM   19  O3  UNL     1     -40.574 -22.602   7.860  1.00  0.00    -0.531 OA
ENDBRANCH   2  17
TORSDOF 4
ENDMDL
MODEL 5
REMARK VINA RESULT: -5.941240738      3.463      5.695
REMARK  4 active torsions:
REMARK  status: ('A' for Active; 'I' for Inactive)
REMARK    1  A    between atoms: O1_1  and  N1_3 
REMARK    2  A    between atoms: N1_3  and  N2_5 
REMARK    3  A    between atoms: N2_5  and  C1_7 
REMARK    4  A    between atoms: C2_8  and  N3_9 
ROOT
HETATM    1  C1  UNL     1     -40.041 -21.675   6.919  1.00  0.00     0.158 A 
HETATM    2  C2  UNL     1     -40.170 -20.700   7.889  1.00  0.00     0.205 A 
HETATM    3  C3  UNL     1     -41.126 -20.857   8.861  1.00  0.00     0.295 A 
HETATM    4  O4  UNL     1     -41.305 -20.021   9.765  1.00  0.00    -0.264 OA
HETATM    5  N4  UNL     1     -41.953 -21.967   8.886  1.00  0.00    -0.261 N 
ATOM      6  H4  UNL     1     -42.660 -22.074   9.613  1.00  0.00     0.190 HD
HETATM    7  N5  UNL     1     -41.805 -22.869   7.961  1.00  0.00    -0.262 N 
ATOM      8  H5  UNL     1     -42.411 -23.690   7.976  1.00  0.00     0.190 HD
HETATM    9  C4  UNL     1     -40.888 -22.763   6.986  1.00  0.00     0.290 A 
HETATM   10  O5  UNL     1     -40.790 -23.667   6.106  1.00  0.00    -0.264 OA
ENDROOT
BRANCH   1  11
HETATM   11  N2  UNL     1     -39.063 -21.522   5.917  1.00  0.00    -0.274 N 
ATOM     12  H2  UNL     1     -39.332 -21.279   4.964  1.00  0.00     0.189 HD
BRANCH  11  13
HETATM   13  N1  UNL     1     -37.718 -21.708   6.250  1.00  0.00    -0.209 N 
ATOM     14  H1  UNL     1     -37.457 -21.699   7.235  1.00  0.00     0.215 HD
BRANCH  13  15
HETATM   15  O1  UNL     1     -36.822 -21.886   5.401  1.00  0.00    -0.274 OA
ATOM     16  H1  UNL     1     -35.896 -21.788   5.592  1.00  0.00     0.246 HD
ENDBRANCH  13  15
ENDBRANCH  11  13
ENDBRANCH   1  11
BRANCH   2  17
HETATM   17  N3  UNL     1     -39.300 -19.560   7.877  1.00  0.00    -0.107 N 
HETATM   18  O2  UNL     1     -38.299 -19.504   8.578  1.00  0.00    -0.531 OA
HETATM   19  O3  UNL     1     -39.660 -18.534   7.028  1.00  0.00    -0.531 OA
ENDBRANCH   2  17
TORSDOF 4
ENDMDL
