MODEL 1
REMARK VINA RESULT: -7.332423715      0.000      0.000
REMARK  6 active torsions:
REMARK  status: ('A' for Active; 'I' for Inactive)
REMARK    1  A    between atoms: C2_2  and  C3_3 
REMARK    2  A    between atoms: C3_3  and  C4_4 
REMARK    3  A    between atoms: N2_6  and  O1_8 
REMARK    4  A    between atoms: O1_8  and  C5_9 
REMARK    5  A    between atoms: N5_14  and  N6_16 
REMARK    6  A    between atoms: N6_16  and  O3_18 
ROOT
HETATM    1  C4  UNL     1     -40.941 -22.239   7.959  1.00  0.00     0.118 C 
HETATM    2  N1  UNL     1     -41.240 -23.346   7.118  1.00  0.00    -0.085 NA
HETATM    3  N2  UNL     1     -40.908 -22.448   9.235  1.00  0.00    -0.252 N 
ATOM      4  H2  UNL     1     -40.695 -21.666   9.854  1.00  0.00     0.195 HD
ENDROOT
BRANCH   1   5
HETATM    5  C3  UNL     1     -40.691 -20.934   7.344  1.00  0.00     0.128 C 
BRANCH   5   6
HETATM    6  C2  UNL     1     -39.283 -20.710   6.974  1.00  0.00     0.008 C 
HETATM    7  C1  UNL     1     -38.685 -19.380   7.179  1.00  0.00     0.065 C 
HETATM    8  N5  UNL     1     -38.584 -21.654   6.480  1.00  0.00    -0.290 N 
ATOM      9  H5  UNL     1     -39.016 -22.569   6.345  1.00  0.00     0.188 HD
BRANCH   8  10
HETATM   10  N6  UNL     1     -37.247 -21.479   6.118  1.00  0.00    -0.210 N 
ATOM     11  H6  UNL     1     -36.661 -20.851   6.668  1.00  0.00     0.215 HD
BRANCH  10  12
HETATM   12  O3  UNL     1     -36.755 -22.066   5.149  1.00  0.00    -0.274 OA
ATOM     13  H3  UNL     1     -36.281 -22.883   5.247  1.00  0.00     0.246 HD
ENDBRANCH  10  12
ENDBRANCH   8  10
ENDBRANCH   5   6
ENDBRANCH   1   5
BRANCH   3  14
HETATM   14  O1  UNL     1     -41.145 -23.669   9.786  1.00  0.00    -0.228 OA
BRANCH  14  15
HETATM   15  C5  UNL     1     -41.232 -23.936  11.151  1.00  0.00     0.403 C 
HETATM   16  N3  UNL     1     -42.381 -23.245  11.758  1.00  0.00    -0.085 NA
HETATM   17  N4  UNL     1     -41.940 -23.222  13.110  1.00  0.00    -0.118 NA
HETATM   18  C6  UNL     1     -40.589 -22.743  12.936  1.00  0.00     0.302 C 
HETATM   19  O2  UNL     1     -40.129 -23.494  11.880  1.00  0.00    -0.328 OA
ENDBRANCH  14  15
ENDBRANCH   3  14
TORSDOF 6
ENDMDL
MODEL 2
REMARK VINA RESULT: -7.179128239      2.333      3.740
REMARK  6 active torsions:
REMARK  status: ('A' for Active; 'I' for Inactive)
REMARK    1  A    between atoms: C2_2  and  C3_3 
REMARK    2  A    between atoms: C3_3  and  C4_4 
REMARK    3  A    between atoms: N2_6  and  O1_8 
REMARK    4  A    between atoms: O1_8  and  C5_9 
REMARK    5  A    between atoms: N5_14  and  N6_16 
REMARK    6  A    between atoms: N6_16  and  O3_18 
ROOT
HETATM    1  C4  UNL     1     -40.743 -21.800   7.461  1.00  0.00     0.118 C 
HETATM    2  N1  UNL     1     -39.389 -21.569   7.830  1.00  0.00    -0.085 NA
HETATM    3  N2  UNL     1     -41.617 -21.880   8.410  1.00  0.00    -0.252 N 
ATOM      4  H2  UNL     1     -42.593 -22.045   8.164  1.00  0.00     0.195 HD
ENDROOT
BRANCH   1   5
HETATM    5  C3  UNL     1     -41.073 -21.934   6.040  1.00  0.00     0.128 C 
BRANCH   5   6
HETATM    6  C2  UNL     1     -41.707 -23.217   5.695  1.00  0.00     0.008 C 
HETATM    7  C1  UNL     1     -40.888 -24.440   5.656  1.00  0.00     0.065 C 
HETATM    8  N5  UNL     1     -42.952 -23.275   5.430  1.00  0.00    -0.290 N 
ATOM      9  H5  UNL     1     -43.503 -22.417   5.461  1.00  0.00     0.188 HD
BRANCH   8  10
HETATM   10  N6  UNL     1     -43.588 -24.473   5.099  1.00  0.00    -0.210 N 
ATOM     11  H6  UNL     1     -43.054 -25.206   4.631  1.00  0.00     0.215 HD
BRANCH  10  12
HETATM   12  O3  UNL     1     -44.779 -24.669   5.358  1.00  0.00    -0.274 OA
ATOM     13  H3  UNL     1     -45.466 -24.468   4.733  1.00  0.00     0.246 HD
ENDBRANCH  10  12
ENDBRANCH   8  10
ENDBRANCH   5   6
ENDBRANCH   1   5
BRANCH   3  14
HETATM   14  O1  UNL     1     -41.289 -21.753   9.724  1.00  0.00    -0.228 OA
BRANCH  14  15
HETATM   15  C5  UNL     1     -41.407 -22.755  10.686  1.00  0.00     0.403 C 
HETATM   16  N3  UNL     1     -42.639 -22.596  11.475  1.00  0.00    -0.085 NA
HETATM   17  N4  UNL     1     -42.259 -23.325  12.635  1.00  0.00    -0.118 NA
HETATM   18  C6  UNL     1     -40.952 -22.761  12.880  1.00  0.00     0.302 C 
HETATM   19  O2  UNL     1     -40.381 -22.750  11.630  1.00  0.00    -0.328 OA
ENDBRANCH  14  15
ENDBRANCH   3  14
TORSDOF 6
ENDMDL
MODEL 3
REMARK VINA RESULT: -7.161066550      2.326      2.878
REMARK  6 active torsions:
REMARK  status: ('A' for Active; 'I' for Inactive)
REMARK    1  A    between atoms: C2_2  and  C3_3 
REMARK    2  A    between atoms: C3_3  and  C4_4 
REMARK    3  A    between atoms: N2_6  and  O1_8 
REMARK    4  A    between atoms: O1_8  and  C5_9 
REMARK    5  A    between atoms: N5_14  and  N6_16 
REMARK    6  A    between atoms: N6_16  and  O3_18 
ROOT
HETATM    1  C4  UNL     1     -40.911 -21.451   8.032  1.00  0.00     0.118 C 
HETATM    2  N1  UNL     1     -40.706 -20.277   8.809  1.00  0.00    -0.085 NA
HETATM    3  N2  UNL     1     -41.578 -22.418   8.574  1.00  0.00    -0.252 N 
ATOM      4  H2  UNL     1     -41.735 -23.268   8.031  1.00  0.00     0.195 HD
ENDROOT
BRANCH   1   5
HETATM    5  C3  UNL     1     -40.363 -21.503   6.675  1.00  0.00     0.128 C 
BRANCH   5   6
HETATM    6  C2  UNL     1     -41.114 -22.381   5.763  1.00  0.00     0.008 C 
HETATM    7  C1  UNL     1     -42.200 -21.815   4.946  1.00  0.00     0.065 C 
HETATM    8  N5  UNL     1     -40.832 -23.621   5.677  1.00  0.00    -0.290 N 
ATOM      9  H5  UNL     1     -40.076 -23.996   6.251  1.00  0.00     0.188 HD
BRANCH   8  10
HETATM   10  N6  UNL     1     -41.522 -24.484   4.824  1.00  0.00    -0.210 N 
ATOM     11  H6  UNL     1     -42.150 -24.092   4.122  1.00  0.00     0.215 HD
BRANCH  10  12
HETATM   12  O3  UNL     1     -41.392 -25.710   4.896  1.00  0.00    -0.274 OA
ATOM     13  H3  UNL     1     -41.154 -26.233   4.139  1.00  0.00     0.246 HD
ENDBRANCH  10  12
ENDBRANCH   8  10
ENDBRANCH   5   6
ENDBRANCH   1   5
BRANCH   3  14
HETATM   14  O1  UNL     1     -42.078 -22.349   9.837  1.00  0.00    -0.228 OA
BRANCH  14  15
HETATM   15  C5  UNL     1     -41.619 -23.085  10.928  1.00  0.00     0.403 C 
HETATM   16  N3  UNL     1     -42.636 -23.156  11.990  1.00  0.00    -0.085 NA
HETATM   17  N4  UNL     1     -41.786 -23.434  13.095  1.00  0.00    -0.118 NA
HETATM   18  C6  UNL     1     -40.761 -22.437  12.894  1.00  0.00     0.302 C 
HETATM   19  O2  UNL     1     -40.500 -22.531  11.548  1.00  0.00    -0.328 OA
ENDBRANCH  14  15
ENDBRANCH   3  14
TORSDOF 6
ENDMDL
MODEL 4
REMARK VINA RESULT: -6.853075692      2.443      3.057
REMARK  6 active torsions:
REMARK  status: ('A' for Active; 'I' for Inactive)
REMARK    1  A    between atoms: C2_2  and  C3_3 
REMARK    2  A    between atoms: C3_3  and  C4_4 
REMARK    3  A    between atoms: N2_6  and  O1_8 
REMARK    4  A    between atoms: O1_8  and  C5_9 
REMARK    5  A    between atoms: N5_14  and  N6_16 
REMARK    6  A    between atoms: N6_16  and  O3_18 
ROOT
HETATM    1  C4  UNL     1     -40.082 -21.107   8.466  1.00  0.00     0.118 C 
HETATM    2  N1  UNL     1     -41.009 -20.192   9.038  1.00  0.00    -0.085 NA
HETATM    3  N2  UNL     1     -39.502 -21.946   9.261  1.00  0.00    -0.252 N 
ATOM      4  H2  UNL     1     -38.834 -22.610   8.869  1.00  0.00     0.195 HD
ENDROOT
BRANCH   1   5
HETATM    5  C3  UNL     1     -39.835 -21.051   7.024  1.00  0.00     0.128 C 
BRANCH   5   6
HETATM    6  C2  UNL     1     -40.824 -21.790   6.221  1.00  0.00     0.008 C 
HETATM    7  C1  UNL     1     -41.056 -23.218   6.495  1.00  0.00     0.065 C 
HETATM    8  N5  UNL     1     -41.476 -21.204   5.296  1.00  0.00    -0.290 N 
ATOM      9  H5  UNL     1     -41.302 -20.214   5.121  1.00  0.00     0.188 HD
BRANCH   8  10
HETATM   10  N6  UNL     1     -42.421 -21.872   4.515  1.00  0.00    -0.210 N 
ATOM     11  H6  UNL     1     -42.121 -22.332   3.656  1.00  0.00     0.215 HD
BRANCH  10  12
HETATM   12  O3  UNL     1     -43.613 -21.919   4.837  1.00  0.00    -0.274 OA
ATOM     13  H3  UNL     1     -44.307 -21.910   4.188  1.00  0.00     0.246 HD
ENDBRANCH  10  12
ENDBRANCH   8  10
ENDBRANCH   5   6
ENDBRANCH   1   5
BRANCH   3  14
HETATM   14  O1  UNL     1     -39.745 -21.980  10.599  1.00  0.00    -0.228 OA
BRANCH  14  15
HETATM   15  C5  UNL     1     -40.563 -22.904  11.247  1.00  0.00     0.403 C 
HETATM   16  N3  UNL     1     -41.902 -22.347  11.501  1.00  0.00    -0.085 NA
HETATM   17  N4  UNL     1     -42.298 -23.194  12.571  1.00  0.00    -0.118 NA
HETATM   18  C6  UNL     1     -41.122 -23.127  13.406  1.00  0.00     0.302 C 
HETATM   19  O2  UNL     1     -40.095 -23.282  12.505  1.00  0.00    -0.328 OA
ENDBRANCH  14  15
ENDBRANCH   3  14
TORSDOF 6
ENDMDL
MODEL 5
REMARK VINA RESULT: -6.734173333      2.604      3.746
REMARK  6 active torsions:
REMARK  status: ('A' for Active; 'I' for Inactive)
REMARK    1  A    between atoms: C2_2  and  C3_3 
REMARK    2  A    between atoms: C3_3  and  C4_4 
REMARK    3  A    between atoms: N2_6  and  O1_8 
REMARK    4  A    between atoms: O1_8  and  C5_9 
REMARK    5  A    between atoms: N5_14  and  N6_16 
REMARK    6  A    between atoms: N6_16  and  O3_18 
ROOT
HETATM    1  C4  UNL     1     -40.889 -21.957   6.719  1.00  0.00     0.118 C 
HETATM    2  N1  UNL     1     -39.468 -21.917   6.676  1.00  0.00    -0.085 NA
HETATM    3  N2  UNL     1     -41.466 -21.579   7.813  1.00  0.00    -0.252 N 
ATOM      4  H2  UNL     1     -42.485 -21.600   7.861  1.00  0.00     0.195 HD
ENDROOT
BRANCH   1   5
HETATM    5  C3  UNL     1     -41.617 -22.420   5.535  1.00  0.00     0.128 C 
BRANCH   5   6
HETATM    6  C2  UNL     1     -41.637 -23.884   5.383  1.00  0.00     0.008 C 
HETATM    7  C1  UNL     1     -42.930 -24.586   5.316  1.00  0.00     0.065 C 
HETATM    8  N5  UNL     1     -40.550 -24.544   5.311  1.00  0.00    -0.290 N 
ATOM      9  H5  UNL     1     -39.663 -24.040   5.360  1.00  0.00     0.188 HD
BRANCH   8  10
HETATM   10  N6  UNL     1     -40.530 -25.932   5.167  1.00  0.00    -0.210 N 
ATOM     11  H6  UNL     1     -40.848 -26.346   4.290  1.00  0.00     0.215 HD
BRANCH  10  12
HETATM   12  O3  UNL     1     -40.136 -26.674   6.073  1.00  0.00    -0.274 OA
ATOM     13  H3  UNL     1     -39.249 -26.625   6.409  1.00  0.00     0.246 HD
ENDBRANCH  10  12
ENDBRANCH   8  10
ENDBRANCH   5   6
ENDBRANCH   1   5
BRANCH   3  14
HETATM   14  O1  UNL     1     -40.771 -21.153   8.901  1.00  0.00    -0.228 OA
BRANCH  14  15
HETATM   15  C5  UNL     1     -40.599 -21.874  10.082  1.00  0.00     0.403 C 
HETATM   16  N3  UNL     1     -39.247 -22.448  10.165  1.00  0.00    -0.085 NA
HETATM   17  N4  UNL     1     -39.506 -23.499  11.087  1.00  0.00    -0.118 NA
HETATM   18  C6  UNL     1     -40.694 -24.073  10.501  1.00  0.00     0.302 C 
HETATM   19  O2  UNL     1     -41.455 -22.968  10.201  1.00  0.00    -0.328 OA
ENDBRANCH  14  15
ENDBRANCH   3  14
TORSDOF 6
ENDMDL
