MODEL 1
REMARK VINA RESULT: -7.569590939      0.000      0.000
REMARK  5 active torsions:
REMARK  status: ('A' for Active; 'I' for Inactive)
REMARK    1  A    between atoms: O1_2  and  C2_3 
REMARK    2  A    between atoms: C2_3  and  C3_7 
REMARK    3  A    between atoms: C3_7  and  N2_8 
REMARK    4  A    between atoms: N2_8  and  N3_9 
REMARK    5  A    between atoms: N3_9  and  C4_11 
ROOT
HETATM    1  N3  UNL     1     -41.337 -22.411   8.895  1.00  0.00    -0.298 N 
ATOM      2  H3  UNL     1     -42.280 -22.382   8.508  1.00  0.00     0.182 HD
ENDROOT
BRANCH   1   3
HETATM    3  N2  UNL     1     -40.245 -22.197   8.059  1.00  0.00    -0.133 NA
BRANCH   3   4
HETATM    4  C3  UNL     1     -40.631 -21.560   6.814  1.00  0.00     0.218 C 
BRANCH   4   5
HETATM    5  C2  UNL     1     -41.325 -22.574   5.975  1.00  0.00     0.127 C 
HETATM    6  N1  UNL     1     -42.155 -22.211   5.042  1.00  0.00    -0.382 N 
ATOM      7  H12 UNL     1     -42.631 -22.907   4.467  1.00  0.00     0.158 HD
ATOM      8  H11 UNL     1     -42.308 -21.212   4.911  1.00  0.00     0.158 HD
BRANCH   5   9
HETATM    9  O1  UNL     1     -41.120 -23.923   6.151  1.00  0.00    -0.343 OA
HETATM   10  C1  UNL     1     -41.199 -24.890   5.135  1.00  0.00     0.211 C 
ENDBRANCH   5   9
ENDBRANCH   4   5
ENDBRANCH   3   4
ENDBRANCH   1   3
BRANCH   1  11
HETATM   11  C4  UNL     1     -41.156 -22.670  10.282  1.00  0.00     0.127 A 
HETATM   12  C5  UNL     1     -40.589 -23.707  10.992  1.00  0.00     0.132 A 
HETATM   13  N4  UNL     1     -39.955 -24.939  10.696  1.00  0.00    -0.095 NA
HETATM   14  C6  UNL     1     -40.912 -23.020  12.159  1.00  0.00     0.250 A 
HETATM   15  O2  UNL     1     -40.737 -23.277  13.372  1.00  0.00    -0.282 OA
HETATM   16  C7  UNL     1     -41.478 -21.983  11.433  1.00  0.00     0.253 A 
HETATM   17  O3  UNL     1     -42.034 -20.898  11.774  1.00  0.00    -0.281 OA
ENDBRANCH   1  11
TORSDOF 5
ENDMDL
MODEL 2
REMARK VINA RESULT: -7.416660152      1.462      1.705
REMARK  5 active torsions:
REMARK  status: ('A' for Active; 'I' for Inactive)
REMARK    1  A    between atoms: O1_2  and  C2_3 
REMARK    2  A    between atoms: C2_3  and  C3_7 
REMARK    3  A    between atoms: C3_7  and  N2_8 
REMARK    4  A    between atoms: N2_8  and  N3_9 
REMARK    5  A    between atoms: N3_9  and  C4_11 
ROOT
HETATM    1  N3  UNL     1     -40.747 -21.923   9.162  1.00  0.00    -0.298 N 
ATOM      2  H3  UNL     1     -40.667 -22.581   8.387  1.00  0.00     0.182 HD
ENDROOT
BRANCH   1   3
HETATM    3  N2  UNL     1     -40.719 -20.556   8.906  1.00  0.00    -0.133 NA
BRANCH   3   4
HETATM    4  C3  UNL     1     -39.640 -20.193   8.006  1.00  0.00     0.218 C 
BRANCH   4   5
HETATM    5  C2  UNL     1     -39.670 -21.132   6.852  1.00  0.00     0.127 C 
HETATM    6  N1  UNL     1     -38.569 -21.636   6.376  1.00  0.00    -0.382 N 
ATOM      7  H12 UNL     1     -38.589 -22.280   5.585  1.00  0.00     0.158 HD
ATOM      8  H11 UNL     1     -37.694 -21.363   6.824  1.00  0.00     0.158 HD
BRANCH   5   9
HETATM    9  O1  UNL     1     -40.848 -21.500   6.248  1.00  0.00    -0.343 OA
HETATM   10  C1  UNL     1     -41.216 -22.820   5.934  1.00  0.00     0.211 C 
ENDBRANCH   5   9
ENDBRANCH   4   5
ENDBRANCH   3   4
ENDBRANCH   1   3
BRANCH   1  11
HETATM   11  C4  UNL     1     -40.888 -22.416  10.489  1.00  0.00     0.127 A 
HETATM   12  C5  UNL     1     -40.559 -23.606  11.102  1.00  0.00     0.132 A 
HETATM   13  N4  UNL     1     -39.961 -24.834  10.727  1.00  0.00    -0.095 NA
HETATM   14  C6  UNL     1     -41.077 -23.082  12.284  1.00  0.00     0.250 A 
HETATM   15  O2  UNL     1     -41.185 -23.546  13.443  1.00  0.00    -0.282 OA
HETATM   16  C7  UNL     1     -41.401 -21.891  11.655  1.00  0.00     0.253 A 
HETATM   17  O3  UNL     1     -41.942 -20.822  12.064  1.00  0.00    -0.281 OA
ENDBRANCH   1  11
TORSDOF 5
ENDMDL
MODEL 3
REMARK VINA RESULT: -7.375331623      1.735      2.468
REMARK  5 active torsions:
REMARK  status: ('A' for Active; 'I' for Inactive)
REMARK    1  A    between atoms: O1_2  and  C2_3 
REMARK    2  A    between atoms: C2_3  and  C3_7 
REMARK    3  A    between atoms: C3_7  and  N2_8 
REMARK    4  A    between atoms: N2_8  and  N3_9 
REMARK    5  A    between atoms: N3_9  and  C4_11 
ROOT
HETATM    1  N3  UNL     1     -40.705 -22.066   9.070  1.00  0.00    -0.298 N 
ATOM      2  H3  UNL     1     -40.332 -21.133   8.894  1.00  0.00     0.182 HD
ENDROOT
BRANCH   1   3
HETATM    3  N2  UNL     1     -41.053 -22.879   7.995  1.00  0.00    -0.133 NA
BRANCH   3   4
HETATM    4  C3  UNL     1     -40.916 -22.190   6.726  1.00  0.00     0.218 C 
BRANCH   4   5
HETATM    5  C2  UNL     1     -39.733 -21.294   6.814  1.00  0.00     0.127 C 
HETATM    6  N1  UNL     1     -38.567 -21.687   6.391  1.00  0.00    -0.382 N 
ATOM      7  H12 UNL     1     -37.755 -21.072   6.452  1.00  0.00     0.158 HD
ATOM      8  H11 UNL     1     -38.501 -22.627   6.000  1.00  0.00     0.158 HD
BRANCH   5   9
HETATM    9  O1  UNL     1     -39.821 -20.027   7.341  1.00  0.00    -0.343 OA
HETATM   10  C1  UNL     1     -38.782 -19.080   7.344  1.00  0.00     0.211 C 
ENDBRANCH   5   9
ENDBRANCH   4   5
ENDBRANCH   3   4
ENDBRANCH   1   3
BRANCH   1  11
HETATM   11  C4  UNL     1     -40.862 -22.517  10.409  1.00  0.00     0.127 A 
HETATM   12  C5  UNL     1     -40.543 -23.687  11.064  1.00  0.00     0.132 A 
HETATM   13  N4  UNL     1     -39.942 -24.928  10.735  1.00  0.00    -0.095 NA
HETATM   14  C6  UNL     1     -41.074 -23.126  12.222  1.00  0.00     0.250 A 
HETATM   15  O2  UNL     1     -41.197 -23.553  13.394  1.00  0.00    -0.282 OA
HETATM   16  C7  UNL     1     -41.390 -21.955  11.552  1.00  0.00     0.253 A 
HETATM   17  O3  UNL     1     -41.934 -20.873  11.921  1.00  0.00    -0.281 OA
ENDBRANCH   1  11
TORSDOF 5
ENDMDL
MODEL 4
REMARK VINA RESULT: -7.357233200      1.245      1.921
REMARK  5 active torsions:
REMARK  status: ('A' for Active; 'I' for Inactive)
REMARK    1  A    between atoms: O1_2  and  C2_3 
REMARK    2  A    between atoms: C2_3  and  C3_7 
REMARK    3  A    between atoms: C3_7  and  N2_8 
REMARK    4  A    between atoms: N2_8  and  N3_9 
REMARK    5  A    between atoms: N3_9  and  C4_11 
ROOT
HETATM    1  N3  UNL     1     -41.361 -22.492   8.832  1.00  0.00    -0.298 N 
ATOM      2  H3  UNL     1     -42.309 -22.488   8.455  1.00  0.00     0.182 HD
ENDROOT
BRANCH   1   3
HETATM    3  N2  UNL     1     -40.287 -22.227   7.988  1.00  0.00    -0.133 NA
BRANCH   3   4
HETATM    4  C3  UNL     1     -40.711 -21.607   6.746  1.00  0.00     0.218 C 
BRANCH   4   5
HETATM    5  C2  UNL     1     -41.378 -22.647   5.918  1.00  0.00     0.127 C 
HETATM    6  N1  UNL     1     -42.216 -22.315   4.980  1.00  0.00    -0.382 N 
ATOM      7  H12 UNL     1     -42.674 -23.029   4.413  1.00  0.00     0.158 HD
ATOM      8  H11 UNL     1     -42.394 -21.321   4.839  1.00  0.00     0.158 HD
BRANCH   5   9
HETATM    9  O1  UNL     1     -41.139 -23.988   6.108  1.00  0.00    -0.343 OA
HETATM   10  C1  UNL     1     -41.162 -24.963   5.096  1.00  0.00     0.211 C 
ENDBRANCH   5   9
ENDBRANCH   4   5
ENDBRANCH   3   4
ENDBRANCH   1   3
BRANCH   1  11
HETATM   11  C4  UNL     1     -41.157 -22.767  10.212  1.00  0.00     0.127 A 
HETATM   12  C5  UNL     1     -41.413 -22.066  11.371  1.00  0.00     0.132 A 
HETATM   13  N4  UNL     1     -41.967 -20.810  11.721  1.00  0.00    -0.095 NA
HETATM   14  C6  UNL     1     -40.881 -23.140  12.080  1.00  0.00     0.250 A 
HETATM   15  O2  UNL     1     -40.715 -23.353  13.303  1.00  0.00    -0.282 OA
HETATM   16  C7  UNL     1     -40.630 -23.835  10.907  1.00  0.00     0.253 A 
HETATM   17  O3  UNL     1     -40.124 -24.971  10.671  1.00  0.00    -0.281 OA
ENDBRANCH   1  11
TORSDOF 5
ENDMDL
MODEL 5
REMARK VINA RESULT: -7.316710688      1.231      1.256
REMARK  5 active torsions:
REMARK  status: ('A' for Active; 'I' for Inactive)
REMARK    1  A    between atoms: O1_2  and  C2_3 
REMARK    2  A    between atoms: C2_3  and  C3_7 
REMARK    3  A    between atoms: C3_7  and  N2_8 
REMARK    4  A    between atoms: N2_8  and  N3_9 
REMARK    5  A    between atoms: N3_9  and  C4_11 
ROOT
HETATM    1  N3  UNL     1     -41.787 -22.080   8.707  1.00  0.00    -0.298 N 
ATOM      2  H3  UNL     1     -42.588 -22.577   8.317  1.00  0.00     0.182 HD
ENDROOT
BRANCH   1   3
HETATM    3  N2  UNL     1     -41.200 -21.049   7.980  1.00  0.00    -0.133 NA
BRANCH   3   4
HETATM    4  C3  UNL     1     -40.393 -21.547   6.883  1.00  0.00     0.218 C 
BRANCH   4   5
HETATM    5  C2  UNL     1     -41.233 -22.474   6.079  1.00  0.00     0.127 C 
HETATM    6  N1  UNL     1     -42.053 -22.018   5.177  1.00  0.00    -0.382 N 
ATOM      7  H12 UNL     1     -42.629 -22.654   4.626  1.00  0.00     0.158 HD
ATOM      8  H11 UNL     1     -42.093 -21.007   5.048  1.00  0.00     0.158 HD
BRANCH   5   9
HETATM    9  O1  UNL     1     -41.179 -23.837   6.253  1.00  0.00    -0.343 OA
HETATM   10  C1  UNL     1     -41.228 -24.786   5.218  1.00  0.00     0.211 C 
ENDBRANCH   5   9
ENDBRANCH   4   5
ENDBRANCH   3   4
ENDBRANCH   1   3
BRANCH   1  11
HETATM   11  C4  UNL     1     -41.286 -22.451   9.986  1.00  0.00     0.127 A 
HETATM   12  C5  UNL     1     -40.022 -22.513  10.532  1.00  0.00     0.132 A 
HETATM   13  N4  UNL     1     -38.696 -22.253  10.107  1.00  0.00    -0.095 NA
HETATM   14  C6  UNL     1     -40.609 -22.953  11.716  1.00  0.00     0.250 A 
HETATM   15  O2  UNL     1     -40.136 -23.273  12.831  1.00  0.00    -0.282 OA
HETATM   16  C7  UNL     1     -41.874 -22.886  11.154  1.00  0.00     0.253 A 
HETATM   17  O3  UNL     1     -43.030 -23.138  11.605  1.00  0.00    -0.281 OA
ENDBRANCH   1  11
TORSDOF 5
ENDMDL
