MODEL 1
REMARK VINA RESULT: -7.840149358      0.000      0.000
REMARK  3 active torsions:
REMARK  status: ('A' for Active; 'I' for Inactive)
REMARK    1  A    between atoms: C5_8  and  N3_9 
REMARK    2  A    between atoms: N3_9  and  C6_11 
REMARK    3  A    between atoms: C11_16  and  O1_17 
ROOT
HETATM    1  N1  UNL     1       0.901  -2.033  28.604  1.00  0.00    -0.191 NA
HETATM    2  C1  UNL     1       0.340  -1.013  28.805  1.00  0.00     0.104 C 
HETATM    3  C2  UNL     1      -0.385   0.246  29.066  1.00  0.00     0.102 A 
HETATM    4  C3  UNL     1      -0.646   0.647  30.321  1.00  0.00     0.076 A 
HETATM    5  N2  UNL     1      -0.231  -0.066  31.524  1.00  0.00    -0.100 NA
HETATM    6  C4  UNL     1      -1.354   1.810  30.485  1.00  0.00     0.080 A 
HETATM    7  S1  UNL     1      -1.629   2.304  28.879  1.00  0.00    -0.081 SA
HETATM    8  C5  UNL     1      -0.832   1.011  28.034  1.00  0.00     0.093 A 
ENDROOT
BRANCH   8   9
HETATM    9  N3  UNL     1      -0.733   0.946  26.626  1.00  0.00    -0.378 N 
ATOM     10  H3  UNL     1      -1.566   1.253  26.124  1.00  0.00     0.160 HD
BRANCH   9  11
HETATM   11  C6  UNL     1       0.336   0.526  25.798  1.00  0.00     0.089 C 
HETATM   12  C7  UNL     1       1.018   1.618  25.014  1.00  0.00     0.026 C 
HETATM   13  C8  UNL     1       1.337   1.038  23.627  1.00  0.00     0.007 C 
HETATM   14  C9  UNL     1       1.059  -0.441  23.798  1.00  0.00    -0.003 C 
HETATM   15  C10 UNL     1       0.689  -1.128  22.533  1.00  0.00     0.037 C 
HETATM   16  C14 UNL     1      -0.169  -0.372  24.682  1.00  0.00     0.046 C 
HETATM   17  C11 UNL     1       0.232  -2.527  22.860  1.00  0.00     0.121 C 
HETATM   18  C12 UNL     1      -0.828  -2.576  23.916  1.00  0.00     0.069 C 
HETATM   19  C13 UNL     1      -0.472  -1.763  25.147  1.00  0.00     0.179 C 
HETATM   20  F1  UNL     1      -1.564  -1.816  25.991  1.00  0.00    -0.249 F 
BRANCH  17  21
HETATM   21  O1  UNL     1      -0.290  -3.087  21.698  1.00  0.00    -0.395 OA
ATOM     22  H1  UNL     1      -0.909  -3.762  21.953  1.00  0.00     0.210 HD
ENDBRANCH  17  21
ENDBRANCH   9  11
ENDBRANCH   8   9
TORSDOF 3
ENDMDL
MODEL 2
REMARK VINA RESULT: -7.834890377      2.582      3.634
REMARK  3 active torsions:
REMARK  status: ('A' for Active; 'I' for Inactive)
REMARK    1  A    between atoms: C5_8  and  N3_9 
REMARK    2  A    between atoms: N3_9  and  C6_11 
REMARK    3  A    between atoms: C11_16  and  O1_17 
ROOT
HETATM    1  N1  UNL     1      -0.933   2.015  28.572  1.00  0.00    -0.191 NA
HETATM    2  C1  UNL     1      -0.361   1.002  28.779  1.00  0.00     0.104 C 
HETATM    3  C2  UNL     1       0.376  -0.249  29.047  1.00  0.00     0.102 A 
HETATM    4  C3  UNL     1       0.651  -0.635  30.303  1.00  0.00     0.076 A 
HETATM    5  N2  UNL     1       0.240   0.089  31.503  1.00  0.00    -0.100 NA
HETATM    6  C4  UNL     1       1.370  -1.789  30.474  1.00  0.00     0.080 A 
HETATM    7  S1  UNL     1       1.635  -2.298  28.871  1.00  0.00    -0.081 SA
HETATM    8  C5  UNL     1       0.820  -1.021  28.019  1.00  0.00     0.093 A 
ENDROOT
BRANCH   8   9
HETATM    9  N3  UNL     1       0.708  -0.972  26.611  1.00  0.00    -0.378 N 
ATOM     10  H3  UNL     1       1.529  -1.307  26.106  1.00  0.00     0.160 HD
BRANCH   9  11
HETATM   11  C6  UNL     1      -0.358  -0.535  25.789  1.00  0.00     0.089 C 
HETATM   12  C7  UNL     1      -1.053  -1.616  24.999  1.00  0.00     0.026 C 
HETATM   13  C8  UNL     1      -1.368  -1.023  23.617  1.00  0.00     0.007 C 
HETATM   14  C9  UNL     1      -1.075   0.452  23.797  1.00  0.00    -0.003 C 
HETATM   15  C10 UNL     1      -0.701   1.144  22.535  1.00  0.00     0.037 C 
HETATM   16  C14 UNL     1       0.154   0.365  24.677  1.00  0.00     0.046 C 
HETATM   17  C11 UNL     1      -0.228   2.536  22.871  1.00  0.00     0.121 C 
HETATM   18  C12 UNL     1       0.835   2.566  23.924  1.00  0.00     0.069 C 
HETATM   19  C13 UNL     1       0.472   1.749  25.151  1.00  0.00     0.179 C 
HETATM   20  F1  UNL     1       1.567   1.785  25.992  1.00  0.00    -0.249 F 
BRANCH  17  21
HETATM   21  O1  UNL     1       0.298   3.097  21.711  1.00  0.00    -0.395 OA
ATOM     22  H1  UNL     1       0.314   4.040  21.827  1.00  0.00     0.210 HD
ENDBRANCH  17  21
ENDBRANCH   9  11
ENDBRANCH   8   9
TORSDOF 3
ENDMDL
MODEL 3
REMARK VINA RESULT: -7.640055269      1.407      2.073
REMARK  3 active torsions:
REMARK  status: ('A' for Active; 'I' for Inactive)
REMARK    1  A    between atoms: C5_8  and  N3_9 
REMARK    2  A    between atoms: N3_9  and  C6_11 
REMARK    3  A    between atoms: C11_16  and  O1_17 
ROOT
HETATM    1  N1  UNL     1      -3.436   2.922  28.227  1.00  0.00    -0.191 NA
HETATM    2  C1  UNL     1      -2.550   2.188  28.497  1.00  0.00     0.104 C 
HETATM    3  C2  UNL     1      -1.431   1.292  28.850  1.00  0.00     0.102 A 
HETATM    4  C3  UNL     1      -1.247   0.879  30.114  1.00  0.00     0.076 A 
HETATM    5  N2  UNL     1      -2.115   1.224  31.235  1.00  0.00    -0.100 NA
HETATM    6  C4  UNL     1      -0.166   0.076  30.372  1.00  0.00     0.080 A 
HETATM    7  S1  UNL     1       0.555  -0.076  28.837  1.00  0.00    -0.081 SA
HETATM    8  C5  UNL     1      -0.543   0.892  27.900  1.00  0.00     0.093 A 
ENDROOT
BRANCH   8   9
HETATM    9  N3  UNL     1      -0.419   1.080  26.505  1.00  0.00    -0.378 N 
ATOM     10  H3  UNL     1      -1.171   1.622  26.079  1.00  0.00     0.160 HD
BRANCH   9  11
HETATM   11  C6  UNL     1       0.578   0.637  25.603  1.00  0.00     0.089 C 
HETATM   12  C7  UNL     1       1.179   1.706  24.725  1.00  0.00     0.026 C 
HETATM   13  C8  UNL     1       1.383   1.081  23.337  1.00  0.00     0.007 C 
HETATM   14  C9  UNL     1       1.135  -0.393  23.582  1.00  0.00    -0.003 C 
HETATM   15  C10 UNL     1       0.663  -1.127  22.377  1.00  0.00     0.037 C 
HETATM   16  C14 UNL     1      -0.013  -0.302  24.565  1.00  0.00     0.046 C 
HETATM   17  C11 UNL     1       0.249  -2.516  22.791  1.00  0.00     0.121 C 
HETATM   18  C12 UNL     1      -0.715  -2.535  23.935  1.00  0.00     0.069 C 
HETATM   19  C13 UNL     1      -0.261  -1.678  25.102  1.00  0.00     0.179 C 
HETATM   20  F1  UNL     1      -1.276  -1.709  26.038  1.00  0.00    -0.249 F 
BRANCH  17  21
HETATM   21  O1  UNL     1      -0.366  -3.119  21.698  1.00  0.00    -0.395 OA
ATOM     22  H1  UNL     1      -1.159  -3.542  22.007  1.00  0.00     0.210 HD
ENDBRANCH  17  21
ENDBRANCH   9  11
ENDBRANCH   8   9
TORSDOF 3
ENDMDL
MODEL 4
REMARK VINA RESULT: -7.634023176      2.446      3.356
REMARK  3 active torsions:
REMARK  status: ('A' for Active; 'I' for Inactive)
REMARK    1  A    between atoms: C5_8  and  N3_9 
REMARK    2  A    between atoms: N3_9  and  C6_11 
REMARK    3  A    between atoms: C11_16  and  O1_17 
ROOT
HETATM    1  N1  UNL     1       3.458  -2.904  28.199  1.00  0.00    -0.191 NA
HETATM    2  C1  UNL     1       2.561  -2.189  28.482  1.00  0.00     0.104 C 
HETATM    3  C2  UNL     1       1.428  -1.316  28.851  1.00  0.00     0.102 A 
HETATM    4  C3  UNL     1       1.240  -0.926  30.121  1.00  0.00     0.076 A 
HETATM    5  N2  UNL     1       2.117  -1.274  31.236  1.00  0.00    -0.100 NA
HETATM    6  C4  UNL     1       0.147  -0.145  30.394  1.00  0.00     0.080 A 
HETATM    7  S1  UNL     1      -0.580   0.018  28.864  1.00  0.00    -0.081 SA
HETATM    8  C5  UNL     1       0.531  -0.917  27.909  1.00  0.00     0.093 A 
ENDROOT
BRANCH   8   9
HETATM    9  N3  UNL     1       0.408  -1.085  26.512  1.00  0.00    -0.378 N 
ATOM     10  H3  UNL     1       1.161  -1.617  26.077  1.00  0.00     0.160 HD
BRANCH   9  11
HETATM   11  C6  UNL     1      -0.592  -0.634  25.617  1.00  0.00     0.089 C 
HETATM   12  C7  UNL     1      -1.213  -1.700  24.748  1.00  0.00     0.026 C 
HETATM   13  C8  UNL     1      -1.422  -1.076  23.359  1.00  0.00     0.007 C 
HETATM   14  C9  UNL     1      -1.156   0.396  23.597  1.00  0.00    -0.003 C 
HETATM   15  C10 UNL     1      -0.687   1.120  22.386  1.00  0.00     0.037 C 
HETATM   16  C14 UNL     1      -0.000   0.295  24.571  1.00  0.00     0.046 C 
HETATM   17  C11 UNL     1      -0.254   2.507  22.791  1.00  0.00     0.121 C 
HETATM   18  C12 UNL     1       0.721   2.519  23.927  1.00  0.00     0.069 C 
HETATM   19  C13 UNL     1       0.268   1.670  25.101  1.00  0.00     0.179 C 
HETATM   20  F1  UNL     1       1.291   1.692  26.028  1.00  0.00    -0.249 F 
BRANCH  17  21
HETATM   21  O1  UNL     1       0.359   3.099  21.691  1.00  0.00    -0.395 OA
ATOM     22  H1  UNL     1       0.082   2.626  20.915  1.00  0.00     0.210 HD
ENDBRANCH  17  21
ENDBRANCH   9  11
ENDBRANCH   8   9
TORSDOF 3
ENDMDL
MODEL 5
REMARK VINA RESULT: -7.502986565      3.604      6.407
REMARK  3 active torsions:
REMARK  status: ('A' for Active; 'I' for Inactive)
REMARK    1  A    between atoms: C5_8  and  N3_9 
REMARK    2  A    between atoms: N3_9  and  C6_11 
REMARK    3  A    between atoms: C11_16  and  O1_17 
ROOT
HETATM    1  N1  UNL     1      -1.925  -3.082  25.570  1.00  0.00    -0.191 NA
HETATM    2  C1  UNL     1      -1.391  -2.251  24.923  1.00  0.00     0.104 C 
HETATM    3  C2  UNL     1      -0.697  -1.225  24.118  1.00  0.00     0.102 A 
HETATM    4  C3  UNL     1      -0.205  -1.516  22.903  1.00  0.00     0.076 A 
HETATM    5  N2  UNL     1      -0.322  -2.815  22.248  1.00  0.00    -0.100 NA
HETATM    6  C4  UNL     1       0.457  -0.523  22.229  1.00  0.00     0.080 A 
HETATM    7  S1  UNL     1       0.367   0.784  23.316  1.00  0.00    -0.081 SA
HETATM    8  C5  UNL     1      -0.516   0.030  24.609  1.00  0.00     0.093 A 
ENDROOT
BRANCH   8   9
HETATM    9  N3  UNL     1      -0.901   0.708  25.787  1.00  0.00    -0.378 N 
ATOM     10  H3  UNL     1      -1.840   1.107  25.763  1.00  0.00     0.160 HD
BRANCH   9  11
HETATM   11  C6  UNL     1      -0.197   0.923  26.996  1.00  0.00     0.089 C 
HETATM   12  C7  UNL     1       0.829  -0.127  27.345  1.00  0.00     0.026 C 
HETATM   13  C8  UNL     1       0.747  -0.342  28.864  1.00  0.00     0.007 C 
HETATM   14  C9  UNL     1      -0.136   0.797  29.328  1.00  0.00    -0.003 C 
HETATM   15  C10 UNL     1      -0.872   0.506  30.587  1.00  0.00     0.037 C 
HETATM   16  C14 UNL     1      -1.134   0.831  28.189  1.00  0.00     0.046 C 
HETATM   17  C11 UNL     1      -1.868   1.612  30.830  1.00  0.00     0.121 C 
HETATM   18  C12 UNL     1      -2.752   1.886  29.654  1.00  0.00     0.069 C 
HETATM   19  C13 UNL     1      -1.976   2.057  28.360  1.00  0.00     0.179 C 
HETATM   20  F1  UNL     1      -2.909   2.207  27.352  1.00  0.00    -0.249 F 
BRANCH  17  21
HETATM   21  O1  UNL     1      -2.676   1.230  31.897  1.00  0.00    -0.395 OA
ATOM     22  H1  UNL     1      -2.109   0.911  32.590  1.00  0.00     0.210 HD
ENDBRANCH  17  21
ENDBRANCH   9  11
ENDBRANCH   8   9
TORSDOF 3
ENDMDL
