MODEL 1
REMARK VINA RESULT: -7.290329957      0.000      0.000
REMARK  2 active torsions:
REMARK  status: ('A' for Active; 'I' for Inactive)
REMARK    1  A    between atoms: C5_5  and  O1_6 
REMARK    2  A    between atoms: C7_10  and  C8_11 
ROOT
HETATM    1  C1  UNL     1       0.913  -1.770  23.275  1.00  0.00     0.016 C 
HETATM    2  C2  UNL     1       0.216  -0.410  23.406  1.00  0.00    -0.023 C 
HETATM    3  C3  UNL     1      -0.566  -0.259  22.091  1.00  0.00     0.016 C 
HETATM    4  C4  UNL     1       1.251   0.648  23.426  1.00  0.00     0.047 C 
HETATM    5  C5  UNL     1       0.754   1.816  24.253  1.00  0.00     0.161 C 
HETATM    6  C6  UNL     1       0.559   1.227  25.632  1.00  0.00     0.037 A 
HETATM    7  S1  UNL     1       1.023   1.549  27.243  1.00  0.00    -0.070 SA
HETATM    8  C7  UNL     1       0.247   0.240  28.012  1.00  0.00     0.105 A 
HETATM    9  N4  UNL     1      -0.326  -0.375  26.998  1.00  0.00    -0.350 N 
ATOM     10  H4  UNL     1      -0.877  -1.218  27.161  1.00  0.00     0.166 HD
HETATM   11  C11 UNL     1      -0.194   0.086  25.799  1.00  0.00     0.045 A 
HETATM   12  C12 UNL     1      -0.763  -0.461  24.504  1.00  0.00     0.141 C 
HETATM   13 CL1  UNL     1      -1.359  -2.121  24.720  1.00  0.00    -0.118 Cl
ENDROOT
BRANCH   8  14
HETATM   14  C8  UNL     1       0.253  -0.070  29.441  1.00  0.00     0.109 A 
HETATM   15  N1  UNL     1      -0.342   0.600  30.435  1.00  0.00    -0.347 N 
HETATM   16  C9  UNL     1      -0.093  -0.015  31.602  1.00  0.00     0.182 A 
ATOM     17  H1  UNL     1      -0.898   1.448  30.324  1.00  0.00     0.167 HD
HETATM   18  N2  UNL     1       0.673  -1.100  31.365  1.00  0.00    -0.339 N 
HETATM   19  C10 UNL     1       0.886  -1.131  30.021  1.00  0.00     0.147 A 
ATOM     20  H2  UNL     1       1.023  -1.765  32.055  1.00  0.00     0.167 HD
HETATM   21  N3  UNL     1       1.647  -2.111  29.326  1.00  0.00    -0.080 NA
ENDBRANCH   8  14
BRANCH   5  22
HETATM   22  O1  UNL     1       1.675   2.839  24.346  1.00  0.00    -0.390 OA
ATOM     23  H1  UNL     1       2.194   2.943  23.558  1.00  0.00     0.210 HD
ENDBRANCH   5  22
TORSDOF 2
ENDMDL
MODEL 2
REMARK VINA RESULT: -7.288744435      2.386      3.097
REMARK  2 active torsions:
REMARK  status: ('A' for Active; 'I' for Inactive)
REMARK    1  A    between atoms: C5_5  and  O1_6 
REMARK    2  A    between atoms: C7_10  and  C8_11 
ROOT
HETATM    1  C1  UNL     1      -0.923   1.756  23.241  1.00  0.00     0.016 C 
HETATM    2  C2  UNL     1      -0.241   0.388  23.370  1.00  0.00    -0.023 C 
HETATM    3  C3  UNL     1       0.527   0.224  22.047  1.00  0.00     0.016 C 
HETATM    4  C4  UNL     1      -1.289  -0.657  23.401  1.00  0.00     0.047 C 
HETATM    5  C5  UNL     1      -0.799  -1.829  24.227  1.00  0.00     0.161 C 
HETATM    6  C6  UNL     1      -0.584  -1.239  25.603  1.00  0.00     0.037 A 
HETATM    7  S1  UNL     1      -1.037  -1.552  27.218  1.00  0.00    -0.070 SA
HETATM    8  C7  UNL     1      -0.239  -0.250  27.977  1.00  0.00     0.105 A 
HETATM    9  N4  UNL     1       0.333   0.355  26.956  1.00  0.00    -0.350 N 
ATOM     10  H4  UNL     1       0.895   1.192  27.112  1.00  0.00     0.166 HD
HETATM   11  C11 UNL     1       0.184  -0.107  25.760  1.00  0.00     0.045 A 
HETATM   12  C12 UNL     1       0.748   0.430  24.459  1.00  0.00     0.141 C 
HETATM   13 CL1  UNL     1       1.366   2.083  24.664  1.00  0.00    -0.118 Cl
ENDROOT
BRANCH   8  14
HETATM   14  C8  UNL     1      -0.228   0.064  29.406  1.00  0.00     0.109 A 
HETATM   15  N1  UNL     1       0.385  -0.600  30.393  1.00  0.00    -0.347 N 
HETATM   16  C9  UNL     1       0.147   0.017  31.562  1.00  0.00     0.182 A 
ATOM     17  H1  UNL     1       0.945  -1.445  30.277  1.00  0.00     0.167 HD
HETATM   18  N2  UNL     1      -0.630   1.095  31.332  1.00  0.00    -0.339 N 
HETATM   19  C10 UNL     1      -0.861   1.121  29.991  1.00  0.00     0.147 A 
ATOM     20  H2  UNL     1      -0.975   1.760  32.025  1.00  0.00     0.167 HD
HETATM   21  N3  UNL     1      -1.638   2.095  29.304  1.00  0.00    -0.080 NA
ENDBRANCH   8  14
BRANCH   5  22
HETATM   22  O1  UNL     1      -1.731  -2.841  24.331  1.00  0.00    -0.390 OA
ATOM     23  H1  UNL     1      -1.452  -3.543  24.906  1.00  0.00     0.210 HD
ENDBRANCH   5  22
TORSDOF 2
ENDMDL
MODEL 3
REMARK VINA RESULT: -7.257662756      0.707      1.426
REMARK  2 active torsions:
REMARK  status: ('A' for Active; 'I' for Inactive)
REMARK    1  A    between atoms: C5_5  and  O1_6 
REMARK    2  A    between atoms: C7_10  and  C8_11 
ROOT
HETATM    1  C1  UNL     1       0.864  -1.804  23.344  1.00  0.00     0.016 C 
HETATM    2  C2  UNL     1       0.214  -0.418  23.433  1.00  0.00    -0.023 C 
HETATM    3  C3  UNL     1      -0.545  -0.271  22.103  1.00  0.00     0.016 C 
HETATM    4  C4  UNL     1       1.285   0.603  23.443  1.00  0.00     0.047 C 
HETATM    5  C5  UNL     1       0.818   1.808  24.235  1.00  0.00     0.161 C 
HETATM    6  C6  UNL     1       0.583   1.259  25.624  1.00  0.00     0.037 A 
HETATM    7  S1  UNL     1       1.037   1.604  27.234  1.00  0.00    -0.070 SA
HETATM    8  C7  UNL     1       0.205   0.341  28.022  1.00  0.00     0.105 A 
HETATM    9  N4  UNL     1      -0.376  -0.277  27.014  1.00  0.00    -0.350 N 
ATOM     10  H4  UNL     1      -0.958  -1.096  27.189  1.00  0.00     0.166 HD
HETATM   11  C11 UNL     1      -0.211   0.149  25.807  1.00  0.00     0.045 A 
HETATM   12  C12 UNL     1      -0.781  -0.408  24.518  1.00  0.00     0.141 C 
HETATM   13 CL1  UNL     1      -1.439  -2.040  24.763  1.00  0.00    -0.118 Cl
ENDROOT
BRANCH   8  14
HETATM   14  C8  UNL     1       0.180   0.065  29.458  1.00  0.00     0.109 A 
HETATM   15  N1  UNL     1       0.931  -0.802  30.146  1.00  0.00    -0.347 N 
HETATM   16  C9  UNL     1       0.597  -0.751  31.446  1.00  0.00     0.182 A 
ATOM     17  H1  UNL     1       1.647  -1.409  29.746  1.00  0.00     0.167 HD
HETATM   18  N2  UNL     1      -0.385   0.160  31.605  1.00  0.00    -0.339 N 
HETATM   19  C10 UNL     1      -0.641   0.666  30.368  1.00  0.00     0.147 A 
ATOM     20  H2  UNL     1      -0.843   0.420  32.479  1.00  0.00     0.167 HD
HETATM   21  N3  UNL     1      -1.610   1.662  30.066  1.00  0.00    -0.080 NA
ENDBRANCH   8  14
BRANCH   5  22
HETATM   22  O1  UNL     1       1.773   2.800  24.317  1.00  0.00    -0.390 OA
ATOM     23  H1  UNL     1       1.605   3.526  23.728  1.00  0.00     0.210 HD
ENDBRANCH   5  22
TORSDOF 2
ENDMDL
MODEL 4
REMARK VINA RESULT: -7.255768757      2.312      2.725
REMARK  2 active torsions:
REMARK  status: ('A' for Active; 'I' for Inactive)
REMARK    1  A    between atoms: C5_5  and  O1_6 
REMARK    2  A    between atoms: C7_10  and  C8_11 
ROOT
HETATM    1  C1  UNL     1      -0.896   1.798  23.353  1.00  0.00     0.016 C 
HETATM    2  C2  UNL     1      -0.240   0.414  23.437  1.00  0.00    -0.023 C 
HETATM    3  C3  UNL     1       0.510   0.271  22.101  1.00  0.00     0.016 C 
HETATM    4  C4  UNL     1      -1.308  -0.611  23.453  1.00  0.00     0.047 C 
HETATM    5  C5  UNL     1      -0.832  -1.815  24.240  1.00  0.00     0.161 C 
HETATM    6  C6  UNL     1      -0.589  -1.266  25.629  1.00  0.00     0.037 A 
HETATM    7  S1  UNL     1      -1.029  -1.614  27.241  1.00  0.00    -0.070 SA
HETATM    8  C7  UNL     1      -0.196  -0.350  28.025  1.00  0.00     0.105 A 
HETATM    9  N4  UNL     1       0.376   0.272  27.014  1.00  0.00    -0.350 N 
ATOM     10  H4  UNL     1       0.956   1.093  27.185  1.00  0.00     0.166 HD
HETATM   11  C11 UNL     1       0.203  -0.154  25.807  1.00  0.00     0.045 A 
HETATM   12  C12 UNL     1       0.763   0.407  24.514  1.00  0.00     0.141 C 
HETATM   13 CL1  UNL     1       1.416   2.041  24.757  1.00  0.00    -0.118 Cl
ENDROOT
BRANCH   8  14
HETATM   14  C8  UNL     1      -0.162  -0.075  29.461  1.00  0.00     0.109 A 
HETATM   15  N1  UNL     1      -0.925   0.775  30.158  1.00  0.00    -0.347 N 
HETATM   16  C9  UNL     1      -0.576   0.730  31.454  1.00  0.00     0.182 A 
ATOM     17  H1  UNL     1      -1.658   1.367  29.766  1.00  0.00     0.167 HD
HETATM   18  N2  UNL     1       0.427  -0.161  31.602  1.00  0.00    -0.339 N 
HETATM   19  C10 UNL     1       0.681  -0.659  30.361  1.00  0.00     0.147 A 
ATOM     20  H2  UNL     1       0.899  -0.411  32.471  1.00  0.00     0.167 HD
HETATM   21  N3  UNL     1       1.668  -1.634  30.047  1.00  0.00    -0.080 NA
ENDBRANCH   8  14
BRANCH   5  22
HETATM   22  O1  UNL     1      -1.783  -2.810  24.329  1.00  0.00    -0.390 OA
ATOM     23  H1  UNL     1      -1.515  -3.616  23.903  1.00  0.00     0.210 HD
ENDBRANCH   5  22
TORSDOF 2
ENDMDL
MODEL 5
REMARK VINA RESULT: -6.070877536      3.568      4.988
REMARK  2 active torsions:
REMARK  status: ('A' for Active; 'I' for Inactive)
REMARK    1  A    between atoms: C5_5  and  O1_6 
REMARK    2  A    between atoms: C7_10  and  C8_11 
ROOT
HETATM    1  C1  UNL     1       0.976   1.624  27.408  1.00  0.00     0.016 C 
HETATM    2  C2  UNL     1      -0.268   1.002  28.056  1.00  0.00    -0.023 C 
HETATM    3  C3  UNL     1      -1.321   1.010  26.935  1.00  0.00     0.016 C 
HETATM    4  C4  UNL     1      -0.749   1.913  29.118  1.00  0.00     0.047 C 
HETATM    5  C5  UNL     1      -1.418   1.100  30.208  1.00  0.00     0.161 C 
HETATM    6  C6  UNL     1      -0.313   0.206  30.724  1.00  0.00     0.037 A 
HETATM    7  S1  UNL     1       0.410  -0.211  32.213  1.00  0.00    -0.070 SA
HETATM    8  C7  UNL     1       1.579  -1.313  31.643  1.00  0.00     0.105 A 
HETATM    9  N4  UNL     1       1.357  -1.304  30.345  1.00  0.00    -0.350 N 
ATOM     10  H4  UNL     1       1.923  -1.887  29.729  1.00  0.00     0.166 HD
HETATM   11  C11 UNL     1       0.425  -0.561  29.850  1.00  0.00     0.045 A 
HETATM   12  C12 UNL     1       0.006  -0.403  28.401  1.00  0.00     0.141 C 
HETATM   13 CL1  UNL     1       1.231  -1.078  27.306  1.00  0.00    -0.118 Cl
ENDROOT
BRANCH   8  14
HETATM   14  C8  UNL     1       2.557  -2.051  32.443  1.00  0.00     0.109 A 
HETATM   15  N1  UNL     1       2.460  -2.432  33.722  1.00  0.00    -0.347 N 
HETATM   16  C9  UNL     1       3.575  -3.089  34.079  1.00  0.00     0.182 A 
ATOM     17  H1  UNL     1       1.662  -2.252  34.332  1.00  0.00     0.167 HD
HETATM   18  N2  UNL     1       4.409  -3.135  33.019  1.00  0.00    -0.339 N 
HETATM   19  C10 UNL     1       3.773  -2.489  32.005  1.00  0.00     0.147 A 
ATOM     20  H2  UNL     1       5.332  -3.569  32.985  1.00  0.00     0.167 HD
HETATM   21  N3  UNL     1       4.289  -2.298  30.693  1.00  0.00    -0.080 NA
ENDBRANCH   8  14
BRANCH   5  22
HETATM   22  O1  UNL     1      -1.873   1.875  31.255  1.00  0.00    -0.390 OA
ATOM     23  H1  UNL     1      -1.696   1.490  32.104  1.00  0.00     0.210 HD
ENDBRANCH   5  22
TORSDOF 2
ENDMDL
