MODEL 1
REMARK VINA RESULT: -7.058576782      0.000      0.000
REMARK  4 active torsions:
REMARK  status: ('A' for Active; 'I' for Inactive)
REMARK    1  A    between atoms: C2_2  and  N1_5 
REMARK    2  A    between atoms: N1_5  and  C5_7 
REMARK    3  A    between atoms: C7_12  and  N3_13 
REMARK    4  A    between atoms: N3_13  and  C8_15 
ROOT
HETATM    1  C5  UNL     1       1.151  -0.972  28.730  1.00  0.00     0.675 C 
HETATM    2  N2  UNL     1       0.221  -1.753  28.348  1.00  0.00    -0.188 N 
ATOM      3  H2  UNL     1       0.319  -2.690  28.740  1.00  0.00     0.181 HD
HETATM    4  C6  UNL     1      -0.941  -1.639  27.493  1.00  0.00     0.353 C 
HETATM    5  F1  UNL     1      -1.225  -2.851  26.930  1.00  0.00    -0.218 F 
HETATM    6  C7  UNL     1      -0.780  -0.639  26.419  1.00  0.00     0.135 C 
HETATM    7  N4  UNL     1      -0.213   0.500  26.463  1.00  0.00    -0.349 N 
ATOM      8  H4  UNL     1      -0.240   0.999  25.573  1.00  0.00     0.163 HD
HETATM    9  C14 UNL     1       0.462   1.237  27.510  1.00  0.00     0.114 C 
HETATM   10  C15 UNL     1       1.399   2.261  26.856  1.00  0.00     0.063 C 
HETATM   11  C16 UNL     1      -0.502   2.034  28.360  1.00  0.00     0.063 C 
HETATM   12  N5  UNL     1       1.284   0.403  28.348  1.00  0.00    -0.201 N 
ATOM     13  H5  UNL     1       2.101   0.872  28.737  1.00  0.00     0.180 HD
ENDROOT
BRANCH   6  14
HETATM   14  N3  UNL     1      -1.345  -1.023  25.179  1.00  0.00    -0.342 N 
ATOM     15  H3  UNL     1      -2.174  -1.617  25.190  1.00  0.00     0.167 HD
BRANCH  14  16
HETATM   16  C8  UNL     1      -0.823  -0.629  23.926  1.00  0.00     0.033 A 
HETATM   17  C9  UNL     1       0.140  -1.401  23.314  1.00  0.00     0.029 A 
HETATM   18  C10 UNL     1       0.679  -1.043  22.074  1.00  0.00     0.002 A 
HETATM   19  C11 UNL     1       0.240   0.104  21.451  1.00  0.00     0.000 A 
HETATM   20  C12 UNL     1      -0.710   0.876  22.040  1.00  0.00     0.002 A 
HETATM   21  C13 UNL     1      -1.244   0.511  23.281  1.00  0.00     0.029 A 
ENDBRANCH  14  16
ENDBRANCH   6  14
BRANCH   1  22
HETATM   22  N1  UNL     1       2.155  -1.487  29.614  1.00  0.00    -0.218 N 
ATOM     23  H1  UNL     1       3.068  -1.733  29.230  1.00  0.00     0.178 HD
BRANCH  22  24
HETATM   24  C2  UNL     1       1.925  -1.672  31.025  1.00  0.00     0.036 C 
HETATM   25  C1  UNL     1       1.335  -3.057  31.216  1.00  0.00     0.038 C 
HETATM   26  C3  UNL     1       0.941  -0.674  31.587  1.00  0.00     0.038 C 
HETATM   27  C4  UNL     1       3.234  -1.658  31.812  1.00  0.00     0.038 C 
ENDBRANCH  22  24
ENDBRANCH   1  22
TORSDOF 4
ENDMDL
MODEL 2
REMARK VINA RESULT: -7.049764145      2.398      3.926
REMARK  4 active torsions:
REMARK  status: ('A' for Active; 'I' for Inactive)
REMARK    1  A    between atoms: C2_2  and  N1_5 
REMARK    2  A    between atoms: N1_5  and  C5_7 
REMARK    3  A    between atoms: C7_12  and  N3_13 
REMARK    4  A    between atoms: N3_13  and  C8_15 
ROOT
HETATM    1  C5  UNL     1      -1.137   1.003  28.713  1.00  0.00     0.675 C 
HETATM    2  N2  UNL     1      -0.200   1.775  28.326  1.00  0.00    -0.188 N 
ATOM      3  H2  UNL     1      -0.292   2.715  28.711  1.00  0.00     0.181 HD
HETATM    4  C6  UNL     1       0.963   1.646  27.475  1.00  0.00     0.353 C 
HETATM    5  F1  UNL     1       1.257   2.852  26.903  1.00  0.00    -0.218 F 
HETATM    6  C7  UNL     1       0.797   0.638  26.408  1.00  0.00     0.135 C 
HETATM    7  N4  UNL     1       0.222  -0.497  26.461  1.00  0.00    -0.349 N 
ATOM      8  H4  UNL     1       0.248  -1.002  25.575  1.00  0.00     0.163 HD
HETATM    9  C14 UNL     1      -0.461  -1.220  27.512  1.00  0.00     0.114 C 
HETATM   10  C15 UNL     1      -1.403  -2.243  26.864  1.00  0.00     0.063 C 
HETATM   11  C16 UNL     1       0.496  -2.017  28.371  1.00  0.00     0.063 C 
HETATM   12  N5  UNL     1      -1.278  -0.374  28.342  1.00  0.00    -0.201 N 
ATOM     13  H5  UNL     1      -2.100  -0.834  28.733  1.00  0.00     0.180 HD
ENDROOT
BRANCH   6  14
HETATM   14  N3  UNL     1       1.367   1.009  25.167  1.00  0.00    -0.342 N 
ATOM     15  H3  UNL     1       2.210   1.582  25.175  1.00  0.00     0.167 HD
BRANCH  14  16
HETATM   16  C8  UNL     1       0.831   0.629  23.915  1.00  0.00     0.033 A 
HETATM   17  C9  UNL     1      -0.119   1.421  23.311  1.00  0.00     0.029 A 
HETATM   18  C10 UNL     1      -0.671   1.077  22.073  1.00  0.00     0.002 A 
HETATM   19  C11 UNL     1      -0.258  -0.076  21.444  1.00  0.00     0.000 A 
HETATM   20  C12 UNL     1       0.679  -0.870  22.027  1.00  0.00     0.002 A 
HETATM   21  C13 UNL     1       1.226  -0.518  23.265  1.00  0.00     0.029 A 
ENDBRANCH  14  16
ENDBRANCH   6  14
BRANCH   1  22
HETATM   22  N1  UNL     1      -2.139   1.533  29.591  1.00  0.00    -0.218 N 
ATOM     23  H1  UNL     1      -3.038   1.810  29.197  1.00  0.00     0.178 HD
BRANCH  22  24
HETATM   24  C2  UNL     1      -1.924   1.689  31.007  1.00  0.00     0.036 C 
HETATM   25  C1  UNL     1      -1.341   3.072  31.233  1.00  0.00     0.038 C 
HETATM   26  C3  UNL     1      -0.944   0.683  31.560  1.00  0.00     0.038 C 
HETATM   27  C4  UNL     1      -3.242   1.655  31.780  1.00  0.00     0.038 C 
ENDBRANCH  22  24
ENDBRANCH   1  22
TORSDOF 4
ENDMDL
MODEL 3
REMARK VINA RESULT: -6.837524286      2.507      6.620
REMARK  4 active torsions:
REMARK  status: ('A' for Active; 'I' for Inactive)
REMARK    1  A    between atoms: C2_2  and  N1_5 
REMARK    2  A    between atoms: N1_5  and  C5_7 
REMARK    3  A    between atoms: C7_12  and  N3_13 
REMARK    4  A    between atoms: N3_13  and  C8_15 
ROOT
HETATM    1  C5  UNL     1       0.509  -0.632  25.806  1.00  0.00     0.675 C 
HETATM    2  N2  UNL     1      -0.543   0.071  25.948  1.00  0.00    -0.188 N 
ATOM      3  H2  UNL     1      -0.971   0.310  25.052  1.00  0.00     0.181 HD
HETATM    4  C6  UNL     1      -1.282   0.616  27.067  1.00  0.00     0.353 C 
HETATM    5  F1  UNL     1      -1.923   1.761  26.687  1.00  0.00    -0.218 F 
HETATM    6  C7  UNL     1      -0.435   0.908  28.240  1.00  0.00     0.135 C 
HETATM    7  N4  UNL     1       0.547   0.243  28.705  1.00  0.00    -0.349 N 
ATOM      8  H4  UNL     1       0.964   0.667  29.533  1.00  0.00     0.163 HD
HETATM    9  C14 UNL     1       1.194  -0.988  28.306  1.00  0.00     0.114 C 
HETATM   10  C15 UNL     1       2.617  -0.997  28.881  1.00  0.00     0.063 C 
HETATM   11  C16 UNL     1       0.504  -2.207  28.876  1.00  0.00     0.063 C 
HETATM   12  N5  UNL     1       1.326  -1.121  26.878  1.00  0.00    -0.201 N 
ATOM     13  H5  UNL     1       2.141  -1.654  26.578  1.00  0.00     0.180 HD
ENDROOT
BRANCH   6  14
HETATM   14  N3  UNL     1      -0.784   2.096  28.926  1.00  0.00    -0.342 N 
ATOM     15  H3  UNL     1      -0.279   2.951  28.696  1.00  0.00     0.167 HD
BRANCH  14  16
HETATM   16  C8  UNL     1      -1.793   2.163  29.913  1.00  0.00     0.033 A 
HETATM   17  C9  UNL     1      -1.450   2.410  31.224  1.00  0.00     0.029 A 
HETATM   18  C10 UNL     1      -2.421   2.483  32.227  1.00  0.00     0.002 A 
HETATM   19  C11 UNL     1      -3.747   2.305  31.901  1.00  0.00     0.000 A 
HETATM   20  C12 UNL     1      -4.103   2.061  30.612  1.00  0.00     0.002 A 
HETATM   21  C13 UNL     1      -3.125   1.989  29.614  1.00  0.00     0.029 A 
ENDBRANCH  14  16
ENDBRANCH   6  14
BRANCH   1  22
HETATM   22  N1  UNL     1       0.927  -0.976  24.479  1.00  0.00    -0.218 N 
ATOM     23  H1  UNL     1       1.909  -0.858  24.228  1.00  0.00     0.178 HD
BRANCH  22  24
HETATM   24  C2  UNL     1       0.014  -1.480  23.485  1.00  0.00     0.036 C 
HETATM   25  C1  UNL     1       0.749  -2.536  22.679  1.00  0.00     0.038 C 
HETATM   26  C3  UNL     1      -0.448  -0.411  22.525  1.00  0.00     0.038 C 
HETATM   27  C4  UNL     1      -1.175  -2.193  24.128  1.00  0.00     0.038 C 
ENDBRANCH  22  24
ENDBRANCH   1  22
TORSDOF 4
ENDMDL
MODEL 4
REMARK VINA RESULT: -6.828221501      1.434      6.825
REMARK  4 active torsions:
REMARK  status: ('A' for Active; 'I' for Inactive)
REMARK    1  A    between atoms: C2_2  and  N1_5 
REMARK    2  A    between atoms: N1_5  and  C5_7 
REMARK    3  A    between atoms: C7_12  and  N3_13 
REMARK    4  A    between atoms: N3_13  and  C8_15 
ROOT
HETATM    1  C5  UNL     1      -0.234  -0.921  26.576  1.00  0.00     0.675 C 
HETATM    2  N2  UNL     1       0.549  -1.762  27.125  1.00  0.00    -0.188 N 
ATOM      3  H2  UNL     1       0.535  -2.666  26.653  1.00  0.00     0.181 HD
HETATM    4  C6  UNL     1       1.454  -1.750  28.254  1.00  0.00     0.353 C 
HETATM    5  F1  UNL     1       1.557  -3.007  28.781  1.00  0.00    -0.218 F 
HETATM    6  C7  UNL     1       1.044  -0.816  29.322  1.00  0.00     0.135 C 
HETATM    7  N4  UNL     1       0.532   0.345  29.218  1.00  0.00    -0.349 N 
ATOM      8  H4  UNL     1       0.340   0.783  30.119  1.00  0.00     0.163 HD
HETATM    9  C14 UNL     1       0.166   1.175  28.090  1.00  0.00     0.114 C 
HETATM   10  C15 UNL     1      -0.885   2.191  28.556  1.00  0.00     0.063 C 
HETATM   11  C16 UNL     1       1.334   1.987  27.575  1.00  0.00     0.063 C 
HETATM   12  N5  UNL     1      -0.430   0.431  27.011  1.00  0.00    -0.201 N 
ATOM     13  H5  UNL     1      -1.109   0.956  26.461  1.00  0.00     0.180 HD
ENDROOT
BRANCH   6  14
HETATM   14  N3  UNL     1       1.261  -1.303  30.634  1.00  0.00    -0.342 N 
ATOM     15  H3  UNL     1       0.459  -1.379  31.258  1.00  0.00     0.167 HD
BRANCH  14  16
HETATM   16  C8  UNL     1       2.529  -1.688  31.126  1.00  0.00     0.033 A 
HETATM   17  C9  UNL     1       2.614  -2.449  32.271  1.00  0.00     0.029 A 
HETATM   18  C10 UNL     1       3.850  -2.849  32.787  1.00  0.00     0.002 A 
HETATM   19  C11 UNL     1       5.007  -2.476  32.139  1.00  0.00     0.000 A 
HETATM   20  C12 UNL     1       4.941  -1.726  31.008  1.00  0.00     0.002 A 
HETATM   21  C13 UNL     1       3.700  -1.329  30.498  1.00  0.00     0.029 A 
ENDBRANCH  14  16
ENDBRANCH   6  14
BRANCH   1  22
HETATM   22  N1  UNL     1      -0.988  -1.337  25.430  1.00  0.00    -0.218 N 
ATOM     23  H1  UNL     1      -1.852  -1.859  25.574  1.00  0.00     0.178 HD
BRANCH  22  24
HETATM   24  C2  UNL     1      -0.570  -1.046  24.081  1.00  0.00     0.036 C 
HETATM   25  C1  UNL     1      -0.609  -2.346  23.298  1.00  0.00     0.038 C 
HETATM   26  C3  UNL     1       0.840  -0.513  24.012  1.00  0.00     0.038 C 
HETATM   27  C4  UNL     1      -1.550  -0.104  23.384  1.00  0.00     0.038 C 
ENDBRANCH  22  24
ENDBRANCH   1  22
TORSDOF 4
ENDMDL
MODEL 5
REMARK VINA RESULT: -6.827393133      2.505      6.640
REMARK  4 active torsions:
REMARK  status: ('A' for Active; 'I' for Inactive)
REMARK    1  A    between atoms: C2_2  and  N1_5 
REMARK    2  A    between atoms: N1_5  and  C5_7 
REMARK    3  A    between atoms: C7_12  and  N3_13 
REMARK    4  A    between atoms: N3_13  and  C8_15 
ROOT
HETATM    1  C5  UNL     1       0.510  -0.637  25.814  1.00  0.00     0.675 C 
HETATM    2  N2  UNL     1      -0.543   0.066  25.956  1.00  0.00    -0.188 N 
ATOM      3  H2  UNL     1      -0.973   0.300  25.061  1.00  0.00     0.181 HD
HETATM    4  C6  UNL     1      -1.279   0.615  27.075  1.00  0.00     0.353 C 
HETATM    5  F1  UNL     1      -1.922   1.758  26.692  1.00  0.00    -0.218 F 
HETATM    6  C7  UNL     1      -0.429   0.913  28.244  1.00  0.00     0.135 C 
HETATM    7  N4  UNL     1       0.555   0.251  28.709  1.00  0.00    -0.349 N 
ATOM      8  H4  UNL     1       0.975   0.680  29.535  1.00  0.00     0.163 HD
HETATM    9  C14 UNL     1       1.203  -0.981  28.313  1.00  0.00     0.114 C 
HETATM   10  C15 UNL     1       2.627  -0.986  28.884  1.00  0.00     0.063 C 
HETATM   11  C16 UNL     1       0.516  -2.199  28.892  1.00  0.00     0.063 C 
HETATM   12  N5  UNL     1       1.330  -1.120  26.886  1.00  0.00    -0.201 N 
ATOM     13  H5  UNL     1       2.145  -1.654  26.586  1.00  0.00     0.180 HD
ENDROOT
BRANCH   6  14
HETATM   14  N3  UNL     1      -0.776   2.104  28.926  1.00  0.00    -0.342 N 
ATOM     15  H3  UNL     1      -0.291   2.964  28.672  1.00  0.00     0.167 HD
BRANCH  14  16
HETATM   16  C8  UNL     1      -1.759   2.167  29.940  1.00  0.00     0.033 A 
HETATM   17  C9  UNL     1      -3.086   1.999  29.615  1.00  0.00     0.029 A 
HETATM   18  C10 UNL     1      -4.086   2.055  30.591  1.00  0.00     0.002 A 
HETATM   19  C11 UNL     1      -3.738   2.282  31.905  1.00  0.00     0.000 A 
HETATM   20  C12 UNL     1      -2.433   2.449  32.242  1.00  0.00     0.002 A 
HETATM   21  C13 UNL     1      -1.439   2.392  31.259  1.00  0.00     0.029 A 
ENDBRANCH  14  16
ENDBRANCH   6  14
BRANCH   1  22
HETATM   22  N1  UNL     1       0.925  -0.986  24.487  1.00  0.00    -0.218 N 
ATOM     23  H1  UNL     1       1.907  -0.878  24.237  1.00  0.00     0.178 HD
BRANCH  22  24
HETATM   24  C2  UNL     1       0.006  -1.483  23.494  1.00  0.00     0.036 C 
HETATM   25  C1  UNL     1       0.735  -2.539  22.683  1.00  0.00     0.038 C 
HETATM   26  C3  UNL     1      -0.453  -0.409  22.539  1.00  0.00     0.038 C 
HETATM   27  C4  UNL     1      -1.183  -2.192  24.138  1.00  0.00     0.038 C 
ENDBRANCH  22  24
ENDBRANCH   1  22
TORSDOF 4
ENDMDL
