MODEL 1
REMARK VINA RESULT: -6.031364517      0.000      0.000
REMARK  3 active torsions:
REMARK  status: ('A' for Active; 'I' for Inactive)
REMARK    1  A    between atoms: C2_2  and  C3_3 
REMARK    2  A    between atoms: C3_3  and  O1_4 
REMARK    3  A    between atoms: C13_19  and  O3_20 
ROOT
HETATM    1  C3  UNL     1       1.443  -0.782  29.107  1.00  0.00     0.090 C 
HETATM    2  C4  UNL     1       0.810  -1.718  28.118  1.00  0.00     0.078 C 
HETATM    3  C5  UNL     1      -0.174  -1.055  27.235  1.00  0.00     0.064 C 
HETATM    4  C6  UNL     1       0.490  -0.771  25.892  1.00  0.00     0.046 C 
HETATM    5  C7  UNL     1      -1.355  -1.987  26.953  1.00  0.00     0.046 C 
HETATM    6  O2  UNL     1      -0.700   0.147  27.711  1.00  0.00    -0.333 OA
HETATM    7  C8  UNL     1      -1.030   0.625  28.983  1.00  0.00     0.122 A 
HETATM    8  S1  UNL     1      -2.188   1.798  29.393  1.00  0.00    -0.051 SA
HETATM    9  C9  UNL     1      -1.976   1.804  31.086  1.00  0.00     0.098 A 
HETATM   10 CL1  UNL     1      -2.832   2.784  32.298  1.00  0.00    -0.074 Cl
HETATM   11  C10 UNL     1      -0.985   0.869  31.285  1.00  0.00     0.085 A 
HETATM   12  C11 UNL     1      -0.536   0.597  32.667  1.00  0.00     0.102 C 
HETATM   13  N1  UNL     1      -0.200   0.384  33.777  1.00  0.00    -0.191 NA
HETATM   14  C12 UNL     1      -0.494   0.256  30.170  1.00  0.00     0.037 A 
HETATM   15  C13 UNL     1       0.605  -0.783  30.349  1.00  0.00     0.190 C 
ENDROOT
BRANCH  15  16
HETATM   16  O3  UNL     1       1.405  -0.497  31.447  1.00  0.00    -0.388 OA
ATOM     17  H3  UNL     1       0.879  -0.526  32.237  1.00  0.00     0.210 HD
ENDBRANCH  15  16
BRANCH   1  18
HETATM   18  C2  UNL     1       2.887  -1.146  29.386  1.00  0.00     0.036 C 
HETATM   19  C1  UNL     1       3.304  -2.403  28.689  1.00  0.00     0.008 C 
ENDBRANCH   1  18
BRANCH   1  20
HETATM   20  O1  UNL     1       1.476   0.503  28.570  1.00  0.00    -0.387 OA
ATOM     21  H1  UNL     1       2.239   0.921  28.950  1.00  0.00     0.210 HD
ENDBRANCH   1  20
TORSDOF 3
ENDMDL
MODEL 2
REMARK VINA RESULT: -6.015896856      2.787      4.149
REMARK  3 active torsions:
REMARK  status: ('A' for Active; 'I' for Inactive)
REMARK    1  A    between atoms: C2_2  and  C3_3 
REMARK    2  A    between atoms: C3_3  and  O1_4 
REMARK    3  A    between atoms: C13_19  and  O3_20 
ROOT
HETATM    1  C3  UNL     1      -1.435   0.812  29.104  1.00  0.00     0.090 C 
HETATM    2  C4  UNL     1      -0.794   1.740  28.114  1.00  0.00     0.078 C 
HETATM    3  C5  UNL     1       0.184   1.068  27.232  1.00  0.00     0.064 C 
HETATM    4  C6  UNL     1      -0.481   0.788  25.889  1.00  0.00     0.046 C 
HETATM    5  C7  UNL     1       1.374   1.988  26.949  1.00  0.00     0.046 C 
HETATM    6  O2  UNL     1       0.699  -0.139  27.710  1.00  0.00    -0.333 OA
HETATM    7  C8  UNL     1       1.024  -0.618  28.983  1.00  0.00     0.122 A 
HETATM    8  S1  UNL     1       2.172  -1.800  29.395  1.00  0.00    -0.051 SA
HETATM    9  C9  UNL     1       1.959  -1.802  31.088  1.00  0.00     0.098 A 
HETATM   10 CL1  UNL     1       2.806  -2.789  32.302  1.00  0.00    -0.074 Cl
HETATM   11  C10 UNL     1       0.976  -0.858  31.285  1.00  0.00     0.085 A 
HETATM   12  C11 UNL     1       0.530  -0.580  32.666  1.00  0.00     0.102 C 
HETATM   13  N1  UNL     1       0.195  -0.362  33.776  1.00  0.00    -0.191 NA
HETATM   14  C12 UNL     1       0.491  -0.242  30.169  1.00  0.00     0.037 A 
HETATM   15  C13 UNL     1      -0.598   0.807  30.346  1.00  0.00     0.190 C 
ENDROOT
BRANCH  15  16
HETATM   16  O3  UNL     1      -1.401   0.530  31.444  1.00  0.00    -0.388 OA
ATOM     17  H3  UNL     1      -0.901   0.041  32.086  1.00  0.00     0.210 HD
ENDBRANCH  15  16
BRANCH   1  18
HETATM   18  C2  UNL     1      -2.877   1.189  29.382  1.00  0.00     0.036 C 
HETATM   19  C1  UNL     1      -3.300   2.414  28.633  1.00  0.00     0.008 C 
ENDBRANCH   1  18
BRANCH   1  20
HETATM   20  O1  UNL     1      -1.480  -0.474  28.569  1.00  0.00    -0.387 OA
ATOM     21  H1  UNL     1      -0.781  -0.508  27.927  1.00  0.00     0.210 HD
ENDBRANCH   1  20
TORSDOF 3
ENDMDL
MODEL 3
REMARK VINA RESULT: -5.414282572      6.922      8.934
REMARK  3 active torsions:
REMARK  status: ('A' for Active; 'I' for Inactive)
REMARK    1  A    between atoms: C2_2  and  C3_3 
REMARK    2  A    between atoms: C3_3  and  O1_4 
REMARK    3  A    between atoms: C13_19  and  O3_20 
ROOT
HETATM    1  C3  UNL     1      -5.622   2.663  33.058  1.00  0.00     0.090 C 
HETATM    2  C4  UNL     1      -6.109   1.293  33.432  1.00  0.00     0.078 C 
HETATM    3  C5  UNL     1      -7.489   1.290  33.965  1.00  0.00     0.064 C 
HETATM    4  C6  UNL     1      -8.439   0.854  32.855  1.00  0.00     0.046 C 
HETATM    5  C7  UNL     1      -7.628   0.261  35.090  1.00  0.00     0.046 C 
HETATM    6  O2  UNL     1      -7.948   2.511  34.462  1.00  0.00    -0.333 OA
HETATM    7  C8  UNL     1      -7.339   3.573  35.139  1.00  0.00     0.122 A 
HETATM    8  S1  UNL     1      -8.057   4.682  36.207  1.00  0.00    -0.051 SA
HETATM    9  C9  UNL     1      -6.682   5.620  36.582  1.00  0.00     0.098 A 
HETATM   10 CL1  UNL     1      -6.573   7.028  37.664  1.00  0.00    -0.074 Cl
HETATM   11  C10 UNL     1      -5.681   5.026  35.845  1.00  0.00     0.085 A 
HETATM   12  C11 UNL     1      -4.315   5.582  35.930  1.00  0.00     0.102 C 
HETATM   13  N1  UNL     1      -3.228   6.032  36.020  1.00  0.00    -0.191 NA
HETATM   14  C12 UNL     1      -6.040   3.949  35.089  1.00  0.00     0.037 A 
HETATM   15  C13 UNL     1      -4.962   3.265  34.260  1.00  0.00     0.190 C 
ENDROOT
BRANCH  15  16
HETATM   16  O3  UNL     1      -3.986   4.164  33.849  1.00  0.00    -0.388 OA
ATOM     17  H3  UNL     1      -3.277   3.690  33.429  1.00  0.00     0.210 HD
ENDBRANCH  15  16
BRANCH   1  18
HETATM   18  C2  UNL     1      -4.703   2.626  31.853  1.00  0.00     0.036 C 
HETATM   19  C1  UNL     1      -4.892   1.391  31.029  1.00  0.00     0.008 C 
ENDBRANCH   1  18
BRANCH   1  20
HETATM   20  O1  UNL     1      -6.707   3.450  32.679  1.00  0.00    -0.387 OA
ATOM     21  H1  UNL     1      -6.336   4.203  32.235  1.00  0.00     0.210 HD
ENDBRANCH   1  20
TORSDOF 3
ENDMDL
MODEL 4
REMARK VINA RESULT: -5.260767820      2.548      3.614
REMARK  3 active torsions:
REMARK  status: ('A' for Active; 'I' for Inactive)
REMARK    1  A    between atoms: C2_2  and  C3_3 
REMARK    2  A    between atoms: C3_3  and  O1_4 
REMARK    3  A    between atoms: C13_19  and  O3_20 
ROOT
HETATM    1  C3  UNL     1      -0.444   0.455  28.598  1.00  0.00     0.090 C 
HETATM    2  C4  UNL     1      -1.933   0.507  28.414  1.00  0.00     0.078 C 
HETATM    3  C5  UNL     1      -2.595   1.499  29.289  1.00  0.00     0.064 C 
HETATM    4  C6  UNL     1      -2.883   2.754  28.471  1.00  0.00     0.046 C 
HETATM    5  C7  UNL     1      -3.947   0.971  29.773  1.00  0.00     0.046 C 
HETATM    6  O2  UNL     1      -1.872   1.886  30.419  1.00  0.00    -0.333 OA
HETATM    7  C8  UNL     1      -0.996   1.222  31.284  1.00  0.00     0.122 A 
HETATM    8  S1  UNL     1      -0.668   1.573  32.913  1.00  0.00    -0.051 SA
HETATM    9  C9  UNL     1       0.469   0.340  33.228  1.00  0.00     0.098 A 
HETATM   10 CL1  UNL     1       1.328  -0.001  34.748  1.00  0.00    -0.074 Cl
HETATM   11  C10 UNL     1       0.560  -0.323  32.025  1.00  0.00     0.085 A 
HETATM   12  C11 UNL     1       1.470  -1.484  31.924  1.00  0.00     0.102 C 
HETATM   13  N1  UNL     1       2.191  -2.415  31.865  1.00  0.00    -0.191 NA
HETATM   14  C12 UNL     1      -0.216   0.151  31.008  1.00  0.00     0.037 A 
HETATM   15  C13 UNL     1      -0.142  -0.555  29.661  1.00  0.00     0.190 C 
ENDROOT
BRANCH  15  16
HETATM   16  O3  UNL     1       1.116  -1.100  29.437  1.00  0.00    -0.388 OA
ATOM     17  H3  UNL     1       1.702  -0.839  30.138  1.00  0.00     0.210 HD
ENDBRANCH  15  16
BRANCH   1  18
HETATM   18  C2  UNL     1       0.276   0.156  27.298  1.00  0.00     0.036 C 
HETATM   19  C1  UNL     1      -0.476   0.653  26.102  1.00  0.00     0.008 C 
ENDBRANCH   1  18
BRANCH   1  20
HETATM   20  O1  UNL     1       0.014   1.707  29.002  1.00  0.00    -0.387 OA
ATOM     21  H1  UNL     1      -0.135   1.745  29.939  1.00  0.00     0.210 HD
ENDBRANCH   1  20
TORSDOF 3
ENDMDL
MODEL 5
REMARK VINA RESULT: -5.254735459      2.135      3.483
REMARK  3 active torsions:
REMARK  status: ('A' for Active; 'I' for Inactive)
REMARK    1  A    between atoms: C2_2  and  C3_3 
REMARK    2  A    between atoms: C3_3  and  O1_4 
REMARK    3  A    between atoms: C13_19  and  O3_20 
ROOT
HETATM    1  C3  UNL     1       0.468  -0.509  28.516  1.00  0.00     0.090 C 
HETATM    2  C4  UNL     1       1.959  -0.556  28.347  1.00  0.00     0.078 C 
HETATM    3  C5  UNL     1       2.619  -1.519  29.254  1.00  0.00     0.064 C 
HETATM    4  C6  UNL     1       2.923  -2.794  28.475  1.00  0.00     0.046 C 
HETATM    5  C7  UNL     1       3.964  -0.969  29.735  1.00  0.00     0.046 C 
HETATM    6  O2  UNL     1       1.890  -1.879  30.389  1.00  0.00    -0.333 OA
HETATM    7  C8  UNL     1       1.002  -1.197  31.227  1.00  0.00     0.122 A 
HETATM    8  S1  UNL     1       0.662  -1.504  32.863  1.00  0.00    -0.051 SA
HETATM    9  C9  UNL     1      -0.486  -0.271  33.134  1.00  0.00     0.098 A 
HETATM   10 CL1  UNL     1      -1.360   0.107  34.636  1.00  0.00    -0.074 Cl
HETATM   11  C10 UNL     1      -0.571   0.358  31.912  1.00  0.00     0.085 A 
HETATM   12  C11 UNL     1      -1.487   1.509  31.770  1.00  0.00     0.102 C 
HETATM   13  N1  UNL     1      -2.214   2.433  31.679  1.00  0.00    -0.191 NA
HETATM   14  C12 UNL     1       0.217  -0.140  30.915  1.00  0.00     0.037 A 
HETATM   15  C13 UNL     1       0.150   0.528  29.549  1.00  0.00     0.190 C 
ENDROOT
BRANCH  15  16
HETATM   16  O3  UNL     1      -1.109   1.058  29.299  1.00  0.00    -0.388 OA
ATOM     17  H3  UNL     1      -1.156   1.939  29.648  1.00  0.00     0.210 HD
ENDBRANCH  15  16
BRANCH   1  18
HETATM   18  C2  UNL     1      -0.243  -0.252  27.202  1.00  0.00     0.036 C 
HETATM   19  C1  UNL     1       0.591  -0.631  26.019  1.00  0.00     0.008 C 
ENDBRANCH   1  18
BRANCH   1  20
HETATM   20  O1  UNL     1       0.015  -1.753  28.951  1.00  0.00    -0.387 OA
ATOM     21  H1  UNL     1       0.367  -1.863  29.826  1.00  0.00     0.210 HD
ENDBRANCH   1  20
TORSDOF 3
ENDMDL
