MODEL 1
REMARK VINA RESULT: -9.969454362      0.000      0.000
REMARK  12 active torsions:
REMARK  status: ('A' for Active; 'I' for Inactive)
REMARK    1  A    between atoms: N1_1  and  C1_4 
REMARK    2  A    between atoms: C2_7  and  N3_8 
REMARK    3  A    between atoms: C3_13  and  C4_14 
REMARK       I    between atoms: C4_14  and  N6_16 
REMARK    4  A    between atoms: N6_16  and  N7_18 
REMARK    5  A    between atoms: C5_20  and  C6_21 
REMARK    6  A    between atoms: C8_23  and  N8_24 
REMARK    7  A    between atoms: C11_35  and  N12_36 
REMARK    8  A    between atoms: N12_36  and  C12_38 
REMARK    9  A    between atoms: C12_38  and  C13_39 
REMARK   10  A    between atoms: C12_38  and  C14_42 
REMARK   11  A    between atoms: C13_39  and  O4_40 
REMARK   12  A    between atoms: C17_45  and  O5_46 
ROOT
HETATM    1  C1  UNL     1     363.741 232.639 183.934  1.00  0.00     0.705 A 
HETATM    2  N2  UNL     1     363.919 233.840 184.513  1.00  0.00    -0.018 N 
ATOM      3  H2  UNL     1     363.116 234.352 184.878  1.00  0.00     0.203 HD
HETATM    4  C2  UNL     1     365.150 234.368 184.614  1.00  0.00     0.749 A 
HETATM    5  N11 UNL     1     366.176 233.644 184.114  1.00  0.00    -0.018 N 
ATOM      6  H11 UNL     1     367.120 234.024 184.180  1.00  0.00     0.203 HD
HETATM    7  C11 UNL     1     366.006 232.447 183.536  1.00  0.00     0.708 A 
HETATM    8  N13 UNL     1     364.754 231.916 183.436  1.00  0.00    -0.022 N 
ATOM      9  H13 UNL     1     364.596 231.007 183.000  1.00  0.00     0.203 HD
ENDROOT
BRANCH   4  10
HETATM   10  N3  UNL     1     365.383 235.653 185.229  1.00  0.00    -0.003 N 
HETATM   11  N4  UNL     1     365.642 236.782 184.595  1.00  0.00    -0.204 N 
HETATM   12  N5  UNL     1     365.796 237.747 185.482  1.00  0.00    -0.263 N 
ATOM     13  H4  UNL     1     365.711 236.891 183.584  1.00  0.00     0.211 HD
HETATM   14  C3  UNL     1     365.636 237.237 186.715  1.00  0.00     0.209 A 
ATOM     15  H5  UNL     1     366.003 238.722 185.266  1.00  0.00     0.190 HD
HETATM   16  N10 UNL     1     365.380 235.934 186.518  1.00  0.00    -0.242 N 
ATOM     17  H10 UNL     1     365.208 235.256 187.261  1.00  0.00     0.191 HD
BRANCH  14  18
HETATM   18  C4  UNL     1     365.726 237.970 187.972  1.00  0.00     0.306 C 
HETATM   19  O1  UNL     1     366.831 238.041 188.560  1.00  0.00    -0.262 OA
HETATM   20  N6  UNL     1     364.543 238.585 188.499  1.00  0.00    -0.264 N 
ATOM     21  H6  UNL     1     363.652 238.515 188.008  1.00  0.00     0.190 HD
BRANCH  20  22
HETATM   22  N7  UNL     1     364.646 239.275 189.691  1.00  0.00    -0.307 N 
HETATM   23  C5  UNL     1     364.797 240.546 189.780  1.00  0.00     0.136 C 
ATOM     24  H7  UNL     1     364.599 238.739 190.558  1.00  0.00     0.186 HD
BRANCH  23  25
HETATM   25  C6  UNL     1     364.901 241.225 191.061  1.00  0.00     0.051 A 
HETATM   26  C7  UNL     1     364.551 240.588 192.244  1.00  0.00     0.067 A 
HETATM   27  C8  UNL     1     364.632 241.190 193.475  1.00  0.00     0.106 A 
HETATM   28  C9  UNL     1     365.081 242.484 193.556  1.00  0.00     0.053 A 
HETATM   29  C10 UNL     1     365.428 243.111 192.372  1.00  0.00     0.091 A 
HETATM   30  N9  UNL     1     365.336 242.492 191.181  1.00  0.00    -0.365 N 
ATOM     31  H9  UNL     1     365.605 243.002 190.339  1.00  0.00     0.165 HD
BRANCH  27  32
HETATM   32  N8  UNL     1     364.271 240.530 194.681  1.00  0.00    -0.116 N 
HETATM   33  O2  UNL     1     365.047 240.375 195.629  1.00  0.00    -0.532 OA
HETATM   34  O3  UNL     1     362.977 240.030 194.802  1.00  0.00    -0.532 OA
ENDBRANCH  27  32
ENDBRANCH  23  25
ENDBRANCH  20  22
ENDBRANCH  14  18
ENDBRANCH   4  10
BRANCH   1  35
HETATM   35  N1  UNL     1     362.555 232.118 183.830  1.00  0.00    -0.234 N 
ATOM     36  H12 UNL     1     361.788 232.769 183.665  1.00  0.00     0.174 HD
ATOM     37  H11 UNL     1     362.417 231.110 183.911  1.00  0.00     0.174 HD
ENDBRANCH   1  35
BRANCH   7  38
HETATM   38  N12 UNL     1     366.962 231.747 183.056  1.00  0.00    -0.214 N 
ATOM     39  H12 UNL     1     367.303 231.942 182.115  1.00  0.00     0.178 HD
BRANCH  38  40
HETATM   40  C12 UNL     1     367.580 230.665 183.837  1.00  0.00     0.156 C 
BRANCH  40  41
HETATM   41  C13 UNL     1     368.765 231.239 184.516  1.00  0.00     0.194 C 
BRANCH  41  42
HETATM   42  O4  UNL     1     368.905 230.911 185.854  1.00  0.00    -0.398 OA
ATOM     43  H4  UNL     1     369.788 230.966 186.200  1.00  0.00     0.209 HD
ENDBRANCH  41  42
ENDBRANCH  40  41
BRANCH  40  44
HETATM   44  C14 UNL     1     367.927 229.637 182.813  1.00  0.00    -0.033 A 
HETATM   45  C15 UNL     1     368.627 229.869 181.665  1.00  0.00     0.012 A 
HETATM   46  C16 UNL     1     368.932 228.873 180.748  1.00  0.00     0.037 A 
HETATM   47  C17 UNL     1     368.514 227.584 180.991  1.00  0.00     0.065 A 
HETATM   48  C18 UNL     1     367.804 227.308 182.141  1.00  0.00     0.037 A 
HETATM   49  C19 UNL     1     367.516 228.312 183.034  1.00  0.00     0.012 A 
BRANCH  47  50
HETATM   50  O5  UNL     1     368.791 226.542 180.104  1.00  0.00    -0.361 OA
ATOM     51  H5  UNL     1     369.041 225.678 180.411  1.00  0.00     0.217 HD
ENDBRANCH  47  50
ENDBRANCH  40  44
ENDBRANCH  38  40
ENDBRANCH   7  38
TORSDOF 12
ENDMDL
MODEL 2
REMARK VINA RESULT: -9.750025721      5.584      8.410
REMARK  12 active torsions:
REMARK  status: ('A' for Active; 'I' for Inactive)
REMARK    1  A    between atoms: N1_1  and  C1_4 
REMARK    2  A    between atoms: C2_7  and  N3_8 
REMARK    3  A    between atoms: C3_13  and  C4_14 
REMARK       I    between atoms: C4_14  and  N6_16 
REMARK    4  A    between atoms: N6_16  and  N7_18 
REMARK    5  A    between atoms: C5_20  and  C6_21 
REMARK    6  A    between atoms: C8_23  and  N8_24 
REMARK    7  A    between atoms: C11_35  and  N12_36 
REMARK    8  A    between atoms: N12_36  and  C12_38 
REMARK    9  A    between atoms: C12_38  and  C13_39 
REMARK   10  A    between atoms: C12_38  and  C14_42 
REMARK   11  A    between atoms: C13_39  and  O4_40 
REMARK   12  A    between atoms: C17_45  and  O5_46 
ROOT
HETATM    1  C1  UNL     1     363.987 239.616 188.553  1.00  0.00     0.705 A 
HETATM    2  N2  UNL     1     364.902 240.192 189.355  1.00  0.00    -0.018 N 
ATOM      3  H2  UNL     1     364.706 241.098 189.779  1.00  0.00     0.203 HD
HETATM    4  C2  UNL     1     366.070 239.577 189.599  1.00  0.00     0.749 A 
HETATM    5  N11 UNL     1     366.273 238.378 189.010  1.00  0.00    -0.018 N 
ATOM      6  H11 UNL     1     367.154 237.893 189.181  1.00  0.00     0.203 HD
HETATM    7  C11 UNL     1     365.368 237.799 188.211  1.00  0.00     0.708 A 
HETATM    8  N13 UNL     1     364.182 238.427 187.965  1.00  0.00    -0.022 N 
ATOM      9  H13 UNL     1     363.474 238.009 187.361  1.00  0.00     0.203 HD
ENDROOT
BRANCH   4  10
HETATM   10  N3  UNL     1     367.077 240.161 190.453  1.00  0.00    -0.003 N 
HETATM   11  N4  UNL     1     367.785 239.525 191.368  1.00  0.00    -0.204 N 
HETATM   12  N5  UNL     1     368.605 240.379 191.949  1.00  0.00    -0.263 N 
ATOM     13  H4  UNL     1     367.709 238.532 191.591  1.00  0.00     0.211 HD
HETATM   14  C3  UNL     1     368.428 241.594 191.403  1.00  0.00     0.209 A 
ATOM     15  H5  UNL     1     369.266 240.154 192.692  1.00  0.00     0.190 HD
HETATM   16  N10 UNL     1     367.472 241.420 190.477  1.00  0.00    -0.242 N 
ATOM     17  H10 UNL     1     367.102 242.158 189.877  1.00  0.00     0.191 HD
BRANCH  14  18
HETATM   18  C4  UNL     1     369.139 242.816 191.762  1.00  0.00     0.306 C 
HETATM   19  O1  UNL     1     368.551 243.688 192.444  1.00  0.00    -0.262 OA
HETATM   20  N6  UNL     1     370.492 242.982 191.319  1.00  0.00    -0.264 N 
ATOM     21  H6  UNL     1     370.955 242.263 190.763  1.00  0.00     0.190 HD
BRANCH  20  22
HETATM   22  N7  UNL     1     371.151 244.144 191.668  1.00  0.00    -0.307 N 
HETATM   23  C5  UNL     1     371.266 245.169 190.903  1.00  0.00     0.136 C 
ATOM     24  H7  UNL     1     371.575 244.193 192.594  1.00  0.00     0.186 HD
BRANCH  23  25
HETATM   25  C6  UNL     1     371.972 246.370 191.318  1.00  0.00     0.051 A 
HETATM   26  C7  UNL     1     372.866 246.348 192.380  1.00  0.00     0.067 A 
HETATM   27  C8  UNL     1     373.553 247.458 192.807  1.00  0.00     0.106 A 
HETATM   28  C9  UNL     1     373.357 248.652 192.161  1.00  0.00     0.053 A 
HETATM   29  C10 UNL     1     372.464 248.664 191.104  1.00  0.00     0.091 A 
HETATM   30  N9  UNL     1     371.806 247.558 190.711  1.00  0.00    -0.365 N 
ATOM     31  H9  UNL     1     371.159 247.623 189.925  1.00  0.00     0.165 HD
BRANCH  27  32
HETATM   32  N8  UNL     1     374.466 247.426 193.896  1.00  0.00    -0.116 N 
HETATM   33  O2  UNL     1     374.141 247.672 195.062  1.00  0.00    -0.532 OA
HETATM   34  O3  UNL     1     375.795 247.102 193.638  1.00  0.00    -0.532 OA
ENDBRANCH  27  32
ENDBRANCH  23  25
ENDBRANCH  20  22
ENDBRANCH  14  18
ENDBRANCH   4  10
BRANCH   1  35
HETATM   35  N1  UNL     1     362.852 240.200 188.309  1.00  0.00    -0.234 N 
ATOM     36  H12 UNL     1     362.522 240.860 189.014  1.00  0.00     0.174 HD
ATOM     37  H11 UNL     1     362.333 239.999 187.454  1.00  0.00     0.174 HD
ENDBRANCH   1  35
BRANCH   7  38
HETATM   38  N12 UNL     1     365.540 236.666 187.643  1.00  0.00    -0.214 N 
ATOM     39  H12 UNL     1     366.488 236.332 187.472  1.00  0.00     0.178 HD
BRANCH  38  40
HETATM   40  C12 UNL     1     364.396 235.838 187.234  1.00  0.00     0.156 C 
BRANCH  40  41
HETATM   41  C13 UNL     1     363.994 235.037 188.414  1.00  0.00     0.194 C 
BRANCH  41  42
HETATM   42  O4  UNL     1     362.857 235.471 189.073  1.00  0.00    -0.398 OA
ATOM     43  H4  UNL     1     362.047 235.408 188.580  1.00  0.00     0.209 HD
ENDBRANCH  41  42
ENDBRANCH  40  41
BRANCH  40  44
HETATM   44  C14 UNL     1     364.935 235.010 186.116  1.00  0.00    -0.033 A 
HETATM   45  C15 UNL     1     364.898 235.347 184.794  1.00  0.00     0.012 A 
HETATM   46  C16 UNL     1     365.421 234.543 183.791  1.00  0.00     0.037 A 
HETATM   47  C17 UNL     1     366.010 233.345 184.128  1.00  0.00     0.065 A 
HETATM   48  C18 UNL     1     366.067 232.968 185.454  1.00  0.00     0.037 A 
HETATM   49  C19 UNL     1     365.541 233.783 186.428  1.00  0.00     0.012 A 
BRANCH  47  50
HETATM   50  O5  UNL     1     366.553 232.496 183.163  1.00  0.00    -0.361 OA
ATOM     51  H5  UNL     1     366.977 231.678 183.398  1.00  0.00     0.217 HD
ENDBRANCH  47  50
ENDBRANCH  40  44
ENDBRANCH  38  40
ENDBRANCH   7  38
TORSDOF 12
ENDMDL
MODEL 3
REMARK VINA RESULT: -9.505915109      3.200     13.188
REMARK  12 active torsions:
REMARK  status: ('A' for Active; 'I' for Inactive)
REMARK    1  A    between atoms: N1_1  and  C1_4 
REMARK    2  A    between atoms: C2_7  and  N3_8 
REMARK    3  A    between atoms: C3_13  and  C4_14 
REMARK       I    between atoms: C4_14  and  N6_16 
REMARK    4  A    between atoms: N6_16  and  N7_18 
REMARK    5  A    between atoms: C5_20  and  C6_21 
REMARK    6  A    between atoms: C8_23  and  N8_24 
REMARK    7  A    between atoms: C11_35  and  N12_36 
REMARK    8  A    between atoms: N12_36  and  C12_38 
REMARK    9  A    between atoms: C12_38  and  C13_39 
REMARK   10  A    between atoms: C12_38  and  C14_42 
REMARK   11  A    between atoms: C13_39  and  O4_40 
REMARK   12  A    between atoms: C17_45  and  O5_46 
ROOT
HETATM    1  C1  UNL     1     365.275 238.822 190.134  1.00  0.00     0.705 A 
HETATM    2  N2  UNL     1     365.288 237.610 189.548  1.00  0.00    -0.018 N 
ATOM      3  H2  UNL     1     365.415 236.773 190.117  1.00  0.00     0.203 HD
HETATM    4  C2  UNL     1     365.135 237.499 188.219  1.00  0.00     0.749 A 
HETATM    5  N11 UNL     1     364.971 238.643 187.518  1.00  0.00    -0.018 N 
ATOM      6  H11 UNL     1     364.853 238.583 186.507  1.00  0.00     0.203 HD
HETATM    7  C11 UNL     1     364.957 239.852 188.094  1.00  0.00     0.708 A 
HETATM    8  N13 UNL     1     365.112 239.960 189.445  1.00  0.00    -0.022 N 
ATOM      9  H13 UNL     1     365.105 240.868 189.910  1.00  0.00     0.203 HD
ENDROOT
BRANCH   4  10
HETATM   10  N3  UNL     1     365.144 236.218 187.553  1.00  0.00    -0.003 N 
HETATM   11  N4  UNL     1     364.629 235.096 188.020  1.00  0.00    -0.204 N 
HETATM   12  N5  UNL     1     364.824 234.134 187.138  1.00  0.00    -0.263 N 
ATOM     13  H4  UNL     1     364.157 234.990 188.918  1.00  0.00     0.211 HD
HETATM   14  C3  UNL     1     365.478 234.639 186.079  1.00  0.00     0.209 A 
ATOM     15  H5  UNL     1     364.526 233.164 187.244  1.00  0.00     0.190 HD
HETATM   16  N10 UNL     1     365.660 235.936 186.372  1.00  0.00    -0.242 N 
ATOM     17  H10 UNL     1     366.130 236.609 185.766  1.00  0.00     0.191 HD
BRANCH  14  18
HETATM   18  C4  UNL     1     365.886 233.907 184.885  1.00  0.00     0.306 C 
HETATM   19  O1  UNL     1     365.375 234.207 183.779  1.00  0.00    -0.262 OA
HETATM   20  N6  UNL     1     366.860 232.864 185.015  1.00  0.00    -0.264 N 
ATOM     21  H6  UNL     1     367.264 232.633 185.921  1.00  0.00     0.190 HD
BRANCH  20  22
HETATM   22  N7  UNL     1     367.236 232.181 183.874  1.00  0.00    -0.307 N 
HETATM   23  C5  UNL     1     367.640 230.963 183.860  1.00  0.00     0.136 C 
ATOM     24  H7  UNL     1     367.189 232.678 182.984  1.00  0.00     0.186 HD
BRANCH  23  25
HETATM   25  C6  UNL     1     368.025 230.290 182.631  1.00  0.00     0.051 A 
HETATM   26  C7  UNL     1     367.793 228.933 182.450  1.00  0.00     0.067 A 
HETATM   27  C8  UNL     1     368.140 228.256 181.307  1.00  0.00     0.106 A 
HETATM   28  C9  UNL     1     368.745 228.942 180.285  1.00  0.00     0.053 A 
HETATM   29  C10 UNL     1     368.973 230.294 180.474  1.00  0.00     0.091 A 
HETATM   30  N9  UNL     1     368.621 230.927 181.607  1.00  0.00    -0.365 N 
ATOM     31  H9  UNL     1     368.812 231.926 181.693  1.00  0.00     0.165 HD
BRANCH  27  32
HETATM   32  N8  UNL     1     367.899 226.867 181.131  1.00  0.00    -0.116 N 
HETATM   33  O2  UNL     1     368.386 226.204 180.210  1.00  0.00    -0.532 OA
HETATM   34  O3  UNL     1     367.071 226.217 182.042  1.00  0.00    -0.532 OA
ENDBRANCH  27  32
ENDBRANCH  23  25
ENDBRANCH  20  22
ENDBRANCH  14  18
ENDBRANCH   4  10
BRANCH   1  35
HETATM   35  N1  UNL     1     365.422 238.943 191.420  1.00  0.00    -0.234 N 
ATOM     36  H12 UNL     1     365.879 238.165 191.898  1.00  0.00     0.174 HD
ATOM     37  H11 UNL     1     365.094 239.776 191.908  1.00  0.00     0.174 HD
ENDBRANCH   1  35
BRANCH   7  38
HETATM   38  N12 UNL     1     364.803 240.945 187.450  1.00  0.00    -0.214 N 
ATOM     39  H12 UNL     1     364.921 240.950 186.437  1.00  0.00     0.178 HD
BRANCH  38  40
HETATM   40  C12 UNL     1     364.460 242.196 188.142  1.00  0.00     0.156 C 
BRANCH  40  41
HETATM   41  C13 UNL     1     363.116 242.603 187.667  1.00  0.00     0.194 C 
BRANCH  41  42
HETATM   42  O4  UNL     1     362.388 241.620 187.019  1.00  0.00    -0.398 OA
ATOM     43  H4  UNL     1     362.693 241.388 186.150  1.00  0.00     0.209 HD
ENDBRANCH  41  42
ENDBRANCH  40  41
BRANCH  40  44
HETATM   44  C14 UNL     1     365.540 243.141 187.735  1.00  0.00    -0.033 A 
HETATM   45  C15 UNL     1     365.934 243.386 186.452  1.00  0.00     0.012 A 
HETATM   46  C16 UNL     1     366.941 244.282 186.125  1.00  0.00     0.037 A 
HETATM   47  C17 UNL     1     367.586 244.965 187.132  1.00  0.00     0.065 A 
HETATM   48  C18 UNL     1     367.218 244.745 188.443  1.00  0.00     0.037 A 
HETATM   49  C19 UNL     1     366.216 243.852 188.739  1.00  0.00     0.012 A 
BRANCH  47  50
HETATM   50  O5  UNL     1     368.607 245.879 186.864  1.00  0.00    -0.361 OA
ATOM     51  H5  UNL     1     369.236 246.135 187.529  1.00  0.00     0.217 HD
ENDBRANCH  47  50
ENDBRANCH  40  44
ENDBRANCH  38  40
ENDBRANCH   7  38
TORSDOF 12
ENDMDL
MODEL 4
REMARK VINA RESULT: -9.388545089      3.526      4.968
REMARK  12 active torsions:
REMARK  status: ('A' for Active; 'I' for Inactive)
REMARK    1  A    between atoms: N1_1  and  C1_4 
REMARK    2  A    between atoms: C2_7  and  N3_8 
REMARK    3  A    between atoms: C3_13  and  C4_14 
REMARK       I    between atoms: C4_14  and  N6_16 
REMARK    4  A    between atoms: N6_16  and  N7_18 
REMARK    5  A    between atoms: C5_20  and  C6_21 
REMARK    6  A    between atoms: C8_23  and  N8_24 
REMARK    7  A    between atoms: C11_35  and  N12_36 
REMARK    8  A    between atoms: N12_36  and  C12_38 
REMARK    9  A    between atoms: C12_38  and  C13_39 
REMARK   10  A    between atoms: C12_38  and  C14_42 
REMARK   11  A    between atoms: C13_39  and  O4_40 
REMARK   12  A    between atoms: C17_45  and  O5_46 
ROOT
HETATM    1  C1  UNL     1     366.421 236.357 182.950  1.00  0.00     0.705 A 
HETATM    2  N2  UNL     1     366.179 237.241 183.935  1.00  0.00    -0.018 N 
ATOM      3  H2  UNL     1     366.129 238.237 183.723  1.00  0.00     0.203 HD
HETATM    4  C2  UNL     1     366.004 236.818 185.198  1.00  0.00     0.749 A 
HETATM    5  N11 UNL     1     366.082 235.487 185.419  1.00  0.00    -0.018 N 
ATOM      6  H11 UNL     1     365.952 235.142 186.370  1.00  0.00     0.203 HD
HETATM    7  C11 UNL     1     366.322 234.601 184.444  1.00  0.00     0.708 A 
HETATM    8  N13 UNL     1     366.499 235.036 183.163  1.00  0.00    -0.022 N 
ATOM      9  H13 UNL     1     366.683 234.383 182.401  1.00  0.00     0.203 HD
ENDROOT
BRANCH   4  10
HETATM   10  N3  UNL     1     365.744 237.734 186.282  1.00  0.00    -0.003 N 
HETATM   11  N4  UNL     1     365.391 239.001 186.162  1.00  0.00    -0.204 N 
HETATM   12  N5  UNL     1     365.239 239.521 187.365  1.00  0.00    -0.263 N 
ATOM     13  H4  UNL     1     365.258 239.497 185.281  1.00  0.00     0.211 HD
HETATM   14  C3  UNL     1     365.498 238.576 188.285  1.00  0.00     0.209 A 
ATOM     15  H5  UNL     1     364.969 240.484 187.564  1.00  0.00     0.190 HD
HETATM   16  N10 UNL     1     365.807 237.480 187.575  1.00  0.00    -0.242 N 
ATOM     17  H10 UNL     1     366.057 236.576 187.979  1.00  0.00     0.191 HD
BRANCH  14  18
HETATM   18  C4  UNL     1     365.444 238.741 189.733  1.00  0.00     0.306 C 
HETATM   19  O1  UNL     1     366.334 238.213 190.442  1.00  0.00    -0.262 OA
HETATM   20  N6  UNL     1     364.370 239.502 190.301  1.00  0.00    -0.264 N 
ATOM     21  H6  UNL     1     363.655 239.923 189.710  1.00  0.00     0.190 HD
BRANCH  20  22
HETATM   22  N7  UNL     1     364.334 239.648 191.674  1.00  0.00    -0.307 N 
HETATM   23  C5  UNL     1     363.526 240.426 192.298  1.00  0.00     0.136 C 
ATOM     24  H7  UNL     1     364.994 239.103 192.229  1.00  0.00     0.186 HD
BRANCH  23  25
HETATM   25  C6  UNL     1     363.530 240.544 193.747  1.00  0.00     0.051 A 
HETATM   26  C7  UNL     1     363.266 239.450 194.559  1.00  0.00     0.067 A 
HETATM   27  C8  UNL     1     363.258 239.515 195.930  1.00  0.00     0.106 A 
HETATM   28  C9  UNL     1     363.523 240.715 196.541  1.00  0.00     0.053 A 
HETATM   29  C10 UNL     1     363.784 241.801 195.724  1.00  0.00     0.091 A 
HETATM   30  N9  UNL     1     363.783 241.702 194.382  1.00  0.00    -0.365 N 
ATOM     31  H9  UNL     1     363.983 242.535 193.827  1.00  0.00     0.165 HD
BRANCH  27  32
HETATM   32  N8  UNL     1     362.987 238.389 196.754  1.00  0.00    -0.116 N 
HETATM   33  O2  UNL     1     361.977 237.688 196.634  1.00  0.00    -0.532 OA
HETATM   34  O3  UNL     1     363.904 238.057 197.747  1.00  0.00    -0.532 OA
ENDBRANCH  27  32
ENDBRANCH  23  25
ENDBRANCH  20  22
ENDBRANCH  14  18
ENDBRANCH   4  10
BRANCH   1  35
HETATM   35  N1  UNL     1     366.592 236.754 181.725  1.00  0.00    -0.234 N 
ATOM     36  H12 UNL     1     367.344 237.425 181.568  1.00  0.00     0.174 HD
ATOM     37  H11 UNL     1     365.998 236.403 180.973  1.00  0.00     0.174 HD
ENDBRANCH   1  35
BRANCH   7  38
HETATM   38  N12 UNL     1     366.399 233.339 184.632  1.00  0.00    -0.214 N 
ATOM     39  H12 UNL     1     367.312 232.885 184.612  1.00  0.00     0.178 HD
BRANCH  38  40
HETATM   40  C12 UNL     1     365.196 232.529 184.877  1.00  0.00     0.156 C 
BRANCH  40  41
HETATM   41  C13 UNL     1     364.073 233.194 184.175  1.00  0.00     0.194 C 
BRANCH  41  42
HETATM   42  O4  UNL     1     363.698 232.623 182.971  1.00  0.00    -0.398 OA
ATOM     43  H4  UNL     1     363.730 233.198 182.215  1.00  0.00     0.209 HD
ENDBRANCH  41  42
ENDBRANCH  40  41
BRANCH  40  44
HETATM   44  C14 UNL     1     365.052 232.541 186.362  1.00  0.00    -0.033 A 
HETATM   45  C15 UNL     1     363.885 232.731 187.042  1.00  0.00     0.012 A 
HETATM   46  C16 UNL     1     363.804 232.724 188.428  1.00  0.00     0.037 A 
HETATM   47  C17 UNL     1     364.947 232.518 189.167  1.00  0.00     0.065 A 
HETATM   48  C18 UNL     1     366.148 232.322 188.517  1.00  0.00     0.037 A 
HETATM   49  C19 UNL     1     366.200 232.333 187.143  1.00  0.00     0.012 A 
BRANCH  47  50
HETATM   50  O5  UNL     1     364.926 232.501 190.562  1.00  0.00    -0.361 OA
ATOM     51  H5  UNL     1     365.271 231.767 191.058  1.00  0.00     0.217 HD
ENDBRANCH  47  50
ENDBRANCH  40  44
ENDBRANCH  38  40
ENDBRANCH   7  38
TORSDOF 12
ENDMDL
MODEL 5
REMARK VINA RESULT: -9.273655673      2.210     13.375
REMARK  12 active torsions:
REMARK  status: ('A' for Active; 'I' for Inactive)
REMARK    1  A    between atoms: N1_1  and  C1_4 
REMARK    2  A    between atoms: C2_7  and  N3_8 
REMARK    3  A    between atoms: C3_13  and  C4_14 
REMARK       I    between atoms: C4_14  and  N6_16 
REMARK    4  A    between atoms: N6_16  and  N7_18 
REMARK    5  A    between atoms: C5_20  and  C6_21 
REMARK    6  A    between atoms: C8_23  and  N8_24 
REMARK    7  A    between atoms: C11_35  and  N12_36 
REMARK    8  A    between atoms: N12_36  and  C12_38 
REMARK    9  A    between atoms: C12_38  and  C13_39 
REMARK   10  A    between atoms: C12_38  and  C14_42 
REMARK   11  A    between atoms: C13_39  and  O4_40 
REMARK   12  A    between atoms: C17_45  and  O5_46 
ROOT
HETATM    1  C1  UNL     1     365.034 239.939 188.096  1.00  0.00     0.705 A 
HETATM    2  N2  UNL     1     365.023 238.738 187.488  1.00  0.00    -0.018 N 
ATOM      3  H2  UNL     1     364.916 238.683 186.475  1.00  0.00     0.203 HD
HETATM    4  C2  UNL     1     365.152 237.613 188.209  1.00  0.00     0.749 A 
HETATM    5  N11 UNL     1     365.291 237.748 189.547  1.00  0.00    -0.018 N 
ATOM      6  H11 UNL     1     365.391 236.907 190.115  1.00  0.00     0.203 HD
HETATM    7  C11 UNL     1     365.303 238.939 190.158  1.00  0.00     0.708 A 
HETATM    8  N13 UNL     1     365.171 240.080 189.422  1.00  0.00    -0.022 N 
ATOM      9  H13 UNL     1     365.177 241.000 189.862  1.00  0.00     0.203 HD
ENDROOT
BRANCH   4  10
HETATM   10  N3  UNL     1     365.145 236.306 187.595  1.00  0.00    -0.003 N 
HETATM   11  N4  UNL     1     364.696 235.192 188.143  1.00  0.00    -0.204 N 
HETATM   12  N5  UNL     1     364.851 234.200 187.287  1.00  0.00    -0.263 N 
ATOM     13  H4  UNL     1     364.296 235.112 189.077  1.00  0.00     0.211 HD
HETATM   14  C3  UNL     1     365.411 234.676 186.163  1.00  0.00     0.209 A 
ATOM     15  H5  UNL     1     364.588 233.228 187.453  1.00  0.00     0.190 HD
HETATM   16  N10 UNL     1     365.579 235.988 186.390  1.00  0.00    -0.242 N 
ATOM     17  H10 UNL     1     365.985 236.646 185.725  1.00  0.00     0.191 HD
BRANCH  14  18
HETATM   18  C4  UNL     1     365.748 233.905 184.971  1.00  0.00     0.306 C 
HETATM   19  O1  UNL     1     365.248 234.234 183.869  1.00  0.00    -0.262 OA
HETATM   20  N6  UNL     1     366.642 232.792 185.099  1.00  0.00    -0.264 N 
ATOM     21  H6  UNL     1     367.037 232.538 186.004  1.00  0.00     0.190 HD
BRANCH  20  22
HETATM   22  N7  UNL     1     366.951 232.074 183.961  1.00  0.00    -0.307 N 
HETATM   23  C5  UNL     1     367.706 231.036 183.943  1.00  0.00     0.136 C 
ATOM     24  H7  UNL     1     366.553 232.388 183.076  1.00  0.00     0.186 HD
BRANCH  23  25
HETATM   25  C6  UNL     1     368.001 230.315 182.716  1.00  0.00     0.051 A 
HETATM   26  C7  UNL     1     367.707 228.964 182.586  1.00  0.00     0.067 A 
HETATM   27  C8  UNL     1     367.969 228.244 181.447  1.00  0.00     0.106 A 
HETATM   28  C9  UNL     1     368.548 228.877 180.377  1.00  0.00     0.053 A 
HETATM   29  C10 UNL     1     368.838 230.223 180.516  1.00  0.00     0.091 A 
HETATM   30  N9  UNL     1     368.569 230.900 181.646  1.00  0.00    -0.365 N 
ATOM     31  H9  UNL     1     368.803 231.892 181.694  1.00  0.00     0.165 HD
BRANCH  27  32
HETATM   32  N8  UNL     1     367.665 226.861 181.324  1.00  0.00    -0.116 N 
HETATM   33  O2  UNL     1     367.011 226.232 182.162  1.00  0.00    -0.532 OA
HETATM   34  O3  UNL     1     368.126 226.178 180.202  1.00  0.00    -0.532 OA
ENDBRANCH  27  32
ENDBRANCH  23  25
ENDBRANCH  20  22
ENDBRANCH  14  18
ENDBRANCH   4  10
BRANCH   1  35
HETATM   35  N1  UNL     1     364.910 241.035 187.410  1.00  0.00    -0.234 N 
ATOM     36  H12 UNL     1     364.639 241.868 187.933  1.00  0.00     0.174 HD
ATOM     37  H11 UNL     1     365.078 241.045 186.404  1.00  0.00     0.174 HD
ENDBRANCH   1  35
BRANCH   7  38
HETATM   38  N12 UNL     1     365.432 239.089 191.422  1.00  0.00    -0.214 N 
ATOM     39  H12 UNL     1     365.884 238.357 191.969  1.00  0.00     0.178 HD
BRANCH  38  40
HETATM   40  C12 UNL     1     364.942 240.298 192.100  1.00  0.00     0.156 C 
BRANCH  40  41
HETATM   41  C13 UNL     1     366.059 241.272 192.117  1.00  0.00     0.194 C 
BRANCH  41  42
HETATM   42  O4  UNL     1     367.330 240.725 192.060  1.00  0.00    -0.398 OA
ATOM     43  H4  UNL     1     367.763 240.602 192.896  1.00  0.00     0.209 HD
ENDBRANCH  41  42
ENDBRANCH  40  41
BRANCH  40  44
HETATM   44  C14 UNL     1     364.557 239.817 193.458  1.00  0.00    -0.033 A 
HETATM   45  C15 UNL     1     365.220 238.866 194.178  1.00  0.00     0.012 A 
HETATM   46  C16 UNL     1     364.824 238.460 195.444  1.00  0.00     0.037 A 
HETATM   47  C17 UNL     1     363.710 239.032 196.017  1.00  0.00     0.065 A 
HETATM   48  C18 UNL     1     363.012 239.997 195.321  1.00  0.00     0.037 A 
HETATM   49  C19 UNL     1     363.426 240.382 194.069  1.00  0.00     0.012 A 
BRANCH  47  50
HETATM   50  O5  UNL     1     363.265 238.662 197.287  1.00  0.00    -0.361 OA
ATOM     51  H5  UNL     1     363.544 239.125 198.068  1.00  0.00     0.217 HD
ENDBRANCH  47  50
ENDBRANCH  40  44
ENDBRANCH  38  40
ENDBRANCH   7  38
TORSDOF 12
ENDMDL
