MODEL 1
REMARK VINA RESULT: -9.868442227      0.000      0.000
REMARK  10 active torsions:
REMARK  status: ('A' for Active; 'I' for Inactive)
REMARK    1  A    between atoms: C5_8  and  C6_9 
REMARK    2  A    between atoms: C6_9  and  N3_10 
REMARK    3  A    between atoms: N3_10  and  N4_11 
REMARK       I    between atoms: N4_11  and  C7_13 
REMARK    4  A    between atoms: C7_13  and  C8_15 
REMARK    5  A    between atoms: C8_15  and  N5_16 
REMARK    6  A    between atoms: N5_16  and  N6_18 
REMARK    7  A    between atoms: N6_18  and  C9_20 
REMARK    8  A    between atoms: C13_26  and  N8_27 
REMARK    9  A    between atoms: N13_41  and  N14_42 
REMARK   10  A    between atoms: C17_45  and  C18_46 
ROOT
HETATM    1  C1  UNL     1     364.532 232.440 189.261  1.00  0.00     0.069 C 
HETATM    2  C2  UNL     1     364.842 233.266 188.057  1.00  0.00     0.024 A 
HETATM    3  N1  UNL     1     365.225 232.836 186.855  1.00  0.00    -0.350 N 
ATOM      4  H1  UNL     1     365.419 231.862 186.625  1.00  0.00     0.166 HD
HETATM    5  C3  UNL     1     365.324 233.855 185.990  1.00  0.00     0.128 A 
HETATM    6  C4  UNL     1     365.749 233.723 184.592  1.00  0.00     0.118 C 
HETATM    7  N2  UNL     1     366.097 233.584 183.483  1.00  0.00    -0.190 NA
HETATM    8  C5  UNL     1     364.999 235.009 186.621  1.00  0.00     0.051 A 
HETATM    9  C17 UNL     1     364.691 234.648 187.957  1.00  0.00     0.078 A 
ENDROOT
BRANCH   8  10
HETATM   10  C6  UNL     1     364.542 236.281 186.027  1.00  0.00     0.224 C 
BRANCH  10  11
HETATM   11  N3  UNL     1     364.890 237.320 186.451  1.00  0.00    -0.335 NA
BRANCH  11  12
HETATM   12  N4  UNL     1     365.382 238.414 186.986  1.00  0.00    -0.198 N 
HETATM   13  C7  UNL     1     364.309 239.173 187.728  1.00  0.00     0.302 C 
HETATM   14  O1  UNL     1     363.151 238.612 187.714  1.00  0.00    -0.263 OA
ATOM     15  H4  UNL     1     366.355 238.710 186.911  1.00  0.00     0.205 HD
BRANCH  13  16
HETATM   16  C8  UNL     1     364.503 240.407 188.425  1.00  0.00     0.168 C 
HETATM   17  C16 UNL     1     364.279 241.627 187.705  1.00  0.00     0.196 A 
HETATM   18  N10 UNL     1     365.114 242.303 186.914  1.00  0.00    -0.265 N 
HETATM   19  N13 UNL     1     363.107 242.357 187.742  1.00  0.00    -0.167 N 
HETATM   20  N11 UNL     1     364.516 243.394 186.477  1.00  0.00    -0.225 N 
ATOM     21  H10 UNL     1     366.067 242.021 186.684  1.00  0.00     0.190 HD
HETATM   22  N12 UNL     1     363.317 243.413 186.986  1.00  0.00    -0.205 N 
ATOM     23  H11 UNL     1     364.919 244.095 185.854  1.00  0.00     0.210 HD
ATOM     24  H12 UNL     1     362.631 244.149 186.820  1.00  0.00     0.212 HD
BRANCH  16  25
HETATM   25  N5  UNL     1     365.591 240.258 189.366  1.00  0.00    -0.278 N 
ATOM     26  H5  UNL     1     366.245 239.476 189.301  1.00  0.00     0.188 HD
BRANCH  25  27
HETATM   27  N6  UNL     1     365.715 241.219 190.364  1.00  0.00    -0.131 N 
ATOM     28  H6  UNL     1     366.053 242.156 190.145  1.00  0.00     0.205 HD
BRANCH  27  29
HETATM   29  C9  UNL     1     365.389 240.900 191.587  1.00  0.00     0.698 A 
HETATM   30  N7  UNL     1     365.132 241.821 192.516  1.00  0.00    -0.188 N 
HETATM   31  C10 UNL     1     364.739 241.166 193.633  1.00  0.00     0.076 A 
ATOM     32  H7  UNL     1     365.215 242.832 192.406  1.00  0.00     0.184 HD
HETATM   33  C11 UNL     1     364.331 241.591 194.872  1.00  0.00     0.035 A 
HETATM   34  C15 UNL     1     364.769 239.799 193.350  1.00  0.00     0.079 A 
HETATM   35  C12 UNL     1     363.958 240.687 195.837  1.00  0.00     0.038 A 
HETATM   36  C13 UNL     1     363.997 239.345 195.553  1.00  0.00     0.105 A 
HETATM   37  C14 UNL     1     364.401 238.883 194.312  1.00  0.00     0.068 A 
HETATM   38  N9  UNL     1     365.176 239.684 192.077  1.00  0.00    -0.188 N 
ATOM     39  H9  UNL     1     365.301 238.808 191.570  1.00  0.00     0.184 HD
BRANCH  36  40
HETATM   40  N8  UNL     1     363.576 238.385 196.505  1.00  0.00    -0.116 N 
HETATM   41  O2  UNL     1     364.293 238.102 197.467  1.00  0.00    -0.532 OA
HETATM   42  O3  UNL     1     362.363 237.734 196.374  1.00  0.00    -0.532 OA
ENDBRANCH  36  40
ENDBRANCH  27  29
ENDBRANCH  25  27
ENDBRANCH  16  25
BRANCH  19  43
HETATM   43  N14 UNL     1     361.925 242.044 188.451  1.00  0.00    -0.321 N 
ATOM     44 2H14 UNL     1     361.499 242.588 189.202  1.00  0.00     0.179 HD
ATOM     45 1H14 UNL     1     361.324 241.230 188.323  1.00  0.00     0.179 HD
ENDBRANCH  19  43
ENDBRANCH  13  16
ENDBRANCH  11  12
ENDBRANCH  10  11
ENDBRANCH   8  10
BRANCH   9  46
HETATM   46  C18 UNL     1     364.166 235.521 188.974  1.00  0.00     0.212 C 
HETATM   47  O4  UNL     1     364.766 236.418 189.597  1.00  0.00    -0.644 OA
HETATM   48  O5  UNL     1     362.809 235.388 189.334  1.00  0.00    -0.644 OA
ENDBRANCH   9  46
TORSDOF 10
ENDMDL
MODEL 2
REMARK VINA RESULT: -9.850973001      1.913      2.674
REMARK  10 active torsions:
REMARK  status: ('A' for Active; 'I' for Inactive)
REMARK    1  A    between atoms: C5_8  and  C6_9 
REMARK    2  A    between atoms: C6_9  and  N3_10 
REMARK    3  A    between atoms: N3_10  and  N4_11 
REMARK       I    between atoms: N4_11  and  C7_13 
REMARK    4  A    between atoms: C7_13  and  C8_15 
REMARK    5  A    between atoms: C8_15  and  N5_16 
REMARK    6  A    between atoms: N5_16  and  N6_18 
REMARK    7  A    between atoms: N6_18  and  C9_20 
REMARK    8  A    between atoms: C13_26  and  N8_27 
REMARK    9  A    between atoms: N13_41  and  N14_42 
REMARK   10  A    between atoms: C17_45  and  C18_46 
ROOT
HETATM    1  C1  UNL     1     367.949 231.984 185.430  1.00  0.00     0.069 C 
HETATM    2  C2  UNL     1     366.854 232.423 186.344  1.00  0.00     0.024 A 
HETATM    3  N1  UNL     1     366.617 232.004 187.586  1.00  0.00    -0.350 N 
ATOM      4  H1  UNL     1     367.137 231.262 188.055  1.00  0.00     0.166 HD
HETATM    5  C3  UNL     1     365.604 232.686 188.139  1.00  0.00     0.128 A 
HETATM    6  C4  UNL     1     365.077 232.449 189.487  1.00  0.00     0.118 C 
HETATM    7  N2  UNL     1     364.676 232.230 190.565  1.00  0.00    -0.190 NA
HETATM    8  C5  UNL     1     365.139 233.593 187.247  1.00  0.00     0.051 A 
HETATM    9  C17 UNL     1     365.931 233.435 186.081  1.00  0.00     0.078 A 
ENDROOT
BRANCH   8  10
HETATM   10  C6  UNL     1     364.371 234.826 187.510  1.00  0.00     0.224 C 
BRANCH  10  11
HETATM   11  N3  UNL     1     364.844 235.737 188.082  1.00  0.00    -0.335 NA
BRANCH  11  12
HETATM   12  N4  UNL     1     365.334 236.833 188.615  1.00  0.00    -0.198 N 
HETATM   13  C7  UNL     1     364.457 238.020 188.294  1.00  0.00     0.302 C 
HETATM   14  O1  UNL     1     363.415 237.738 187.595  1.00  0.00    -0.263 OA
ATOM     15  H4  UNL     1     366.189 236.877 189.168  1.00  0.00     0.205 HD
BRANCH  13  16
HETATM   16  C8  UNL     1     364.701 239.364 188.718  1.00  0.00     0.168 C 
HETATM   17  C16 UNL     1     364.082 240.424 187.975  1.00  0.00     0.196 A 
HETATM   18  N10 UNL     1     364.504 241.030 186.864  1.00  0.00    -0.265 N 
HETATM   19  N13 UNL     1     362.901 241.046 188.330  1.00  0.00    -0.167 N 
HETATM   20  N11 UNL     1     363.649 241.977 186.531  1.00  0.00    -0.225 N 
ATOM     21  H10 UNL     1     365.354 240.797 186.351  1.00  0.00     0.190 HD
HETATM   22  N12 UNL     1     362.698 241.976 187.422  1.00  0.00    -0.205 N 
ATOM     23  H11 UNL     1     363.719 242.598 185.724  1.00  0.00     0.210 HD
ATOM     24  H12 UNL     1     361.902 242.612 187.417  1.00  0.00     0.212 HD
BRANCH  16  25
HETATM   25  N5  UNL     1     366.050 239.467 189.227  1.00  0.00    -0.278 N 
ATOM     26  H5  UNL     1     366.803 238.887 188.855  1.00  0.00     0.188 HD
BRANCH  25  27
HETATM   27  N6  UNL     1     366.285 240.386 190.245  1.00  0.00    -0.131 N 
ATOM     28  H6  UNL     1     366.919 241.171 190.101  1.00  0.00     0.205 HD
BRANCH  27  29
HETATM   29  C9  UNL     1     365.676 240.225 191.389  1.00  0.00     0.698 A 
HETATM   30  N7  UNL     1     364.631 240.972 191.748  1.00  0.00    -0.188 N 
HETATM   31  C10 UNL     1     364.183 240.492 192.931  1.00  0.00     0.076 A 
ATOM     32  H7  UNL     1     364.242 241.758 191.228  1.00  0.00     0.184 HD
HETATM   33  C11 UNL     1     363.138 240.842 193.747  1.00  0.00     0.035 A 
HETATM   34  C15 UNL     1     365.001 239.417 193.285  1.00  0.00     0.079 A 
HETATM   35  C12 UNL     1     362.891 240.154 194.909  1.00  0.00     0.038 A 
HETATM   36  C13 UNL     1     363.704 239.102 195.254  1.00  0.00     0.105 A 
HETATM   37  C14 UNL     1     364.766 238.721 194.451  1.00  0.00     0.068 A 
HETATM   38  N9  UNL     1     365.906 239.290 192.304  1.00  0.00    -0.188 N 
ATOM     39  H9  UNL     1     366.649 238.592 192.267  1.00  0.00     0.184 HD
BRANCH  36  40
HETATM   40  N8  UNL     1     363.454 238.338 196.419  1.00  0.00    -0.116 N 
HETATM   41  O2  UNL     1     364.330 238.197 197.274  1.00  0.00    -0.532 OA
HETATM   42  O3  UNL     1     362.233 237.723 196.620  1.00  0.00    -0.532 OA
ENDBRANCH  36  40
ENDBRANCH  27  29
ENDBRANCH  25  27
ENDBRANCH  16  25
BRANCH  19  43
HETATM   43  N14 UNL     1     362.079 240.753 189.442  1.00  0.00    -0.321 N 
ATOM     44 2H14 UNL     1     361.068 240.616 189.437  1.00  0.00     0.179 HD
ATOM     45 1H14 UNL     1     362.370 240.640 190.413  1.00  0.00     0.179 HD
ENDBRANCH  19  43
ENDBRANCH  13  16
ENDBRANCH  11  12
ENDBRANCH  10  11
ENDBRANCH   8  10
BRANCH   9  46
HETATM   46  C18 UNL     1     365.894 234.267 184.908  1.00  0.00     0.212 C 
HETATM   47  O4  UNL     1     366.421 235.383 184.744  1.00  0.00    -0.644 OA
HETATM   48  O5  UNL     1     365.195 233.796 183.776  1.00  0.00    -0.644 OA
ENDBRANCH   9  46
TORSDOF 10
ENDMDL
MODEL 3
REMARK VINA RESULT: -9.827219765      3.215      6.036
REMARK  10 active torsions:
REMARK  status: ('A' for Active; 'I' for Inactive)
REMARK    1  A    between atoms: C5_8  and  C6_9 
REMARK    2  A    between atoms: C6_9  and  N3_10 
REMARK    3  A    between atoms: N3_10  and  N4_11 
REMARK       I    between atoms: N4_11  and  C7_13 
REMARK    4  A    between atoms: C7_13  and  C8_15 
REMARK    5  A    between atoms: C8_15  and  N5_16 
REMARK    6  A    between atoms: N5_16  and  N6_18 
REMARK    7  A    between atoms: N6_18  and  C9_20 
REMARK    8  A    between atoms: C13_26  and  N8_27 
REMARK    9  A    between atoms: N13_41  and  N14_42 
REMARK   10  A    between atoms: C17_45  and  C18_46 
ROOT
HETATM    1  C1  UNL     1     368.121 231.704 185.058  1.00  0.00     0.069 C 
HETATM    2  C2  UNL     1     367.050 232.169 185.988  1.00  0.00     0.024 A 
HETATM    3  N1  UNL     1     366.903 231.860 187.275  1.00  0.00    -0.350 N 
ATOM      4  H1  UNL     1     367.490 231.197 187.781  1.00  0.00     0.166 HD
HETATM    5  C3  UNL     1     365.880 232.536 187.818  1.00  0.00     0.128 A 
HETATM    6  C4  UNL     1     365.438 232.402 189.210  1.00  0.00     0.118 C 
HETATM    7  N2  UNL     1     365.107 232.267 190.325  1.00  0.00    -0.190 NA
HETATM    8  C5  UNL     1     365.316 233.326 186.872  1.00  0.00     0.051 A 
HETATM    9  C17 UNL     1     366.055 233.098 185.684  1.00  0.00     0.078 A 
ENDROOT
BRANCH   8  10
HETATM   10  C6  UNL     1     364.490 234.534 187.062  1.00  0.00     0.224 C 
BRANCH  10  11
HETATM   11  N3  UNL     1     364.974 235.588 187.255  1.00  0.00    -0.335 NA
BRANCH  11  12
HETATM   12  N4  UNL     1     365.481 236.796 187.341  1.00  0.00    -0.198 N 
HETATM   13  C7  UNL     1     365.222 237.387 188.706  1.00  0.00     0.302 C 
HETATM   14  O1  UNL     1     364.588 236.610 189.512  1.00  0.00    -0.263 OA
ATOM     15  H4  UNL     1     365.980 237.270 186.589  1.00  0.00     0.205 HD
BRANCH  13  16
HETATM   16  C8  UNL     1     365.637 238.687 189.135  1.00  0.00     0.168 C 
HETATM   17  C16 UNL     1     365.461 239.025 190.518  1.00  0.00     0.196 A 
HETATM   18  N10 UNL     1     364.382 239.509 191.135  1.00  0.00    -0.265 N 
HETATM   19  N13 UNL     1     366.447 238.930 191.481  1.00  0.00    -0.167 N 
HETATM   20  N11 UNL     1     364.660 239.712 192.408  1.00  0.00    -0.225 N 
ATOM     21  H10 UNL     1     363.482 239.694 190.691  1.00  0.00     0.190 HD
HETATM   22  N12 UNL     1     365.902 239.364 192.596  1.00  0.00    -0.205 N 
ATOM     23  H11 UNL     1     364.021 240.075 193.115  1.00  0.00     0.210 HD
ATOM     24  H12 UNL     1     366.387 239.421 193.491  1.00  0.00     0.212 HD
BRANCH  16  25
HETATM   25  N5  UNL     1     365.397 239.639 188.073  1.00  0.00    -0.278 N 
ATOM     26  H5  UNL     1     366.158 240.187 187.671  1.00  0.00     0.188 HD
BRANCH  25  27
HETATM   27  N6  UNL     1     364.089 239.780 187.620  1.00  0.00    -0.131 N 
ATOM     28  H6  UNL     1     363.627 239.021 187.120  1.00  0.00     0.205 HD
BRANCH  27  29
HETATM   29  C9  UNL     1     363.464 240.904 187.846  1.00  0.00     0.698 A 
HETATM   30  N7  UNL     1     363.795 242.037 187.225  1.00  0.00    -0.188 N 
HETATM   31  C10 UNL     1     362.904 242.979 187.609  1.00  0.00     0.076 A 
ATOM     32  H7  UNL     1     364.575 242.168 186.581  1.00  0.00     0.184 HD
HETATM   33  C11 UNL     1     362.739 244.300 187.278  1.00  0.00     0.035 A 
HETATM   34  C15 UNL     1     362.011 242.377 188.497  1.00  0.00     0.079 A 
HETATM   35  C12 UNL     1     361.710 245.036 187.813  1.00  0.00     0.038 A 
HETATM   36  C13 UNL     1     360.840 244.437 188.691  1.00  0.00     0.105 A 
HETATM   37  C14 UNL     1     360.977 243.106 189.044  1.00  0.00     0.068 A 
HETATM   38  N9  UNL     1     362.396 241.097 188.612  1.00  0.00    -0.188 N 
ATOM     39  H9  UNL     1     361.944 240.390 189.191  1.00  0.00     0.184 HD
BRANCH  36  40
HETATM   40  N8  UNL     1     359.740 245.149 189.227  1.00  0.00    -0.116 N 
HETATM   41  O2  UNL     1     359.068 245.894 188.511  1.00  0.00    -0.532 OA
HETATM   42  O3  UNL     1     359.401 245.038 190.563  1.00  0.00    -0.532 OA
ENDBRANCH  36  40
ENDBRANCH  27  29
ENDBRANCH  25  27
ENDBRANCH  16  25
BRANCH  19  43
HETATM   43  N14 UNL     1     367.772 238.470 191.308  1.00  0.00    -0.321 N 
ATOM     44 2H14 UNL     1     368.077 237.683 190.736  1.00  0.00     0.179 HD
ATOM     45 1H14 UNL     1     368.619 238.850 191.731  1.00  0.00     0.179 HD
ENDBRANCH  19  43
ENDBRANCH  13  16
ENDBRANCH  11  12
ENDBRANCH  10  11
ENDBRANCH   8  10
BRANCH   9  46
HETATM   46  C18 UNL     1     365.908 233.810 184.441  1.00  0.00     0.212 C 
HETATM   47  O4  UNL     1     366.288 234.964 184.170  1.00  0.00    -0.644 OA
HETATM   48  O5  UNL     1     365.271 233.153 183.367  1.00  0.00    -0.644 OA
ENDBRANCH   9  46
TORSDOF 10
ENDMDL
MODEL 4
REMARK VINA RESULT: -9.777205172      3.923      5.278
REMARK  10 active torsions:
REMARK  status: ('A' for Active; 'I' for Inactive)
REMARK    1  A    between atoms: C5_8  and  C6_9 
REMARK    2  A    between atoms: C6_9  and  N3_10 
REMARK    3  A    between atoms: N3_10  and  N4_11 
REMARK       I    between atoms: N4_11  and  C7_13 
REMARK    4  A    between atoms: C7_13  and  C8_15 
REMARK    5  A    between atoms: C8_15  and  N5_16 
REMARK    6  A    between atoms: N5_16  and  N6_18 
REMARK    7  A    between atoms: N6_18  and  C9_20 
REMARK    8  A    between atoms: C13_26  and  N8_27 
REMARK    9  A    between atoms: N13_41  and  N14_42 
REMARK   10  A    between atoms: C17_45  and  C18_46 
ROOT
HETATM    1  C1  UNL     1     368.046 232.074 185.650  1.00  0.00     0.069 C 
HETATM    2  C2  UNL     1     366.882 232.476 186.493  1.00  0.00     0.024 A 
HETATM    3  N1  UNL     1     366.605 232.080 187.734  1.00  0.00    -0.350 N 
ATOM      4  H1  UNL     1     367.140 231.383 188.252  1.00  0.00     0.166 HD
HETATM    5  C3  UNL     1     365.528 232.719 188.213  1.00  0.00     0.128 A 
HETATM    6  C4  UNL     1     364.945 232.491 189.540  1.00  0.00     0.118 C 
HETATM    7  N2  UNL     1     364.501 232.282 190.603  1.00  0.00    -0.190 NA
HETATM    8  C5  UNL     1     365.059 233.572 187.270  1.00  0.00     0.051 A 
HETATM    9  C17 UNL     1     365.919 233.425 186.151  1.00  0.00     0.078 A 
ENDROOT
BRANCH   8  10
HETATM   10  C6  UNL     1     364.211 234.765 187.454  1.00  0.00     0.224 C 
BRANCH  10  11
HETATM   11  N3  UNL     1     364.526 235.641 188.173  1.00  0.00    -0.335 NA
BRANCH  11  12
HETATM   12  N4  UNL     1     364.743 236.637 189.000  1.00  0.00    -0.198 N 
HETATM   13  C7  UNL     1     364.793 237.948 188.254  1.00  0.00     0.302 C 
HETATM   14  O1  UNL     1     364.599 237.848 186.987  1.00  0.00    -0.263 OA
ATOM     15  H4  UNL     1     364.863 236.538 190.008  1.00  0.00     0.205 HD
BRANCH  13  16
HETATM   16  C8  UNL     1     365.014 239.229 188.851  1.00  0.00     0.168 C 
HETATM   17  C16 UNL     1     364.522 240.386 188.159  1.00  0.00     0.196 A 
HETATM   18  N10 UNL     1     365.097 241.090 187.183  1.00  0.00    -0.265 N 
HETATM   19  N13 UNL     1     363.321 241.012 188.431  1.00  0.00    -0.167 N 
HETATM   20  N11 UNL     1     364.316 242.100 186.854  1.00  0.00    -0.225 N 
ATOM     21  H10 UNL     1     366.000 240.880 186.758  1.00  0.00     0.190 HD
HETATM   22  N12 UNL     1     363.259 242.040 187.614  1.00  0.00    -0.205 N 
ATOM     23  H11 UNL     1     364.504 242.799 186.135  1.00  0.00     0.210 HD
ATOM     24  H12 UNL     1     362.486 242.704 187.579  1.00  0.00     0.212 HD
BRANCH  16  25
HETATM   25  N5  UNL     1     366.289 239.225 189.533  1.00  0.00    -0.278 N 
ATOM     26  H5  UNL     1     367.119 238.816 189.102  1.00  0.00     0.188 HD
BRANCH  25  27
HETATM   27  N6  UNL     1     366.343 239.800 190.799  1.00  0.00    -0.131 N 
ATOM     28  H6  UNL     1     365.764 239.441 191.558  1.00  0.00     0.205 HD
BRANCH  27  29
HETATM   29  C9  UNL     1     367.149 240.808 190.997  1.00  0.00     0.698 A 
HETATM   30  N7  UNL     1     368.332 240.663 191.594  1.00  0.00    -0.188 N 
HETATM   31  C10 UNL     1     368.949 241.867 191.557  1.00  0.00     0.076 A 
ATOM     32  H7  UNL     1     368.703 239.805 192.002  1.00  0.00     0.184 HD
HETATM   33  C11 UNL     1     370.177 242.302 191.988  1.00  0.00     0.035 A 
HETATM   34  C15 UNL     1     368.091 242.760 190.913  1.00  0.00     0.079 A 
HETATM   35  C12 UNL     1     370.567 243.605 191.798  1.00  0.00     0.038 A 
HETATM   36  C13 UNL     1     369.714 244.478 191.170  1.00  0.00     0.105 A 
HETATM   37  C14 UNL     1     368.470 244.071 190.721  1.00  0.00     0.068 A 
HETATM   38  N9  UNL     1     366.994 242.061 190.586  1.00  0.00    -0.188 N 
ATOM     39  H9  UNL     1     366.176 242.432 190.102  1.00  0.00     0.184 HD
BRANCH  36  40
HETATM   40  N8  UNL     1     370.099 245.817 190.914  1.00  0.00    -0.116 N 
HETATM   41  O2  UNL     1     371.033 246.328 191.534  1.00  0.00    -0.532 OA
HETATM   42  O3  UNL     1     369.431 246.584 189.978  1.00  0.00    -0.532 OA
ENDBRANCH  36  40
ENDBRANCH  27  29
ENDBRANCH  25  27
ENDBRANCH  16  25
BRANCH  19  43
HETATM   43  N14 UNL     1     362.356 240.634 189.393  1.00  0.00    -0.321 N 
ATOM     44 2H14 UNL     1     361.367 240.449 189.228  1.00  0.00     0.179 HD
ATOM     45 1H14 UNL     1     362.502 240.495 190.393  1.00  0.00     0.179 HD
ENDBRANCH  19  43
ENDBRANCH  13  16
ENDBRANCH  11  12
ENDBRANCH  10  11
ENDBRANCH   8  10
BRANCH   9  46
HETATM   46  C18 UNL     1     365.896 234.219 184.951  1.00  0.00     0.212 C 
HETATM   47  O4  UNL     1     366.301 235.387 184.798  1.00  0.00    -0.644 OA
HETATM   48  O5  UNL     1     365.370 233.640 183.777  1.00  0.00    -0.644 OA
ENDBRANCH   9  46
TORSDOF 10
ENDMDL
MODEL 5
REMARK VINA RESULT: -9.633139127      1.642      1.856
REMARK  10 active torsions:
REMARK  status: ('A' for Active; 'I' for Inactive)
REMARK    1  A    between atoms: C5_8  and  C6_9 
REMARK    2  A    between atoms: C6_9  and  N3_10 
REMARK    3  A    between atoms: N3_10  and  N4_11 
REMARK       I    between atoms: N4_11  and  C7_13 
REMARK    4  A    between atoms: C7_13  and  C8_15 
REMARK    5  A    between atoms: C8_15  and  N5_16 
REMARK    6  A    between atoms: N5_16  and  N6_18 
REMARK    7  A    between atoms: N6_18  and  C9_20 
REMARK    8  A    between atoms: C13_26  and  N8_27 
REMARK    9  A    between atoms: N13_41  and  N14_42 
REMARK   10  A    between atoms: C17_45  and  C18_46 
ROOT
HETATM    1  C1  UNL     1     364.450 232.423 189.178  1.00  0.00     0.069 C 
HETATM    2  C2  UNL     1     364.798 233.246 187.983  1.00  0.00     0.024 A 
HETATM    3  N1  UNL     1     365.199 232.813 186.788  1.00  0.00    -0.350 N 
ATOM      4  H1  UNL     1     365.383 231.835 186.560  1.00  0.00     0.166 HD
HETATM    5  C3  UNL     1     365.331 233.831 185.927  1.00  0.00     0.128 A 
HETATM    6  C4  UNL     1     365.783 233.695 184.538  1.00  0.00     0.118 C 
HETATM    7  N2  UNL     1     366.153 233.553 183.436  1.00  0.00    -0.190 NA
HETATM    8  C5  UNL     1     365.011 234.989 186.554  1.00  0.00     0.051 A 
HETATM    9  C17 UNL     1     364.669 234.631 187.882  1.00  0.00     0.078 A 
ENDROOT
BRANCH   8  10
HETATM   10  C6  UNL     1     364.585 236.268 185.953  1.00  0.00     0.224 C 
BRANCH  10  11
HETATM   11  N3  UNL     1     364.876 237.302 186.432  1.00  0.00    -0.335 NA
BRANCH  11  12
HETATM   12  N4  UNL     1     365.332 238.414 186.961  1.00  0.00    -0.198 N 
HETATM   13  C7  UNL     1     364.244 239.122 187.732  1.00  0.00     0.302 C 
HETATM   14  O1  UNL     1     363.112 238.510 187.741  1.00  0.00    -0.263 OA
ATOM     15  H4  UNL     1     366.289 238.752 186.864  1.00  0.00     0.205 HD
BRANCH  13  16
HETATM   16  C8  UNL     1     364.400 240.360 188.430  1.00  0.00     0.168 C 
HETATM   17  C16 UNL     1     364.328 241.574 187.669  1.00  0.00     0.196 A 
HETATM   18  N10 UNL     1     365.290 242.198 186.987  1.00  0.00    -0.265 N 
HETATM   19  N13 UNL     1     363.195 242.354 187.541  1.00  0.00    -0.167 N 
HETATM   20  N11 UNL     1     364.804 243.304 186.459  1.00  0.00    -0.225 N 
ATOM     21  H10 UNL     1     366.251 241.870 186.889  1.00  0.00     0.190 HD
HETATM   22  N12 UNL     1     363.551 243.384 186.804  1.00  0.00    -0.205 N 
ATOM     23  H11 UNL     1     365.317 243.974 185.885  1.00  0.00     0.210 HD
ATOM     24  H12 UNL     1     362.927 244.145 186.538  1.00  0.00     0.212 HD
BRANCH  16  25
HETATM   25  N5  UNL     1     365.347 240.183 189.509  1.00  0.00    -0.278 N 
ATOM     26  H5  UNL     1     366.213 240.722 189.548  1.00  0.00     0.188 HD
BRANCH  25  27
HETATM   27  N6  UNL     1     365.034 239.251 190.493  1.00  0.00    -0.131 N 
ATOM     28  H6  UNL     1     365.199 238.257 190.339  1.00  0.00     0.205 HD
BRANCH  27  29
HETATM   29  C9  UNL     1     364.524 239.673 191.618  1.00  0.00     0.698 A 
HETATM   30  N7  UNL     1     365.065 239.373 192.799  1.00  0.00    -0.188 N 
HETATM   31  C10 UNL     1     364.359 240.036 193.744  1.00  0.00     0.076 A 
ATOM     32  H7  UNL     1     365.864 238.759 192.960  1.00  0.00     0.184 HD
HETATM   33  C11 UNL     1     364.476 240.125 195.108  1.00  0.00     0.035 A 
HETATM   34  C15 UNL     1     363.356 240.755 193.092  1.00  0.00     0.079 A 
HETATM   35  C12 UNL     1     363.615 240.908 195.838  1.00  0.00     0.038 A 
HETATM   36  C13 UNL     1     362.627 241.606 195.189  1.00  0.00     0.105 A 
HETATM   37  C14 UNL     1     362.483 241.540 193.814  1.00  0.00     0.068 A 
HETATM   38  N9  UNL     1     363.497 240.500 191.783  1.00  0.00    -0.188 N 
ATOM     39  H9  UNL     1     362.914 240.879 191.037  1.00  0.00     0.184 HD
BRANCH  36  40
HETATM   40  N8  UNL     1     361.750 242.460 195.900  1.00  0.00    -0.116 N 
HETATM   41  O2  UNL     1     360.875 241.991 196.631  1.00  0.00    -0.532 OA
HETATM   42  O3  UNL     1     361.842 243.835 195.784  1.00  0.00    -0.532 OA
ENDBRANCH  36  40
ENDBRANCH  27  29
ENDBRANCH  25  27
ENDBRANCH  16  25
BRANCH  19  43
HETATM   43  N14 UNL     1     361.917 242.106 188.091  1.00  0.00    -0.321 N 
ATOM     44 2H14 UNL     1     361.654 242.156 189.076  1.00  0.00     0.179 HD
ATOM     45 1H14 UNL     1     361.070 241.837 187.591  1.00  0.00     0.179 HD
ENDBRANCH  19  43
ENDBRANCH  13  16
ENDBRANCH  11  12
ENDBRANCH  10  11
ENDBRANCH   8  10
BRANCH   9  46
HETATM   46  C18 UNL     1     364.137 235.510 188.890  1.00  0.00     0.212 C 
HETATM   47  O4  UNL     1     364.749 236.357 189.567  1.00  0.00    -0.644 OA
HETATM   48  O5  UNL     1     362.756 235.446 189.171  1.00  0.00    -0.644 OA
ENDBRANCH   9  46
TORSDOF 10
ENDMDL
