MODEL 1
REMARK VINA RESULT: -9.755863422      0.000      0.000
REMARK  10 active torsions:
REMARK  status: ('A' for Active; 'I' for Inactive)
REMARK    1  A    between atoms: N1_1  and  C1_4 
REMARK    2  A    between atoms: C2_7  and  N3_8 
REMARK    3  A    between atoms: C3_14  and  C4_15 
REMARK    4  A    between atoms: C4_15  and  C5_16 
REMARK    5  A    between atoms: C5_16  and  C6_17 
REMARK    6  A    between atoms: C6_17  and  C7_18 
REMARK    7  A    between atoms: C7_18  and  C8_19 
REMARK    8  A    between atoms: C9_22  and  C10_23 
REMARK    9  A    between atoms: C10_23  and  S1_24 
REMARK   10  A    between atoms: S1_24  and  C11_25 
ROOT
HETATM    1  C8  UNL     1     365.437 238.706 188.950  1.00  0.00     0.104 A 
HETATM    2  N6  UNL     1     364.280 239.364 188.598  1.00  0.00    -0.345 N 
ATOM      3  H6  UNL     1     363.607 239.038 187.904  1.00  0.00     0.167 HD
HETATM    4  C9  UNL     1     364.172 240.486 189.298  1.00  0.00     0.055 A 
HETATM    5  C15 UNL     1     365.250 240.589 190.120  1.00  0.00     0.149 A 
HETATM    6  C16 UNL     1     365.669 241.505 191.056  1.00  0.00     0.280 A 
HETATM    7  O1  UNL     1     364.944 242.512 191.244  1.00  0.00    -0.265 OA
HETATM    8  N10 UNL     1     366.808 241.337 191.746  1.00  0.00    -0.272 N 
ATOM      9  H10 UNL     1     367.120 242.017 192.440  1.00  0.00     0.174 HD
HETATM   10  C17 UNL     1     367.514 240.229 191.476  1.00  0.00     0.342 A 
HETATM   11  O2  UNL     1     368.607 240.008 192.097  1.00  0.00    -0.245 OA
HETATM   12  N11 UNL     1     367.110 239.330 190.561  1.00  0.00    -0.243 N 
ATOM     13  H11 UNL     1     367.685 238.504 190.394  1.00  0.00     0.192 HD
HETATM   14  N12 UNL     1     366.007 239.479 189.881  1.00  0.00    -0.233 N 
ENDROOT
BRANCH   1  15
HETATM   15  C7  UNL     1     365.849 237.395 188.361  1.00  0.00     0.078 C 
BRANCH  15  16
HETATM   16  C6  UNL     1     364.755 236.427 188.176  1.00  0.00     0.008 C 
BRANCH  16  17
HETATM   17  C5  UNL     1     364.939 235.213 187.389  1.00  0.00     0.008 C 
BRANCH  17  18
HETATM   18  C4  UNL     1     365.160 235.281 185.938  1.00  0.00     0.078 C 
BRANCH  18  19
HETATM   19  C3  UNL     1     365.886 234.098 185.370  1.00  0.00     0.113 A 
HETATM   20  N5  UNL     1     366.871 233.350 185.864  1.00  0.00    -0.252 N 
HETATM   21  N4  UNL     1     367.216 232.395 185.017  1.00  0.00     0.092 N 
ATOM     22  H5  UNL     1     367.304 233.494 186.777  1.00  0.00     0.190 HD
HETATM   23  C2  UNL     1     368.118 231.398 185.008  1.00  0.00     0.727 A 
HETATM   24  C18 UNL     1     366.418 232.531 183.923  1.00  0.00     0.734 A 
HETATM   25  N2  UNL     1     368.259 230.545 183.979  1.00  0.00    -0.020 N 
HETATM   26  C1  UNL     1     367.468 230.683 182.899  1.00  0.00     0.705 A 
ATOM     27  H2  UNL     1     368.957 229.802 184.016  1.00  0.00     0.203 HD
HETATM   28  N14 UNL     1     366.565 231.669 182.890  1.00  0.00    -0.020 N 
ATOM     29  H14 UNL     1     365.962 231.776 182.073  1.00  0.00     0.203 HD
HETATM   30  N13 UNL     1     365.607 233.580 184.155  1.00  0.00    -0.176 N 
ATOM     31  H13 UNL     1     364.894 233.928 183.514  1.00  0.00     0.185 HD
BRANCH  23  32
HETATM   32  N3  UNL     1     368.887 231.245 186.028  1.00  0.00    -0.232 N 
ATOM     33  H32 UNL     1     368.636 230.556 186.737  1.00  0.00     0.174 HD
ATOM     34  H31 UNL     1     369.724 231.825 186.087  1.00  0.00     0.174 HD
ENDBRANCH  23  32
BRANCH  26  35
HETATM   35  N1  UNL     1     367.598 229.860 181.898  1.00  0.00    -0.234 N 
ATOM     36  H12 UNL     1     367.958 228.914 182.022  1.00  0.00     0.174 HD
ATOM     37  H11 UNL     1     367.336 230.164 180.960  1.00  0.00     0.174 HD
ENDBRANCH  26  35
ENDBRANCH  18  19
ENDBRANCH  17  18
ENDBRANCH  16  17
ENDBRANCH  15  16
ENDBRANCH   1  15
BRANCH   4  38
HETATM   38  C10 UNL     1     363.082 241.494 189.235  1.00  0.00     0.140 C 
BRANCH  38  39
HETATM   39  S1  UNL     1     363.180 242.433 187.674  1.00  0.00    -0.105 SA
BRANCH  39  40
HETATM   40  C11 UNL     1     364.709 243.314 187.568  1.00  0.00     0.085 A 
HETATM   41  C12 UNL     1     365.380 243.294 186.355  1.00  0.00     0.041 A 
HETATM   42  C13 UNL     1     366.577 243.971 186.238  1.00  0.00     0.049 A 
HETATM   43  C14 UNL     1     367.064 244.643 187.330  1.00  0.00     0.130 A 
HETATM   44  N7  UNL     1     368.311 245.354 187.225  1.00  0.00    -0.081 NA
HETATM   45  N8  UNL     1     366.389 244.634 188.467  1.00  0.00    -0.287 N 
HETATM   46  N9  UNL     1     365.259 243.992 188.576  1.00  0.00    -0.293 N 
ATOM     47  H8  UNL     1     366.759 245.137 189.273  1.00  0.00     0.188 HD
ATOM     48  H9  UNL     1     364.774 244.011 189.472  1.00  0.00     0.187 HD
ENDBRANCH  39  40
ENDBRANCH  38  39
ENDBRANCH   4  38
TORSDOF 10
ENDMDL
MODEL 2
REMARK VINA RESULT: -9.517230973      2.444      9.445
REMARK  10 active torsions:
REMARK  status: ('A' for Active; 'I' for Inactive)
REMARK    1  A    between atoms: N1_1  and  C1_4 
REMARK    2  A    between atoms: C2_7  and  N3_8 
REMARK    3  A    between atoms: C3_14  and  C4_15 
REMARK    4  A    between atoms: C4_15  and  C5_16 
REMARK    5  A    between atoms: C5_16  and  C6_17 
REMARK    6  A    between atoms: C6_17  and  C7_18 
REMARK    7  A    between atoms: C7_18  and  C8_19 
REMARK    8  A    between atoms: C9_22  and  C10_23 
REMARK    9  A    between atoms: C10_23  and  S1_24 
REMARK   10  A    between atoms: S1_24  and  C11_25 
ROOT
HETATM    1  C8  UNL     1     363.853 240.373 189.318  1.00  0.00     0.104 A 
HETATM    2  N6  UNL     1     364.035 239.276 188.508  1.00  0.00    -0.345 N 
ATOM      3  H6  UNL     1     363.351 238.920 187.839  1.00  0.00     0.167 HD
HETATM    4  C9  UNL     1     365.232 238.749 188.728  1.00  0.00     0.055 A 
HETATM    5  C15 UNL     1     365.860 239.485 189.684  1.00  0.00     0.149 A 
HETATM    6  C16 UNL     1     367.088 239.427 190.298  1.00  0.00     0.280 A 
HETATM    7  O1  UNL     1     367.862 238.499 189.957  1.00  0.00    -0.265 OA
HETATM    8  N10 UNL     1     367.454 240.322 191.228  1.00  0.00    -0.272 N 
ATOM      9  H10 UNL     1     368.365 240.279 191.686  1.00  0.00     0.174 HD
HETATM   10  C17 UNL     1     366.560 241.277 191.525  1.00  0.00     0.342 A 
HETATM   11  O2  UNL     1     366.844 242.161 192.401  1.00  0.00    -0.245 OA
HETATM   12  N11 UNL     1     365.357 241.339 190.928  1.00  0.00    -0.243 N 
ATOM     13  H11 UNL     1     364.713 242.085 191.191  1.00  0.00     0.192 HD
HETATM   14  N12 UNL     1     364.985 240.476 190.023  1.00  0.00    -0.233 N 
ENDROOT
BRANCH   1  15
HETATM   15  C7  UNL     1     362.615 241.211 189.303  1.00  0.00     0.078 C 
BRANCH  15  16
HETATM   16  C6  UNL     1     362.702 242.432 188.483  1.00  0.00     0.008 C 
BRANCH  16  17
HETATM   17  C5  UNL     1     362.895 242.366 187.039  1.00  0.00     0.008 C 
BRANCH  17  18
HETATM   18  C4  UNL     1     364.224 242.111 186.467  1.00  0.00     0.078 C 
BRANCH  18  19
HETATM   19  C3  UNL     1     365.286 243.066 186.925  1.00  0.00     0.113 A 
HETATM   20  N5  UNL     1     366.034 243.087 188.027  1.00  0.00    -0.252 N 
HETATM   21  N4  UNL     1     366.855 244.124 188.026  1.00  0.00     0.092 N 
ATOM     22  H5  UNL     1     365.981 242.394 188.775  1.00  0.00     0.190 HD
HETATM   23  C2  UNL     1     367.791 244.608 188.860  1.00  0.00     0.727 A 
HETATM   24  C18 UNL     1     366.627 244.806 186.871  1.00  0.00     0.734 A 
HETATM   25  N2  UNL     1     368.500 245.720 188.601  1.00  0.00    -0.020 N 
HETATM   26  C1  UNL     1     368.273 246.392 187.458  1.00  0.00     0.705 A 
ATOM     27  H2  UNL     1     369.203 246.051 189.264  1.00  0.00     0.203 HD
HETATM   28  N14 UNL     1     367.344 245.925 186.616  1.00  0.00    -0.020 N 
ATOM     29  H14 UNL     1     367.170 246.432 185.747  1.00  0.00     0.203 HD
HETATM   30  N13 UNL     1     365.662 244.145 186.206  1.00  0.00    -0.176 N 
ATOM     31  H13 UNL     1     365.276 244.416 185.302  1.00  0.00     0.185 HD
BRANCH  23  32
HETATM   32  N3  UNL     1     368.028 243.984 189.960  1.00  0.00    -0.232 N 
ATOM     33  H32 UNL     1     367.297 243.939 190.670  1.00  0.00     0.174 HD
ATOM     34  H31 UNL     1     368.946 243.556 190.079  1.00  0.00     0.174 HD
ENDBRANCH  23  32
BRANCH  26  35
HETATM   35  N1  UNL     1     368.955 247.471 187.199  1.00  0.00    -0.234 N 
ATOM     36  H12 UNL     1     369.302 248.080 187.941  1.00  0.00     0.174 HD
ATOM     37  H11 UNL     1     369.153 247.720 186.231  1.00  0.00     0.174 HD
ENDBRANCH  26  35
ENDBRANCH  18  19
ENDBRANCH  17  18
ENDBRANCH  16  17
ENDBRANCH  15  16
ENDBRANCH   1  15
BRANCH   4  38
HETATM   38  C10 UNL     1     365.835 237.559 188.073  1.00  0.00     0.140 C 
BRANCH  38  39
HETATM   39  S1  UNL     1     365.551 237.616 186.273  1.00  0.00    -0.105 SA
BRANCH  39  40
HETATM   40  C11 UNL     1     365.125 236.016 185.655  1.00  0.00     0.085 A 
HETATM   41  C12 UNL     1     365.325 234.928 186.491  1.00  0.00     0.041 A 
HETATM   42  C13 UNL     1     365.003 233.665 186.039  1.00  0.00     0.049 A 
HETATM   43  C14 UNL     1     364.495 233.527 184.773  1.00  0.00     0.130 A 
HETATM   44  N7  UNL     1     364.154 232.216 184.286  1.00  0.00    -0.081 NA
HETATM   45  N8  UNL     1     364.320 234.593 184.011  1.00  0.00    -0.287 N 
HETATM   46  N9  UNL     1     364.626 235.786 184.439  1.00  0.00    -0.293 N 
ATOM     47  H8  UNL     1     363.939 234.480 183.071  1.00  0.00     0.188 HD
ATOM     48  H9  UNL     1     364.477 236.579 183.817  1.00  0.00     0.187 HD
ENDBRANCH  39  40
ENDBRANCH  38  39
ENDBRANCH   4  38
TORSDOF 10
ENDMDL
MODEL 3
REMARK VINA RESULT: -9.368181156      2.462      9.765
REMARK  10 active torsions:
REMARK  status: ('A' for Active; 'I' for Inactive)
REMARK    1  A    between atoms: N1_1  and  C1_4 
REMARK    2  A    between atoms: C2_7  and  N3_8 
REMARK    3  A    between atoms: C3_14  and  C4_15 
REMARK    4  A    between atoms: C4_15  and  C5_16 
REMARK    5  A    between atoms: C5_16  and  C6_17 
REMARK    6  A    between atoms: C6_17  and  C7_18 
REMARK    7  A    between atoms: C7_18  and  C8_19 
REMARK    8  A    between atoms: C9_22  and  C10_23 
REMARK    9  A    between atoms: C10_23  and  S1_24 
REMARK   10  A    between atoms: S1_24  and  C11_25 
ROOT
HETATM    1  C8  UNL     1     364.064 240.661 188.934  1.00  0.00     0.104 A 
HETATM    2  N6  UNL     1     364.092 239.475 188.235  1.00  0.00    -0.345 N 
ATOM      3  H6  UNL     1     363.389 239.177 187.558  1.00  0.00     0.167 HD
HETATM    4  C9  UNL     1     365.169 238.780 188.574  1.00  0.00     0.055 A 
HETATM    5  C15 UNL     1     365.868 239.489 189.499  1.00  0.00     0.149 A 
HETATM    6  C16 UNL     1     367.039 239.286 190.191  1.00  0.00     0.280 A 
HETATM    7  O1  UNL     1     367.657 238.214 189.981  1.00  0.00    -0.265 OA
HETATM    8  N10 UNL     1     367.509 240.193 191.062  1.00  0.00    -0.272 N 
ATOM      9  H10 UNL     1     368.377 240.043 191.577  1.00  0.00     0.174 HD
HETATM   10  C17 UNL     1     366.779 241.308 191.219  1.00  0.00     0.342 A 
HETATM   11  O2  UNL     1     367.171 242.212 192.032  1.00  0.00    -0.245 OA
HETATM   12  N11 UNL     1     365.634 241.511 190.545  1.00  0.00    -0.243 N 
ATOM     13  H11 UNL     1     365.117 242.377 190.702  1.00  0.00     0.192 HD
HETATM   14  N12 UNL     1     365.162 240.640 189.697  1.00  0.00    -0.233 N 
ENDROOT
BRANCH   1  15
HETATM   15  C7  UNL     1     362.990 241.688 188.770  1.00  0.00     0.078 C 
BRANCH  15  16
HETATM   16  C6  UNL     1     362.731 242.098 187.378  1.00  0.00     0.008 C 
BRANCH  16  17
HETATM   17  C5  UNL     1     363.306 243.319 186.827  1.00  0.00     0.008 C 
BRANCH  17  18
HETATM   18  C4  UNL     1     364.603 243.296 186.136  1.00  0.00     0.078 C 
BRANCH  18  19
HETATM   19  C3  UNL     1     365.718 243.947 186.898  1.00  0.00     0.113 A 
HETATM   20  N5  UNL     1     366.397 245.072 186.675  1.00  0.00    -0.252 N 
HETATM   21  N4  UNL     1     367.309 245.272 187.612  1.00  0.00     0.092 N 
ATOM     22  H5  UNL     1     366.236 245.697 185.884  1.00  0.00     0.190 HD
HETATM   23  C2  UNL     1     368.234 246.214 187.865  1.00  0.00     0.727 A 
HETATM   24  C18 UNL     1     367.216 244.230 188.481  1.00  0.00     0.734 A 
HETATM   25  N2  UNL     1     369.058 246.166 188.927  1.00  0.00    -0.020 N 
HETATM   26  C1  UNL     1     368.963 245.133 189.785  1.00  0.00     0.705 A 
ATOM     27  H2  UNL     1     369.745 246.904 189.080  1.00  0.00     0.203 HD
HETATM   28  N14 UNL     1     368.048 244.187 189.548  1.00  0.00    -0.020 N 
ATOM     29  H14 UNL     1     367.973 243.404 190.198  1.00  0.00     0.203 HD
HETATM   30  N13 UNL     1     366.236 243.426 188.030  1.00  0.00    -0.176 N 
ATOM     31  H13 UNL     1     365.932 242.559 188.474  1.00  0.00     0.185 HD
BRANCH  23  32
HETATM   32  N3  UNL     1     368.345 247.211 187.060  1.00  0.00    -0.232 N 
ATOM     33  H32 UNL     1     367.735 248.018 187.187  1.00  0.00     0.174 HD
ATOM     34  H31 UNL     1     369.046 247.153 186.321  1.00  0.00     0.174 HD
ENDBRANCH  23  32
BRANCH  26  35
HETATM   35  N1  UNL     1     369.757 245.080 190.816  1.00  0.00    -0.234 N 
ATOM     36  H12 UNL     1     370.737 244.810 190.728  1.00  0.00     0.174 HD
ATOM     37  H11 UNL     1     369.397 245.314 191.741  1.00  0.00     0.174 HD
ENDBRANCH  26  35
ENDBRANCH  18  19
ENDBRANCH  17  18
ENDBRANCH  16  17
ENDBRANCH  15  16
ENDBRANCH   1  15
BRANCH   4  38
HETATM   38  C10 UNL     1     365.589 237.449 188.063  1.00  0.00     0.140 C 
BRANCH  38  39
HETATM   39  S1  UNL     1     365.582 237.441 186.240  1.00  0.00    -0.105 SA
BRANCH  39  40
HETATM   40  C11 UNL     1     365.133 235.846 185.622  1.00  0.00     0.085 A 
HETATM   41  C12 UNL     1     365.364 234.750 186.440  1.00  0.00     0.041 A 
HETATM   42  C13 UNL     1     365.026 233.491 185.988  1.00  0.00     0.049 A 
HETATM   43  C14 UNL     1     364.472 233.365 184.740  1.00  0.00     0.130 A 
HETATM   44  N7  UNL     1     364.114 232.058 184.254  1.00  0.00    -0.081 NA
HETATM   45  N8  UNL     1     364.269 234.438 183.995  1.00  0.00    -0.287 N 
HETATM   46  N9  UNL     1     364.590 235.627 184.423  1.00  0.00    -0.293 N 
ATOM     47  H8  UNL     1     363.855 234.334 183.069  1.00  0.00     0.188 HD
ATOM     48  H9  UNL     1     364.418 236.426 183.814  1.00  0.00     0.187 HD
ENDBRANCH  39  40
ENDBRANCH  38  39
ENDBRANCH   4  38
TORSDOF 10
ENDMDL
MODEL 4
REMARK VINA RESULT: -9.338314946      2.460      9.513
REMARK  10 active torsions:
REMARK  status: ('A' for Active; 'I' for Inactive)
REMARK    1  A    between atoms: N1_1  and  C1_4 
REMARK    2  A    between atoms: C2_7  and  N3_8 
REMARK    3  A    between atoms: C3_14  and  C4_15 
REMARK    4  A    between atoms: C4_15  and  C5_16 
REMARK    5  A    between atoms: C5_16  and  C6_17 
REMARK    6  A    between atoms: C6_17  and  C7_18 
REMARK    7  A    between atoms: C7_18  and  C8_19 
REMARK    8  A    between atoms: C9_22  and  C10_23 
REMARK    9  A    between atoms: C10_23  and  S1_24 
REMARK   10  A    between atoms: S1_24  and  C11_25 
ROOT
HETATM    1  C8  UNL     1     363.948 240.517 189.372  1.00  0.00     0.104 A 
HETATM    2  N6  UNL     1     364.016 239.379 188.601  1.00  0.00    -0.345 N 
ATOM      3  H6  UNL     1     363.274 239.042 187.986  1.00  0.00     0.167 HD
HETATM    4  C9  UNL     1     365.189 238.786 188.778  1.00  0.00     0.055 A 
HETATM    5  C15 UNL     1     365.914 239.518 189.665  1.00  0.00     0.149 A 
HETATM    6  C16 UNL     1     367.170 239.406 190.213  1.00  0.00     0.280 A 
HETATM    7  O1  UNL     1     367.865 238.419 189.871  1.00  0.00    -0.265 OA
HETATM    8  N10 UNL     1     367.643 240.313 191.083  1.00  0.00    -0.272 N 
ATOM      9  H10 UNL     1     368.575 240.230 191.491  1.00  0.00     0.174 HD
HETATM   10  C17 UNL     1     366.827 241.333 191.387  1.00  0.00     0.342 A 
HETATM   11  O2  UNL     1     367.216 242.232 192.207  1.00  0.00    -0.245 OA
HETATM   12  N11 UNL     1     365.598 241.448 190.855  1.00  0.00    -0.243 N 
ATOM     13  H11 UNL     1     365.018 242.244 191.120  1.00  0.00     0.192 HD
HETATM   14  N12 UNL     1     365.123 240.575 190.009  1.00  0.00    -0.233 N 
ENDROOT
BRANCH   1  15
HETATM   15  C7  UNL     1     362.765 241.431 189.389  1.00  0.00     0.078 C 
BRANCH  15  16
HETATM   16  C6  UNL     1     362.467 242.084 188.102  1.00  0.00     0.008 C 
BRANCH  16  17
HETATM   17  C5  UNL     1     361.960 243.449 188.043  1.00  0.00     0.008 C 
BRANCH  17  18
HETATM   18  C4  UNL     1     362.730 244.511 187.378  1.00  0.00     0.078 C 
BRANCH  18  19
HETATM   19  C3  UNL     1     364.189 244.521 187.723  1.00  0.00     0.113 A 
HETATM   20  N5  UNL     1     365.275 244.569 186.951  1.00  0.00    -0.252 N 
HETATM   21  N4  UNL     1     366.378 244.557 187.680  1.00  0.00     0.092 N 
ATOM     22  H5  UNL     1     365.257 244.609 185.931  1.00  0.00     0.190 HD
HETATM   23  C2  UNL     1     367.697 244.588 187.424  1.00  0.00     0.727 A 
HETATM   24  C18 UNL     1     365.990 244.498 188.983  1.00  0.00     0.734 A 
HETATM   25  N2  UNL     1     368.632 244.564 188.390  1.00  0.00    -0.020 N 
HETATM   26  C1  UNL     1     368.245 244.505 189.678  1.00  0.00     0.705 A 
ATOM     27  H2  UNL     1     369.624 244.590 188.150  1.00  0.00     0.203 HD
HETATM   28  N14 UNL     1     366.936 244.474 189.950  1.00  0.00    -0.020 N 
ATOM     29  H14 UNL     1     366.639 244.431 190.925  1.00  0.00     0.203 HD
HETATM   30  N13 UNL     1     364.645 244.476 188.992  1.00  0.00    -0.176 N 
ATOM     31  H13 UNL     1     364.061 244.433 189.828  1.00  0.00     0.185 HD
BRANCH  23  32
HETATM   32  N3  UNL     1     368.094 244.644 186.202  1.00  0.00    -0.232 N 
ATOM     33  H32 UNL     1     368.461 243.800 185.763  1.00  0.00     0.174 HD
ATOM     34  H31 UNL     1     368.025 245.538 185.717  1.00  0.00     0.174 HD
ENDBRANCH  23  32
BRANCH  26  35
HETATM   35  N1  UNL     1     369.144 244.482 190.619  1.00  0.00    -0.234 N 
ATOM     36  H12 UNL     1     369.334 243.639 191.163  1.00  0.00     0.174 HD
ATOM     37  H11 UNL     1     369.679 245.325 190.825  1.00  0.00     0.174 HD
ENDBRANCH  26  35
ENDBRANCH  18  19
ENDBRANCH  17  18
ENDBRANCH  16  17
ENDBRANCH  15  16
ENDBRANCH   1  15
BRANCH   4  38
HETATM   38  C10 UNL     1     365.680 237.535 188.143  1.00  0.00     0.140 C 
BRANCH  38  39
HETATM   39  S1  UNL     1     365.469 237.620 186.334  1.00  0.00    -0.105 SA
BRANCH  39  40
HETATM   40  C11 UNL     1     365.087 236.026 185.672  1.00  0.00     0.085 A 
HETATM   41  C12 UNL     1     365.351 234.919 186.465  1.00  0.00     0.041 A 
HETATM   42  C13 UNL     1     365.065 233.660 185.978  1.00  0.00     0.049 A 
HETATM   43  C14 UNL     1     364.527 233.545 184.722  1.00  0.00     0.130 A 
HETATM   44  N7  UNL     1     364.223 232.239 184.199  1.00  0.00    -0.081 NA
HETATM   45  N8  UNL     1     364.292 234.628 184.001  1.00  0.00    -0.287 N 
HETATM   46  N9  UNL     1     364.564 235.817 184.463  1.00  0.00    -0.293 N 
ATOM     47  H8  UNL     1     363.890 234.533 183.069  1.00  0.00     0.188 HD
ATOM     48  H9  UNL     1     364.367 236.625 183.872  1.00  0.00     0.187 HD
ENDBRANCH  39  40
ENDBRANCH  38  39
ENDBRANCH   4  38
TORSDOF 10
ENDMDL
MODEL 5
REMARK VINA RESULT: -9.338305105      1.996      9.103
REMARK  10 active torsions:
REMARK  status: ('A' for Active; 'I' for Inactive)
REMARK    1  A    between atoms: N1_1  and  C1_4 
REMARK    2  A    between atoms: C2_7  and  N3_8 
REMARK    3  A    between atoms: C3_14  and  C4_15 
REMARK    4  A    between atoms: C4_15  and  C5_16 
REMARK    5  A    between atoms: C5_16  and  C6_17 
REMARK    6  A    between atoms: C6_17  and  C7_18 
REMARK    7  A    between atoms: C7_18  and  C8_19 
REMARK    8  A    between atoms: C9_22  and  C10_23 
REMARK    9  A    between atoms: C10_23  and  S1_24 
REMARK   10  A    between atoms: S1_24  and  C11_25 
ROOT
HETATM    1  C8  UNL     1     363.968 240.737 189.973  1.00  0.00     0.104 A 
HETATM    2  N6  UNL     1     363.979 239.563 189.254  1.00  0.00    -0.345 N 
ATOM      3  H6  UNL     1     363.185 239.184 188.737  1.00  0.00     0.167 HD
HETATM    4  C9  UNL     1     365.178 238.999 189.334  1.00  0.00     0.055 A 
HETATM    5  C15 UNL     1     365.975 239.786 190.105  1.00  0.00     0.149 A 
HETATM    6  C16 UNL     1     367.283 239.722 190.523  1.00  0.00     0.280 A 
HETATM    7  O1  UNL     1     367.960 238.731 190.157  1.00  0.00    -0.265 OA
HETATM    8  N10 UNL     1     367.824 240.678 191.295  1.00  0.00    -0.272 N 
ATOM      9  H10 UNL     1     368.794 240.631 191.606  1.00  0.00     0.174 HD
HETATM   10  C17 UNL     1     367.022 241.699 191.634  1.00  0.00     0.342 A 
HETATM   11  O2  UNL     1     367.474 242.643 192.366  1.00  0.00    -0.245 OA
HETATM   12  N11 UNL     1     365.742 241.766 191.229  1.00  0.00    -0.243 N 
ATOM     13  H11 UNL     1     365.175 242.564 191.516  1.00  0.00     0.192 HD
HETATM   14  N12 UNL     1     365.201 240.845 190.480  1.00  0.00    -0.233 N 
ENDROOT
BRANCH   1  15
HETATM   15  C7  UNL     1     362.773 241.630 190.071  1.00  0.00     0.078 C 
BRANCH  15  16
HETATM   16  C6  UNL     1     362.201 242.045 188.778  1.00  0.00     0.008 C 
BRANCH  16  17
HETATM   17  C5  UNL     1     361.643 243.378 188.586  1.00  0.00     0.008 C 
BRANCH  17  18
HETATM   18  C4  UNL     1     362.451 244.578 188.849  1.00  0.00     0.078 C 
BRANCH  18  19
HETATM   19  C3  UNL     1     363.873 244.477 188.384  1.00  0.00     0.113 A 
HETATM   20  N5  UNL     1     365.021 244.473 189.060  1.00  0.00    -0.252 N 
HETATM   21  N4  UNL     1     366.055 244.364 188.243  1.00  0.00     0.092 N 
ATOM     22  H5  UNL     1     365.093 244.544 190.076  1.00  0.00     0.190 HD
HETATM   23  C2  UNL     1     367.390 244.312 188.386  1.00  0.00     0.727 A 
HETATM   24  C18 UNL     1     365.554 244.296 186.980  1.00  0.00     0.734 A 
HETATM   25  N2  UNL     1     368.236 244.197 187.347  1.00  0.00    -0.020 N 
HETATM   26  C1  UNL     1     367.736 244.129 186.099  1.00  0.00     0.705 A 
ATOM     27  H2  UNL     1     369.243 244.160 187.503  1.00  0.00     0.203 HD
HETATM   28  N14 UNL     1     366.409 244.179 185.938  1.00  0.00    -0.020 N 
ATOM     29  H14 UNL     1     366.028 244.127 184.993  1.00  0.00     0.203 HD
HETATM   30  N13 UNL     1     364.214 244.366 187.083  1.00  0.00    -0.176 N 
ATOM     31  H13 UNL     1     363.559 244.339 186.301  1.00  0.00     0.185 HD
BRANCH  23  32
HETATM   32  N3  UNL     1     367.893 244.375 189.568  1.00  0.00    -0.232 N 
ATOM     33  H32 UNL     1     368.578 243.675 189.852  1.00  0.00     0.174 HD
ATOM     34  H31 UNL     1     367.584 245.131 190.179  1.00  0.00     0.174 HD
ENDBRANCH  23  32
BRANCH  26  35
HETATM   35  N1  UNL     1     368.548 244.017 185.087  1.00  0.00    -0.234 N 
ATOM     36  H12 UNL     1     368.332 244.420 184.175  1.00  0.00     0.174 HD
ATOM     37  H11 UNL     1     369.428 243.514 185.202  1.00  0.00     0.174 HD
ENDBRANCH  26  35
ENDBRANCH  18  19
ENDBRANCH  17  18
ENDBRANCH  16  17
ENDBRANCH  15  16
ENDBRANCH   1  15
BRANCH   4  38
HETATM   38  C10 UNL     1     365.626 237.727 188.711  1.00  0.00     0.140 C 
BRANCH  38  39
HETATM   39  S1  UNL     1     365.402 237.796 186.903  1.00  0.00    -0.105 SA
BRANCH  39  40
HETATM   40  C11 UNL     1     365.679 236.207 186.177  1.00  0.00     0.085 A 
HETATM   41  C12 UNL     1     364.994 235.127 186.711  1.00  0.00     0.041 A 
HETATM   42  C13 UNL     1     365.188 233.873 186.168  1.00  0.00     0.049 A 
HETATM   43  C14 UNL     1     366.055 233.738 185.114  1.00  0.00     0.130 A 
HETATM   44  N7  UNL     1     366.269 232.437 184.537  1.00  0.00    -0.081 NA
HETATM   45  N8  UNL     1     366.686 234.797 184.637  1.00  0.00    -0.287 N 
HETATM   46  N9  UNL     1     366.503 235.981 185.152  1.00  0.00    -0.293 N 
ATOM     47  H8  UNL     1     367.328 234.686 183.852  1.00  0.00     0.188 HD
ATOM     48  H9  UNL     1     367.012 236.769 184.754  1.00  0.00     0.187 HD
ENDBRANCH  39  40
ENDBRANCH  38  39
ENDBRANCH   4  38
TORSDOF 10
ENDMDL
