MODEL 1
REMARK VINA RESULT: -9.356419659      0.000      0.000
REMARK  13 active torsions:
REMARK  status: ('A' for Active; 'I' for Inactive)
REMARK    1  A    between atoms: C2_2  and  C11_32 
REMARK    2  A    between atoms: N1_3  and  O1_5 
REMARK    3  A    between atoms: O1_5  and  C3_6 
REMARK    4  A    between atoms: C3_6  and  C5_8 
REMARK    5  A    between atoms: C5_8  and  O4_20 
REMARK    6  A    between atoms: N2_9  and  O2_11 
REMARK    7  A    between atoms: O2_11  and  C6_12 
REMARK    8  A    between atoms: C6_12  and  C7_14 
REMARK    9  A    between atoms: C7_14  and  N3_16 
REMARK   10  A    between atoms: O4_20  and  N4_21 
REMARK       I    between atoms: N4_21  and  C10_23 
REMARK       I    between atoms: C10_23  and  N5_24 
REMARK       I    between atoms: C10_23  and  N6_28 
REMARK   11  A    between atoms: C13_36  and  C14_37 
REMARK   12  A    between atoms: C19_46  and  O7_47 
REMARK   13  A    between atoms: C20_49  and  O8_50 
ROOT
HETATM    1  C3  UNL     1     364.330 235.853 188.088  1.00  0.00     0.226 C 
HETATM    2  C4  UNL     1     363.739 234.832 189.071  1.00  0.00     0.051 C 
ENDROOT
BRANCH   1   3
HETATM    3  O1  UNL     1     365.249 236.680 188.733  1.00  0.00    -0.267 OA
BRANCH   3   4
HETATM    4  N1  UNL     1     364.888 237.694 189.565  1.00  0.00    -0.268 N 
HETATM    5  C2  UNL     1     365.611 238.547 190.146  1.00  0.00     0.058 C 
HETATM    6  C1  UNL     1     367.080 238.589 190.011  1.00  0.00     0.072 C 
ATOM      7  H1  UNL     1     363.887 237.777 189.743  1.00  0.00     0.194 HD
BRANCH   5   8
HETATM    8  C11 UNL     1     364.960 239.556 191.008  1.00  0.00     0.093 A 
HETATM    9  N7  UNL     1     364.887 239.394 192.337  1.00  0.00    -0.351 N 
HETATM   10  C12 UNL     1     364.285 240.328 193.119  1.00  0.00     0.066 A 
ATOM     11  H7  UNL     1     365.287 238.560 192.766  1.00  0.00     0.166 HD
HETATM   12  C13 UNL     1     364.214 240.151 194.496  1.00  0.00     0.052 A 
HETATM   13  C18 UNL     1     363.725 241.476 192.612  1.00  0.00     0.096 A 
HETATM   14  C15 UNL     1     363.609 241.091 195.291  1.00  0.00     0.024 A 
HETATM   15  C16 UNL     1     363.532 240.902 196.765  1.00  0.00     0.069 C 
HETATM   16  N8  UNL     1     363.067 242.214 194.749  1.00  0.00    -0.326 N 
HETATM   17  C17 UNL     1     363.122 242.412 193.404  1.00  0.00     0.261 A 
ATOM     18  H8  UNL     1     362.619 242.906 195.350  1.00  0.00     0.169 HD
HETATM   19  O6  UNL     1     362.607 243.468 192.940  1.00  0.00    -0.267 OA
HETATM   20  C19 UNL     1     363.792 241.665 191.225  1.00  0.00     0.119 A 
HETATM   21  C20 UNL     1     364.405 240.706 190.453  1.00  0.00     0.129 A 
BRANCH  12  22
HETATM   22  C14 UNL     1     364.788 238.954 195.101  1.00  0.00     0.274 C 
HETATM   23  O5  UNL     1     366.040 238.843 195.148  1.00  0.00    -0.301 OA
ENDBRANCH  12  22
BRANCH  20  24
HETATM   24  O7  UNL     1     363.225 242.819 190.752  1.00  0.00    -0.357 OA
ATOM     25  H7  UNL     1     363.833 243.489 190.463  1.00  0.00     0.218 HD
ENDBRANCH  20  24
BRANCH  21  26
HETATM   26  O8  UNL     1     364.489 240.857 189.087  1.00  0.00    -0.356 OA
ATOM     27  H8  UNL     1     363.759 240.542 188.566  1.00  0.00     0.218 HD
ENDBRANCH  21  26
ENDBRANCH   5   8
ENDBRANCH   3   4
ENDBRANCH   1   3
BRANCH   1  28
HETATM   28  C5  UNL     1     364.872 235.115 186.926  1.00  0.00     0.191 C 
HETATM   29  N2  UNL     1     365.430 233.966 187.089  1.00  0.00    -0.235 N 
ATOM     30  H2  UNL     1     365.477 233.602 188.040  1.00  0.00     0.197 HD
BRANCH  29  31
HETATM   31  O2  UNL     1     365.960 233.200 186.108  1.00  0.00    -0.196 OA
BRANCH  31  32
HETATM   32  C6  UNL     1     366.857 232.183 186.282  1.00  0.00     0.311 C 
HETATM   33  O3  UNL     1     366.699 231.399 187.247  1.00  0.00    -0.261 OA
BRANCH  32  34
HETATM   34  C7  UNL     1     368.022 231.945 185.386  1.00  0.00     0.280 C 
HETATM   35  C8  UNL     1     367.478 231.238 184.137  1.00  0.00     0.051 C 
BRANCH  34  36
HETATM   36  N3  UNL     1     368.975 231.037 185.977  1.00  0.00    -0.066 N 
ATOM     37  H33 UNL     1     369.854 231.508 186.190  1.00  0.00     0.275 HD
ATOM     38  H32 UNL     1     368.701 230.774 186.924  1.00  0.00     0.275 HD
ATOM     39  H31 UNL     1     369.126 230.213 185.393  1.00  0.00     0.275 HD
ENDBRANCH  34  36
ENDBRANCH  32  34
ENDBRANCH  31  32
ENDBRANCH  29  31
BRANCH  28  40
HETATM   40  O4  UNL     1     364.810 235.604 185.630  1.00  0.00    -0.240 OA
BRANCH  40  41
HETATM   41  N4  UNL     1     365.863 236.145 184.970  1.00  0.00    -0.139 NA
HETATM   42  C9  UNL     1     365.861 237.593 185.097  1.00  0.00     0.149 C 
HETATM   43  C10 UNL     1     365.890 235.799 183.562  1.00  0.00     0.479 C 
HETATM   44  N5  UNL     1     365.975 234.377 183.358  1.00  0.00    -0.035 N 
HETATM   45  N6  UNL     1     367.117 236.383 183.014  1.00  0.00    -0.035 N 
ATOM     46  H53 UNL     1     366.774 233.979 183.852  1.00  0.00     0.278 HD
ATOM     47  H52 UNL     1     365.224 233.888 183.844  1.00  0.00     0.278 HD
ATOM     48  H51 UNL     1     365.994 234.133 182.367  1.00  0.00     0.278 HD
ATOM     49  H63 UNL     1     367.198 237.386 183.185  1.00  0.00     0.278 HD
ATOM     50  H62 UNL     1     367.959 236.100 183.516  1.00  0.00     0.278 HD
ATOM     51  H61 UNL     1     367.137 236.139 182.024  1.00  0.00     0.278 HD
ENDBRANCH  40  41
ENDBRANCH  28  40
ENDBRANCH   1  28
TORSDOF 13
ENDMDL
MODEL 2
REMARK VINA RESULT: -9.033488418      1.273      2.631
REMARK  13 active torsions:
REMARK  status: ('A' for Active; 'I' for Inactive)
REMARK    1  A    between atoms: C2_2  and  C11_32 
REMARK    2  A    between atoms: N1_3  and  O1_5 
REMARK    3  A    between atoms: O1_5  and  C3_6 
REMARK    4  A    between atoms: C3_6  and  C5_8 
REMARK    5  A    between atoms: C5_8  and  O4_20 
REMARK    6  A    between atoms: N2_9  and  O2_11 
REMARK    7  A    between atoms: O2_11  and  C6_12 
REMARK    8  A    between atoms: C6_12  and  C7_14 
REMARK    9  A    between atoms: C7_14  and  N3_16 
REMARK   10  A    between atoms: O4_20  and  N4_21 
REMARK       I    between atoms: N4_21  and  C10_23 
REMARK       I    between atoms: C10_23  and  N5_24 
REMARK       I    between atoms: C10_23  and  N6_28 
REMARK   11  A    between atoms: C13_36  and  C14_37 
REMARK   12  A    between atoms: C19_46  and  O7_47 
REMARK   13  A    between atoms: C20_49  and  O8_50 
ROOT
HETATM    1  C3  UNL     1     364.370 235.961 188.224  1.00  0.00     0.226 C 
HETATM    2  C4  UNL     1     363.707 234.923 189.140  1.00  0.00     0.051 C 
ENDROOT
BRANCH   1   3
HETATM    3  O1  UNL     1     365.293 236.727 188.937  1.00  0.00    -0.267 OA
BRANCH   3   4
HETATM    4  N1  UNL     1     364.936 237.677 189.842  1.00  0.00    -0.268 N 
HETATM    5  C2  UNL     1     365.633 238.593 190.356  1.00  0.00     0.058 C 
HETATM    6  C1  UNL     1     367.058 238.802 190.036  1.00  0.00     0.072 C 
ATOM      7  H1  UNL     1     363.964 237.644 190.150  1.00  0.00     0.194 HD
BRANCH   5   8
HETATM    8  C11 UNL     1     364.994 239.506 191.327  1.00  0.00     0.093 A 
HETATM    9  N7  UNL     1     363.951 240.275 190.979  1.00  0.00    -0.351 N 
HETATM   10  C12 UNL     1     363.372 241.110 191.881  1.00  0.00     0.066 A 
ATOM     11  H7  UNL     1     363.589 240.232 190.027  1.00  0.00     0.166 HD
HETATM   12  C13 UNL     1     362.292 241.903 191.511  1.00  0.00     0.052 A 
HETATM   13  C18 UNL     1     363.804 241.219 193.181  1.00  0.00     0.096 A 
HETATM   14  C15 UNL     1     361.703 242.748 192.416  1.00  0.00     0.024 A 
HETATM   15  C16 UNL     1     360.547 243.598 192.021  1.00  0.00     0.069 C 
HETATM   16  N8  UNL     1     362.162 242.826 193.694  1.00  0.00    -0.326 N 
HETATM   17  C17 UNL     1     363.217 242.061 194.083  1.00  0.00     0.261 A 
ATOM     18  H8  UNL     1     361.715 243.457 194.359  1.00  0.00     0.169 HD
HETATM   19  O6  UNL     1     363.613 242.162 195.278  1.00  0.00    -0.267 OA
HETATM   20  C19 UNL     1     364.892 240.423 193.565  1.00  0.00     0.119 A 
HETATM   21  C20 UNL     1     365.463 239.586 192.636  1.00  0.00     0.129 A 
BRANCH  12  22
HETATM   22  C14 UNL     1     361.782 241.838 190.146  1.00  0.00     0.274 C 
HETATM   23  O5  UNL     1     361.500 240.711 189.661  1.00  0.00    -0.301 OA
ENDBRANCH  12  22
BRANCH  20  24
HETATM   24  O7  UNL     1     365.297 240.556 194.867  1.00  0.00    -0.357 OA
ATOM     25  H7  UNL     1     364.981 241.328 195.321  1.00  0.00     0.218 HD
ENDBRANCH  20  24
BRANCH  21  26
HETATM   26  O8  UNL     1     366.533 238.790 192.977  1.00  0.00    -0.356 OA
ATOM     27  H8  UNL     1     367.314 238.851 192.438  1.00  0.00     0.218 HD
ENDBRANCH  21  26
ENDBRANCH   5   8
ENDBRANCH   3   4
ENDBRANCH   1   3
BRANCH   1  28
HETATM   28  C5  UNL     1     364.929 235.253 187.051  1.00  0.00     0.191 C 
HETATM   29  N2  UNL     1     365.545 234.132 187.203  1.00  0.00    -0.235 N 
ATOM     30  H2  UNL     1     365.625 233.770 188.152  1.00  0.00     0.197 HD
BRANCH  29  31
HETATM   31  O2  UNL     1     366.097 233.395 186.211  1.00  0.00    -0.196 OA
BRANCH  31  32
HETATM   32  C6  UNL     1     366.872 232.281 186.378  1.00  0.00     0.311 C 
HETATM   33  O3  UNL     1     366.595 231.488 187.308  1.00  0.00    -0.261 OA
BRANCH  32  34
HETATM   34  C7  UNL     1     368.036 231.947 185.513  1.00  0.00     0.280 C 
HETATM   35  C8  UNL     1     367.467 231.329 184.229  1.00  0.00     0.051 C 
BRANCH  34  36
HETATM   36  N3  UNL     1     368.872 230.932 186.109  1.00  0.00    -0.066 N 
ATOM     37  H33 UNL     1     368.757 230.904 187.121  1.00  0.00     0.275 HD
ATOM     38  H32 UNL     1     368.537 229.996 185.883  1.00  0.00     0.275 HD
ATOM     39  H31 UNL     1     369.852 231.049 185.849  1.00  0.00     0.275 HD
ENDBRANCH  34  36
ENDBRANCH  32  34
ENDBRANCH  31  32
ENDBRANCH  29  31
BRANCH  28  40
HETATM   40  O4  UNL     1     364.824 235.741 185.758  1.00  0.00    -0.240 OA
BRANCH  40  41
HETATM   41  N4  UNL     1     365.859 236.258 185.053  1.00  0.00    -0.139 NA
HETATM   42  C9  UNL     1     365.867 237.708 185.135  1.00  0.00     0.149 C 
HETATM   43  C10 UNL     1     365.845 235.869 183.656  1.00  0.00     0.479 C 
HETATM   44  N5  UNL     1     365.918 234.441 183.492  1.00  0.00    -0.035 N 
HETATM   45  N6  UNL     1     367.059 236.430 183.056  1.00  0.00    -0.035 N 
ATOM     46  H53 UNL     1     366.729 234.054 183.975  1.00  0.00     0.278 HD
ATOM     47  H52 UNL     1     365.180 233.970 184.014  1.00  0.00     0.278 HD
ATOM     48  H51 UNL     1     365.909 234.167 182.509  1.00  0.00     0.278 HD
ATOM     49  H63 UNL     1     367.149 237.436 183.194  1.00  0.00     0.278 HD
ATOM     50  H62 UNL     1     367.913 236.158 183.542  1.00  0.00     0.278 HD
ATOM     51  H61 UNL     1     367.049 236.156 182.073  1.00  0.00     0.278 HD
ENDBRANCH  40  41
ENDBRANCH  28  40
ENDBRANCH   1  28
TORSDOF 13
ENDMDL
MODEL 3
REMARK VINA RESULT: -8.978016103      2.256      3.711
REMARK  13 active torsions:
REMARK  status: ('A' for Active; 'I' for Inactive)
REMARK    1  A    between atoms: C2_2  and  C11_32 
REMARK    2  A    between atoms: N1_3  and  O1_5 
REMARK    3  A    between atoms: O1_5  and  C3_6 
REMARK    4  A    between atoms: C3_6  and  C5_8 
REMARK    5  A    between atoms: C5_8  and  O4_20 
REMARK    6  A    between atoms: N2_9  and  O2_11 
REMARK    7  A    between atoms: O2_11  and  C6_12 
REMARK    8  A    between atoms: C6_12  and  C7_14 
REMARK    9  A    between atoms: C7_14  and  N3_16 
REMARK   10  A    between atoms: O4_20  and  N4_21 
REMARK       I    between atoms: N4_21  and  C10_23 
REMARK       I    between atoms: C10_23  and  N5_24 
REMARK       I    between atoms: C10_23  and  N6_28 
REMARK   11  A    between atoms: C13_36  and  C14_37 
REMARK   12  A    between atoms: C19_46  and  O7_47 
REMARK   13  A    between atoms: C20_49  and  O8_50 
ROOT
HETATM    1  C3  UNL     1     365.285 238.717 187.573  1.00  0.00     0.226 C 
HETATM    2  C4  UNL     1     363.924 239.406 187.750  1.00  0.00     0.051 C 
ENDROOT
BRANCH   1   3
HETATM    3  O1  UNL     1     366.126 239.010 188.646  1.00  0.00    -0.267 OA
BRANCH   3   4
HETATM    4  N1  UNL     1     365.692 239.108 189.932  1.00  0.00    -0.268 N 
HETATM    5  C2  UNL     1     365.659 240.115 190.690  1.00  0.00     0.058 C 
HETATM    6  C1  UNL     1     366.121 241.454 190.276  1.00  0.00     0.072 C 
ATOM      7  H1  UNL     1     365.343 238.242 190.342  1.00  0.00     0.194 HD
BRANCH   5   8
HETATM    8  C11 UNL     1     365.134 239.949 192.061  1.00  0.00     0.093 A 
HETATM    9  N7  UNL     1     363.880 240.309 192.374  1.00  0.00    -0.351 N 
HETATM   10  C12 UNL     1     363.407 240.151 193.638  1.00  0.00     0.066 A 
ATOM     11  H7  UNL     1     363.274 240.704 191.655  1.00  0.00     0.166 HD
HETATM   12  C13 UNL     1     362.106 240.527 193.953  1.00  0.00     0.052 A 
HETATM   13  C18 UNL     1     364.164 239.625 194.657  1.00  0.00     0.096 A 
HETATM   14  C15 UNL     1     361.623 240.371 195.227  1.00  0.00     0.024 A 
HETATM   15  C16 UNL     1     360.231 240.773 195.566  1.00  0.00     0.069 C 
HETATM   16  N8  UNL     1     362.406 239.845 196.207  1.00  0.00    -0.326 N 
HETATM   17  C17 UNL     1     363.682 239.469 195.927  1.00  0.00     0.261 A 
ATOM     18  H8  UNL     1     362.036 239.733 197.151  1.00  0.00     0.169 HD
HETATM   19  O6  UNL     1     364.377 238.986 196.864  1.00  0.00    -0.267 OA
HETATM   20  C19 UNL     1     365.477 239.243 194.350  1.00  0.00     0.119 A 
HETATM   21  C20 UNL     1     365.934 239.411 193.065  1.00  0.00     0.129 A 
BRANCH  12  22
HETATM   22  C14 UNL     1     361.247 241.094 192.919  1.00  0.00     0.274 C 
HETATM   23  O5  UNL     1     361.515 242.241 192.476  1.00  0.00    -0.301 OA
ENDBRANCH  12  22
BRANCH  20  24
HETATM   24  O7  UNL     1     366.204 238.721 195.388  1.00  0.00    -0.357 OA
ATOM     25  H7  UNL     1     366.225 239.244 196.181  1.00  0.00     0.218 HD
ENDBRANCH  20  24
BRANCH  21  26
HETATM   26  O8  UNL     1     367.219 239.047 192.726  1.00  0.00    -0.356 OA
ATOM     27  H8  UNL     1     367.517 238.188 193.000  1.00  0.00     0.218 HD
ENDBRANCH  21  26
ENDBRANCH   5   8
ENDBRANCH   3   4
ENDBRANCH   1   3
BRANCH   1  28
HETATM   28  C5  UNL     1     365.047 237.274 187.349  1.00  0.00     0.191 C 
HETATM   29  N2  UNL     1     365.136 236.442 188.327  1.00  0.00    -0.235 N 
ATOM     30  H2  UNL     1     365.374 236.823 189.243  1.00  0.00     0.197 HD
BRANCH  29  31
HETATM   31  O2  UNL     1     364.942 235.105 188.246  1.00  0.00    -0.196 OA
BRANCH  31  32
HETATM   32  C6  UNL     1     364.013 234.387 188.947  1.00  0.00     0.311 C 
HETATM   33  O3  UNL     1     363.039 234.993 189.452  1.00  0.00    -0.261 OA
BRANCH  32  34
HETATM   34  C7  UNL     1     364.086 232.915 189.148  1.00  0.00     0.280 C 
HETATM   35  C8  UNL     1     365.556 232.517 188.958  1.00  0.00     0.051 C 
BRANCH  34  36
HETATM   36  N3  UNL     1     363.344 232.199 188.137  1.00  0.00    -0.066 N 
ATOM     37  H33 UNL     1     362.591 232.770 187.755  1.00  0.00     0.275 HD
ATOM     38  H32 UNL     1     363.896 232.076 187.288  1.00  0.00     0.275 HD
ATOM     39  H31 UNL     1     362.995 231.306 188.485  1.00  0.00     0.275 HD
ENDBRANCH  34  36
ENDBRANCH  32  34
ENDBRANCH  31  32
ENDBRANCH  29  31
BRANCH  28  40
HETATM   40  O4  UNL     1     364.724 236.750 186.107  1.00  0.00    -0.240 OA
BRANCH  40  41
HETATM   41  N4  UNL     1     365.627 236.225 185.244  1.00  0.00    -0.139 NA
HETATM   42  C9  UNL     1     366.026 237.209 184.253  1.00  0.00     0.149 C 
HETATM   43  C10 UNL     1     365.138 235.044 184.559  1.00  0.00     0.479 C 
HETATM   44  N5  UNL     1     364.798 233.989 185.478  1.00  0.00    -0.035 N 
HETATM   45  N6  UNL     1     366.246 234.552 183.736  1.00  0.00    -0.035 N 
ATOM     46  H53 UNL     1     365.582 233.764 186.089  1.00  0.00     0.278 HD
ATOM     47  H52 UNL     1     364.133 234.311 186.180  1.00  0.00     0.278 HD
ATOM     48  H51 UNL     1     364.454 233.158 184.997  1.00  0.00     0.278 HD
ATOM     49  H63 UNL     1     366.624 235.257 183.104  1.00  0.00     0.278 HD
ATOM     50  H62 UNL     1     367.101 234.386 184.267  1.00  0.00     0.278 HD
ATOM     51  H61 UNL     1     365.902 233.720 183.255  1.00  0.00     0.278 HD
ENDBRANCH  40  41
ENDBRANCH  28  40
ENDBRANCH   1  28
TORSDOF 13
ENDMDL
MODEL 4
REMARK VINA RESULT: -8.935502134      2.232      3.574
REMARK  13 active torsions:
REMARK  status: ('A' for Active; 'I' for Inactive)
REMARK    1  A    between atoms: C2_2  and  C11_32 
REMARK    2  A    between atoms: N1_3  and  O1_5 
REMARK    3  A    between atoms: O1_5  and  C3_6 
REMARK    4  A    between atoms: C3_6  and  C5_8 
REMARK    5  A    between atoms: C5_8  and  O4_20 
REMARK    6  A    between atoms: N2_9  and  O2_11 
REMARK    7  A    between atoms: O2_11  and  C6_12 
REMARK    8  A    between atoms: C6_12  and  C7_14 
REMARK    9  A    between atoms: C7_14  and  N3_16 
REMARK   10  A    between atoms: O4_20  and  N4_21 
REMARK       I    between atoms: N4_21  and  C10_23 
REMARK       I    between atoms: C10_23  and  N5_24 
REMARK       I    between atoms: C10_23  and  N6_28 
REMARK   11  A    between atoms: C13_36  and  C14_37 
REMARK   12  A    between atoms: C19_46  and  O7_47 
REMARK   13  A    between atoms: C20_49  and  O8_50 
ROOT
HETATM    1  C3  UNL     1     365.338 237.713 188.105  1.00  0.00     0.226 C 
HETATM    2  C4  UNL     1     364.458 238.953 187.891  1.00  0.00     0.051 C 
ENDROOT
BRANCH   1   3
HETATM    3  O1  UNL     1     365.826 237.678 189.412  1.00  0.00    -0.267 OA
BRANCH   3   4
HETATM    4  N1  UNL     1     365.230 238.323 190.451  1.00  0.00    -0.268 N 
HETATM    5  C2  UNL     1     365.556 239.402 191.014  1.00  0.00     0.058 C 
HETATM    6  C1  UNL     1     366.727 240.204 190.610  1.00  0.00     0.072 C 
ATOM      7  H1  UNL     1     364.398 237.868 190.828  1.00  0.00     0.194 HD
BRANCH   5   8
HETATM    8  C11 UNL     1     364.728 239.891 192.136  1.00  0.00     0.093 A 
HETATM    9  N7  UNL     1     363.582 240.554 191.919  1.00  0.00    -0.351 N 
HETATM   10  C12 UNL     1     362.829 240.999 192.958  1.00  0.00     0.066 A 
ATOM     11  H7  UNL     1     363.272 240.726 190.962  1.00  0.00     0.166 HD
HETATM   12  C13 UNL     1     361.642 241.685 192.723  1.00  0.00     0.052 A 
HETATM   13  C18 UNL     1     363.181 240.803 194.272  1.00  0.00     0.096 A 
HETATM   14  C15 UNL     1     360.877 242.136 193.768  1.00  0.00     0.024 A 
HETATM   15  C16 UNL     1     359.608 242.871 193.517  1.00  0.00     0.069 C 
HETATM   16  N8  UNL     1     361.263 241.921 195.054  1.00  0.00    -0.326 N 
HETATM   17  C17 UNL     1     362.419 241.253 195.313  1.00  0.00     0.261 A 
ATOM     18  H8  UNL     1     360.685 242.261 195.823  1.00  0.00     0.169 HD
HETATM   19  O6  UNL     1     362.741 241.074 196.521  1.00  0.00    -0.267 OA
HETATM   20  C19 UNL     1     364.375 240.112 194.520  1.00  0.00     0.119 A 
HETATM   21  C20 UNL     1     365.122 239.672 193.453  1.00  0.00     0.129 A 
BRANCH  12  22
HETATM   22  C14 UNL     1     361.209 241.928 191.352  1.00  0.00     0.274 C 
HETATM   23  O5  UNL     1     361.096 240.947 190.572  1.00  0.00    -0.301 OA
ENDBRANCH  12  22
BRANCH  20  24
HETATM   24  O7  UNL     1     364.697 239.934 195.840  1.00  0.00    -0.357 OA
ATOM     25  H7  UNL     1     365.561 239.578 196.010  1.00  0.00     0.218 HD
ENDBRANCH  20  24
BRANCH  21  26
HETATM   26  O8  UNL     1     366.300 238.990 193.659  1.00  0.00    -0.356 OA
ATOM     27  H8  UNL     1     366.256 238.178 194.150  1.00  0.00     0.218 HD
ENDBRANCH  21  26
ENDBRANCH   5   8
ENDBRANCH   3   4
ENDBRANCH   1   3
BRANCH   1  28
HETATM   28  C5  UNL     1     364.561 236.520 187.703  1.00  0.00     0.191 C 
HETATM   29  N2  UNL     1     364.062 235.738 188.596  1.00  0.00    -0.235 N 
ATOM     30  H2  UNL     1     364.227 235.981 189.572  1.00  0.00     0.197 HD
BRANCH  29  31
HETATM   31  O2  UNL     1     363.337 234.622 188.351  1.00  0.00    -0.196 OA
BRANCH  31  32
HETATM   32  C6  UNL     1     363.746 233.337 188.571  1.00  0.00     0.311 C 
HETATM   33  O3  UNL     1     363.119 232.402 188.020  1.00  0.00    -0.261 OA
BRANCH  32  34
HETATM   34  C7  UNL     1     364.905 232.973 189.431  1.00  0.00     0.280 C 
HETATM   35  C8  UNL     1     365.881 232.188 188.545  1.00  0.00     0.051 C 
BRANCH  34  36
HETATM   36  N3  UNL     1     364.521 232.078 190.496  1.00  0.00    -0.066 N 
ATOM     37  H33 UNL     1     363.555 231.768 190.390  1.00  0.00     0.275 HD
ATOM     38  H32 UNL     1     364.988 231.175 190.409  1.00  0.00     0.275 HD
ATOM     39  H31 UNL     1     364.680 232.491 191.415  1.00  0.00     0.275 HD
ENDBRANCH  34  36
ENDBRANCH  32  34
ENDBRANCH  31  32
ENDBRANCH  29  31
BRANCH  28  40
HETATM   40  O4  UNL     1     364.333 236.185 186.377  1.00  0.00    -0.240 OA
BRANCH  40  41
HETATM   41  N4  UNL     1     365.309 235.858 185.495  1.00  0.00    -0.139 NA
HETATM   42  C9  UNL     1     365.601 236.975 184.613  1.00  0.00     0.149 C 
HETATM   43  C10 UNL     1     364.982 234.698 184.689  1.00  0.00     0.479 C 
HETATM   44  N5  UNL     1     364.758 233.526 185.494  1.00  0.00    -0.035 N 
HETATM   45  N6  UNL     1     366.156 234.426 183.856  1.00  0.00    -0.035 N 
ATOM     46  H53 UNL     1     365.553 233.340 186.104  1.00  0.00     0.278 HD
ATOM     47  H52 UNL     1     364.046 233.696 186.204  1.00  0.00     0.278 HD
ATOM     48  H51 UNL     1     364.528 232.710 184.927  1.00  0.00     0.278 HD
ATOM     49  H63 UNL     1     366.455 235.230 183.304  1.00  0.00     0.278 HD
ATOM     50  H62 UNL     1     367.016 234.315 184.394  1.00  0.00     0.278 HD
ATOM     51  H61 UNL     1     365.926 233.610 183.289  1.00  0.00     0.278 HD
ENDBRANCH  40  41
ENDBRANCH  28  40
ENDBRANCH   1  28
TORSDOF 13
ENDMDL
MODEL 5
REMARK VINA RESULT: -8.931356526      2.241      3.058
REMARK  13 active torsions:
REMARK  status: ('A' for Active; 'I' for Inactive)
REMARK    1  A    between atoms: C2_2  and  C11_32 
REMARK    2  A    between atoms: N1_3  and  O1_5 
REMARK    3  A    between atoms: O1_5  and  C3_6 
REMARK    4  A    between atoms: C3_6  and  C5_8 
REMARK    5  A    between atoms: C5_8  and  O4_20 
REMARK    6  A    between atoms: N2_9  and  O2_11 
REMARK    7  A    between atoms: O2_11  and  C6_12 
REMARK    8  A    between atoms: C6_12  and  C7_14 
REMARK    9  A    between atoms: C7_14  and  N3_16 
REMARK   10  A    between atoms: O4_20  and  N4_21 
REMARK       I    between atoms: N4_21  and  C10_23 
REMARK       I    between atoms: C10_23  and  N5_24 
REMARK       I    between atoms: C10_23  and  N6_28 
REMARK   11  A    between atoms: C13_36  and  C14_37 
REMARK   12  A    between atoms: C19_46  and  O7_47 
REMARK   13  A    between atoms: C20_49  and  O8_50 
ROOT
HETATM    1  C3  UNL     1     365.229 238.782 187.768  1.00  0.00     0.226 C 
HETATM    2  C4  UNL     1     363.884 239.496 187.575  1.00  0.00     0.051 C 
ENDROOT
BRANCH   1   3
HETATM    3  O1  UNL     1     365.769 239.083 189.018  1.00  0.00    -0.267 OA
BRANCH   3   4
HETATM    4  N1  UNL     1     365.011 239.328 190.121  1.00  0.00    -0.268 N 
HETATM    5  C2  UNL     1     365.129 240.237 190.986  1.00  0.00     0.058 C 
HETATM    6  C1  UNL     1     366.189 241.263 190.942  1.00  0.00     0.072 C 
ATOM      7  H1  UNL     1     364.234 238.684 190.270  1.00  0.00     0.194 HD
BRANCH   5   8
HETATM    8  C11 UNL     1     364.160 240.281 192.101  1.00  0.00     0.093 A 
HETATM    9  N7  UNL     1     364.406 239.656 193.263  1.00  0.00    -0.351 N 
HETATM   10  C12 UNL     1     363.508 239.704 194.281  1.00  0.00     0.066 A 
ATOM     11  H7  UNL     1     365.277 239.140 193.383  1.00  0.00     0.166 HD
HETATM   12  C13 UNL     1     363.772 239.053 195.481  1.00  0.00     0.052 A 
HETATM   13  C18 UNL     1     362.315 240.380 194.192  1.00  0.00     0.096 A 
HETATM   14  C15 UNL     1     362.869 239.097 196.513  1.00  0.00     0.024 A 
HETATM   15  C16 UNL     1     363.150 238.400 197.797  1.00  0.00     0.069 C 
HETATM   16  N8  UNL     1     361.699 239.778 196.383  1.00  0.00    -0.326 N 
HETATM   17  C17 UNL     1     361.416 240.424 195.220  1.00  0.00     0.261 A 
ATOM     18  H8  UNL     1     361.036 239.804 197.157  1.00  0.00     0.169 HD
HETATM   19  O6  UNL     1     360.319 241.045 195.140  1.00  0.00    -0.267 OA
HETATM   20  C19 UNL     1     362.039 241.040 192.987  1.00  0.00     0.119 A 
HETATM   21  C20 UNL     1     362.962 240.978 191.970  1.00  0.00     0.129 A 
BRANCH  12  22
HETATM   22  C14 UNL     1     365.019 238.315 195.643  1.00  0.00     0.274 C 
HETATM   23  O5  UNL     1     366.102 238.892 195.362  1.00  0.00    -0.301 OA
ENDBRANCH  12  22
BRANCH  20  24
HETATM   24  O7  UNL     1     360.842 241.705 192.931  1.00  0.00    -0.357 OA
ATOM     25  H7  UNL     1     360.110 241.273 193.355  1.00  0.00     0.218 HD
ENDBRANCH  20  24
BRANCH  21  26
HETATM   26  O8  UNL     1     362.726 241.614 190.772  1.00  0.00    -0.356 OA
ATOM     27  H8  UNL     1     362.642 242.560 190.787  1.00  0.00     0.218 HD
ENDBRANCH  21  26
ENDBRANCH   5   8
ENDBRANCH   3   4
ENDBRANCH   1   3
BRANCH   1  28
HETATM   28  C5  UNL     1     365.027 237.339 187.512  1.00  0.00     0.191 C 
HETATM   29  N2  UNL     1     365.139 236.488 188.472  1.00  0.00    -0.235 N 
ATOM     30  H2  UNL     1     365.369 236.854 189.395  1.00  0.00     0.197 HD
BRANCH  29  31
HETATM   31  O2  UNL     1     364.978 235.149 188.361  1.00  0.00    -0.196 OA
BRANCH  31  32
HETATM   32  C6  UNL     1     364.011 234.404 188.978  1.00  0.00     0.311 C 
HETATM   33  O3  UNL     1     362.996 234.987 189.424  1.00  0.00    -0.261 OA
BRANCH  32  34
HETATM   34  C7  UNL     1     364.090 232.929 189.153  1.00  0.00     0.280 C 
HETATM   35  C8  UNL     1     365.555 232.536 188.923  1.00  0.00     0.051 C 
BRANCH  34  36
HETATM   36  N3  UNL     1     363.325 232.229 188.149  1.00  0.00    -0.066 N 
ATOM     37  H33 UNL     1     362.338 232.183 188.399  1.00  0.00     0.275 HD
ATOM     38  H32 UNL     1     363.247 232.777 187.292  1.00  0.00     0.275 HD
ATOM     39  H31 UNL     1     363.705 231.301 187.962  1.00  0.00     0.275 HD
ENDBRANCH  34  36
ENDBRANCH  32  34
ENDBRANCH  31  32
ENDBRANCH  29  31
BRANCH  28  40
HETATM   40  O4  UNL     1     364.714 236.835 186.259  1.00  0.00    -0.240 OA
BRANCH  40  41
HETATM   41  N4  UNL     1     365.627 236.346 185.385  1.00  0.00    -0.139 NA
HETATM   42  C9  UNL     1     366.006 237.359 184.416  1.00  0.00     0.149 C 
HETATM   43  C10 UNL     1     365.162 235.170 184.676  1.00  0.00     0.479 C 
HETATM   44  N5  UNL     1     364.843 234.090 185.571  1.00  0.00    -0.035 N 
HETATM   45  N6  UNL     1     366.279 234.719 183.842  1.00  0.00    -0.035 N 
ATOM     46  H53 UNL     1     365.632 233.867 186.178  1.00  0.00     0.278 HD
ATOM     47  H52 UNL     1     364.172 234.383 186.280  1.00  0.00     0.278 HD
ATOM     48  H51 UNL     1     364.516 233.262 185.072  1.00  0.00     0.278 HD
ATOM     49  H63 UNL     1     366.642 235.446 183.225  1.00  0.00     0.278 HD
ATOM     50  H62 UNL     1     367.138 234.559 184.369  1.00  0.00     0.278 HD
ATOM     51  H61 UNL     1     365.952 233.891 183.343  1.00  0.00     0.278 HD
ENDBRANCH  40  41
ENDBRANCH  28  40
ENDBRANCH   1  28
TORSDOF 13
ENDMDL
