MODEL 1
REMARK VINA RESULT: -9.145224617      0.000      0.000
REMARK  12 active torsions:
REMARK  status: ('A' for Active; 'I' for Inactive)
REMARK    1  A    between atoms: C2_2  and  O1_4 
REMARK    2  A    between atoms: C2_2  and  C4_6 
REMARK    3  A    between atoms: C4_6  and  O3_8 
REMARK    4  A    between atoms: O3_8  and  C5_9 
REMARK    5  A    between atoms: C5_9  and  C6_11 
REMARK    6  A    between atoms: C10_17  and  C11_18 
REMARK    7  A    between atoms: C11_18  and  O5_19 
REMARK    8  A    between atoms: O5_19  and  C12_20 
REMARK       I    between atoms: C12_20  and  N2_22 
REMARK    9  A    between atoms: N2_22  and  C13_24 
REMARK   10  A    between atoms: C13_24  and  C14_25 
REMARK   11  A    between atoms: N4_31  and  C18_33 
REMARK   12  A    between atoms: C19_38  and  N9_39 
ROOT
HETATM    1  C12 UNL     1     364.296 239.313 188.225  1.00  0.00     0.361 C 
HETATM    2  O6  UNL     1     363.230 239.632 187.660  1.00  0.00    -0.238 OA
HETATM    3  N2  UNL     1     364.624 237.917 188.448  1.00  0.00    -0.333 N 
ATOM      4  H2  UNL     1     365.489 237.650 188.918  1.00  0.00     0.165 HD
ENDROOT
BRANCH   1   5
HETATM    5  O5  UNL     1     365.166 240.295 188.641  1.00  0.00    -0.298 OA
BRANCH   5   6
HETATM    6  C11 UNL     1     364.902 241.315 189.570  1.00  0.00     0.238 C 
BRANCH   6   7
HETATM    7  C10 UNL     1     366.155 241.722 190.228  1.00  0.00     0.050 A 
HETATM    8  C6  UNL     1     366.776 240.853 191.086  1.00  0.00     0.064 A 
HETATM    9  C7  UNL     1     367.978 241.250 191.689  1.00  0.00     0.021 A 
HETATM   10  C8  UNL     1     368.532 242.461 191.443  1.00  0.00     0.018 A 
HETATM   11  C9  UNL     1     367.878 243.314 190.571  1.00  0.00     0.088 A 
HETATM   12  N1  UNL     1     366.734 242.929 190.001  1.00  0.00    -0.367 N 
ATOM     13  H1  UNL     1     366.271 243.575 189.362  1.00  0.00     0.165 HD
BRANCH   8  14
HETATM   14  C5  UNL     1     366.289 239.526 191.433  1.00  0.00     0.302 C 
HETATM   15  O4  UNL     1     366.741 238.526 190.842  1.00  0.00    -0.259 OA
BRANCH  14  16
HETATM   16  O3  UNL     1     365.330 239.301 192.401  1.00  0.00    -0.239 OA
BRANCH  16  17
HETATM   17  C4  UNL     1     365.588 239.188 193.741  1.00  0.00     0.300 C 
HETATM   18  O2  UNL     1     366.663 238.651 194.105  1.00  0.00    -0.261 OA
BRANCH  17  19
HETATM   19  C2  UNL     1     364.657 239.670 194.792  1.00  0.00     0.138 C 
HETATM   20  C1  UNL     1     364.453 238.540 195.785  1.00  0.00     0.056 C 
HETATM   21  C3  UNL     1     363.331 239.947 194.092  1.00  0.00     0.056 C 
BRANCH  19  22
HETATM   22  O1  UNL     1     365.103 240.836 195.390  1.00  0.00    -0.380 OA
ATOM     23  H1  UNL     1     364.439 241.515 195.414  1.00  0.00     0.211 HD
ENDBRANCH  19  22
ENDBRANCH  17  19
ENDBRANCH  16  17
ENDBRANCH  14  16
ENDBRANCH   8  14
ENDBRANCH   6   7
ENDBRANCH   5   6
ENDBRANCH   1   5
BRANCH   3  24
HETATM   24  C13 UNL     1     363.704 236.930 187.993  1.00  0.00     0.166 C 
BRANCH  24  25
HETATM   25  C14 UNL     1     364.132 235.529 188.179  1.00  0.00    -0.002 A 
HETATM   26  C15 UNL     1     363.790 234.728 189.240  1.00  0.00     0.028 A 
HETATM   27  C16 UNL     1     364.231 233.422 189.321  1.00  0.00     0.090 A 
HETATM   28  N3  UNL     1     365.000 232.943 188.351  1.00  0.00    -0.350 N 
HETATM   29  C17 UNL     1     365.391 233.683 187.247  1.00  0.00     0.137 A 
ATOM     30  H3  UNL     1     365.321 231.977 188.422  1.00  0.00     0.166 HD
HETATM   31  N4  UNL     1     366.122 233.089 186.452  1.00  0.00    -0.341 N 
HETATM   32  C19 UNL     1     364.942 234.986 187.178  1.00  0.00     0.154 A 
ATOM     33  H4  UNL     1     366.272 232.147 186.812  1.00  0.00     0.164 HD
BRANCH  31  34
HETATM   34  C18 UNL     1     366.813 233.200 185.268  1.00  0.00     0.308 C 
HETATM   35  N5  UNL     1     367.471 231.944 184.904  1.00  0.00    -0.085 NA
HETATM   36  N6  UNL     1     366.628 231.295 183.995  1.00  0.00    -0.018 NA
HETATM   37  N7  UNL     1     365.435 232.035 183.979  1.00  0.00    -0.018 NA
HETATM   38  N8  UNL     1     365.907 233.356 184.103  1.00  0.00    -0.085 NA
ENDBRANCH  31  34
BRANCH  32  39
HETATM   39  N9  UNL     1     365.253 235.841 186.093  1.00  0.00    -0.111 N 
HETATM   40  O7  UNL     1     366.357 236.445 186.091  1.00  0.00    -0.532 OA
HETATM   41  O8  UNL     1     364.443 236.077 185.017  1.00  0.00    -0.532 OA
ENDBRANCH  32  39
ENDBRANCH  24  25
ENDBRANCH   3  24
TORSDOF 12
ENDMDL
MODEL 2
REMARK VINA RESULT: -9.142134363      1.486      2.240
REMARK  12 active torsions:
REMARK  status: ('A' for Active; 'I' for Inactive)
REMARK    1  A    between atoms: C2_2  and  O1_4 
REMARK    2  A    between atoms: C2_2  and  C4_6 
REMARK    3  A    between atoms: C4_6  and  O3_8 
REMARK    4  A    between atoms: O3_8  and  C5_9 
REMARK    5  A    between atoms: C5_9  and  C6_11 
REMARK    6  A    between atoms: C10_17  and  C11_18 
REMARK    7  A    between atoms: C11_18  and  O5_19 
REMARK    8  A    between atoms: O5_19  and  C12_20 
REMARK       I    between atoms: C12_20  and  N2_22 
REMARK    9  A    between atoms: N2_22  and  C13_24 
REMARK   10  A    between atoms: C13_24  and  C14_25 
REMARK   11  A    between atoms: N4_31  and  C18_33 
REMARK   12  A    between atoms: C19_38  and  N9_39 
ROOT
HETATM    1  C12 UNL     1     366.747 238.551 190.300  1.00  0.00     0.361 C 
HETATM    2  O6  UNL     1     367.646 238.473 189.439  1.00  0.00    -0.238 OA
HETATM    3  N2  UNL     1     365.373 238.226 189.964  1.00  0.00    -0.333 N 
ATOM      4  H2  UNL     1     364.632 238.297 190.660  1.00  0.00     0.165 HD
ENDROOT
BRANCH   1   5
HETATM    5  O5  UNL     1     367.062 238.951 191.580  1.00  0.00    -0.298 OA
BRANCH   5   6
HETATM    6  C11 UNL     1     367.680 240.154 191.957  1.00  0.00     0.238 C 
BRANCH   6   7
HETATM    7  C10 UNL     1     366.933 241.292 191.396  1.00  0.00     0.050 A 
HETATM    8  C6  UNL     1     365.648 241.522 191.812  1.00  0.00     0.064 A 
HETATM    9  C7  UNL     1     364.958 242.621 191.281  1.00  0.00     0.021 A 
HETATM   10  C8  UNL     1     365.529 243.451 190.376  1.00  0.00     0.018 A 
HETATM   11  C9  UNL     1     366.828 243.189 189.978  1.00  0.00     0.088 A 
HETATM   12  N1  UNL     1     367.479 242.141 190.487  1.00  0.00    -0.367 N 
ATOM     13  H1  UNL     1     368.435 241.968 190.178  1.00  0.00     0.165 HD
BRANCH   8  14
HETATM   14  C5  UNL     1     364.921 240.711 192.778  1.00  0.00     0.302 C 
HETATM   15  O4  UNL     1     364.098 239.865 192.381  1.00  0.00    -0.259 OA
BRANCH  14  16
HETATM   16  O3  UNL     1     365.093 240.826 194.144  1.00  0.00    -0.239 OA
BRANCH  16  17
HETATM   17  C4  UNL     1     364.936 239.801 195.038  1.00  0.00     0.300 C 
HETATM   18  O2  UNL     1     365.889 239.002 195.211  1.00  0.00    -0.261 OA
BRANCH  17  19
HETATM   19  C2  UNL     1     363.691 239.583 195.815  1.00  0.00     0.138 C 
HETATM   20  C1  UNL     1     363.350 240.884 196.519  1.00  0.00     0.056 C 
HETATM   21  C3  UNL     1     364.025 238.534 196.869  1.00  0.00     0.056 C 
BRANCH  19  22
HETATM   22  O1  UNL     1     362.657 239.113 195.025  1.00  0.00    -0.380 OA
ATOM     23  H1  UNL     1     362.747 238.193 194.807  1.00  0.00     0.211 HD
ENDBRANCH  19  22
ENDBRANCH  17  19
ENDBRANCH  16  17
ENDBRANCH  14  16
ENDBRANCH   8  14
ENDBRANCH   6   7
ENDBRANCH   5   6
ENDBRANCH   1   5
BRANCH   3  24
HETATM   24  C13 UNL     1     365.089 237.805 188.634  1.00  0.00     0.166 C 
BRANCH  24  25
HETATM   25  C14 UNL     1     364.754 236.375 188.479  1.00  0.00    -0.002 A 
HETATM   26  C15 UNL     1     364.112 235.603 189.415  1.00  0.00     0.028 A 
HETATM   27  C16 UNL     1     363.830 234.273 189.173  1.00  0.00     0.090 A 
HETATM   28  N3  UNL     1     364.191 233.741 188.012  1.00  0.00    -0.350 N 
HETATM   29  C17 UNL     1     364.841 234.449 187.015  1.00  0.00     0.137 A 
ATOM     30  H3  UNL     1     363.979 232.757 187.845  1.00  0.00     0.166 HD
HETATM   31  N4  UNL     1     365.121 233.796 186.007  1.00  0.00    -0.341 N 
HETATM   32  C19 UNL     1     365.116 235.777 187.268  1.00  0.00     0.154 A 
ATOM     33  H4  UNL     1     364.791 232.843 186.154  1.00  0.00     0.164 HD
BRANCH  31  34
HETATM   34  C18 UNL     1     365.703 233.850 184.763  1.00  0.00     0.308 C 
HETATM   35  N5  UNL     1     366.692 232.786 184.580  1.00  0.00    -0.085 NA
HETATM   36  N6  UNL     1     366.048 231.750 183.895  1.00  0.00    -0.018 NA
HETATM   37  N7  UNL     1     364.689 232.100 183.854  1.00  0.00    -0.018 NA
HETATM   38  N8  UNL     1     364.750 233.496 183.682  1.00  0.00    -0.085 NA
ENDBRANCH  31  34
BRANCH  32  39
HETATM   39  N9  UNL     1     365.757 236.615 186.324  1.00  0.00    -0.111 N 
HETATM   40  O7  UNL     1     365.085 237.078 185.366  1.00  0.00    -0.532 OA
HETATM   41  O8  UNL     1     367.076 236.979 186.358  1.00  0.00    -0.532 OA
ENDBRANCH  32  39
ENDBRANCH  24  25
ENDBRANCH   3  24
TORSDOF 12
ENDMDL
MODEL 3
REMARK VINA RESULT: -9.119266034      1.868      4.059
REMARK  12 active torsions:
REMARK  status: ('A' for Active; 'I' for Inactive)
REMARK    1  A    between atoms: C2_2  and  O1_4 
REMARK    2  A    between atoms: C2_2  and  C4_6 
REMARK    3  A    between atoms: C4_6  and  O3_8 
REMARK    4  A    between atoms: O3_8  and  C5_9 
REMARK    5  A    between atoms: C5_9  and  C6_11 
REMARK    6  A    between atoms: C10_17  and  C11_18 
REMARK    7  A    between atoms: C11_18  and  O5_19 
REMARK    8  A    between atoms: O5_19  and  C12_20 
REMARK       I    between atoms: C12_20  and  N2_22 
REMARK    9  A    between atoms: N2_22  and  C13_24 
REMARK   10  A    between atoms: C13_24  and  C14_25 
REMARK   11  A    between atoms: N4_31  and  C18_33 
REMARK   12  A    between atoms: C19_38  and  N9_39 
ROOT
HETATM    1  C12 UNL     1     366.606 238.408 190.063  1.00  0.00     0.361 C 
HETATM    2  O6  UNL     1     367.448 238.340 189.144  1.00  0.00    -0.238 OA
HETATM    3  N2  UNL     1     365.220 238.052 189.822  1.00  0.00    -0.333 N 
ATOM      4  H2  UNL     1     364.526 238.115 190.566  1.00  0.00     0.165 HD
ENDROOT
BRANCH   1   5
HETATM    5  O5  UNL     1     366.998 238.828 191.314  1.00  0.00    -0.298 OA
BRANCH   5   6
HETATM    6  C11 UNL     1     366.586 239.995 191.978  1.00  0.00     0.238 C 
BRANCH   6   7
HETATM    7  C10 UNL     1     365.646 239.645 193.057  1.00  0.00     0.050 A 
HETATM    8  C6  UNL     1     364.345 240.068 192.978  1.00  0.00     0.064 A 
HETATM    9  C7  UNL     1     363.460 239.710 194.005  1.00  0.00     0.021 A 
HETATM   10  C8  UNL     1     363.860 238.964 195.061  1.00  0.00     0.018 A 
HETATM   11  C9  UNL     1     365.181 238.554 195.109  1.00  0.00     0.088 A 
HETATM   12  N1  UNL     1     366.018 238.898 194.128  1.00  0.00    -0.367 N 
ATOM     13  H1  UNL     1     366.987 238.585 194.186  1.00  0.00     0.165 HD
BRANCH   8  14
HETATM   14  C5  UNL     1     363.789 240.871 191.899  1.00  0.00     0.302 C 
HETATM   15  O4  UNL     1     363.464 242.055 192.111  1.00  0.00    -0.259 OA
BRANCH  14  16
HETATM   16  O3  UNL     1     363.591 240.388 190.620  1.00  0.00    -0.239 OA
BRANCH  16  17
HETATM   17  C4  UNL     1     362.951 241.070 189.620  1.00  0.00     0.300 C 
HETATM   18  O2  UNL     1     361.718 240.889 189.461  1.00  0.00    -0.261 OA
BRANCH  17  19
HETATM   19  C2  UNL     1     363.642 242.016 188.709  1.00  0.00     0.138 C 
HETATM   20  C1  UNL     1     362.878 242.038 187.397  1.00  0.00     0.056 C 
HETATM   21  C3  UNL     1     365.025 241.429 188.455  1.00  0.00     0.056 C 
BRANCH  19  22
HETATM   22  O1  UNL     1     363.781 243.273 189.271  1.00  0.00    -0.380 OA
ATOM     23  H1  UNL     1     363.847 243.249 190.218  1.00  0.00     0.211 HD
ENDBRANCH  19  22
ENDBRANCH  17  19
ENDBRANCH  16  17
ENDBRANCH  14  16
ENDBRANCH   8  14
ENDBRANCH   6   7
ENDBRANCH   5   6
ENDBRANCH   1   5
BRANCH   3  24
HETATM   24  C13 UNL     1     364.858 237.611 188.518  1.00  0.00     0.166 C 
BRANCH  24  25
HETATM   25  C14 UNL     1     364.655 236.155 188.374  1.00  0.00    -0.002 A 
HETATM   26  C15 UNL     1     364.022 235.346 189.285  1.00  0.00     0.028 A 
HETATM   27  C16 UNL     1     363.870 233.993 189.055  1.00  0.00     0.090 A 
HETATM   28  N3  UNL     1     364.350 233.475 187.931  1.00  0.00    -0.350 N 
HETATM   29  C17 UNL     1     365.000 234.220 186.961  1.00  0.00     0.137 A 
ATOM     30  H3  UNL     1     364.232 232.474 187.772  1.00  0.00     0.166 HD
HETATM   31  N4  UNL     1     365.399 233.576 185.988  1.00  0.00    -0.341 N 
HETATM   32  C19 UNL     1     365.144 235.570 187.202  1.00  0.00     0.154 A 
ATOM     33  H4  UNL     1     365.142 232.600 186.135  1.00  0.00     0.164 HD
BRANCH  31  34
HETATM   34  C18 UNL     1     366.054 233.660 184.782  1.00  0.00     0.308 C 
HETATM   35  N5  UNL     1     366.619 232.370 184.381  1.00  0.00    -0.085 NA
HETATM   36  N6  UNL     1     365.707 231.786 183.496  1.00  0.00    -0.018 NA
HETATM   37  N7  UNL     1     364.562 232.599 183.530  1.00  0.00    -0.018 NA
HETATM   38  N8  UNL     1     365.120 233.887 183.651  1.00  0.00    -0.085 NA
ENDBRANCH  31  34
BRANCH  32  39
HETATM   39  N9  UNL     1     365.771 236.444 186.282  1.00  0.00    -0.111 N 
HETATM   40  O7  UNL     1     365.098 236.908 185.326  1.00  0.00    -0.532 OA
HETATM   41  O8  UNL     1     367.079 236.844 186.338  1.00  0.00    -0.532 OA
ENDBRANCH  32  39
ENDBRANCH  24  25
ENDBRANCH   3  24
TORSDOF 12
ENDMDL
MODEL 4
REMARK VINA RESULT: -9.044486691      1.475      2.187
REMARK  12 active torsions:
REMARK  status: ('A' for Active; 'I' for Inactive)
REMARK    1  A    between atoms: C2_2  and  O1_4 
REMARK    2  A    between atoms: C2_2  and  C4_6 
REMARK    3  A    between atoms: C4_6  and  O3_8 
REMARK    4  A    between atoms: O3_8  and  C5_9 
REMARK    5  A    between atoms: C5_9  and  C6_11 
REMARK    6  A    between atoms: C10_17  and  C11_18 
REMARK    7  A    between atoms: C11_18  and  O5_19 
REMARK    8  A    between atoms: O5_19  and  C12_20 
REMARK       I    between atoms: C12_20  and  N2_22 
REMARK    9  A    between atoms: N2_22  and  C13_24 
REMARK   10  A    between atoms: C13_24  and  C14_25 
REMARK   11  A    between atoms: N4_31  and  C18_33 
REMARK   12  A    between atoms: C19_38  and  N9_39 
ROOT
HETATM    1  C12 UNL     1     366.846 238.290 189.740  1.00  0.00     0.361 C 
HETATM    2  O6  UNL     1     367.570 238.132 188.736  1.00  0.00    -0.238 OA
HETATM    3  N2  UNL     1     365.419 238.036 189.668  1.00  0.00    -0.333 N 
ATOM      4  H2  UNL     1     364.820 238.172 190.483  1.00  0.00     0.165 HD
ENDROOT
BRANCH   1   5
HETATM    5  O5  UNL     1     367.407 238.710 190.925  1.00  0.00    -0.298 OA
BRANCH   5   6
HETATM    6  C11 UNL     1     366.744 239.324 192.000  1.00  0.00     0.238 C 
BRANCH   6   7
HETATM    7  C10 UNL     1     366.619 240.769 191.744  1.00  0.00     0.050 A 
HETATM    8  C6  UNL     1     365.372 241.321 191.608  1.00  0.00     0.064 A 
HETATM    9  C7  UNL     1     365.272 242.702 191.384  1.00  0.00     0.021 A 
HETATM   10  C8  UNL     1     366.369 243.492 191.301  1.00  0.00     0.018 A 
HETATM   11  C9  UNL     1     367.612 242.900 191.444  1.00  0.00     0.088 A 
HETATM   12  N1  UNL     1     367.700 241.586 191.657  1.00  0.00    -0.367 N 
ATOM     13  H1  UNL     1     368.627 241.173 191.758  1.00  0.00     0.165 HD
BRANCH   8  14
HETATM   14  C5  UNL     1     364.118 240.588 191.678  1.00  0.00     0.302 C 
HETATM   15  O4  UNL     1     363.505 240.306 190.630  1.00  0.00    -0.259 OA
BRANCH  14  16
HETATM   16  O3  UNL     1     363.548 240.174 192.866  1.00  0.00    -0.239 OA
BRANCH  16  17
HETATM   17  C4  UNL     1     363.429 240.953 193.986  1.00  0.00     0.300 C 
HETATM   18  O2  UNL     1     362.598 241.895 193.980  1.00  0.00    -0.261 OA
BRANCH  17  19
HETATM   19  C2  UNL     1     364.236 240.742 195.213  1.00  0.00     0.138 C 
HETATM   20  C1  UNL     1     364.688 239.293 195.228  1.00  0.00     0.056 C 
HETATM   21  C3  UNL     1     363.292 240.967 196.388  1.00  0.00     0.056 C 
BRANCH  19  22
HETATM   22  O1  UNL     1     365.291 241.634 195.305  1.00  0.00    -0.380 OA
ATOM     23  H1  UNL     1     365.080 242.491 194.953  1.00  0.00     0.211 HD
ENDBRANCH  19  22
ENDBRANCH  17  19
ENDBRANCH  16  17
ENDBRANCH  14  16
ENDBRANCH   8  14
ENDBRANCH   6   7
ENDBRANCH   5   6
ENDBRANCH   1   5
BRANCH   3  24
HETATM   24  C13 UNL     1     364.878 237.591 188.429  1.00  0.00     0.166 C 
BRANCH  24  25
HETATM   25  C14 UNL     1     364.676 236.132 188.312  1.00  0.00    -0.002 A 
HETATM   26  C15 UNL     1     364.041 235.341 189.236  1.00  0.00     0.028 A 
HETATM   27  C16 UNL     1     363.890 233.984 189.032  1.00  0.00     0.090 A 
HETATM   28  N3  UNL     1     364.372 233.445 187.919  1.00  0.00    -0.350 N 
HETATM   29  C17 UNL     1     365.024 234.171 186.937  1.00  0.00     0.137 A 
ATOM     30  H3  UNL     1     364.255 232.440 187.779  1.00  0.00     0.166 HD
HETATM   31  N4  UNL     1     365.426 233.509 185.977  1.00  0.00    -0.341 N 
HETATM   32  C19 UNL     1     365.168 235.526 187.153  1.00  0.00     0.154 A 
ATOM     33  H4  UNL     1     365.169 232.536 186.141  1.00  0.00     0.164 HD
BRANCH  31  34
HETATM   34  C18 UNL     1     366.084 233.570 184.771  1.00  0.00     0.308 C 
HETATM   35  N5  UNL     1     366.481 232.241 184.302  1.00  0.00    -0.085 NA
HETATM   36  N6  UNL     1     365.500 231.822 183.397  1.00  0.00    -0.018 NA
HETATM   37  N7  UNL     1     364.468 232.770 183.480  1.00  0.00    -0.018 NA
HETATM   38  N8  UNL     1     365.183 233.969 183.661  1.00  0.00    -0.085 NA
ENDBRANCH  31  34
BRANCH  32  39
HETATM   39  N9  UNL     1     365.797 236.382 186.218  1.00  0.00    -0.111 N 
HETATM   40  O7  UNL     1     367.054 236.403 186.160  1.00  0.00    -0.532 OA
HETATM   41  O8  UNL     1     365.147 237.213 185.345  1.00  0.00    -0.532 OA
ENDBRANCH  32  39
ENDBRANCH  24  25
ENDBRANCH   3  24
TORSDOF 12
ENDMDL
MODEL 5
REMARK VINA RESULT: -9.014691301      3.202      8.489
REMARK  12 active torsions:
REMARK  status: ('A' for Active; 'I' for Inactive)
REMARK    1  A    between atoms: C2_2  and  O1_4 
REMARK    2  A    between atoms: C2_2  and  C4_6 
REMARK    3  A    between atoms: C4_6  and  O3_8 
REMARK    4  A    between atoms: O3_8  and  C5_9 
REMARK    5  A    between atoms: C5_9  and  C6_11 
REMARK    6  A    between atoms: C10_17  and  C11_18 
REMARK    7  A    between atoms: C11_18  and  O5_19 
REMARK    8  A    between atoms: O5_19  and  C12_20 
REMARK       I    between atoms: C12_20  and  N2_22 
REMARK    9  A    between atoms: N2_22  and  C13_24 
REMARK   10  A    between atoms: C13_24  and  C14_25 
REMARK   11  A    between atoms: N4_31  and  C18_33 
REMARK   12  A    between atoms: C19_38  and  N9_39 
ROOT
HETATM    1  C12 UNL     1     364.359 240.159 187.093  1.00  0.00     0.361 C 
HETATM    2  O6  UNL     1     363.159 240.216 187.431  1.00  0.00    -0.238 OA
HETATM    3  N2  UNL     1     365.325 241.092 187.642  1.00  0.00    -0.333 N 
ATOM      4  H2  UNL     1     366.306 241.056 187.363  1.00  0.00     0.165 HD
ENDROOT
BRANCH   1   5
HETATM    5  O5  UNL     1     364.767 239.202 186.191  1.00  0.00    -0.298 OA
BRANCH   5   6
HETATM    6  C11 UNL     1     365.872 238.345 186.316  1.00  0.00     0.238 C 
BRANCH   6   7
HETATM    7  C10 UNL     1     365.652 237.133 185.507  1.00  0.00     0.050 A 
HETATM    8  C6  UNL     1     364.965 236.079 186.051  1.00  0.00     0.064 A 
HETATM    9  C7  UNL     1     364.749 234.942 185.260  1.00  0.00     0.021 A 
HETATM   10  C8  UNL     1     365.200 234.864 183.986  1.00  0.00     0.018 A 
HETATM   11  C9  UNL     1     365.891 235.946 183.470  1.00  0.00     0.088 A 
HETATM   12  N1  UNL     1     366.093 237.026 184.228  1.00  0.00    -0.367 N 
ATOM     13  H1  UNL     1     366.604 237.811 183.825  1.00  0.00     0.165 HD
BRANCH   8  14
HETATM   14  C5  UNL     1     364.427 236.036 187.402  1.00  0.00     0.302 C 
HETATM   15  O4  UNL     1     363.458 236.758 187.706  1.00  0.00    -0.259 OA
BRANCH  14  16
HETATM   16  O3  UNL     1     364.939 235.224 188.395  1.00  0.00    -0.239 OA
BRANCH  16  17
HETATM   17  C4  UNL     1     364.219 234.279 189.077  1.00  0.00     0.300 C 
HETATM   18  O2  UNL     1     363.240 234.652 189.770  1.00  0.00    -0.261 OA
BRANCH  17  19
HETATM   19  C2  UNL     1     364.537 232.831 189.040  1.00  0.00     0.138 C 
HETATM   20  C1  UNL     1     365.915 232.674 188.422  1.00  0.00     0.056 C 
HETATM   21  C3  UNL     1     363.513 232.193 188.109  1.00  0.00     0.056 C 
BRANCH  19  22
HETATM   22  O1  UNL     1     364.439 232.242 190.289  1.00  0.00    -0.380 OA
ATOM     23  H1  UNL     1     363.624 232.448 190.731  1.00  0.00     0.211 HD
ENDBRANCH  19  22
ENDBRANCH  17  19
ENDBRANCH  16  17
ENDBRANCH  14  16
ENDBRANCH   8  14
ENDBRANCH   6   7
ENDBRANCH   5   6
ENDBRANCH   1   5
BRANCH   3  24
HETATM   24  C13 UNL     1     364.867 242.059 188.581  1.00  0.00     0.166 C 
BRANCH  24  25
HETATM   25  C14 UNL     1     365.664 242.168 189.820  1.00  0.00    -0.002 A 
HETATM   26  C15 UNL     1     366.643 243.101 190.055  1.00  0.00     0.028 A 
HETATM   27  C16 UNL     1     367.328 243.132 191.253  1.00  0.00     0.090 A 
HETATM   28  N3  UNL     1     367.028 242.237 192.187  1.00  0.00    -0.350 N 
HETATM   29  C17 UNL     1     366.056 241.264 192.031  1.00  0.00     0.137 A 
ATOM     30  H3  UNL     1     367.542 242.269 193.068  1.00  0.00     0.166 HD
HETATM   31  N4  UNL     1     365.919 240.503 192.991  1.00  0.00    -0.341 N 
HETATM   32  C19 UNL     1     365.378 241.246 190.830  1.00  0.00     0.154 A 
ATOM     33  H4  UNL     1     366.587 240.784 193.708  1.00  0.00     0.164 HD
BRANCH  31  34
HETATM   34  C18 UNL     1     365.218 239.422 193.473  1.00  0.00     0.308 C 
HETATM   35  N5  UNL     1     366.023 238.623 194.399  1.00  0.00    -0.085 NA
HETATM   36  N6  UNL     1     365.677 239.034 195.692  1.00  0.00    -0.018 NA
HETATM   37  N7  UNL     1     364.859 240.163 195.532  1.00  0.00    -0.018 NA
HETATM   38  N8  UNL     1     364.118 239.829 194.382  1.00  0.00    -0.085 NA
ENDBRANCH  31  34
BRANCH  32  39
HETATM   39  N9  UNL     1     364.348 240.315 190.552  1.00  0.00    -0.111 N 
HETATM   40  O7  UNL     1     364.659 239.150 190.192  1.00  0.00    -0.532 OA
HETATM   41  O8  UNL     1     363.006 240.571 190.642  1.00  0.00    -0.532 OA
ENDBRANCH  32  39
ENDBRANCH  24  25
ENDBRANCH   3  24
TORSDOF 12
ENDMDL
