MODEL 1
REMARK VINA RESULT: -8.429904295      0.000      0.000
REMARK  16 active torsions:
REMARK  status: ('A' for Active; 'I' for Inactive)
REMARK    1  A    between atoms: C4_4  and  C5_5 
REMARK    2  A    between atoms: C5_5  and  O1_7 
REMARK    3  A    between atoms: O1_7  and  C7_8 
REMARK    4  A    between atoms: C7_8  and  C8_9 
REMARK    5  A    between atoms: C8_9  and  C9_10 
REMARK    6  A    between atoms: C8_9  and  N6_22 
REMARK    7  A    between atoms: C9_10  and  N1_11 
REMARK    8  A    between atoms: C10_16  and  N4_17 
REMARK    9  A    between atoms: N6_22  and  N7_24 
REMARK   10  A    between atoms: N10_37  and  C16_38 
REMARK   11  A    between atoms: C16_38  and  C17_39 
REMARK   12  A    between atoms: C17_39  and  C18_40 
REMARK   13  A    between atoms: C18_40  and  C19_41 
REMARK   14  A    between atoms: C19_41  and  O2_42 
REMARK   15  A    between atoms: C20_44  and  N11_45 
REMARK   16  A    between atoms: N12_48  and  N13_49 
ROOT
HETATM    1  C1  UNL     1     367.410 238.862 192.071  1.00  0.00     0.050 C 
HETATM    2  C2  UNL     1     366.156 239.375 191.452  1.00  0.00    -0.031 A 
HETATM    3  C3  UNL     1     365.933 239.332 190.109  1.00  0.00     0.036 A 
HETATM    4  C4  UNL     1     364.784 239.798 189.506  1.00  0.00     0.039 A 
HETATM    5  N8  UNL     1     363.846 240.320 190.315  1.00  0.00    -0.355 N 
ATOM      6  H8  UNL     1     362.980 240.678 189.912  1.00  0.00     0.166 HD
HETATM    7  C11 UNL     1     364.029 240.382 191.665  1.00  0.00     0.077 A 
HETATM    8  C12 UNL     1     365.178 239.917 192.272  1.00  0.00     0.068 A 
HETATM    9  N9  UNL     1     365.077 240.109 193.607  1.00  0.00    -0.337 N 
ATOM     10  H9  UNL     1     365.791 239.854 194.289  1.00  0.00     0.167 HD
HETATM   11  C13 UNL     1     363.897 240.688 193.907  1.00  0.00     0.161 A 
HETATM   12  C14 UNL     1     363.249 240.856 192.700  1.00  0.00     0.078 A 
HETATM   13  C15 UNL     1     362.002 241.434 192.708  1.00  0.00     0.135 A 
HETATM   14  S1  UNL     1     361.221 241.643 191.314  1.00  0.00    -0.059 SA
HETATM   15  N10 UNL     1     361.446 241.818 193.864  1.00  0.00    -0.167 N 
HETATM   16  C20 UNL     1     362.112 241.635 195.024  1.00  0.00     0.702 A 
HETATM   17  N12 UNL     1     363.329 241.079 195.085  1.00  0.00    -0.075 N 
ENDROOT
BRANCH   4  18
HETATM   18  C5  UNL     1     364.620 239.714 188.029  1.00  0.00     0.167 C 
HETATM   19  C6  UNL     1     363.840 240.914 187.529  1.00  0.00     0.046 C 
BRANCH  18  20
HETATM   20  O1  UNL     1     364.043 238.521 187.672  1.00  0.00    -0.374 OA
BRANCH  20  21
HETATM   21  C7  UNL     1     365.028 237.657 187.160  1.00  0.00     0.224 C 
BRANCH  21  22
HETATM   22  C8  UNL     1     364.622 236.242 187.230  1.00  0.00     0.048 C 
BRANCH  22  23
HETATM   23  C9  UNL     1     365.255 235.208 186.373  1.00  0.00     0.227 C 
BRANCH  23  24
HETATM   24  N1  UNL     1     365.410 235.650 185.011  1.00  0.00    -0.199 N 
HETATM   25  N2  UNL     1     364.496 235.897 184.091  1.00  0.00    -0.211 N 
HETATM   26  N3  UNL     1     365.078 236.283 182.973  1.00  0.00    -0.115 N 
ATOM     27  H2  UNL     1     363.489 235.805 184.225  1.00  0.00     0.210 HD
HETATM   28  C10 UNL     1     366.407 236.282 183.178  1.00  0.00     0.707 A 
ATOM     29  H3  UNL     1     364.604 236.536 182.106  1.00  0.00     0.207 HD
HETATM   30  N5  UNL     1     366.574 235.886 184.451  1.00  0.00    -0.113 N 
ATOM     31  H5  UNL     1     367.476 235.783 184.915  1.00  0.00     0.207 HD
BRANCH  28  32
HETATM   32  N4  UNL     1     367.356 236.597 182.339  1.00  0.00    -0.232 N 
ATOM     33  H42 UNL     1     367.273 237.235 181.547  1.00  0.00     0.174 HD
ATOM     34  H41 UNL     1     368.322 236.270 182.325  1.00  0.00     0.174 HD
ENDBRANCH  28  32
ENDBRANCH  23  24
ENDBRANCH  22  23
BRANCH  22  35
HETATM   35  N6  UNL     1     363.700 235.849 188.041  1.00  0.00    -0.311 N 
ATOM     36  H6  UNL     1     362.809 235.503 187.686  1.00  0.00     0.185 HD
BRANCH  35  37
HETATM   37  N7  UNL     1     363.944 235.904 189.407  1.00  0.00    -0.345 N 
ATOM     38  H72 UNL     1     364.219 236.787 189.835  1.00  0.00     0.176 HD
ATOM     39  H71 UNL     1     363.841 235.052 189.959  1.00  0.00     0.176 HD
ENDBRANCH  35  37
ENDBRANCH  22  35
ENDBRANCH  21  22
ENDBRANCH  20  21
ENDBRANCH  18  20
ENDBRANCH   4  18
BRANCH  17  40
HETATM   40  N13 UNL     1     364.027 240.885 196.275  1.00  0.00    -0.322 N 
ATOM     41 2H13 UNL     1     364.743 241.524 196.619  1.00  0.00     0.178 HD
ATOM     42 1H13 UNL     1     363.822 240.064 196.845  1.00  0.00     0.178 HD
ENDBRANCH  17  40
BRANCH  15  43
HETATM   43  C16 UNL     1     360.141 242.419 193.843  1.00  0.00     0.176 C 
BRANCH  43  44
HETATM   44  C17 UNL     1     359.066 241.384 193.629  1.00  0.00    -0.008 C 
BRANCH  44  45
HETATM   45  C18 UNL     1     358.583 240.681 194.641  1.00  0.00    -0.004 C 
BRANCH  45  46
HETATM   46  C19 UNL     1     359.048 239.295 194.853  1.00  0.00     0.191 C 
BRANCH  46  47
HETATM   47  O2  UNL     1     358.684 238.432 193.826  1.00  0.00    -0.397 OA
ATOM     48  H2  UNL     1     359.379 237.835 193.575  1.00  0.00     0.209 HD
ENDBRANCH  46  47
ENDBRANCH  45  46
ENDBRANCH  44  45
ENDBRANCH  43  44
ENDBRANCH  15  43
BRANCH  16  49
HETATM   49  N11 UNL     1     361.534 242.022 196.109  1.00  0.00    -0.233 N 
ATOM     50 2H11 UNL     1     361.722 242.955 196.475  1.00  0.00     0.174 HD
ATOM     51 1H11 UNL     1     360.899 241.366 196.565  1.00  0.00     0.174 HD
ENDBRANCH  16  49
TORSDOF 16
ENDMDL
MODEL 2
REMARK VINA RESULT: -8.204321361      2.671      4.134
REMARK  16 active torsions:
REMARK  status: ('A' for Active; 'I' for Inactive)
REMARK    1  A    between atoms: C4_4  and  C5_5 
REMARK    2  A    between atoms: C5_5  and  O1_7 
REMARK    3  A    between atoms: O1_7  and  C7_8 
REMARK    4  A    between atoms: C7_8  and  C8_9 
REMARK    5  A    between atoms: C8_9  and  C9_10 
REMARK    6  A    between atoms: C8_9  and  N6_22 
REMARK    7  A    between atoms: C9_10  and  N1_11 
REMARK    8  A    between atoms: C10_16  and  N4_17 
REMARK    9  A    between atoms: N6_22  and  N7_24 
REMARK   10  A    between atoms: N10_37  and  C16_38 
REMARK   11  A    between atoms: C16_38  and  C17_39 
REMARK   12  A    between atoms: C17_39  and  C18_40 
REMARK   13  A    between atoms: C18_40  and  C19_41 
REMARK   14  A    between atoms: C19_41  and  O2_42 
REMARK   15  A    between atoms: C20_44  and  N11_45 
REMARK   16  A    between atoms: N12_48  and  N13_49 
ROOT
HETATM    1  C1  UNL     1     363.276 242.705 186.641  1.00  0.00     0.050 C 
HETATM    2  C2  UNL     1     363.702 241.662 187.615  1.00  0.00    -0.031 A 
HETATM    3  C3  UNL     1     364.074 240.409 187.231  1.00  0.00     0.036 A 
HETATM    4  C4  UNL     1     364.473 239.423 188.108  1.00  0.00     0.039 A 
HETATM    5  N8  UNL     1     364.486 239.744 189.414  1.00  0.00    -0.355 N 
ATOM      6  H8  UNL     1     364.773 239.045 190.098  1.00  0.00     0.166 HD
HETATM    7  C11 UNL     1     364.120 240.987 189.841  1.00  0.00     0.077 A 
HETATM    8  C12 UNL     1     363.720 241.976 188.966  1.00  0.00     0.068 A 
HETATM    9  N9  UNL     1     363.421 243.091 189.672  1.00  0.00    -0.337 N 
ATOM     10  H9  UNL     1     363.098 243.969 189.266  1.00  0.00     0.167 HD
HETATM   11  C13 UNL     1     363.610 242.873 190.988  1.00  0.00     0.161 A 
HETATM   12  C14 UNL     1     364.043 241.567 191.091  1.00  0.00     0.078 A 
HETATM   13  C15 UNL     1     364.317 241.070 192.343  1.00  0.00     0.135 A 
HETATM   14  S1  UNL     1     364.825 239.548 192.493  1.00  0.00    -0.059 SA
HETATM   15  N10 UNL     1     364.161 241.846 193.423  1.00  0.00    -0.167 N 
HETATM   16  C20 UNL     1     363.735 243.119 193.281  1.00  0.00     0.702 A 
HETATM   17  N12 UNL     1     363.451 243.663 192.091  1.00  0.00    -0.075 N 
ENDROOT
BRANCH   4  18
HETATM   18  C5  UNL     1     364.865 238.079 187.604  1.00  0.00     0.167 C 
HETATM   19  C6  UNL     1     365.407 237.239 188.745  1.00  0.00     0.046 C 
BRANCH  18  20
HETATM   20  O1  UNL     1     365.749 238.190 186.561  1.00  0.00    -0.374 OA
BRANCH  20  21
HETATM   21  C7  UNL     1     366.251 236.917 186.233  1.00  0.00     0.224 C 
BRANCH  21  22
HETATM   22  C8  UNL     1     365.553 236.321 185.080  1.00  0.00     0.048 C 
BRANCH  22  23
HETATM   23  C9  UNL     1     364.867 235.008 185.179  1.00  0.00     0.227 C 
BRANCH  23  24
HETATM   24  N1  UNL     1     365.700 234.003 185.787  1.00  0.00    -0.199 N 
HETATM   25  N2  UNL     1     365.521 233.312 186.898  1.00  0.00    -0.211 N 
HETATM   26  N3  UNL     1     366.537 232.492 187.084  1.00  0.00    -0.115 N 
ATOM     27  H2  UNL     1     364.718 233.399 187.519  1.00  0.00     0.210 HD
HETATM   28  C10 UNL     1     367.397 232.661 186.064  1.00  0.00     0.707 A 
ATOM     29  H3  UNL     1     366.650 231.845 187.864  1.00  0.00     0.207 HD
HETATM   30  N5  UNL     1     366.845 233.603 185.281  1.00  0.00    -0.113 N 
ATOM     31  H5  UNL     1     367.256 233.957 184.417  1.00  0.00     0.207 HD
BRANCH  28  32
HETATM   32  N4  UNL     1     368.532 232.053 185.852  1.00  0.00    -0.232 N 
ATOM     33  H42 UNL     1     368.650 231.119 185.459  1.00  0.00     0.174 HD
ATOM     34  H41 UNL     1     369.476 232.392 186.037  1.00  0.00     0.174 HD
ENDBRANCH  28  32
ENDBRANCH  23  24
ENDBRANCH  22  23
BRANCH  22  35
HETATM   35  N6  UNL     1     365.511 236.920 183.939  1.00  0.00    -0.311 N 
ATOM     36  H6  UNL     1     365.599 237.935 183.881  1.00  0.00     0.185 HD
BRANCH  35  37
HETATM   37  N7  UNL     1     365.343 236.159 182.790  1.00  0.00    -0.345 N 
ATOM     38  H72 UNL     1     364.616 235.444 182.759  1.00  0.00     0.176 HD
ATOM     39  H71 UNL     1     365.956 236.331 181.993  1.00  0.00     0.176 HD
ENDBRANCH  35  37
ENDBRANCH  22  35
ENDBRANCH  21  22
ENDBRANCH  20  21
ENDBRANCH  18  20
ENDBRANCH   4  18
BRANCH  17  40
HETATM   40  N13 UNL     1     363.011 244.975 191.931  1.00  0.00    -0.322 N 
ATOM     41 2H13 UNL     1     363.485 245.660 191.342  1.00  0.00     0.178 HD
ATOM     42 1H13 UNL     1     362.171 245.282 192.421  1.00  0.00     0.178 HD
ENDBRANCH  17  40
BRANCH  15  43
HETATM   43  C16 UNL     1     364.454 241.299 194.720  1.00  0.00     0.176 C 
BRANCH  43  44
HETATM   44  C17 UNL     1     363.266 240.562 195.283  1.00  0.00    -0.008 C 
BRANCH  44  45
HETATM   45  C18 UNL     1     363.386 239.787 196.349  1.00  0.00    -0.004 C 
BRANCH  45  46
HETATM   46  C19 UNL     1     364.231 238.577 196.279  1.00  0.00     0.191 C 
BRANCH  46  47
HETATM   47  O2  UNL     1     363.642 237.537 195.570  1.00  0.00    -0.397 OA
ATOM     48  H2  UNL     1     362.877 237.807 195.076  1.00  0.00     0.209 HD
ENDBRANCH  46  47
ENDBRANCH  45  46
ENDBRANCH  44  45
ENDBRANCH  43  44
ENDBRANCH  15  43
BRANCH  16  49
HETATM   49  N11 UNL     1     363.601 243.824 194.352  1.00  0.00    -0.233 N 
ATOM     50 2H11 UNL     1     362.807 243.656 194.969  1.00  0.00     0.174 HD
ATOM     51 1H11 UNL     1     364.309 244.533 194.541  1.00  0.00     0.174 HD
ENDBRANCH  16  49
TORSDOF 16
ENDMDL
MODEL 3
REMARK VINA RESULT: -8.201519651      1.540      1.989
REMARK  16 active torsions:
REMARK  status: ('A' for Active; 'I' for Inactive)
REMARK    1  A    between atoms: C4_4  and  C5_5 
REMARK    2  A    between atoms: C5_5  and  O1_7 
REMARK    3  A    between atoms: O1_7  and  C7_8 
REMARK    4  A    between atoms: C7_8  and  C8_9 
REMARK    5  A    between atoms: C8_9  and  C9_10 
REMARK    6  A    between atoms: C8_9  and  N6_22 
REMARK    7  A    between atoms: C9_10  and  N1_11 
REMARK    8  A    between atoms: C10_16  and  N4_17 
REMARK    9  A    between atoms: N6_22  and  N7_24 
REMARK   10  A    between atoms: N10_37  and  C16_38 
REMARK   11  A    between atoms: C16_38  and  C17_39 
REMARK   12  A    between atoms: C17_39  and  C18_40 
REMARK   13  A    between atoms: C18_40  and  C19_41 
REMARK   14  A    between atoms: C19_41  and  O2_42 
REMARK   15  A    between atoms: C20_44  and  N11_45 
REMARK   16  A    between atoms: N12_48  and  N13_49 
ROOT
HETATM    1  C1  UNL     1     367.502 238.879 191.956  1.00  0.00     0.050 C 
HETATM    2  C2  UNL     1     366.229 239.376 191.362  1.00  0.00    -0.031 A 
HETATM    3  C3  UNL     1     365.976 239.322 190.024  1.00  0.00     0.036 A 
HETATM    4  C4  UNL     1     364.810 239.773 189.444  1.00  0.00     0.039 A 
HETATM    5  N8  UNL     1     363.885 240.291 190.271  1.00  0.00    -0.355 N 
ATOM      6  H8  UNL     1     363.007 240.637 189.885  1.00  0.00     0.166 HD
HETATM    7  C11 UNL     1     364.097 240.363 191.616  1.00  0.00     0.077 A 
HETATM    8  C12 UNL     1     365.264 239.913 192.200  1.00  0.00     0.068 A 
HETATM    9  N9  UNL     1     365.190 240.113 193.536  1.00  0.00    -0.337 N 
ATOM     10  H9  UNL     1     365.922 239.869 194.203  1.00  0.00     0.167 HD
HETATM   11  C13 UNL     1     364.011 240.681 193.858  1.00  0.00     0.161 A 
HETATM   12  C14 UNL     1     363.335 240.836 192.665  1.00  0.00     0.078 A 
HETATM   13  C15 UNL     1     362.083 241.401 192.697  1.00  0.00     0.135 A 
HETATM   14  S1  UNL     1     361.269 241.594 191.319  1.00  0.00    -0.059 SA
HETATM   15  N10 UNL     1     361.549 241.787 193.863  1.00  0.00    -0.167 N 
HETATM   16  C20 UNL     1     362.242 241.618 195.009  1.00  0.00     0.702 A 
HETATM   17  N12 UNL     1     363.465 241.075 195.047  1.00  0.00    -0.075 N 
ENDROOT
BRANCH   4  18
HETATM   18  C5  UNL     1     364.614 239.677 187.972  1.00  0.00     0.167 C 
HETATM   19  C6  UNL     1     363.782 240.849 187.487  1.00  0.00     0.046 C 
BRANCH  18  20
HETATM   20  O1  UNL     1     364.070 238.465 187.632  1.00  0.00    -0.374 OA
BRANCH  20  21
HETATM   21  C7  UNL     1     365.042 237.677 186.988  1.00  0.00     0.224 C 
BRANCH  21  22
HETATM   22  C8  UNL     1     364.981 236.265 187.402  1.00  0.00     0.048 C 
BRANCH  22  23
HETATM   23  C9  UNL     1     365.348 235.165 186.474  1.00  0.00     0.227 C 
BRANCH  23  24
HETATM   24  N1  UNL     1     365.451 235.616 185.110  1.00  0.00    -0.199 N 
HETATM   25  N2  UNL     1     364.502 235.871 184.228  1.00  0.00    -0.211 N 
HETATM   26  N3  UNL     1     365.041 236.263 183.091  1.00  0.00    -0.115 N 
ATOM     27  H2  UNL     1     363.501 235.780 184.401  1.00  0.00     0.210 HD
HETATM   28  C10 UNL     1     366.377 236.258 183.243  1.00  0.00     0.707 A 
ATOM     29  H3  UNL     1     364.535 236.523 182.244  1.00  0.00     0.207 HD
HETATM   30  N5  UNL     1     366.592 235.853 184.506  1.00  0.00    -0.113 N 
ATOM     31  H5  UNL     1     367.512 235.745 184.935  1.00  0.00     0.207 HD
BRANCH  28  32
HETATM   32  N4  UNL     1     367.294 236.576 182.371  1.00  0.00    -0.232 N 
ATOM     33  H42 UNL     1     368.019 235.957 182.007  1.00  0.00     0.174 HD
ATOM     34  H41 UNL     1     367.446 237.474 181.910  1.00  0.00     0.174 HD
ENDBRANCH  28  32
ENDBRANCH  23  24
ENDBRANCH  22  23
BRANCH  22  35
HETATM   35  N6  UNL     1     364.606 235.930 188.590  1.00  0.00    -0.311 N 
ATOM     36  H6  UNL     1     365.277 235.905 189.358  1.00  0.00     0.185 HD
BRANCH  35  37
HETATM   37  N7  UNL     1     363.274 235.603 188.804  1.00  0.00    -0.345 N 
ATOM     38  H72 UNL     1     362.824 234.903 188.214  1.00  0.00     0.176 HD
ATOM     39  H71 UNL     1     362.766 236.075 189.552  1.00  0.00     0.176 HD
ENDBRANCH  35  37
ENDBRANCH  22  35
ENDBRANCH  21  22
ENDBRANCH  20  21
ENDBRANCH  18  20
ENDBRANCH   4  18
BRANCH  17  40
HETATM   40  N13 UNL     1     364.191 240.895 196.222  1.00  0.00    -0.322 N 
ATOM     41 2H13 UNL     1     364.855 240.134 196.363  1.00  0.00     0.178 HD
ATOM     42 1H13 UNL     1     364.064 241.552 196.991  1.00  0.00     0.178 HD
ENDBRANCH  17  40
BRANCH  15  43
HETATM   43  C16 UNL     1     360.238 242.375 193.866  1.00  0.00     0.176 C 
BRANCH  43  44
HETATM   44  C17 UNL     1     360.296 243.838 194.226  1.00  0.00    -0.008 C 
BRANCH  44  45
HETATM   45  C18 UNL     1     361.224 244.631 193.716  1.00  0.00    -0.004 C 
BRANCH  45  46
HETATM   46  C19 UNL     1     361.995 245.521 194.609  1.00  0.00     0.191 C 
BRANCH  46  47
HETATM   47  O2  UNL     1     361.748 245.292 195.957  1.00  0.00    -0.397 OA
ATOM     48  H2  UNL     1     362.159 245.931 196.527  1.00  0.00     0.209 HD
ENDBRANCH  46  47
ENDBRANCH  45  46
ENDBRANCH  44  45
ENDBRANCH  43  44
ENDBRANCH  15  43
BRANCH  16  49
HETATM   49  N11 UNL     1     361.684 242.005 196.104  1.00  0.00    -0.233 N 
ATOM     50 2H11 UNL     1     362.266 242.295 196.890  1.00  0.00     0.174 HD
ATOM     51 1H11 UNL     1     360.664 242.007 196.139  1.00  0.00     0.174 HD
ENDBRANCH  16  49
TORSDOF 16
ENDMDL
MODEL 4
REMARK VINA RESULT: -8.183295283      2.361      3.340
REMARK  16 active torsions:
REMARK  status: ('A' for Active; 'I' for Inactive)
REMARK    1  A    between atoms: C4_4  and  C5_5 
REMARK    2  A    between atoms: C5_5  and  O1_7 
REMARK    3  A    between atoms: O1_7  and  C7_8 
REMARK    4  A    between atoms: C7_8  and  C8_9 
REMARK    5  A    between atoms: C8_9  and  C9_10 
REMARK    6  A    between atoms: C8_9  and  N6_22 
REMARK    7  A    between atoms: C9_10  and  N1_11 
REMARK    8  A    between atoms: C10_16  and  N4_17 
REMARK    9  A    between atoms: N6_22  and  N7_24 
REMARK   10  A    between atoms: N10_37  and  C16_38 
REMARK   11  A    between atoms: C16_38  and  C17_39 
REMARK   12  A    between atoms: C17_39  and  C18_40 
REMARK   13  A    between atoms: C18_40  and  C19_41 
REMARK   14  A    between atoms: C19_41  and  O2_42 
REMARK   15  A    between atoms: C20_44  and  N11_45 
REMARK   16  A    between atoms: N12_48  and  N13_49 
ROOT
HETATM    1  C1  UNL     1     362.860 242.161 186.964  1.00  0.00     0.050 C 
HETATM    2  C2  UNL     1     363.554 241.288 187.950  1.00  0.00    -0.031 A 
HETATM    3  C3  UNL     1     364.280 240.195 187.577  1.00  0.00     0.036 A 
HETATM    4  C4  UNL     1     364.934 239.368 188.465  1.00  0.00     0.039 A 
HETATM    5  N8  UNL     1     364.833 239.680 189.769  1.00  0.00    -0.355 N 
ATOM      6  H8  UNL     1     365.301 239.095 190.461  1.00  0.00     0.166 HD
HETATM    7  C11 UNL     1     364.117 240.765 190.184  1.00  0.00     0.077 A 
HETATM    8  C12 UNL     1     363.462 241.595 189.299  1.00  0.00     0.068 A 
HETATM    9  N9  UNL     1     362.842 242.576 189.995  1.00  0.00    -0.337 N 
ATOM     10  H9  UNL     1     362.285 243.323 189.579  1.00  0.00     0.167 HD
HETATM   11  C13 UNL     1     363.066 242.424 191.315  1.00  0.00     0.161 A 
HETATM   12  C14 UNL     1     363.857 241.299 191.430  1.00  0.00     0.078 A 
HETATM   13  C15 UNL     1     364.244 240.904 192.689  1.00  0.00     0.135 A 
HETATM   14  S1  UNL     1     365.169 239.594 192.854  1.00  0.00    -0.059 SA
HETATM   15  N10 UNL     1     363.854 241.602 193.762  1.00  0.00    -0.167 N 
HETATM   16  C20 UNL     1     363.081 242.697 193.608  1.00  0.00     0.702 A 
HETATM   17  N12 UNL     1     362.669 243.135 192.411  1.00  0.00    -0.075 N 
ENDROOT
BRANCH   4  18
HETATM   18  C5  UNL     1     365.704 238.194 187.973  1.00  0.00     0.167 C 
HETATM   19  C6  UNL     1     365.742 238.201 186.457  1.00  0.00     0.046 C 
BRANCH  18  20
HETATM   20  O1  UNL     1     365.192 237.028 188.485  1.00  0.00    -0.374 OA
BRANCH  20  21
HETATM   21  C7  UNL     1     364.462 236.358 187.486  1.00  0.00     0.224 C 
BRANCH  21  22
HETATM   22  C8  UNL     1     364.565 234.894 187.605  1.00  0.00     0.048 C 
BRANCH  22  23
HETATM   23  C9  UNL     1     365.146 234.063 186.521  1.00  0.00     0.227 C 
BRANCH  23  24
HETATM   24  N1  UNL     1     365.252 234.785 185.279  1.00  0.00    -0.199 N 
HETATM   25  N2  UNL     1     364.306 235.200 184.457  1.00  0.00    -0.211 N 
HETATM   26  N3  UNL     1     364.847 235.825 183.430  1.00  0.00    -0.115 N 
ATOM     27  H2  UNL     1     363.306 235.058 184.595  1.00  0.00     0.210 HD
HETATM   28  C10 UNL     1     366.182 235.812 183.595  1.00  0.00     0.707 A 
ATOM     29  H3  UNL     1     364.342 236.245 182.650  1.00  0.00     0.207 HD
HETATM   30  N5  UNL     1     366.394 235.161 184.751  1.00  0.00    -0.113 N 
ATOM     31  H5  UNL     1     367.312 234.983 185.159  1.00  0.00     0.207 HD
BRANCH  28  32
HETATM   32  N4  UNL     1     367.099 236.318 182.817  1.00  0.00    -0.232 N 
ATOM     33  H42 UNL     1     367.644 237.161 182.998  1.00  0.00     0.174 HD
ATOM     34  H41 UNL     1     367.424 235.971 181.914  1.00  0.00     0.174 HD
ENDBRANCH  28  32
ENDBRANCH  23  24
ENDBRANCH  22  23
BRANCH  22  35
HETATM   35  N6  UNL     1     364.154 234.277 188.661  1.00  0.00    -0.311 N 
ATOM     36  H6  UNL     1     364.317 233.276 188.774  1.00  0.00     0.185 HD
BRANCH  35  37
HETATM   37  N7  UNL     1     363.485 234.999 189.640  1.00  0.00    -0.345 N 
ATOM     38  H72 UNL     1     364.004 235.648 190.231  1.00  0.00     0.176 HD
ATOM     39  H71 UNL     1     362.479 234.865 189.749  1.00  0.00     0.176 HD
ENDBRANCH  35  37
ENDBRANCH  22  35
ENDBRANCH  21  22
ENDBRANCH  20  21
ENDBRANCH  18  20
ENDBRANCH   4  18
BRANCH  17  40
HETATM   40  N13 UNL     1     361.871 244.264 192.237  1.00  0.00    -0.322 N 
ATOM     41 2H13 UNL     1     362.211 245.139 191.841  1.00  0.00     0.178 HD
ATOM     42 1H13 UNL     1     360.890 244.228 192.517  1.00  0.00     0.178 HD
ENDBRANCH  17  40
BRANCH  15  43
HETATM   43  C16 UNL     1     364.274 241.166 195.066  1.00  0.00     0.176 C 
BRANCH  43  44
HETATM   44  C17 UNL     1     363.179 240.399 195.764  1.00  0.00    -0.008 C 
BRANCH  44  45
HETATM   45  C18 UNL     1     363.461 239.477 196.670  1.00  0.00    -0.004 C 
BRANCH  45  46
HETATM   46  C19 UNL     1     364.425 238.405 196.344  1.00  0.00     0.191 C 
BRANCH  46  47
HETATM   47  O2  UNL     1     363.869 237.377 195.593  1.00  0.00    -0.397 OA
ATOM     48  H2  UNL     1     364.510 236.899 195.081  1.00  0.00     0.209 HD
ENDBRANCH  46  47
ENDBRANCH  45  46
ENDBRANCH  44  45
ENDBRANCH  43  44
ENDBRANCH  15  43
BRANCH  16  49
HETATM   49  N11 UNL     1     362.733 243.335 194.673  1.00  0.00    -0.233 N 
ATOM     50 2H11 UNL     1     363.239 243.175 195.543  1.00  0.00     0.174 HD
ATOM     51 1H11 UNL     1     361.951 243.986 194.598  1.00  0.00     0.174 HD
ENDBRANCH  16  49
TORSDOF 16
ENDMDL
MODEL 5
REMARK VINA RESULT: -8.125677306      2.821      3.813
REMARK  16 active torsions:
REMARK  status: ('A' for Active; 'I' for Inactive)
REMARK    1  A    between atoms: C4_4  and  C5_5 
REMARK    2  A    between atoms: C5_5  and  O1_7 
REMARK    3  A    between atoms: O1_7  and  C7_8 
REMARK    4  A    between atoms: C7_8  and  C8_9 
REMARK    5  A    between atoms: C8_9  and  C9_10 
REMARK    6  A    between atoms: C8_9  and  N6_22 
REMARK    7  A    between atoms: C9_10  and  N1_11 
REMARK    8  A    between atoms: C10_16  and  N4_17 
REMARK    9  A    between atoms: N6_22  and  N7_24 
REMARK   10  A    between atoms: N10_37  and  C16_38 
REMARK   11  A    between atoms: C16_38  and  C17_39 
REMARK   12  A    between atoms: C17_39  and  C18_40 
REMARK   13  A    between atoms: C18_40  and  C19_41 
REMARK   14  A    between atoms: C19_41  and  O2_42 
REMARK   15  A    between atoms: C20_44  and  N11_45 
REMARK   16  A    between atoms: N12_48  and  N13_49 
ROOT
HETATM    1  C1  UNL     1     363.525 241.536 186.925  1.00  0.00     0.050 C 
HETATM    2  C2  UNL     1     363.987 240.696 188.065  1.00  0.00    -0.031 A 
HETATM    3  C3  UNL     1     364.507 239.448 187.890  1.00  0.00     0.036 A 
HETATM    4  C4  UNL     1     364.944 238.646 188.923  1.00  0.00     0.039 A 
HETATM    5  N8  UNL     1     364.839 239.150 190.165  1.00  0.00    -0.355 N 
ATOM      6  H8  UNL     1     365.149 238.591 190.960  1.00  0.00     0.166 HD
HETATM    7  C11 UNL     1     364.325 240.394 190.384  1.00  0.00     0.077 A 
HETATM    8  C12 UNL     1     363.887 241.199 189.353  1.00  0.00     0.068 A 
HETATM    9  N9  UNL     1     363.432 242.365 189.869  1.00  0.00    -0.337 N 
ATOM     10  H9  UNL     1     363.051 243.136 189.321  1.00  0.00     0.167 HD
HETATM   11  C13 UNL     1     363.555 242.359 191.211  1.00  0.00     0.161 A 
HETATM   12  C14 UNL     1     364.109 241.136 191.528  1.00  0.00     0.078 A 
HETATM   13  C15 UNL     1     364.348 240.855 192.853  1.00  0.00     0.135 A 
HETATM   14  S1  UNL     1     364.994 239.434 193.253  1.00  0.00    -0.059 SA
HETATM   15  N10 UNL     1     364.045 241.756 193.795  1.00  0.00    -0.167 N 
HETATM   16  C20 UNL     1     363.505 242.942 193.445  1.00  0.00     0.702 A 
HETATM   17  N12 UNL     1     363.248 243.277 192.174  1.00  0.00    -0.075 N 
ENDROOT
BRANCH   4  18
HETATM   18  C5  UNL     1     365.499 237.294 188.645  1.00  0.00     0.167 C 
HETATM   19  C6  UNL     1     365.689 237.112 187.151  1.00  0.00     0.046 C 
BRANCH  18  20
HETATM   20  O1  UNL     1     364.707 236.321 189.200  1.00  0.00    -0.374 OA
BRANCH  20  21
HETATM   21  C7  UNL     1     364.297 235.421 188.199  1.00  0.00     0.224 C 
BRANCH  21  22
HETATM   22  C8  UNL     1     364.331 234.021 188.658  1.00  0.00     0.048 C 
BRANCH  22  23
HETATM   23  C9  UNL     1     364.323 232.887 187.700  1.00  0.00     0.227 C 
BRANCH  23  24
HETATM   24  N1  UNL     1     365.458 232.916 186.814  1.00  0.00    -0.199 N 
HETATM   25  N2  UNL     1     365.600 233.497 185.637  1.00  0.00    -0.211 N 
HETATM   26  N3  UNL     1     366.811 233.270 185.168  1.00  0.00    -0.115 N 
ATOM     27  H2  UNL     1     364.881 234.041 185.161  1.00  0.00     0.210 HD
HETATM   28  C10 UNL     1     367.469 232.518 186.069  1.00  0.00     0.707 A 
ATOM     29  H3  UNL     1     367.184 233.604 184.279  1.00  0.00     0.207 HD
HETATM   30  N5  UNL     1     366.600 232.320 187.074  1.00  0.00    -0.113 N 
ATOM     31  H5  UNL     1     366.798 231.784 187.919  1.00  0.00     0.207 HD
BRANCH  28  32
HETATM   32  N4  UNL     1     368.691 232.065 186.008  1.00  0.00    -0.232 N 
ATOM     33  H42 UNL     1     369.274 231.797 186.802  1.00  0.00     0.174 HD
ATOM     34  H41 UNL     1     369.266 231.903 185.181  1.00  0.00     0.174 HD
ENDBRANCH  28  32
ENDBRANCH  23  24
ENDBRANCH  22  23
BRANCH  22  35
HETATM   35  N6  UNL     1     364.369 233.728 189.913  1.00  0.00    -0.311 N 
ATOM     36  H6  UNL     1     364.309 234.461 190.620  1.00  0.00     0.185 HD
BRANCH  35  37
HETATM   37  N7  UNL     1     364.493 232.396 190.285  1.00  0.00    -0.345 N 
ATOM     38  H72 UNL     1     364.050 231.671 189.721  1.00  0.00     0.176 HD
ATOM     39  H71 UNL     1     365.029 232.167 191.122  1.00  0.00     0.176 HD
ENDBRANCH  35  37
ENDBRANCH  22  35
ENDBRANCH  21  22
ENDBRANCH  20  21
ENDBRANCH  18  20
ENDBRANCH   4  18
BRANCH  17  40
HETATM   40  N13 UNL     1     362.691 244.497 191.798  1.00  0.00    -0.322 N 
ATOM     41 2H13 UNL     1     362.587 245.289 192.433  1.00  0.00     0.178 HD
ATOM     42 1H13 UNL     1     362.365 244.622 190.839  1.00  0.00     0.178 HD
ENDBRANCH  17  40
BRANCH  15  43
HETATM   43  C16 UNL     1     364.306 241.435 195.172  1.00  0.00     0.176 C 
BRANCH  43  44
HETATM   44  C17 UNL     1     363.096 240.822 195.829  1.00  0.00    -0.008 C 
BRANCH  44  45
HETATM   45  C18 UNL     1     363.216 239.819 196.683  1.00  0.00    -0.004 C 
BRANCH  45  46
HETATM   46  C19 UNL     1     362.445 238.577 196.465  1.00  0.00     0.191 C 
BRANCH  46  47
HETATM   47  O2  UNL     1     363.165 237.596 195.794  1.00  0.00    -0.397 OA
ATOM     48  H2  UNL     1     364.060 237.513 196.101  1.00  0.00     0.209 HD
ENDBRANCH  46  47
ENDBRANCH  45  46
ENDBRANCH  44  45
ENDBRANCH  43  44
ENDBRANCH  15  43
BRANCH  16  49
HETATM   49  N11 UNL     1     363.232 243.774 194.390  1.00  0.00    -0.233 N 
ATOM     50 2H11 UNL     1     362.293 243.795 194.787  1.00  0.00     0.174 HD
ATOM     51 1H11 UNL     1     363.982 244.389 194.709  1.00  0.00     0.174 HD
ENDBRANCH  16  49
TORSDOF 16
ENDMDL
