MODEL 1
REMARK VINA RESULT: -5.646225436      0.000      0.000
REMARK  4 active torsions:
REMARK  status: ('A' for Active; 'I' for Inactive)
REMARK    1  A    between atoms: C5_6  and  O1_7 
REMARK    2  A    between atoms: C5_6  and  C6_9 
REMARK    3  A    between atoms: C6_9  and  N2_10 
REMARK    4  A    between atoms: N2_10  and  C7_12 
ROOT
HETATM    1  C1  UNL     1     -15.851 -12.996  28.017  1.00  0.00     0.041 C 
HETATM    2  C2  UNL     1     -15.089 -13.178  26.736  1.00  0.00     0.135 C 
HETATM    3  C3  UNL     1     -15.579 -12.296  25.628  1.00  0.00     0.154 C 
HETATM    4  N1  UNL     1     -15.120 -10.960  25.667  1.00  0.00    -0.381 N 
HETATM    5  C4  UNL     1     -15.151 -10.351  24.408  1.00  0.00     0.098 C 
HETATM    6  C5  UNL     1     -14.304  -9.193  24.144  1.00  0.00     0.105 C 
HETATM    7  C12 UNL     1     -13.663  -8.572  25.395  1.00  0.00     0.047 C 
HETATM    8  C13 UNL     1     -12.995  -9.769  26.080  1.00  0.00     0.030 C 
HETATM    9  C14 UNL     1     -14.173 -10.600  26.616  1.00  0.00     0.107 C 
HETATM   10  C15 UNL     1     -13.559 -11.707  27.423  1.00  0.00     0.193 C 
HETATM   11  O2  UNL     1     -13.723 -12.960  26.871  1.00  0.00    -0.383 OA
ENDROOT
BRANCH   6  12
HETATM   12  O1  UNL     1     -13.195  -9.493  23.316  1.00  0.00    -0.383 OA
ATOM     13  H1  UNL     1     -12.385  -9.100  23.620  1.00  0.00     0.211 HD
ENDBRANCH   6  12
BRANCH   6  14
HETATM   14  C6  UNL     1     -14.994  -8.016  23.449  1.00  0.00     0.157 C 
BRANCH  14  15
HETATM   15  N2  UNL     1     -16.033  -8.594  22.652  1.00  0.00    -0.414 N 
ATOM     16  H2  UNL     1     -16.064  -9.590  22.435  1.00  0.00     0.153 HD
BRANCH  15  17
HETATM   17  C7  UNL     1     -17.018  -7.684  22.182  1.00  0.00     0.076 C 
HETATM   18  C8  UNL     1     -18.358  -8.422  22.250  1.00  0.00     0.024 C 
HETATM   19  C9  UNL     1     -19.040  -7.790  23.458  1.00  0.00     0.002 C 
HETATM   20  C10 UNL     1     -18.657  -6.326  23.247  1.00  0.00     0.002 C 
HETATM   21  C11 UNL     1     -17.159  -6.459  23.060  1.00  0.00     0.024 C 
ENDBRANCH  15  17
ENDBRANCH  14  15
ENDBRANCH   6  14
TORSDOF 4
ENDMDL
MODEL 2
REMARK VINA RESULT: -5.552837407      3.341      7.249
REMARK  4 active torsions:
REMARK  status: ('A' for Active; 'I' for Inactive)
REMARK    1  A    between atoms: C5_6  and  O1_7 
REMARK    2  A    between atoms: C5_6  and  C6_9 
REMARK    3  A    between atoms: C6_9  and  N2_10 
REMARK    4  A    between atoms: N2_10  and  C7_12 
ROOT
HETATM    1  C1  UNL     1     -22.223  -6.702  21.626  1.00  0.00     0.041 C 
HETATM    2  C2  UNL     1     -21.108  -5.771  21.245  1.00  0.00     0.135 C 
HETATM    3  C3  UNL     1     -20.034  -5.681  22.287  1.00  0.00     0.154 C 
HETATM    4  N1  UNL     1     -19.099  -6.740  22.289  1.00  0.00    -0.381 N 
HETATM    5  C4  UNL     1     -17.881  -6.373  22.871  1.00  0.00     0.098 C 
HETATM    6  C5  UNL     1     -16.671  -7.122  22.552  1.00  0.00     0.105 C 
HETATM    7  C12 UNL     1     -16.918  -8.448  21.815  1.00  0.00     0.047 C 
HETATM    8  C13 UNL     1     -17.801  -8.035  20.632  1.00  0.00     0.030 C 
HETATM    9  C14 UNL     1     -19.153  -7.690  21.277  1.00  0.00     0.107 C 
HETATM   10  C15 UNL     1     -20.093  -7.420  20.138  1.00  0.00     0.193 C 
HETATM   11  O2  UNL     1     -20.497  -6.106  20.043  1.00  0.00    -0.383 OA
ENDROOT
BRANCH   6  12
HETATM   12  O1  UNL     1     -15.793  -6.421  21.691  1.00  0.00    -0.383 OA
ATOM     13  H1  UNL     1     -15.680  -5.510  21.934  1.00  0.00     0.211 HD
ENDBRANCH   6  12
BRANCH   6  14
HETATM   14  C6  UNL     1     -15.802  -7.513  23.751  1.00  0.00     0.157 C 
BRANCH  14  15
HETATM   15  N2  UNL     1     -14.567  -7.980  23.197  1.00  0.00    -0.414 N 
ATOM     16  H2  UNL     1     -14.195  -7.622  22.316  1.00  0.00     0.153 HD
BRANCH  15  17
HETATM   17  C7  UNL     1     -13.895  -8.974  23.956  1.00  0.00     0.076 C 
HETATM   18  C8  UNL     1     -12.451  -9.007  23.447  1.00  0.00     0.024 C 
HETATM   19  C9  UNL     1     -11.676  -8.314  24.562  1.00  0.00     0.002 C 
HETATM   20  C10 UNL     1     -12.373  -8.911  25.785  1.00  0.00     0.002 C 
HETATM   21  C11 UNL     1     -13.821  -8.643  25.431  1.00  0.00     0.024 C 
ENDBRANCH  15  17
ENDBRANCH  14  15
ENDBRANCH   6  14
TORSDOF 4
ENDMDL
MODEL 3
REMARK VINA RESULT: -5.487299509      1.689      6.250
REMARK  4 active torsions:
REMARK  status: ('A' for Active; 'I' for Inactive)
REMARK    1  A    between atoms: C5_6  and  O1_7 
REMARK    2  A    between atoms: C5_6  and  C6_9 
REMARK    3  A    between atoms: C6_9  and  N2_10 
REMARK    4  A    between atoms: N2_10  and  C7_12 
ROOT
HETATM    1  C1  UNL     1     -18.914  -6.434  21.936  1.00  0.00     0.041 C 
HETATM    2  C2  UNL     1     -17.546  -6.650  21.358  1.00  0.00     0.135 C 
HETATM    3  C3  UNL     1     -16.453  -6.556  22.378  1.00  0.00     0.154 C 
HETATM    4  N1  UNL     1     -16.259  -7.710  23.170  1.00  0.00    -0.381 N 
HETATM    5  C4  UNL     1     -14.967  -7.781  23.700  1.00  0.00     0.098 C 
HETATM    6  C5  UNL     1     -14.427  -9.069  24.121  1.00  0.00     0.105 C 
HETATM    7  C12 UNL     1     -15.466 -10.198  24.210  1.00  0.00     0.047 C 
HETATM    8  C13 UNL     1     -16.149 -10.156  22.839  1.00  0.00     0.030 C 
HETATM    9  C14 UNL     1     -16.977  -8.861  22.872  1.00  0.00     0.107 C 
HETATM   10  C15 UNL     1     -17.779  -8.855  21.602  1.00  0.00     0.193 C 
HETATM   11  O2  UNL     1     -17.409  -7.872  20.710  1.00  0.00    -0.383 OA
ENDROOT
BRANCH   6  12
HETATM   12  O1  UNL     1     -13.453  -9.582  23.232  1.00  0.00    -0.383 OA
ATOM     13  H1  UNL     1     -13.051 -10.385  23.541  1.00  0.00     0.211 HD
ENDBRANCH   6  12
BRANCH   6  14
HETATM   14  C6  UNL     1     -13.740  -9.079  25.490  1.00  0.00     0.157 C 
BRANCH  14  15
HETATM   15  N2  UNL     1     -13.459 -10.455  25.770  1.00  0.00    -0.414 N 
ATOM     16  H2  UNL     1     -13.302 -11.141  25.031  1.00  0.00     0.153 HD
BRANCH  15  17
HETATM   17  C7  UNL     1     -13.413 -10.799  27.147  1.00  0.00     0.076 C 
HETATM   18  C8  UNL     1     -14.666 -10.197  27.788  1.00  0.00     0.024 C 
HETATM   19  C9  UNL     1     -15.560 -11.413  28.006  1.00  0.00     0.002 C 
HETATM   20  C10 UNL     1     -14.522 -12.428  28.483  1.00  0.00     0.002 C 
HETATM   21  C11 UNL     1     -13.484 -12.292  27.387  1.00  0.00     0.024 C 
ENDBRANCH  15  17
ENDBRANCH  14  15
ENDBRANCH   6  14
TORSDOF 4
ENDMDL
MODEL 4
REMARK VINA RESULT: -5.469633623      3.018      4.654
REMARK  4 active torsions:
REMARK  status: ('A' for Active; 'I' for Inactive)
REMARK    1  A    between atoms: C5_6  and  O1_7 
REMARK    2  A    between atoms: C5_6  and  C6_9 
REMARK    3  A    between atoms: C6_9  and  N2_10 
REMARK    4  A    between atoms: N2_10  and  C7_12 
ROOT
HETATM    1  C1  UNL     1     -13.984 -12.789  28.968  1.00  0.00     0.041 C 
HETATM    2  C2  UNL     1     -14.514 -11.390  28.846  1.00  0.00     0.135 C 
HETATM    3  C3  UNL     1     -13.612 -10.484  28.065  1.00  0.00     0.154 C 
HETATM    4  N1  UNL     1     -13.701 -10.600  26.660  1.00  0.00    -0.381 N 
HETATM    5  C4  UNL     1     -13.278  -9.441  26.002  1.00  0.00     0.098 C 
HETATM    6  C5  UNL     1     -13.726  -9.176  24.639  1.00  0.00     0.105 C 
HETATM    7  C12 UNL     1     -14.402 -10.371  23.948  1.00  0.00     0.047 C 
HETATM    8  C13 UNL     1     -15.478 -10.798  24.953  1.00  0.00     0.030 C 
HETATM    9  C14 UNL     1     -14.681 -11.418  26.112  1.00  0.00     0.107 C 
HETATM   10  C15 UNL     1     -15.704 -11.984  27.055  1.00  0.00     0.193 C 
HETATM   11  O2  UNL     1     -15.775 -11.327  28.265  1.00  0.00    -0.383 OA
ENDROOT
BRANCH   6  12
HETATM   12  O1  UNL     1     -14.700  -8.152  24.563  1.00  0.00    -0.383 OA
ATOM     13  H1  UNL     1     -14.325  -7.287  24.446  1.00  0.00     0.211 HD
ENDBRANCH   6  12
BRANCH   6  14
HETATM   14  C6  UNL     1     -12.634  -8.741  23.659  1.00  0.00     0.157 C 
BRANCH  14  15
HETATM   15  N2  UNL     1     -11.615  -8.133  24.460  1.00  0.00    -0.414 N 
ATOM     16  H2  UNL     1     -11.715  -8.011  25.468  1.00  0.00     0.153 HD
BRANCH  15  17
HETATM   17  C7  UNL     1     -10.457  -7.709  23.756  1.00  0.00     0.076 C 
HETATM   18  C8  UNL     1     -10.917  -7.350  22.340  1.00  0.00     0.024 C 
HETATM   19  C9  UNL     1     -10.886  -5.826  22.342  1.00  0.00     0.002 C 
HETATM   20  C10 UNL     1      -9.592  -5.585  23.119  1.00  0.00     0.002 C 
HETATM   21  C11 UNL     1      -9.837  -6.456  24.335  1.00  0.00     0.024 C 
ENDBRANCH  15  17
ENDBRANCH  14  15
ENDBRANCH   6  14
TORSDOF 4
ENDMDL
MODEL 5
REMARK VINA RESULT: -5.436928974      2.386      6.331
REMARK  4 active torsions:
REMARK  status: ('A' for Active; 'I' for Inactive)
REMARK    1  A    between atoms: C5_6  and  O1_7 
REMARK    2  A    between atoms: C5_6  and  C6_9 
REMARK    3  A    between atoms: C6_9  and  N2_10 
REMARK    4  A    between atoms: N2_10  and  C7_12 
ROOT
HETATM    1  C1  UNL     1     -18.992  -6.368  21.958  1.00  0.00     0.041 C 
HETATM    2  C2  UNL     1     -17.672  -6.694  21.322  1.00  0.00     0.135 C 
HETATM    3  C3  UNL     1     -16.535  -6.706  22.297  1.00  0.00     0.154 C 
HETATM    4  N1  UNL     1     -16.410  -7.882  23.071  1.00  0.00    -0.381 N 
HETATM    5  C4  UNL     1     -15.108  -8.070  23.546  1.00  0.00     0.098 C 
HETATM    6  C5  UNL     1     -14.665  -9.405  23.934  1.00  0.00     0.105 C 
HETATM    7  C12 UNL     1     -15.793 -10.441  24.055  1.00  0.00     0.047 C 
HETATM    8  C13 UNL     1     -16.525 -10.325  22.713  1.00  0.00     0.030 C 
HETATM    9  C14 UNL     1     -17.235  -8.964  22.791  1.00  0.00     0.107 C 
HETATM   10  C15 UNL     1     -18.084  -8.874  21.556  1.00  0.00     0.193 C 
HETATM   11  O2  UNL     1     -17.667  -7.914  20.658  1.00  0.00    -0.383 OA
ENDROOT
BRANCH   6  12
HETATM   12  O1  UNL     1     -13.775  -9.989  23.001  1.00  0.00    -0.383 OA
ATOM     13  H1  UNL     1     -13.110  -9.386  22.691  1.00  0.00     0.211 HD
ENDBRANCH   6  12
BRANCH   6  14
HETATM   14  C6  UNL     1     -13.928  -9.491  25.273  1.00  0.00     0.157 C 
BRANCH  14  15
HETATM   15  N2  UNL     1     -13.132  -8.304  25.354  1.00  0.00    -0.414 N 
ATOM     16  H2  UNL     1     -13.545  -7.372  25.381  1.00  0.00     0.153 HD
BRANCH  15  17
HETATM   17  C7  UNL     1     -11.728  -8.513  25.392  1.00  0.00     0.076 C 
HETATM   18  C8  UNL     1     -11.210  -8.247  23.975  1.00  0.00     0.024 C 
HETATM   19  C9  UNL     1     -10.528  -6.890  24.106  1.00  0.00     0.002 C 
HETATM   20  C10 UNL     1      -9.841  -7.064  25.460  1.00  0.00     0.002 C 
HETATM   21  C11 UNL     1     -11.009  -7.539  26.300  1.00  0.00     0.024 C 
ENDBRANCH  15  17
ENDBRANCH  14  15
ENDBRANCH   6  14
TORSDOF 4
ENDMDL
