MODEL 1
REMARK VINA RESULT: -5.255785621      0.000      0.000
REMARK  4 active torsions:
REMARK  status: ('A' for Active; 'I' for Inactive)
REMARK    1  A    between atoms: C1_2  and  C2_3 
REMARK    2  A    between atoms: C1_2  and  C6_12 
REMARK    3  A    between atoms: C4_5  and  O2_6 
REMARK    4  A    between atoms: C6_12  and  C7_13 
ROOT
HETATM    1  C6  UNL     1     -12.737  -8.825  24.835  1.00  0.00     0.049 C 
HETATM    2  C11 UNL     1     -13.441  -7.983  25.897  1.00  0.00     0.020 C 
HETATM    3  C12 UNL     1     -12.458  -7.860  27.041  1.00  0.00     0.001 C 
HETATM    4  C13 UNL     1     -12.545  -9.180  27.793  1.00  0.00     0.000 C 
HETATM    5  C14 UNL     1     -13.016 -10.280  26.882  1.00  0.00     0.001 C 
HETATM    6  C15 UNL     1     -12.510 -10.177  25.486  1.00  0.00     0.020 C 
ENDROOT
BRANCH   1   7
HETATM    7  C1  UNL     1     -11.452  -8.199  24.474  1.00  0.00     0.168 C 
HETATM    8  O1  UNL     1     -10.439  -8.938  24.517  1.00  0.00    -0.295 OA
BRANCH   7   9
HETATM    9  C2  UNL     1     -11.185  -6.821  24.070  1.00  0.00     0.258 C 
HETATM   10  C3  UNL     1     -10.883  -6.605  22.610  1.00  0.00     0.074 C 
HETATM   11  C4  UNL     1     -10.015  -5.331  22.660  1.00  0.00     0.146 C 
HETATM   12  C5  UNL     1      -9.124  -5.728  23.837  1.00  0.00     0.264 C 
HETATM   13  N1  UNL     1     -10.070  -6.229  24.793  1.00  0.00    -0.062 N 
ATOM     14  H12 UNL     1     -10.368  -5.517  25.460  1.00  0.00     0.278 HD
ATOM     15  H11 UNL     1      -9.648  -6.876  25.460  1.00  0.00     0.278 HD
BRANCH  11  16
HETATM   16  O2  UNL     1      -9.293  -5.158  21.498  1.00  0.00    -0.394 OA
ATOM     17  H2  UNL     1      -8.625  -4.489  21.594  1.00  0.00     0.210 HD
ENDBRANCH  11  16
ENDBRANCH   7   9
ENDBRANCH   1   7
BRANCH   1  18
HETATM   18  C7  UNL     1     -13.653  -8.916  23.672  1.00  0.00     0.137 C 
HETATM   19  C8  UNL     1     -14.522 -10.145  23.678  1.00  0.00     0.035 C 
HETATM   20  C9  UNL     1     -15.888  -9.621  23.404  1.00  0.00     0.029 C 
HETATM   21  C10 UNL     1     -15.746  -8.139  23.347  1.00  0.00     0.168 C 
HETATM   22  O3  UNL     1     -14.480  -7.797  23.711  1.00  0.00    -0.385 OA
ENDBRANCH   1  18
TORSDOF 4
ENDMDL
MODEL 2
REMARK VINA RESULT: -5.114447707      4.615      7.272
REMARK  4 active torsions:
REMARK  status: ('A' for Active; 'I' for Inactive)
REMARK    1  A    between atoms: C1_2  and  C2_3 
REMARK    2  A    between atoms: C1_2  and  C6_12 
REMARK    3  A    between atoms: C4_5  and  O2_6 
REMARK    4  A    between atoms: C6_12  and  C7_13 
ROOT
HETATM    1  C6  UNL     1     -13.976 -11.497  27.590  1.00  0.00     0.049 C 
HETATM    2  C11 UNL     1     -15.068 -10.621  28.200  1.00  0.00     0.020 C 
HETATM    3  C12 UNL     1     -15.843 -11.525  29.134  1.00  0.00     0.001 C 
HETATM    4  C13 UNL     1     -16.765 -12.338  28.237  1.00  0.00     0.000 C 
HETATM    5  C14 UNL     1     -16.198 -12.444  26.849  1.00  0.00     0.001 C 
HETATM    6  C15 UNL     1     -14.714 -12.563  26.802  1.00  0.00     0.020 C 
ENDROOT
BRANCH   1   7
HETATM    7  C1  UNL     1     -13.169 -12.108  28.662  1.00  0.00     0.168 C 
HETATM    8  O1  UNL     1     -12.765 -11.338  29.566  1.00  0.00    -0.295 OA
BRANCH   7   9
HETATM    9  C2  UNL     1     -12.764 -13.502  28.823  1.00  0.00     0.258 C 
HETATM   10  C3  UNL     1     -13.131 -14.152  30.132  1.00  0.00     0.074 C 
HETATM   11  C4  UNL     1     -12.035 -15.230  30.259  1.00  0.00     0.146 C 
HETATM   12  C5  UNL     1     -10.842 -14.368  29.849  1.00  0.00     0.264 C 
HETATM   13  N1  UNL     1     -11.329 -13.690  28.681  1.00  0.00    -0.062 N 
ATOM     14  H12 UNL     1     -11.080 -14.172  27.816  1.00  0.00     0.278 HD
ATOM     15  H11 UNL     1     -10.835 -12.816  28.500  1.00  0.00     0.278 HD
BRANCH  11  16
HETATM   16  O2  UNL     1     -11.921 -15.693  31.553  1.00  0.00    -0.394 OA
ATOM     17  H2  UNL     1     -11.025 -15.653  31.864  1.00  0.00     0.210 HD
ENDBRANCH  11  16
ENDBRANCH   7   9
ENDBRANCH   1   7
BRANCH   1  18
HETATM   18  C7  UNL     1     -13.157 -10.625  26.712  1.00  0.00     0.137 C 
HETATM   19  C8  UNL     1     -13.851 -10.223  25.438  1.00  0.00     0.035 C 
HETATM   20  C9  UNL     1     -13.640  -8.752  25.363  1.00  0.00     0.029 C 
HETATM   21  C10 UNL     1     -12.928  -8.383  26.618  1.00  0.00     0.168 C 
HETATM   22  O3  UNL     1     -12.866  -9.470  27.433  1.00  0.00    -0.385 OA
ENDBRANCH   1  18
TORSDOF 4
ENDMDL
MODEL 3
REMARK VINA RESULT: -5.000618686      5.953      8.366
REMARK  4 active torsions:
REMARK  status: ('A' for Active; 'I' for Inactive)
REMARK    1  A    between atoms: C1_2  and  C2_3 
REMARK    2  A    between atoms: C1_2  and  C6_12 
REMARK    3  A    between atoms: C4_5  and  O2_6 
REMARK    4  A    between atoms: C6_12  and  C7_13 
ROOT
HETATM    1  C6  UNL     1     -18.028  -7.979  21.654  1.00  0.00     0.049 C 
HETATM    2  C11 UNL     1     -19.361  -8.055  22.395  1.00  0.00     0.020 C 
HETATM    3  C12 UNL     1     -20.025  -6.712  22.182  1.00  0.00     0.001 C 
HETATM    4  C13 UNL     1     -19.345  -5.765  23.161  1.00  0.00     0.000 C 
HETATM    5  C14 UNL     1     -17.961  -6.250  23.495  1.00  0.00     0.001 C 
HETATM    6  C15 UNL     1     -17.244  -6.885  22.355  1.00  0.00     0.020 C 
ENDROOT
BRANCH   1   7
HETATM    7  C1  UNL     1     -18.262  -7.628  20.241  1.00  0.00     0.168 C 
HETATM    8  O1  UNL     1     -17.385  -6.921  19.689  1.00  0.00    -0.295 OA
BRANCH   7   9
HETATM    9  C2  UNL     1     -19.386  -7.989  19.381  1.00  0.00     0.258 C 
HETATM   10  C3  UNL     1     -19.451  -9.429  18.945  1.00  0.00     0.074 C 
HETATM   11  C4  UNL     1     -20.217  -9.313  17.612  1.00  0.00     0.146 C 
HETATM   12  C5  UNL     1     -19.469  -8.109  17.041  1.00  0.00     0.264 C 
HETATM   13  N1  UNL     1     -19.429  -7.206  18.156  1.00  0.00    -0.062 N 
ATOM     14  H12 UNL     1     -20.198  -6.536  18.145  1.00  0.00     0.278 HD
ATOM     15  H11 UNL     1     -18.661  -6.537  18.091  1.00  0.00     0.278 HD
BRANCH  11  16
HETATM   16  O2  UNL     1     -20.061 -10.440  16.832  1.00  0.00    -0.394 OA
ATOM     17  H2  UNL     1     -20.654 -11.134  17.093  1.00  0.00     0.210 HD
ENDBRANCH  11  16
ENDBRANCH   7   9
ENDBRANCH   1   7
BRANCH   1  18
HETATM   18  C7  UNL     1     -17.376  -9.304  21.792  1.00  0.00     0.137 C 
HETATM   19  C8  UNL     1     -16.225  -9.317  22.762  1.00  0.00     0.035 C 
HETATM   20  C9  UNL     1     -16.488 -10.505  23.619  1.00  0.00     0.029 C 
HETATM   21  C10 UNL     1     -17.798 -11.048  23.161  1.00  0.00     0.168 C 
HETATM   22  O3  UNL     1     -18.343 -10.194  22.254  1.00  0.00    -0.385 OA
ENDBRANCH   1  18
TORSDOF 4
ENDMDL
MODEL 4
REMARK VINA RESULT: -4.989254984      3.884      5.282
REMARK  4 active torsions:
REMARK  status: ('A' for Active; 'I' for Inactive)
REMARK    1  A    between atoms: C1_2  and  C2_3 
REMARK    2  A    between atoms: C1_2  and  C6_12 
REMARK    3  A    between atoms: C4_5  and  O2_6 
REMARK    4  A    between atoms: C6_12  and  C7_13 
ROOT
HETATM    1  C6  UNL     1     -14.765 -12.009  28.171  1.00  0.00     0.049 C 
HETATM    2  C11 UNL     1     -14.582 -11.243  29.479  1.00  0.00     0.020 C 
HETATM    3  C12 UNL     1     -13.112 -11.358  29.819  1.00  0.00     0.001 C 
HETATM    4  C13 UNL     1     -12.942 -12.748  30.416  1.00  0.00     0.000 C 
HETATM    5  C14 UNL     1     -14.015 -13.675  29.916  1.00  0.00     0.001 C 
HETATM    6  C15 UNL     1     -14.409 -13.448  28.498  1.00  0.00     0.020 C 
ENDROOT
BRANCH   1   7
HETATM    7  C1  UNL     1     -13.854 -11.468  27.145  1.00  0.00     0.168 C 
HETATM    8  O1  UNL     1     -12.976 -12.251  26.709  1.00  0.00    -0.295 OA
BRANCH   7   9
HETATM    9  C2  UNL     1     -13.827 -10.131  26.557  1.00  0.00     0.258 C 
HETATM   10  C3  UNL     1     -14.183 -10.043  25.096  1.00  0.00     0.074 C 
HETATM   11  C4  UNL     1     -13.415  -8.776  24.668  1.00  0.00     0.146 C 
HETATM   12  C5  UNL     1     -12.096  -9.077  25.378  1.00  0.00     0.264 C 
HETATM   13  N1  UNL     1     -12.528  -9.489  26.684  1.00  0.00    -0.062 N 
ATOM     14  H12 UNL     1     -12.535  -8.721  27.355  1.00  0.00     0.278 HD
ATOM     15  H11 UNL     1     -11.843 -10.080  27.155  1.00  0.00     0.278 HD
BRANCH  11  16
HETATM   16  O2  UNL     1     -13.264  -8.707  23.299  1.00  0.00    -0.394 OA
ATOM     17  H2  UNL     1     -12.700  -9.398  22.971  1.00  0.00     0.210 HD
ENDBRANCH  11  16
ENDBRANCH   7   9
ENDBRANCH   1   7
BRANCH   1  18
HETATM   18  C7  UNL     1     -16.188 -11.866  27.777  1.00  0.00     0.137 C 
HETATM   19  C8  UNL     1     -16.663 -12.927  26.821  1.00  0.00     0.035 C 
HETATM   20  C9  UNL     1     -17.944 -13.399  27.414  1.00  0.00     0.029 C 
HETATM   21  C10 UNL     1     -18.087 -12.660  28.700  1.00  0.00     0.168 C 
HETATM   22  O3  UNL     1     -16.949 -11.955  28.940  1.00  0.00    -0.385 OA
ENDBRANCH   1  18
TORSDOF 4
ENDMDL
MODEL 5
REMARK VINA RESULT: -4.946532819      3.975      6.396
REMARK  4 active torsions:
REMARK  status: ('A' for Active; 'I' for Inactive)
REMARK    1  A    between atoms: C1_2  and  C2_3 
REMARK    2  A    between atoms: C1_2  and  C6_12 
REMARK    3  A    between atoms: C4_5  and  O2_6 
REMARK    4  A    between atoms: C6_12  and  C7_13 
ROOT
HETATM    1  C6  UNL     1     -14.145 -12.317  28.574  1.00  0.00     0.049 C 
HETATM    2  C11 UNL     1     -14.964 -13.565  28.256  1.00  0.00     0.020 C 
HETATM    3  C12 UNL     1     -16.020 -13.121  27.266  1.00  0.00     0.001 C 
HETATM    4  C13 UNL     1     -17.090 -12.430  28.100  1.00  0.00     0.000 C 
HETATM    5  C14 UNL     1     -16.503 -11.891  29.376  1.00  0.00     0.001 C 
HETATM    6  C15 UNL     1     -15.119 -11.359  29.235  1.00  0.00     0.020 C 
ENDROOT
BRANCH   1   7
HETATM    7  C1  UNL     1     -13.612 -11.738  27.327  1.00  0.00     0.168 C 
HETATM    8  O1  UNL     1     -12.908 -12.495  26.616  1.00  0.00    -0.295 OA
BRANCH   7   9
HETATM    9  C2  UNL     1     -13.788 -10.389  26.794  1.00  0.00     0.258 C 
HETATM   10  C3  UNL     1     -14.330 -10.296  25.392  1.00  0.00     0.074 C 
HETATM   11  C4  UNL     1     -13.747  -8.946  24.925  1.00  0.00     0.146 C 
HETATM   12  C5  UNL     1     -12.327  -9.133  25.458  1.00  0.00     0.264 C 
HETATM   13  N1  UNL     1     -12.552  -9.623  26.789  1.00  0.00    -0.062 N 
ATOM     14  H12 UNL     1     -12.549  -8.878  27.486  1.00  0.00     0.278 HD
ATOM     15  H11 UNL     1     -11.759 -10.154  27.150  1.00  0.00     0.278 HD
BRANCH  11  16
HETATM   16  O2  UNL     1     -13.775  -8.824  23.552  1.00  0.00    -0.394 OA
ATOM     17  H2  UNL     1     -13.254  -9.496  23.128  1.00  0.00     0.210 HD
ENDBRANCH  11  16
ENDBRANCH   7   9
ENDBRANCH   1   7
BRANCH   1  18
HETATM   18  C7  UNL     1     -13.060 -12.730  29.498  1.00  0.00     0.137 C 
HETATM   19  C8  UNL     1     -12.522 -11.608  30.344  1.00  0.00     0.035 C 
HETATM   20  C9  UNL     1     -12.507 -12.171  31.722  1.00  0.00     0.029 C 
HETATM   21  C10 UNL     1     -13.110 -13.529  31.607  1.00  0.00     0.168 C 
HETATM   22  O3  UNL     1     -13.589 -13.701  30.345  1.00  0.00    -0.385 OA
ENDBRANCH   1  18
TORSDOF 4
ENDMDL
