MODEL 1
REMARK VINA RESULT: -6.199581032      0.000      0.000
REMARK  6 active torsions:
REMARK  status: ('A' for Active; 'I' for Inactive)
REMARK    1  A    between atoms: C1_2  and  O2_3 
REMARK    2  A    between atoms: C1_2  and  C7_9 
REMARK    3  A    between atoms: O2_3  and  C2_4 
REMARK    4  A    between atoms: C2_4  and  C3_5 
REMARK    5  A    between atoms: C7_9  and  O3_10 
REMARK    6  A    between atoms: C13_17  and  O4_18 
ROOT
HETATM    1  C7  UNL     1     -17.202  -8.173  22.708  1.00  0.00     0.152 C 
HETATM    2  C8  UNL     1     -18.056  -7.050  23.222  1.00  0.00     0.053 C 
HETATM    3  C9  UNL     1     -19.216  -6.900  22.235  1.00  0.00    -0.008 C 
HETATM    4  C10 UNL     1     -19.737  -8.257  21.811  1.00  0.00     0.010 C 
HETATM    5  C11 UNL     1     -18.733  -8.980  20.961  1.00  0.00    -0.001 C 
HETATM    6  C12 UNL     1     -18.589  -8.246  19.617  1.00  0.00     0.043 C 
HETATM    7  C13 UNL     1     -17.667  -7.286  20.391  1.00  0.00     0.066 C 
HETATM    8  C14 UNL     1     -18.576  -6.263  20.999  1.00  0.00     0.043 C 
HETATM    9  C15 UNL     1     -17.332  -8.435  21.262  1.00  0.00     0.069 C 
ENDROOT
BRANCH   1  10
HETATM   10  C1  UNL     1     -15.788  -7.983  23.133  1.00  0.00     0.294 C 
HETATM   11  O1  UNL     1     -15.288  -6.831  22.953  1.00  0.00    -0.262 OA
BRANCH  10  12
HETATM   12  O2  UNL     1     -15.012  -8.973  23.699  1.00  0.00    -0.319 OA
BRANCH  12  13
HETATM   13  C2  UNL     1     -13.605  -8.813  23.670  1.00  0.00     0.183 C 
BRANCH  13  14
HETATM   14  C3  UNL     1     -12.987  -9.233  24.985  1.00  0.00     0.010 C 
HETATM   15  C4  UNL     1     -11.680  -8.541  25.309  1.00  0.00     0.007 C 
HETATM   16  C5  UNL     1     -12.181  -8.389  26.732  1.00  0.00     0.001 C 
HETATM   17  C6  UNL     1     -13.596  -8.480  26.151  1.00  0.00     0.007 C 
ENDBRANCH  13  14
ENDBRANCH  12  13
ENDBRANCH  10  12
ENDBRANCH   1  10
BRANCH   1  18
HETATM   18  O3  UNL     1     -17.647  -9.332  23.392  1.00  0.00    -0.379 OA
ATOM     19  H3  UNL     1     -18.580  -9.383  23.221  1.00  0.00     0.211 HD
ENDBRANCH   1  18
BRANCH   7  20
HETATM   20  O4  UNL     1     -16.627  -6.785  19.608  1.00  0.00    -0.389 OA
ATOM     21  H4  UNL     1     -16.716  -5.857  19.427  1.00  0.00     0.210 HD
ENDBRANCH   7  20
TORSDOF 6
ENDMDL
MODEL 2
REMARK VINA RESULT: -6.136154840      1.137      1.594
REMARK  6 active torsions:
REMARK  status: ('A' for Active; 'I' for Inactive)
REMARK    1  A    between atoms: C1_2  and  O2_3 
REMARK    2  A    between atoms: C1_2  and  C7_9 
REMARK    3  A    between atoms: O2_3  and  C2_4 
REMARK    4  A    between atoms: C2_4  and  C3_5 
REMARK    5  A    between atoms: C7_9  and  O3_10 
REMARK    6  A    between atoms: C13_17  and  O4_18 
ROOT
HETATM    1  C7  UNL     1     -18.090  -8.956  22.158  1.00  0.00     0.152 C 
HETATM    2  C8  UNL     1     -18.508  -7.915  23.157  1.00  0.00     0.053 C 
HETATM    3  C9  UNL     1     -19.349  -6.891  22.392  1.00  0.00    -0.008 C 
HETATM    4  C10 UNL     1     -20.284  -7.583  21.423  1.00  0.00     0.010 C 
HETATM    5  C11 UNL     1     -19.522  -8.223  20.298  1.00  0.00    -0.001 C 
HETATM    6  C12 UNL     1     -18.897  -7.122  19.425  1.00  0.00     0.043 C 
HETATM    7  C13 UNL     1     -17.806  -7.065  20.510  1.00  0.00     0.066 C 
HETATM    8  C14 UNL     1     -18.326  -6.122  21.550  1.00  0.00     0.043 C 
HETATM    9  C15 UNL     1     -18.085  -8.498  20.756  1.00  0.00     0.069 C 
ENDROOT
BRANCH   1  10
HETATM   10  C1  UNL     1     -16.798  -9.574  22.565  1.00  0.00     0.294 C 
HETATM   11  O1  UNL     1     -16.679 -10.823  22.376  1.00  0.00    -0.262 OA
BRANCH  10  12
HETATM   12  O2  UNL     1     -15.749  -8.874  23.123  1.00  0.00    -0.319 OA
BRANCH  12  13
HETATM   13  C2  UNL     1     -14.712  -9.612  23.744  1.00  0.00     0.183 C 
BRANCH  13  14
HETATM   14  C3  UNL     1     -13.885  -8.726  24.648  1.00  0.00     0.010 C 
HETATM   15  C4  UNL     1     -13.399  -9.404  25.911  1.00  0.00     0.007 C 
HETATM   16  C5  UNL     1     -12.058  -8.734  25.685  1.00  0.00     0.001 C 
HETATM   17  C6  UNL     1     -12.438  -8.672  24.201  1.00  0.00     0.007 C 
ENDBRANCH  13  14
ENDBRANCH  12  13
ENDBRANCH  10  12
ENDBRANCH   1  10
BRANCH   1  18
HETATM   18  O3  UNL     1     -19.052  -9.991  22.264  1.00  0.00    -0.379 OA
ATOM     19  H3  UNL     1     -19.890  -9.550  22.336  1.00  0.00     0.211 HD
ENDBRANCH   1  18
BRANCH   7  20
HETATM   20  O4  UNL     1     -16.545  -6.764  19.995  1.00  0.00    -0.389 OA
ATOM     21  H4  UNL     1     -16.046  -6.183  20.557  1.00  0.00     0.210 HD
ENDBRANCH   7  20
TORSDOF 6
ENDMDL
MODEL 3
REMARK VINA RESULT: -5.999043618      2.919      6.368
REMARK  6 active torsions:
REMARK  status: ('A' for Active; 'I' for Inactive)
REMARK    1  A    between atoms: C1_2  and  O2_3 
REMARK    2  A    between atoms: C1_2  and  C7_9 
REMARK    3  A    between atoms: O2_3  and  C2_4 
REMARK    4  A    between atoms: C2_4  and  C3_5 
REMARK    5  A    between atoms: C7_9  and  O3_10 
REMARK    6  A    between atoms: C13_17  and  O4_18 
ROOT
HETATM    1  C7  UNL     1     -17.838  -7.131  20.651  1.00  0.00     0.152 C 
HETATM    2  C8  UNL     1     -18.348  -6.028  21.534  1.00  0.00     0.053 C 
HETATM    3  C9  UNL     1     -17.949  -6.396  22.964  1.00  0.00    -0.008 C 
HETATM    4  C10 UNL     1     -16.541  -6.950  23.002  1.00  0.00     0.010 C 
HETATM    5  C11 UNL     1     -16.470  -8.292  22.332  1.00  0.00    -0.001 C 
HETATM    6  C12 UNL     1     -17.250  -9.316  23.174  1.00  0.00     0.043 C 
HETATM    7  C13 UNL     1     -18.499  -8.725  22.493  1.00  0.00     0.066 C 
HETATM    8  C14 UNL     1     -18.890  -7.547  23.330  1.00  0.00     0.043 C 
HETATM    9  C15 UNL     1     -17.628  -8.420  21.336  1.00  0.00     0.069 C 
ENDROOT
BRANCH   1  10
HETATM   10  C1  UNL     1     -18.690  -7.257  19.437  1.00  0.00     0.294 C 
HETATM   11  O1  UNL     1     -18.164  -6.915  18.334  1.00  0.00    -0.262 OA
BRANCH  10  12
HETATM   12  O2  UNL     1     -19.990  -7.716  19.450  1.00  0.00    -0.319 OA
BRANCH  12  13
HETATM   13  C2  UNL     1     -20.971  -6.958  18.764  1.00  0.00     0.183 C 
BRANCH  13  14
HETATM   14  C3  UNL     1     -22.028  -6.453  19.720  1.00  0.00     0.010 C 
HETATM   15  C4  UNL     1     -21.905  -6.993  21.129  1.00  0.00     0.007 C 
HETATM   16  C5  UNL     1     -22.202  -5.593  21.628  1.00  0.00     0.001 C 
HETATM   17  C6  UNL     1     -21.666  -5.093  20.282  1.00  0.00     0.007 C 
ENDBRANCH  13  14
ENDBRANCH  12  13
ENDBRANCH  10  12
ENDBRANCH   1  10
BRANCH   1  18
HETATM   18  O3  UNL     1     -16.577  -6.687  20.182  1.00  0.00    -0.379 OA
ATOM     19  H3  UNL     1     -16.063  -6.516  20.962  1.00  0.00     0.211 HD
ENDBRANCH   1  18
BRANCH   7  20
HETATM   20  O4  UNL     1     -19.498  -9.675  22.277  1.00  0.00    -0.389 OA
ATOM     21  H4  UNL     1     -19.862  -9.633  21.400  1.00  0.00     0.210 HD
ENDBRANCH   7  20
TORSDOF 6
ENDMDL
MODEL 4
REMARK VINA RESULT: -5.913503607      1.178      1.778
REMARK  6 active torsions:
REMARK  status: ('A' for Active; 'I' for Inactive)
REMARK    1  A    between atoms: C1_2  and  O2_3 
REMARK    2  A    between atoms: C1_2  and  C7_9 
REMARK    3  A    between atoms: O2_3  and  C2_4 
REMARK    4  A    between atoms: C2_4  and  C3_5 
REMARK    5  A    between atoms: C7_9  and  O3_10 
REMARK    6  A    between atoms: C13_17  and  O4_18 
ROOT
HETATM    1  C7  UNL     1     -17.501  -9.333  22.563  1.00  0.00     0.152 C 
HETATM    2  C8  UNL     1     -18.555  -8.768  23.473  1.00  0.00     0.053 C 
HETATM    3  C9  UNL     1     -19.278  -7.679  22.677  1.00  0.00    -0.008 C 
HETATM    4  C10 UNL     1     -19.517  -8.127  21.251  1.00  0.00     0.010 C 
HETATM    5  C11 UNL     1     -18.226  -8.226  20.491  1.00  0.00    -0.001 C 
HETATM    6  C12 UNL     1     -17.646  -6.814  20.301  1.00  0.00     0.043 C 
HETATM    7  C13 UNL     1     -17.137  -6.973  21.746  1.00  0.00     0.066 C 
HETATM    8  C14 UNL     1     -18.269  -6.529  22.619  1.00  0.00     0.043 C 
HETATM    9  C15 UNL     1     -17.073  -8.428  21.480  1.00  0.00     0.069 C 
ENDROOT
BRANCH   1  10
HETATM   10  C1  UNL     1     -16.359  -9.858  23.360  1.00  0.00     0.294 C 
HETATM   11  O1  UNL     1     -16.538 -10.964  23.954  1.00  0.00    -0.262 OA
BRANCH  10  12
HETATM   12  O2  UNL     1     -15.143  -9.217  23.480  1.00  0.00    -0.319 OA
BRANCH  12  13
HETATM   13  C2  UNL     1     -14.188  -9.765  24.372  1.00  0.00     0.183 C 
BRANCH  13  14
HETATM   14  C3  UNL     1     -13.604  -8.691  25.263  1.00  0.00     0.010 C 
HETATM   15  C4  UNL     1     -13.439  -9.104  26.710  1.00  0.00     0.007 C 
HETATM   16  C5  UNL     1     -12.082  -8.427  26.687  1.00  0.00     0.001 C 
HETATM   17  C6  UNL     1     -12.092  -8.656  25.171  1.00  0.00     0.007 C 
ENDBRANCH  13  14
ENDBRANCH  12  13
ENDBRANCH  10  12
ENDBRANCH   1  10
BRANCH   1  18
HETATM   18  O3  UNL     1     -18.092 -10.470  21.959  1.00  0.00    -0.379 OA
ATOM     19  H3  UNL     1     -17.751 -10.490  21.072  1.00  0.00     0.211 HD
ENDBRANCH   1  18
BRANCH   7  20
HETATM   20  O4  UNL     1     -15.916  -6.334  21.963  1.00  0.00    -0.389 OA
ATOM     21  H4  UNL     1     -15.275  -6.897  22.381  1.00  0.00     0.210 HD
ENDBRANCH   7  20
TORSDOF 6
ENDMDL
MODEL 5
REMARK VINA RESULT: -5.903991277      1.004      1.228
REMARK  6 active torsions:
REMARK  status: ('A' for Active; 'I' for Inactive)
REMARK    1  A    between atoms: C1_2  and  O2_3 
REMARK    2  A    between atoms: C1_2  and  C7_9 
REMARK    3  A    between atoms: O2_3  and  C2_4 
REMARK    4  A    between atoms: C2_4  and  C3_5 
REMARK    5  A    between atoms: C7_9  and  O3_10 
REMARK    6  A    between atoms: C13_17  and  O4_18 
ROOT
HETATM    1  C7  UNL     1     -17.042  -8.880  22.465  1.00  0.00     0.152 C 
HETATM    2  C8  UNL     1     -18.202  -9.040  23.407  1.00  0.00     0.053 C 
HETATM    3  C9  UNL     1     -19.461  -8.704  22.606  1.00  0.00    -0.008 C 
HETATM    4  C10 UNL     1     -19.388  -9.301  21.217  1.00  0.00     0.010 C 
HETATM    5  C11 UNL     1     -18.336  -8.620  20.390  1.00  0.00    -0.001 C 
HETATM    6  C12 UNL     1     -18.777  -7.174  20.106  1.00  0.00     0.043 C 
HETATM    7  C13 UNL     1     -18.259  -6.878  21.526  1.00  0.00     0.066 C 
HETATM    8  C14 UNL     1     -19.403  -7.183  22.441  1.00  0.00     0.043 C 
HETATM    9  C15 UNL     1     -17.297  -7.984  21.321  1.00  0.00     0.069 C 
ENDROOT
BRANCH   1  10
HETATM   10  C1  UNL     1     -15.812  -8.515  23.218  1.00  0.00     0.294 C 
HETATM   11  O1  UNL     1     -15.551  -7.277  23.320  1.00  0.00    -0.262 OA
BRANCH  10  12
HETATM   12  O2  UNL     1     -14.961  -9.432  23.799  1.00  0.00    -0.319 OA
BRANCH  12  13
HETATM   13  C2  UNL     1     -13.568  -9.183  23.732  1.00  0.00     0.183 C 
BRANCH  13  14
HETATM   14  C3  UNL     1     -12.919  -9.376  25.084  1.00  0.00     0.010 C 
HETATM   15  C4  UNL     1     -11.677  -8.539  25.305  1.00  0.00     0.007 C 
HETATM   16  C5  UNL     1     -12.193  -8.249  26.702  1.00  0.00     0.001 C 
HETATM   17  C6  UNL     1     -13.594  -8.535  26.149  1.00  0.00     0.007 C 
ENDBRANCH  13  14
ENDBRANCH  12  13
ENDBRANCH  10  12
ENDBRANCH   1  10
BRANCH   1  18
HETATM   18  O3  UNL     1     -16.794 -10.175  21.945  1.00  0.00    -0.379 OA
ATOM     19  H3  UNL     1     -16.605 -10.044  21.023  1.00  0.00     0.211 HD
ENDBRANCH   1  18
BRANCH   7  20
HETATM   20  O4  UNL     1     -17.709  -5.601  21.646  1.00  0.00    -0.389 OA
ATOM     21  H4  UNL     1     -17.863  -5.060  20.880  1.00  0.00     0.210 HD
ENDBRANCH   7  20
TORSDOF 6
ENDMDL
