MODEL 1
REMARK VINA RESULT: -3.981102959      0.000      0.000
REMARK  0 active torsions:
REMARK  status: ('A' for Active; 'I' for Inactive)
ROOT
HETATM    1  C1  UNL     1       8.078 -12.584   2.125  1.00  0.00     0.011 C 
HETATM    2  C2  UNL     1       9.194 -13.056   3.045  1.00  0.00     0.012 C 
HETATM    3  C3  UNL     1       9.907 -11.922   3.710  1.00  0.00     0.086 C 
HETATM    4  S1  UNL     1       9.545 -11.757   5.458  1.00  0.00    -0.098 SA
HETATM    5  S2  UNL     1       7.512 -11.854   5.922  1.00  0.00    -0.097 SA
HETATM    6  C4  UNL     1       6.592 -10.368   5.486  1.00  0.00     0.096 C 
HETATM    7  C5  UNL     1       5.412 -10.820   4.618  1.00  0.00     0.084 C 
HETATM    8  S3  UNL     1       5.926 -11.205   2.948  1.00  0.00    -0.168 SA
HETATM    9  C6  UNL     1       6.717 -12.801   2.781  1.00  0.00     0.074 C 
ENDROOT
TORSDOF 0
ENDMDL
MODEL 2
REMARK VINA RESULT: -3.830608223      1.397      3.405
REMARK  0 active torsions:
REMARK  status: ('A' for Active; 'I' for Inactive)
ROOT
HETATM    1  C1  UNL     1       5.719 -11.548   3.943  1.00  0.00     0.011 C 
HETATM    2  C2  UNL     1       6.546 -10.757   4.946  1.00  0.00     0.012 C 
HETATM    3  C3  UNL     1       7.251 -11.637   5.928  1.00  0.00     0.086 C 
HETATM    4  S1  UNL     1       9.022 -11.744   5.674  1.00  0.00    -0.098 SA
HETATM    5  S2  UNL     1       9.581 -12.090   3.692  1.00  0.00    -0.097 SA
HETATM    6  C4  UNL     1       9.295 -13.778   3.136  1.00  0.00     0.096 C 
HETATM    7  C5  UNL     1       8.459 -13.685   1.855  1.00  0.00     0.084 C 
HETATM    8  S3  UNL     1       6.742 -13.322   2.207  1.00  0.00    -0.168 SA
HETATM    9  C6  UNL     1       6.427 -11.604   2.592  1.00  0.00     0.074 C 
ENDROOT
TORSDOF 0
ENDMDL
MODEL 3
REMARK VINA RESULT: -3.762284512      1.308      4.223
REMARK  0 active torsions:
REMARK  status: ('A' for Active; 'I' for Inactive)
ROOT
HETATM    1  C1  UNL     1       7.840 -11.030   6.335  1.00  0.00     0.011 C 
HETATM    2  C2  UNL     1       6.336 -10.924   6.127  1.00  0.00     0.012 C 
HETATM    3  C3  UNL     1       5.977 -10.032   4.983  1.00  0.00     0.086 C 
HETATM    4  S1  UNL     1       5.367 -10.902   3.540  1.00  0.00    -0.098 SA
HETATM    5  S2  UNL     1       6.523 -12.549   2.983  1.00  0.00    -0.097 SA
HETATM    6  C4  UNL     1       8.079 -12.114   2.189  1.00  0.00     0.096 C 
HETATM    7  C5  UNL     1       9.187 -12.837   2.965  1.00  0.00     0.084 C 
HETATM    8  S3  UNL     1       9.548 -12.026   4.518  1.00  0.00    -0.168 SA
HETATM    9  C6  UNL     1       8.359 -12.367   5.810  1.00  0.00     0.074 C 
ENDROOT
TORSDOF 0
ENDMDL
MODEL 4
REMARK VINA RESULT: -3.709349128      1.300      1.877
REMARK  0 active torsions:
REMARK  status: ('A' for Active; 'I' for Inactive)
ROOT
HETATM    1  C1  UNL     1       5.998 -11.678   2.600  1.00  0.00     0.011 C 
HETATM    2  C2  UNL     1       7.103 -12.720   2.491  1.00  0.00     0.012 C 
HETATM    3  C3  UNL     1       8.468 -12.123   2.618  1.00  0.00     0.086 C 
HETATM    4  S1  UNL     1       9.288 -12.497   4.167  1.00  0.00    -0.098 SA
HETATM    5  S2  UNL     1       8.092 -12.214   5.856  1.00  0.00    -0.097 SA
HETATM    6  C4  UNL     1       7.838 -10.485   6.289  1.00  0.00     0.096 C 
HETATM    7  C5  UNL     1       6.322 -10.275   6.389  1.00  0.00     0.084 C 
HETATM    8  S3  UNL     1       5.559 -10.167   4.775  1.00  0.00    -0.168 SA
HETATM    9  C6  UNL     1       5.331 -11.748   3.971  1.00  0.00     0.074 C 
ENDROOT
TORSDOF 0
ENDMDL
MODEL 5
REMARK VINA RESULT: -3.438057983      1.041      3.066
REMARK  0 active torsions:
REMARK  status: ('A' for Active; 'I' for Inactive)
ROOT
HETATM    1  C1  UNL     1       9.364 -13.027   3.213  1.00  0.00     0.011 C 
HETATM    2  C2  UNL     1       8.362 -12.667   2.127  1.00  0.00     0.012 C 
HETATM    3  C3  UNL     1       7.001 -13.225   2.394  1.00  0.00     0.086 C 
HETATM    4  S1  UNL     1       5.790 -11.998   2.884  1.00  0.00    -0.098 SA
HETATM    5  S2  UNL     1       6.458 -10.680   4.360  1.00  0.00    -0.097 SA
HETATM    6  C4  UNL     1       6.537 -11.407   6.006  1.00  0.00     0.096 C 
HETATM    7  C5  UNL     1       7.958 -11.163   6.527  1.00  0.00     0.084 C 
HETATM    8  S3  UNL     1       9.140 -12.282   5.782  1.00  0.00    -0.168 SA
HETATM    9  C6  UNL     1       9.623 -11.828   4.121  1.00  0.00     0.074 C 
ENDROOT
TORSDOF 0
ENDMDL
