MODEL 1
REMARK VINA RESULT: -4.724499318      0.000      0.000
REMARK  0 active torsions:
REMARK  status: ('A' for Active; 'I' for Inactive)
ROOT
HETATM    1  O1  UNL     1       8.453 -13.518   1.950  1.00  0.00    -0.285 OA
HETATM    2  C1  UNL     1       8.255 -12.732   2.829  1.00  0.00     0.189 C 
HETATM    3  C2  UNL     1       6.885 -12.154   3.147  1.00  0.00     0.091 C 
HETATM    4  C3  UNL     1       6.817 -11.533   4.471  1.00  0.00     0.013 C 
HETATM    5  C4  UNL     1       7.624 -11.232   5.656  1.00  0.00     0.062 C 
HETATM    6  C5  UNL     1       9.071 -11.744   5.560  1.00  0.00     0.165 C 
HETATM    7  O2  UNL     1       9.976 -10.905   6.130  1.00  0.00    -0.359 OA
HETATM    8  C6  UNL     1       9.971 -11.037   7.484  1.00  0.00     0.181 C 
HETATM    9  C7  UNL     1      10.344 -12.492   7.820  1.00  0.00     0.104 C 
HETATM   10  S1  UNL     1       9.255 -13.276   6.560  1.00  0.00    -0.118 SA
HETATM   11  S2  UNL     1       9.568 -12.137   3.887  1.00  0.00    -0.043 SA
ENDROOT
TORSDOF 0
ENDMDL
MODEL 2
REMARK VINA RESULT: -4.119569697      0.844      1.032
REMARK  0 active torsions:
REMARK  status: ('A' for Active; 'I' for Inactive)
ROOT
HETATM    1  O1  UNL     1       7.263 -12.990   2.810  1.00  0.00    -0.285 OA
HETATM    2  C1  UNL     1       7.506 -12.213   3.685  1.00  0.00     0.189 C 
HETATM    3  C2  UNL     1       6.453 -11.350   4.362  1.00  0.00     0.091 C 
HETATM    4  C3  UNL     1       6.906 -10.780   5.632  1.00  0.00     0.013 C 
HETATM    5  C4  UNL     1       8.061 -10.715   6.530  1.00  0.00     0.062 C 
HETATM    6  C5  UNL     1       9.265 -11.541   6.042  1.00  0.00     0.165 C 
HETATM    7  O2  UNL     1      10.461 -10.952   6.308  1.00  0.00    -0.359 OA
HETATM    8  C6  UNL     1      10.809 -11.131   7.612  1.00  0.00     0.181 C 
HETATM    9  C7  UNL     1      10.917 -12.643   7.870  1.00  0.00     0.104 C 
HETATM   10  S1  UNL     1       9.368 -13.110   6.994  1.00  0.00    -0.118 SA
HETATM   11  S2  UNL     1       9.165 -11.973   4.310  1.00  0.00    -0.043 SA
ENDROOT
TORSDOF 0
ENDMDL
MODEL 3
REMARK VINA RESULT: -4.030463499      3.124      3.685
REMARK  0 active torsions:
REMARK  status: ('A' for Active; 'I' for Inactive)
ROOT
HETATM    1  O1  UNL     1       7.088  -8.530   6.648  1.00  0.00    -0.285 OA
HETATM    2  C1  UNL     1       7.499  -9.648   6.751  1.00  0.00     0.189 C 
HETATM    3  C2  UNL     1       7.117 -10.775   5.805  1.00  0.00     0.091 C 
HETATM    4  C3  UNL     1       8.019 -11.925   5.888  1.00  0.00     0.013 C 
HETATM    5  C4  UNL     1       9.202 -12.425   6.591  1.00  0.00     0.062 C 
HETATM    6  C5  UNL     1       9.779 -11.426   7.610  1.00  0.00     0.165 C 
HETATM    7  O2  UNL     1      10.261 -12.023   8.732  1.00  0.00    -0.359 OA
HETATM    8  C6  UNL     1      11.487 -12.566   8.502  1.00  0.00     0.181 C 
HETATM    9  C7  UNL     1      12.437 -11.431   8.082  1.00  0.00     0.104 C 
HETATM   10  S1  UNL     1      11.274 -10.618   6.909  1.00  0.00    -0.118 SA
HETATM   11  S2  UNL     1       8.629 -10.130   8.051  1.00  0.00    -0.043 SA
ENDROOT
TORSDOF 0
ENDMDL
MODEL 4
REMARK VINA RESULT: -3.952771166      2.040      2.858
REMARK  0 active torsions:
REMARK  status: ('A' for Active; 'I' for Inactive)
ROOT
HETATM    1  O1  UNL     1       7.250 -11.906   4.735  1.00  0.00    -0.285 OA
HETATM    2  C1  UNL     1       7.925 -11.394   5.579  1.00  0.00     0.189 C 
HETATM    3  C2  UNL     1       7.388 -10.400   6.597  1.00  0.00     0.091 C 
HETATM    4  C3  UNL     1       8.281 -10.212   7.741  1.00  0.00     0.013 C 
HETATM    5  C4  UNL     1       9.572 -10.633   8.289  1.00  0.00     0.062 C 
HETATM    6  C5  UNL     1      10.303 -11.666   7.414  1.00  0.00     0.165 C 
HETATM    7  O2  UNL     1      11.651 -11.495   7.395  1.00  0.00    -0.359 OA
HETATM    8  C6  UNL     1      12.217 -11.988   8.531  1.00  0.00     0.181 C 
HETATM    9  C7  UNL     1      11.897 -13.491   8.605  1.00  0.00     0.104 C 
HETATM   10  S1  UNL     1      10.120 -13.342   8.148  1.00  0.00    -0.118 SA
HETATM   11  S2  UNL     1       9.671 -11.744   5.744  1.00  0.00    -0.043 SA
ENDROOT
TORSDOF 0
ENDMDL
MODEL 5
REMARK VINA RESULT: -3.864294260      2.829      4.246
REMARK  0 active torsions:
REMARK  status: ('A' for Active; 'I' for Inactive)
ROOT
HETATM    1  O1  UNL     1       7.990 -12.428   6.024  1.00  0.00    -0.285 OA
HETATM    2  C1  UNL     1       9.125 -12.335   6.390  1.00  0.00     0.189 C 
HETATM    3  C2  UNL     1      10.064 -11.226   5.946  1.00  0.00     0.091 C 
HETATM    4  C3  UNL     1      11.245 -11.097   6.802  1.00  0.00     0.013 C 
HETATM    5  C4  UNL     1      11.899 -11.680   7.975  1.00  0.00     0.062 C 
HETATM    6  C5  UNL     1      11.105 -12.836   8.609  1.00  0.00     0.165 C 
HETATM    7  O2  UNL     1      11.898 -13.833   9.086  1.00  0.00    -0.359 OA
HETATM    8  C6  UNL     1      12.441 -13.487  10.284  1.00  0.00     0.181 C 
HETATM    9  C7  UNL     1      11.288 -13.238  11.272  1.00  0.00     0.104 C 
HETATM   10  S1  UNL     1      10.249 -12.243  10.124  1.00  0.00    -0.118 SA
HETATM   11  S2  UNL     1       9.857 -13.511   7.521  1.00  0.00    -0.043 SA
ENDROOT
TORSDOF 0
ENDMDL
