MODEL 1
REMARK VINA RESULT: -4.757884140      0.000      0.000
REMARK  5 active torsions:
REMARK  status: ('A' for Active; 'I' for Inactive)
REMARK    1  A    between atoms: C2_2  and  O1_5 
REMARK    2  A    between atoms: O1_5  and  C5_6 
REMARK    3  A    between atoms: C5_6  and  O3_11 
REMARK    4  A    between atoms: N1_7  and  O2_9 
REMARK    5  A    between atoms: O3_11  and  C6_12 
ROOT
HETATM    1  C5  UNL     1      10.936 -13.204   8.406  1.00  0.00     0.286 C 
HETATM    2  N1  UNL     1      11.536 -14.170   7.988  1.00  0.00    -0.226 N 
ATOM      3  H1  UNL     1      11.049 -14.488   7.150  1.00  0.00     0.198 HD
ENDROOT
BRANCH   1   4
HETATM    4  O1  UNL     1       9.798 -12.760   7.711  1.00  0.00    -0.305 OA
BRANCH   4   5
HETATM    5  C2  UNL     1       9.763 -11.623   6.917  1.00  0.00     0.060 C 
HETATM    6  C1  UNL     1      11.104 -10.993   6.666  1.00  0.00     0.046 C 
HETATM    7  C3  UNL     1       8.786 -10.596   7.473  1.00  0.00     0.046 C 
HETATM    8  C4  UNL     1       9.236 -12.051   5.551  1.00  0.00     0.046 C 
ENDBRANCH   4   5
ENDBRANCH   1   4
BRANCH   1   9
HETATM    9  O3  UNL     1      11.264 -12.483   9.513  1.00  0.00    -0.305 OA
BRANCH   9  10
HETATM   10  C6  UNL     1      10.667 -12.541  10.756  1.00  0.00     0.060 C 
HETATM   11  C7  UNL     1      11.820 -12.386  11.772  1.00  0.00     0.046 C 
HETATM   12  C8  UNL     1      10.001 -13.883  10.958  1.00  0.00     0.046 C 
HETATM   13  C9  UNL     1       9.754 -11.374  10.989  1.00  0.00     0.046 C 
ENDBRANCH   9  10
ENDBRANCH   1   9
BRANCH   2  14
HETATM   14  O2  UNL     1      12.549 -14.970   8.174  1.00  0.00    -0.286 OA
ATOM     15  H2  UNL     1      13.481 -15.026   8.349  1.00  0.00     0.244 HD
ENDBRANCH   2  14
TORSDOF 5
ENDMDL
MODEL 2
REMARK VINA RESULT: -4.741539851      0.209      1.164
REMARK  5 active torsions:
REMARK  status: ('A' for Active; 'I' for Inactive)
REMARK    1  A    between atoms: C2_2  and  O1_5 
REMARK    2  A    between atoms: O1_5  and  C5_6 
REMARK    3  A    between atoms: C5_6  and  O3_11 
REMARK    4  A    between atoms: N1_7  and  O2_9 
REMARK    5  A    between atoms: O3_11  and  C6_12 
ROOT
HETATM    1  C5  UNL     1      10.891 -13.196   8.346  1.00  0.00     0.286 C 
HETATM    2  N1  UNL     1      11.513 -14.168   7.978  1.00  0.00    -0.226 N 
ATOM      3  H1  UNL     1      11.036 -14.538   7.156  1.00  0.00     0.198 HD
ENDROOT
BRANCH   1   4
HETATM    4  O1  UNL     1       9.745 -12.814   7.628  1.00  0.00    -0.305 OA
BRANCH   4   5
HETATM    5  C2  UNL     1       9.637 -11.638   6.898  1.00  0.00     0.060 C 
HETATM    6  C1  UNL     1      10.949 -11.053   6.457  1.00  0.00     0.046 C 
HETATM    7  C3  UNL     1       8.815 -10.600   7.650  1.00  0.00     0.046 C 
HETATM    8  C4  UNL     1       8.875 -11.976   5.621  1.00  0.00     0.046 C 
ENDBRANCH   4   5
ENDBRANCH   1   4
BRANCH   1   9
HETATM    9  O3  UNL     1      11.198 -12.414   9.416  1.00  0.00    -0.305 OA
BRANCH   9  10
HETATM   10  C6  UNL     1      10.850 -12.624  10.734  1.00  0.00     0.060 C 
HETATM   11  C7  UNL     1       9.961 -11.421  11.121  1.00  0.00     0.046 C 
HETATM   12  C8  UNL     1      12.083 -12.635  11.609  1.00  0.00     0.046 C 
HETATM   13  C9  UNL     1       9.987 -13.840  10.894  1.00  0.00     0.046 C 
ENDBRANCH   9  10
ENDBRANCH   1   9
BRANCH   2  14
HETATM   14  O2  UNL     1      12.544 -14.935   8.204  1.00  0.00    -0.286 OA
ATOM     15  H2  UNL     1      12.881 -15.665   8.710  1.00  0.00     0.244 HD
ENDBRANCH   2  14
TORSDOF 5
ENDMDL
MODEL 3
REMARK VINA RESULT: -4.656919298      0.165      1.657
REMARK  5 active torsions:
REMARK  status: ('A' for Active; 'I' for Inactive)
REMARK    1  A    between atoms: C2_2  and  O1_5 
REMARK    2  A    between atoms: O1_5  and  C5_6 
REMARK    3  A    between atoms: C5_6  and  O3_11 
REMARK    4  A    between atoms: N1_7  and  O2_9 
REMARK    5  A    between atoms: O3_11  and  C6_12 
ROOT
HETATM    1  C5  UNL     1      10.830 -13.162   8.335  1.00  0.00     0.286 C 
HETATM    2  N1  UNL     1      11.354 -14.175   7.926  1.00  0.00    -0.226 N 
ATOM      3  H1  UNL     1      10.825 -14.480   7.109  1.00  0.00     0.198 HD
ENDROOT
BRANCH   1   4
HETATM    4  O1  UNL     1       9.705 -12.661   7.659  1.00  0.00    -0.305 OA
BRANCH   4   5
HETATM    5  C2  UNL     1       9.745 -11.619   6.742  1.00  0.00     0.060 C 
HETATM    6  C1  UNL     1       9.307 -11.990   5.353  1.00  0.00     0.046 C 
HETATM    7  C3  UNL     1      11.121 -10.968   6.713  1.00  0.00     0.046 C 
HETATM    8  C4  UNL     1       8.758 -10.562   7.228  1.00  0.00     0.046 C 
ENDBRANCH   4   5
ENDBRANCH   1   4
BRANCH   1   9
HETATM    9  O3  UNL     1      11.234 -12.439   9.414  1.00  0.00    -0.305 OA
BRANCH   9  10
HETATM   10  C6  UNL     1      10.762 -12.531  10.707  1.00  0.00     0.060 C 
HETATM   11  C7  UNL     1       9.794 -11.338  10.877  1.00  0.00     0.046 C 
HETATM   12  C8  UNL     1      11.899 -12.394  11.694  1.00  0.00     0.046 C 
HETATM   13  C9  UNL     1       9.933 -13.764  10.911  1.00  0.00     0.046 C 
ENDBRANCH   9  10
ENDBRANCH   1   9
BRANCH   2  14
HETATM   14  O2  UNL     1      12.318 -15.036   8.105  1.00  0.00    -0.286 OA
ATOM     15  H2  UNL     1      12.947 -15.607   7.681  1.00  0.00     0.244 HD
ENDBRANCH   2  14
TORSDOF 5
ENDMDL
MODEL 4
REMARK VINA RESULT: -4.646155179      0.073      1.202
REMARK  5 active torsions:
REMARK  status: ('A' for Active; 'I' for Inactive)
REMARK    1  A    between atoms: C2_2  and  O1_5 
REMARK    2  A    between atoms: O1_5  and  C5_6 
REMARK    3  A    between atoms: C5_6  and  O3_11 
REMARK    4  A    between atoms: N1_7  and  O2_9 
REMARK    5  A    between atoms: O3_11  and  C6_12 
ROOT
HETATM    1  C5  UNL     1      10.954 -13.179   8.397  1.00  0.00     0.286 C 
HETATM    2  N1  UNL     1      11.535 -14.162   7.992  1.00  0.00    -0.226 N 
ATOM      3  H1  UNL     1      11.027 -14.496   7.173  1.00  0.00     0.198 HD
ENDROOT
BRANCH   1   4
HETATM    4  O1  UNL     1       9.806 -12.741   7.715  1.00  0.00    -0.305 OA
BRANCH   4   5
HETATM    5  C2  UNL     1       9.761 -11.614   6.906  1.00  0.00     0.060 C 
HETATM    6  C1  UNL     1      11.096 -10.976   6.645  1.00  0.00     0.046 C 
HETATM    7  C3  UNL     1       8.776 -10.588   7.452  1.00  0.00     0.046 C 
HETATM    8  C4  UNL     1       9.235 -12.063   5.547  1.00  0.00     0.046 C 
ENDBRANCH   4   5
ENDBRANCH   1   4
BRANCH   1   9
HETATM    9  O3  UNL     1      11.313 -12.433   9.477  1.00  0.00    -0.305 OA
BRANCH   9  10
HETATM   10  C6  UNL     1      10.785 -12.497  10.750  1.00  0.00     0.060 C 
HETATM   11  C7  UNL     1      10.079 -13.869  10.834  1.00  0.00     0.046 C 
HETATM   12  C8  UNL     1       9.767 -11.398  10.954  1.00  0.00     0.046 C 
HETATM   13  C9  UNL     1      11.859 -12.524  11.797  1.00  0.00     0.046 C 
ENDBRANCH   9  10
ENDBRANCH   1   9
BRANCH   2  14
HETATM   14  O2  UNL     1      12.544 -14.967   8.176  1.00  0.00    -0.286 OA
ATOM     15  H2  UNL     1      12.898 -15.832   8.004  1.00  0.00     0.244 HD
ENDBRANCH   2  14
TORSDOF 5
ENDMDL
MODEL 5
REMARK VINA RESULT: -4.574576980      5.581      7.104
REMARK  5 active torsions:
REMARK  status: ('A' for Active; 'I' for Inactive)
REMARK    1  A    between atoms: C2_2  and  O1_5 
REMARK    2  A    between atoms: O1_5  and  C5_6 
REMARK    3  A    between atoms: C5_6  and  O3_11 
REMARK    4  A    between atoms: N1_7  and  O2_9 
REMARK    5  A    between atoms: O3_11  and  C6_12 
ROOT
HETATM    1  C5  UNL     1       6.975 -12.618   2.572  1.00  0.00     0.286 C 
HETATM    2  N1  UNL     1       6.649 -13.441   1.746  1.00  0.00    -0.226 N 
ATOM      3  H1  UNL     1       5.944 -13.009   1.150  1.00  0.00     0.198 HD
ENDROOT
BRANCH   1   4
HETATM    4  O1  UNL     1       6.369 -11.350   2.540  1.00  0.00    -0.305 OA
BRANCH   4   5
HETATM    5  C2  UNL     1       5.589 -10.832   3.565  1.00  0.00     0.060 C 
HETATM    6  C1  UNL     1       4.971  -9.495   3.267  1.00  0.00     0.046 C 
HETATM    7  C3  UNL     1       6.367 -10.782   4.873  1.00  0.00     0.046 C 
HETATM    8  C4  UNL     1       4.426 -11.798   3.770  1.00  0.00     0.046 C 
ENDBRANCH   4   5
ENDBRANCH   1   4
BRANCH   1   9
HETATM    9  O3  UNL     1       7.896 -12.800   3.556  1.00  0.00    -0.305 OA
BRANCH   9  10
HETATM   10  C6  UNL     1       9.270 -12.744   3.438  1.00  0.00     0.060 C 
HETATM   11  C7  UNL     1       9.756 -14.202   3.594  1.00  0.00     0.046 C 
HETATM   12  C8  UNL     1       9.859 -11.900   4.545  1.00  0.00     0.046 C 
HETATM   13  C9  UNL     1       9.693 -12.316   2.064  1.00  0.00     0.046 C 
ENDBRANCH   9  10
ENDBRANCH   1   9
BRANCH   2  14
HETATM   14  O2  UNL     1       6.832 -14.657   1.308  1.00  0.00    -0.286 OA
ATOM     15  H2  UNL     1       6.456 -15.377   0.817  1.00  0.00     0.244 HD
ENDBRANCH   2  14
TORSDOF 5
ENDMDL
