MODEL 1
REMARK VINA RESULT: -3.137232935      0.000      0.000
REMARK  0 active torsions:
REMARK  status: ('A' for Active; 'I' for Inactive)
ROOT
HETATM    1  C1  UNL     1       7.943 -13.455   1.893  1.00  0.00     0.021 C 
HETATM    2  C2  UNL     1       6.688 -13.257   2.676  1.00  0.00     0.074 C 
HETATM    3  S1  UNL     1       6.291 -11.484   2.904  1.00  0.00    -0.169 SA
HETATM    4  C3  UNL     1       5.776 -11.166   4.622  1.00  0.00     0.074 C 
HETATM    5  C4  UNL     1       6.785 -10.305   5.319  1.00  0.00     0.021 C 
HETATM    6  C5  UNL     1       7.595 -11.068   6.352  1.00  0.00     0.087 C 
HETATM    7  S2  UNL     1       8.312 -12.550   5.625  1.00  0.00    -0.098 SA
HETATM    8  S3  UNL     1       9.272 -11.990   3.811  1.00  0.00    -0.098 SA
HETATM    9  C6  UNL     1       9.195 -13.395   2.687  1.00  0.00     0.087 C 
ENDROOT
TORSDOF 0
ENDMDL
MODEL 2
REMARK VINA RESULT: -3.119962972      0.973      2.658
REMARK  0 active torsions:
REMARK  status: ('A' for Active; 'I' for Inactive)
ROOT
HETATM    1  C1  UNL     1       9.390 -13.148   2.777  1.00  0.00     0.021 C 
HETATM    2  C2  UNL     1       9.440 -11.974   3.697  1.00  0.00     0.074 C 
HETATM    3  S1  UNL     1       8.588 -12.306   5.283  1.00  0.00    -0.169 SA
HETATM    4  C3  UNL     1       7.554 -10.883   5.756  1.00  0.00     0.074 C 
HETATM    5  C4  UNL     1       6.103 -11.253   5.709  1.00  0.00     0.021 C 
HETATM    6  C5  UNL     1       5.370 -10.613   4.543  1.00  0.00     0.087 C 
HETATM    7  S2  UNL     1       6.234 -10.941   2.998  1.00  0.00    -0.098 SA
HETATM    8  S3  UNL     1       6.640 -13.028   2.906  1.00  0.00    -0.098 SA
HETATM    9  C6  UNL     1       8.155 -13.255   1.960  1.00  0.00     0.087 C 
ENDROOT
TORSDOF 0
ENDMDL
MODEL 3
REMARK VINA RESULT: -3.059310870      0.927      3.638
REMARK  0 active torsions:
REMARK  status: ('A' for Active; 'I' for Inactive)
ROOT
HETATM    1  C1  UNL     1       5.713 -10.888   4.372  1.00  0.00     0.021 C 
HETATM    2  C2  UNL     1       6.116 -11.154   2.960  1.00  0.00     0.074 C 
HETATM    3  S1  UNL     1       6.186 -12.946   2.590  1.00  0.00    -0.169 SA
HETATM    4  C3  UNL     1       7.689 -13.337   1.638  1.00  0.00     0.074 C 
HETATM    5  C4  UNL     1       8.617 -14.186   2.452  1.00  0.00     0.021 C 
HETATM    6  C5  UNL     1       9.850 -13.431   2.916  1.00  0.00     0.087 C 
HETATM    7  S2  UNL     1       9.382 -11.902   3.742  1.00  0.00    -0.098 SA
HETATM    8  S3  UNL     1       7.889 -12.370   5.185  1.00  0.00    -0.098 SA
HETATM    9  C6  UNL     1       6.819 -10.933   5.361  1.00  0.00     0.087 C 
ENDROOT
TORSDOF 0
ENDMDL
MODEL 4
REMARK VINA RESULT: -2.994481870      2.313      3.829
REMARK  0 active torsions:
REMARK  status: ('A' for Active; 'I' for Inactive)
ROOT
HETATM    1  C1  UNL     1       6.508 -10.917   5.058  1.00  0.00     0.021 C 
HETATM    2  C2  UNL     1       6.636 -10.776   6.539  1.00  0.00     0.074 C 
HETATM    3  S1  UNL     1       7.998  -9.646   7.008  1.00  0.00    -0.169 SA
HETATM    4  C3  UNL     1       8.963 -10.355   8.380  1.00  0.00     0.074 C 
HETATM    5  C4  UNL     1      10.349 -10.697   7.922  1.00  0.00     0.021 C 
HETATM    6  C5  UNL     1      10.575 -12.194   7.803  1.00  0.00     0.087 C 
HETATM    7  S2  UNL     1       9.290 -12.950   6.794  1.00  0.00    -0.098 SA
HETATM    8  S3  UNL     1       9.113 -11.815   5.003  1.00  0.00    -0.098 SA
HETATM    9  C6  UNL     1       7.405 -11.927   4.443  1.00  0.00     0.087 C 
ENDROOT
TORSDOF 0
ENDMDL
MODEL 5
REMARK VINA RESULT: -2.977525768      1.586      3.845
REMARK  0 active torsions:
REMARK  status: ('A' for Active; 'I' for Inactive)
ROOT
HETATM    1  C1  UNL     1       8.869 -10.783   7.728  1.00  0.00     0.021 C 
HETATM    2  C2  UNL     1       8.137  -9.979   6.706  1.00  0.00     0.074 C 
HETATM    3  S1  UNL     1       6.553 -10.760   6.221  1.00  0.00    -0.169 SA
HETATM    4  C3  UNL     1       6.342 -10.696   4.414  1.00  0.00     0.074 C 
HETATM    5  C4  UNL     1       6.390 -12.076   3.832  1.00  0.00     0.021 C 
HETATM    6  C5  UNL     1       7.667 -12.344   3.056  1.00  0.00     0.087 C 
HETATM    7  S2  UNL     1       9.110 -11.949   4.058  1.00  0.00    -0.098 SA
HETATM    8  S3  UNL     1       8.868 -12.889   5.952  1.00  0.00    -0.098 SA
HETATM    9  C6  UNL     1       9.708 -11.879   7.183  1.00  0.00     0.087 C 
ENDROOT
TORSDOF 0
ENDMDL
