MODEL 1
REMARK VINA RESULT: -6.261440872      0.000      0.000
REMARK  3 active torsions:
REMARK  status: ('A' for Active; 'I' for Inactive)
REMARK    1  A    between atoms: C2_3  and  C3_4 
REMARK    2  A    between atoms: C3_4  and  N2_5 
REMARK    3  A    between atoms: N2_5  and  N3_7 
ROOT
HETATM    1  N1  UNL     1       9.777 -11.529  10.654  1.00  0.00    -0.195 NA
HETATM    2  C1  UNL     1      10.314 -11.943   9.694  1.00  0.00     0.092 C 
HETATM    3  C2  UNL     1      10.975 -12.421   8.530  1.00  0.00     0.288 C 
HETATM    4  C10 UNL     1      11.763 -13.603   8.542  1.00  0.00     0.092 C 
HETATM    5  N4  UNL     1      12.400 -14.585   8.546  1.00  0.00    -0.195 NA
ENDROOT
BRANCH   3   6
HETATM    6  C3  UNL     1      10.844 -11.755   7.419  1.00  0.00    -0.020 C 
BRANCH   6   7
HETATM    7  N2  UNL     1      10.399 -11.140   6.369  1.00  0.00    -0.267 N 
ATOM      8  H2  UNL     1      10.095 -10.167   6.409  1.00  0.00     0.196 HD
BRANCH   7   9
HETATM    9  N3  UNL     1      10.354 -11.871   5.182  1.00  0.00    -0.302 N 
HETATM   10  C4  UNL     1       9.291 -12.278   4.619  1.00  0.00     0.004 C 
HETATM   11  C5  UNL     1       7.916 -12.054   5.111  1.00  0.00     0.054 C 
HETATM   12  C9  UNL     1       9.438 -13.051   3.347  1.00  0.00     0.054 C 
HETATM   13  C6  UNL     1       6.954 -11.667   4.037  1.00  0.00     0.006 C 
HETATM   14  C7  UNL     1       7.209 -12.306   2.713  1.00  0.00     0.001 C 
HETATM   15  C8  UNL     1       8.657 -12.276   2.294  1.00  0.00     0.006 C 
ATOM     16  H3  UNL     1      11.242 -12.096   4.733  1.00  0.00     0.187 HD
ENDBRANCH   7   9
ENDBRANCH   6   7
ENDBRANCH   3   6
TORSDOF 3
ENDMDL
MODEL 2
REMARK VINA RESULT: -6.252610598      0.063      1.959
REMARK  3 active torsions:
REMARK  status: ('A' for Active; 'I' for Inactive)
REMARK    1  A    between atoms: C2_3  and  C3_4 
REMARK    2  A    between atoms: C3_4  and  N2_5 
REMARK    3  A    between atoms: N2_5  and  N3_7 
ROOT
HETATM    1  N1  UNL     1      12.431 -14.607   8.550  1.00  0.00    -0.195 NA
HETATM    2  C1  UNL     1      11.781 -13.627   8.569  1.00  0.00     0.092 C 
HETATM    3  C2  UNL     1      10.981 -12.453   8.573  1.00  0.00     0.288 C 
HETATM    4  C10 UNL     1      10.328 -11.988   9.746  1.00  0.00     0.092 C 
HETATM    5  N4  UNL     1       9.802 -11.596  10.716  1.00  0.00    -0.195 NA
ENDROOT
BRANCH   3   6
HETATM    6  C3  UNL     1      10.853 -11.781   7.465  1.00  0.00    -0.020 C 
BRANCH   6   7
HETATM    7  N2  UNL     1      10.410 -11.150   6.424  1.00  0.00    -0.267 N 
ATOM      8  H2  UNL     1      10.116 -10.175   6.474  1.00  0.00     0.196 HD
BRANCH   7   9
HETATM    9  N3  UNL     1      10.355 -11.869   5.229  1.00  0.00    -0.302 N 
HETATM   10  C4  UNL     1       9.286 -12.268   4.670  1.00  0.00     0.004 C 
HETATM   11  C5  UNL     1       7.915 -12.048   5.175  1.00  0.00     0.054 C 
HETATM   12  C9  UNL     1       9.422 -13.028   3.389  1.00  0.00     0.054 C 
HETATM   13  C6  UNL     1       6.946 -11.648   4.113  1.00  0.00     0.006 C 
HETATM   14  C7  UNL     1       7.190 -12.273   2.781  1.00  0.00     0.001 C 
HETATM   15  C8  UNL     1       8.634 -12.241   2.350  1.00  0.00     0.006 C 
ATOM     16  H3  UNL     1      11.239 -12.090   4.770  1.00  0.00     0.187 HD
ENDBRANCH   7   9
ENDBRANCH   6   7
ENDBRANCH   3   6
TORSDOF 3
ENDMDL
MODEL 3
REMARK VINA RESULT: -6.188100584      3.822      5.932
REMARK  3 active torsions:
REMARK  status: ('A' for Active; 'I' for Inactive)
REMARK    1  A    between atoms: C2_3  and  C3_4 
REMARK    2  A    between atoms: C3_4  and  N2_5 
REMARK    3  A    between atoms: N2_5  and  N3_7 
ROOT
HETATM    1  N1  UNL     1      10.375 -17.255   4.538  1.00  0.00    -0.195 NA
HETATM    2  C1  UNL     1       9.708 -17.104   3.582  1.00  0.00     0.092 C 
HETATM    3  C2  UNL     1       8.921 -16.909   2.415  1.00  0.00     0.288 C 
HETATM    4  C10 UNL     1       8.282 -17.987   1.746  1.00  0.00     0.092 C 
HETATM    5  N4  UNL     1       7.742 -18.873   1.203  1.00  0.00    -0.195 NA
ENDROOT
BRANCH   3   6
HETATM    6  C3  UNL     1       8.777 -15.700   1.953  1.00  0.00    -0.020 C 
BRANCH   6   7
HETATM    7  N2  UNL     1       8.712 -14.415   1.796  1.00  0.00    -0.267 N 
ATOM      8  H2  UNL     1       8.390 -14.000   0.922  1.00  0.00     0.196 HD
BRANCH   7   9
HETATM    9  N3  UNL     1       9.104 -13.628   2.879  1.00  0.00    -0.302 N 
HETATM   10  C4  UNL     1       8.466 -12.617   3.310  1.00  0.00     0.004 C 
HETATM   11  C5  UNL     1       7.203 -12.093   2.752  1.00  0.00     0.054 C 
HETATM   12  C9  UNL     1       9.040 -11.892   4.485  1.00  0.00     0.054 C 
HETATM   13  C6  UNL     1       6.203 -11.714   3.793  1.00  0.00     0.006 C 
HETATM   14  C7  UNL     1       6.789 -11.152   5.044  1.00  0.00     0.001 C 
HETATM   15  C8  UNL     1       7.968 -11.933   5.567  1.00  0.00     0.006 C 
ATOM     16  H3  UNL     1       9.966 -13.883   3.360  1.00  0.00     0.187 HD
ENDBRANCH   7   9
ENDBRANCH   6   7
ENDBRANCH   3   6
TORSDOF 3
ENDMDL
MODEL 4
REMARK VINA RESULT: -6.127093422      1.376      1.503
REMARK  3 active torsions:
REMARK  status: ('A' for Active; 'I' for Inactive)
REMARK    1  A    between atoms: C2_3  and  C3_4 
REMARK    2  A    between atoms: C3_4  and  N2_5 
REMARK    3  A    between atoms: N2_5  and  N3_7 
ROOT
HETATM    1  N1  UNL     1      13.748 -10.205   8.912  1.00  0.00    -0.195 NA
HETATM    2  C1  UNL     1      12.933 -10.982   8.574  1.00  0.00     0.092 C 
HETATM    3  C2  UNL     1      11.952 -11.915   8.142  1.00  0.00     0.288 C 
HETATM    4  C10 UNL     1      11.969 -13.274   8.555  1.00  0.00     0.092 C 
HETATM    5  N4  UNL     1      11.973 -14.391   8.907  1.00  0.00    -0.195 NA
ENDROOT
BRANCH   3   6
HETATM    6  C3  UNL     1      11.005 -11.503   7.349  1.00  0.00    -0.020 C 
BRANCH   6   7
HETATM    7  N2  UNL     1      10.308 -11.058   6.352  1.00  0.00    -0.267 N 
ATOM      8  H2  UNL     1       9.776 -10.190   6.417  1.00  0.00     0.196 HD
BRANCH   7   9
HETATM    9  N3  UNL     1      10.319 -11.822   5.184  1.00  0.00    -0.302 N 
HETATM   10  C4  UNL     1       9.283 -12.259   4.592  1.00  0.00     0.004 C 
HETATM   11  C5  UNL     1       7.887 -12.042   5.024  1.00  0.00     0.054 C 
HETATM   12  C9  UNL     1       9.490 -13.064   3.349  1.00  0.00     0.054 C 
HETATM   13  C6  UNL     1       6.963 -11.697   3.904  1.00  0.00     0.006 C 
HETATM   14  C7  UNL     1       7.278 -12.367   2.609  1.00  0.00     0.001 C 
HETATM   15  C8  UNL     1       8.740 -12.329   2.245  1.00  0.00     0.006 C 
ATOM     16  H3  UNL     1      11.226 -12.046   4.776  1.00  0.00     0.187 HD
ENDBRANCH   7   9
ENDBRANCH   6   7
ENDBRANCH   3   6
TORSDOF 3
ENDMDL
MODEL 5
REMARK VINA RESULT: -6.120416545      4.025      6.108
REMARK  3 active torsions:
REMARK  status: ('A' for Active; 'I' for Inactive)
REMARK    1  A    between atoms: C2_3  and  C3_4 
REMARK    2  A    between atoms: C3_4  and  N2_5 
REMARK    3  A    between atoms: N2_5  and  N3_7 
ROOT
HETATM    1  N1  UNL     1       7.864 -19.241   1.338  1.00  0.00    -0.195 NA
HETATM    2  C1  UNL     1       8.344 -18.285   1.827  1.00  0.00     0.092 C 
HETATM    3  C2  UNL     1       8.901 -17.120   2.419  1.00  0.00     0.288 C 
HETATM    4  C10 UNL     1       9.720 -17.180   3.578  1.00  0.00     0.092 C 
HETATM    5  N4  UNL     1      10.408 -17.229   4.524  1.00  0.00    -0.195 NA
ENDROOT
BRANCH   3   6
HETATM    6  C3  UNL     1       8.655 -15.963   1.873  1.00  0.00    -0.020 C 
BRANCH   6   7
HETATM    7  N2  UNL     1       8.515 -14.701   1.615  1.00  0.00    -0.267 N 
ATOM      8  H2  UNL     1       8.110 -14.378   0.736  1.00  0.00     0.196 HD
BRANCH   7   9
HETATM    9  N3  UNL     1       8.945 -13.806   2.594  1.00  0.00    -0.302 N 
HETATM   10  C4  UNL     1       8.301 -12.777   2.971  1.00  0.00     0.004 C 
HETATM   11  C5  UNL     1       6.990 -12.342   2.447  1.00  0.00     0.054 C 
HETATM   12  C9  UNL     1       8.920 -11.930   4.036  1.00  0.00     0.054 C 
HETATM   13  C6  UNL     1       6.043 -11.895   3.511  1.00  0.00     0.006 C 
HETATM   14  C7  UNL     1       6.684 -11.203   4.665  1.00  0.00     0.001 C 
HETATM   15  C8  UNL     1       7.917 -11.900   5.182  1.00  0.00     0.006 C 
ATOM     16  H3  UNL     1       9.843 -13.991   3.041  1.00  0.00     0.187 HD
ENDBRANCH   7   9
ENDBRANCH   6   7
ENDBRANCH   3   6
TORSDOF 3
ENDMDL
