MODEL 1
REMARK VINA RESULT: -7.179702157      0.000      0.000
REMARK  6 active torsions:
REMARK  status: ('A' for Active; 'I' for Inactive)
REMARK    1  A    between atoms: N2_7  and  C6_8 
REMARK    2  A    between atoms: C6_8  and  C7_9 
REMARK    3  A    between atoms: C8_10  and  C9_11 
REMARK    4  A    between atoms: C9_11  and  C10_12 
REMARK    5  A    between atoms: C10_12  and  C11_13 
REMARK    6  A    between atoms: C11_13  and  N3_14 
ROOT
HETATM    1  C7  UNL     1      18.073  76.242  61.389  1.00  0.00    -0.086 C 
HETATM    2  C8  UNL     1      18.416  75.135  61.729  1.00  0.00    -0.105 C 
ENDROOT
BRANCH   2   3
HETATM    3  C9  UNL     1      18.844  73.791  62.120  1.00  0.00     0.095 C 
BRANCH   3   4
HETATM    4  C10 UNL     1      19.814  73.220  61.081  1.00  0.00     0.036 C 
BRANCH   4   5
HETATM    5  C11 UNL     1      19.174  72.079  60.325  1.00  0.00     0.174 C 
BRANCH   5   6
HETATM    6  N3  UNL     1      17.990  72.574  59.654  1.00  0.00    -0.201 N 
HETATM    7  N4  UNL     1      16.686  72.337  59.786  1.00  0.00    -0.209 N 
HETATM    8  N5  UNL     1      16.446  73.184  58.817  1.00  0.00    -0.209 N 
ATOM      9  H4  UNL     1      16.114  71.746  60.388  1.00  0.00     0.211 HD
HETATM   10  N6  UNL     1      17.747  73.426  58.681  1.00  0.00    -0.205 N 
ATOM     11  H5  UNL     1      15.603  73.523  58.354  1.00  0.00     0.211 HD
HETATM   12  C12 UNL     1      18.525  74.280  57.808  1.00  0.00     0.203 C 
ENDBRANCH   5   6
ENDBRANCH   4   5
ENDBRANCH   3   4
ENDBRANCH   2   3
BRANCH   1  13
HETATM   13  C6  UNL     1      17.662  77.589  60.950  1.00  0.00     0.222 C 
BRANCH  13  14
HETATM   14  N2  UNL     1      17.174  77.463  59.607  1.00  0.00    -0.341 N 
HETATM   15  C5  UNL     1      16.053  76.804  59.346  1.00  0.00     0.185 A 
HETATM   16  N1  UNL     1      15.544  76.651  58.107  1.00  0.00    -0.357 N 
HETATM   17  C3  UNL     1      16.236  77.212  57.098  1.00  0.00     0.099 A 
HETATM   18  C4  UNL     1      14.328  75.928  57.884  1.00  0.00     0.156 C 
HETATM   19  C2  UNL     1      17.407  77.905  57.323  1.00  0.00    -0.031 A 
HETATM   20  C1  UNL     1      18.201  78.538  56.238  1.00  0.00     0.051 C 
HETATM   21  C13 UNL     1      17.881  78.030  58.615  1.00  0.00     0.100 A 
ENDBRANCH  13  14
ENDBRANCH   1  13
TORSDOF 6
ENDMDL
MODEL 2
REMARK VINA RESULT: -7.053300178      0.629      1.935
REMARK  6 active torsions:
REMARK  status: ('A' for Active; 'I' for Inactive)
REMARK    1  A    between atoms: N2_7  and  C6_8 
REMARK    2  A    between atoms: C6_8  and  C7_9 
REMARK    3  A    between atoms: C8_10  and  C9_11 
REMARK    4  A    between atoms: C9_11  and  C10_12 
REMARK    5  A    between atoms: C10_12  and  C11_13 
REMARK    6  A    between atoms: C11_13  and  N3_14 
ROOT
HETATM    1  C7  UNL     1      18.078  76.270  61.364  1.00  0.00    -0.086 C 
HETATM    2  C8  UNL     1      18.399  75.161  61.718  1.00  0.00    -0.105 C 
ENDROOT
BRANCH   2   3
HETATM    3  C9  UNL     1      18.803  73.814  62.125  1.00  0.00     0.095 C 
BRANCH   3   4
HETATM    4  C10 UNL     1      19.802  73.233  61.121  1.00  0.00     0.036 C 
BRANCH   4   5
HETATM    5  C11 UNL     1      19.180  72.090  60.351  1.00  0.00     0.174 C 
BRANCH   5   6
HETATM    6  N3  UNL     1      17.996  72.577  59.675  1.00  0.00    -0.201 N 
HETATM    7  N4  UNL     1      16.692  72.338  59.805  1.00  0.00    -0.209 N 
HETATM    8  N5  UNL     1      16.453  73.177  58.831  1.00  0.00    -0.209 N 
ATOM      9  H4  UNL     1      16.121  71.748  60.409  1.00  0.00     0.211 HD
HETATM   10  N6  UNL     1      17.753  73.423  58.696  1.00  0.00    -0.205 N 
ATOM     11  H5  UNL     1      15.609  73.511  58.363  1.00  0.00     0.211 HD
HETATM   12  C12 UNL     1      18.531  74.273  57.819  1.00  0.00     0.203 C 
ENDBRANCH   5   6
ENDBRANCH   4   5
ENDBRANCH   3   4
ENDBRANCH   2   3
BRANCH   1  13
HETATM   13  C6  UNL     1      17.693  77.619  60.908  1.00  0.00     0.222 C 
BRANCH  13  14
HETATM   14  N2  UNL     1      17.177  77.482  59.576  1.00  0.00    -0.341 N 
HETATM   15  C5  UNL     1      17.805  78.020  58.540  1.00  0.00     0.185 A 
HETATM   16  N1  UNL     1      17.372  77.926  57.267  1.00  0.00    -0.357 N 
HETATM   17  C3  UNL     1      16.231  77.238  57.069  1.00  0.00     0.099 A 
HETATM   18  C4  UNL     1      18.091  78.529  56.186  1.00  0.00     0.156 C 
HETATM   19  C2  UNL     1      15.545  76.661  58.117  1.00  0.00    -0.031 A 
HETATM   20  C1  UNL     1      14.284  75.895  57.941  1.00  0.00     0.051 C 
HETATM   21  C13 UNL     1      16.038  76.791  59.401  1.00  0.00     0.100 A 
ENDBRANCH  13  14
ENDBRANCH   1  13
TORSDOF 6
ENDMDL
MODEL 3
REMARK VINA RESULT: -6.873960132      1.327      2.260
REMARK  6 active torsions:
REMARK  status: ('A' for Active; 'I' for Inactive)
REMARK    1  A    between atoms: N2_7  and  C6_8 
REMARK    2  A    between atoms: C6_8  and  C7_9 
REMARK    3  A    between atoms: C8_10  and  C9_11 
REMARK    4  A    between atoms: C9_11  and  C10_12 
REMARK    5  A    between atoms: C10_12  and  C11_13 
REMARK    6  A    between atoms: C11_13  and  N3_14 
ROOT
HETATM    1  C7  UNL     1      17.983  76.374  61.181  1.00  0.00    -0.086 C 
HETATM    2  C8  UNL     1      18.448  75.532  61.910  1.00  0.00    -0.105 C 
ENDROOT
BRANCH   2   3
HETATM    3  C9  UNL     1      19.016  74.496  62.775  1.00  0.00     0.095 C 
BRANCH   3   4
HETATM    4  C10 UNL     1      18.618  73.106  62.270  1.00  0.00     0.036 C 
BRANCH   4   5
HETATM    5  C11 UNL     1      19.159  72.870  60.879  1.00  0.00     0.174 C 
BRANCH   5   6
HETATM    6  N3  UNL     1      18.049  72.602  59.988  1.00  0.00    -0.201 N 
HETATM    7  N4  UNL     1      16.726  72.583  60.139  1.00  0.00    -0.209 N 
HETATM    8  N5  UNL     1      16.598  72.266  58.876  1.00  0.00    -0.209 N 
ATOM      9  H4  UNL     1      16.083  72.747  60.913  1.00  0.00     0.211 HD
HETATM   10  N6  UNL     1      17.919  72.284  58.717  1.00  0.00    -0.205 N 
ATOM     11  H5  UNL     1      15.806  72.079  58.261  1.00  0.00     0.211 HD
HETATM   12  C12 UNL     1      18.800  72.044  57.594  1.00  0.00     0.203 C 
ENDBRANCH   5   6
ENDBRANCH   4   5
ENDBRANCH   3   4
ENDBRANCH   2   3
BRANCH   1  13
HETATM   13  C6  UNL     1      17.414  77.386  60.270  1.00  0.00     0.222 C 
BRANCH  13  14
HETATM   14  N2  UNL     1      16.923  76.686  59.118  1.00  0.00    -0.341 N 
HETATM   15  C5  UNL     1      17.749  76.276  58.165  1.00  0.00     0.185 A 
HETATM   16  N1  UNL     1      17.350  75.615  57.060  1.00  0.00    -0.357 N 
HETATM   17  C3  UNL     1      16.031  75.371  56.948  1.00  0.00     0.099 A 
HETATM   18  C4  UNL     1      18.287  75.195  56.061  1.00  0.00     0.156 C 
HETATM   19  C2  UNL     1      15.136  75.780  57.914  1.00  0.00    -0.031 A 
HETATM   20  C1  UNL     1      13.673  75.531  57.828  1.00  0.00     0.051 C 
HETATM   21  C13 UNL     1      15.603  76.454  59.025  1.00  0.00     0.100 A 
ENDBRANCH  13  14
ENDBRANCH   1  13
TORSDOF 6
ENDMDL
MODEL 4
REMARK VINA RESULT: -6.770785029      2.254      3.768
REMARK  6 active torsions:
REMARK  status: ('A' for Active; 'I' for Inactive)
REMARK    1  A    between atoms: N2_7  and  C6_8 
REMARK    2  A    between atoms: C6_8  and  C7_9 
REMARK    3  A    between atoms: C8_10  and  C9_11 
REMARK    4  A    between atoms: C9_11  and  C10_12 
REMARK    5  A    between atoms: C10_12  and  C11_13 
REMARK    6  A    between atoms: C11_13  and  N3_14 
ROOT
HETATM    1  C7  UNL     1      18.112  78.018  58.006  1.00  0.00    -0.086 C 
HETATM    2  C8  UNL     1      18.329  77.878  59.186  1.00  0.00    -0.105 C 
ENDROOT
BRANCH   2   3
HETATM    3  C9  UNL     1      18.569  77.718  60.621  1.00  0.00     0.095 C 
BRANCH   3   4
HETATM    4  C10 UNL     1      17.592  76.698  61.213  1.00  0.00     0.036 C 
BRANCH   4   5
HETATM    5  C11 UNL     1      18.321  75.440  61.626  1.00  0.00     0.174 C 
BRANCH   5   6
HETATM    6  N3  UNL     1      17.357  74.368  61.761  1.00  0.00    -0.201 N 
HETATM    7  N4  UNL     1      16.536  73.980  62.735  1.00  0.00    -0.209 N 
HETATM    8  N5  UNL     1      16.111  73.005  61.973  1.00  0.00    -0.209 N 
ATOM      9  H4  UNL     1      16.326  74.306  63.678  1.00  0.00     0.211 HD
HETATM   10  N6  UNL     1      16.928  73.388  60.995  1.00  0.00    -0.205 N 
ATOM     11  H5  UNL     1      15.428  72.255  62.084  1.00  0.00     0.211 HD
HETATM   12  C12 UNL     1      17.198  72.896  59.661  1.00  0.00     0.203 C 
ENDBRANCH   5   6
ENDBRANCH   4   5
ENDBRANCH   3   4
ENDBRANCH   2   3
BRANCH   1  13
HETATM   13  C6  UNL     1      17.827  78.203  56.571  1.00  0.00     0.222 C 
BRANCH  13  14
HETATM   14  N2  UNL     1      16.401  78.264  56.430  1.00  0.00    -0.341 N 
HETATM   15  C5  UNL     1      15.811  79.322  55.890  1.00  0.00     0.185 A 
HETATM   16  N1  UNL     1      14.478  79.439  55.731  1.00  0.00    -0.357 N 
HETATM   17  C3  UNL     1      13.728  78.403  56.153  1.00  0.00     0.099 A 
HETATM   18  C4  UNL     1      13.895  80.607  55.141  1.00  0.00     0.156 C 
HETATM   19  C2  UNL     1      14.298  77.283  56.721  1.00  0.00    -0.031 A 
HETATM   20  C1  UNL     1      13.507  76.120  57.200  1.00  0.00     0.051 C 
HETATM   21  C13 UNL     1      15.671  77.220  56.858  1.00  0.00     0.100 A 
ENDBRANCH  13  14
ENDBRANCH   1  13
TORSDOF 6
ENDMDL
MODEL 5
REMARK VINA RESULT: -6.768761464      2.737      4.234
REMARK  6 active torsions:
REMARK  status: ('A' for Active; 'I' for Inactive)
REMARK    1  A    between atoms: N2_7  and  C6_8 
REMARK    2  A    between atoms: C6_8  and  C7_9 
REMARK    3  A    between atoms: C8_10  and  C9_11 
REMARK    4  A    between atoms: C9_11  and  C10_12 
REMARK    5  A    between atoms: C10_12  and  C11_13 
REMARK    6  A    between atoms: C11_13  and  N3_14 
ROOT
HETATM    1  C7  UNL     1      17.885  78.305  57.099  1.00  0.00    -0.086 C 
HETATM    2  C8  UNL     1      18.127  78.036  58.251  1.00  0.00    -0.105 C 
ENDROOT
BRANCH   2   3
HETATM    3  C9  UNL     1      18.416  77.685  59.642  1.00  0.00     0.095 C 
BRANCH   3   4
HETATM    4  C10 UNL     1      17.341  76.739  60.185  1.00  0.00     0.036 C 
BRANCH   4   5
HETATM    5  C11 UNL     1      17.827  76.043  61.436  1.00  0.00     0.174 C 
BRANCH   5   6
HETATM    6  N3  UNL     1      17.080  74.814  61.604  1.00  0.00    -0.201 N 
HETATM    7  N4  UNL     1      16.046  74.266  60.968  1.00  0.00    -0.209 N 
HETATM    8  N5  UNL     1      16.098  73.247  61.787  1.00  0.00    -0.209 N 
ATOM      9  H4  UNL     1      15.461  74.530  60.176  1.00  0.00     0.211 HD
HETATM   10  N6  UNL     1      17.132  73.787  62.426  1.00  0.00    -0.205 N 
ATOM     11  H5  UNL     1      15.562  72.385  61.893  1.00  0.00     0.211 HD
HETATM   12  C12 UNL     1      17.942  73.379  63.555  1.00  0.00     0.203 C 
ENDBRANCH   5   6
ENDBRANCH   4   5
ENDBRANCH   3   4
ENDBRANCH   2   3
BRANCH   1  13
HETATM   13  C6  UNL     1      17.578  78.611  55.688  1.00  0.00     0.222 C 
BRANCH  13  14
HETATM   14  N2  UNL     1      16.197  78.993  55.631  1.00  0.00    -0.341 N 
HETATM   15  C5  UNL     1      15.235  78.126  55.916  1.00  0.00     0.185 A 
HETATM   16  N1  UNL     1      13.921  78.424  55.880  1.00  0.00    -0.357 N 
HETATM   17  C3  UNL     1      13.599  79.685  55.534  1.00  0.00     0.099 A 
HETATM   18  C4  UNL     1      12.924  77.445  56.197  1.00  0.00     0.156 C 
HETATM   19  C2  UNL     1      14.566  80.619  55.230  1.00  0.00    -0.031 A 
HETATM   20  C1  UNL     1      14.253  82.020  54.843  1.00  0.00     0.051 C 
HETATM   21  C13 UNL     1      15.897  80.256  55.283  1.00  0.00     0.100 A 
ENDBRANCH  13  14
ENDBRANCH   1  13
TORSDOF 6
ENDMDL
