MODEL 1
REMARK VINA RESULT: -6.409702894      0.000      0.000
REMARK  5 active torsions:
REMARK  status: ('A' for Active; 'I' for Inactive)
REMARK    1  A    between atoms: N1_2  and  C2_4 
REMARK    2  A    between atoms: N2_6  and  C4_8 
REMARK    3  A    between atoms: C4_8  and  N3_9 
REMARK    4  A    between atoms: C4_8  and  C5_13 
REMARK    5  A    between atoms: C5_13  and  N4_14 
ROOT
HETATM    1  C5  UNL     1      16.051  78.105  57.285  1.00  0.00     0.182 C 
ENDROOT
BRANCH   1   2
HETATM    2  C4  UNL     1      17.038  78.262  56.151  1.00  0.00     0.301 C 
BRANCH   2   3
HETATM    3  N2  UNL     1      16.932  77.073  55.333  1.00  0.00    -0.352 N 
HETATM    4  C2  UNL     1      17.919  76.242  55.302  1.00  0.00     0.070 C 
HETATM    5  C3  UNL     1      19.164  76.411  56.045  1.00  0.00     0.088 C 
ATOM      6  H2  UNL     1      16.088  76.893  54.788  1.00  0.00     0.162 HD
BRANCH   4   7
HETATM    7  N1  UNL     1      17.758  75.092  54.481  1.00  0.00    -0.385 N 
HETATM    8  C1  UNL     1      18.965  74.554  53.873  1.00  0.00     0.147 C 
ATOM      9  H1  UNL     1      16.844  74.666  54.328  1.00  0.00     0.160 HD
ENDBRANCH   4   7
ENDBRANCH   2   3
BRANCH   2  10
HETATM   10  N3  UNL     1      16.718  79.439  55.359  1.00  0.00    -0.057 N 
ATOM     11  H33 UNL     1      16.183  79.203  54.523  1.00  0.00     0.276 HD
ATOM     12  H32 UNL     1      16.027  80.032  55.817  1.00  0.00     0.276 HD
ATOM     13  H31 UNL     1      17.572  79.950  55.134  1.00  0.00     0.276 HD
ENDBRANCH   2  10
ENDBRANCH   1   2
BRANCH   1  14
HETATM   14  N4  UNL     1      16.602  77.476  58.443  1.00  0.00    -0.356 N 
HETATM   15  C6  UNL     1      17.677  77.973  59.087  1.00  0.00     0.092 A 
HETATM   16  C7  UNL     1      18.225  77.409  60.195  1.00  0.00     0.031 A 
HETATM   17  C8  UNL     1      17.664  76.268  60.702  1.00  0.00    -0.007 A 
HETATM   18  C9  UNL     1      18.156  75.626  61.829  1.00  0.00     0.102 A 
HETATM   19  C13 UNL     1      16.569  75.733  60.075  1.00  0.00    -0.001 A 
HETATM   20  N5  UNL     1      17.593  74.505  62.316  1.00  0.00    -0.370 N 
HETATM   21  C10 UNL     1      18.118  73.830  63.507  1.00  0.00     0.154 C 
HETATM   22  C11 UNL     1      16.518  74.007  61.676  1.00  0.00     0.091 A 
HETATM   23  C12 UNL     1      15.977  74.586  60.558  1.00  0.00     0.031 A 
HETATM   24  C14 UNL     1      16.051  76.362  58.936  1.00  0.00     0.018 A 
HETATM   25  C15 UNL     1      14.892  75.746  58.304  1.00  0.00     0.069 C 
ENDBRANCH   1  14
TORSDOF 5
ENDMDL
MODEL 2
REMARK VINA RESULT: -6.308857160      2.234      6.622
REMARK  5 active torsions:
REMARK  status: ('A' for Active; 'I' for Inactive)
REMARK    1  A    between atoms: N1_2  and  C2_4 
REMARK    2  A    between atoms: N2_6  and  C4_8 
REMARK    3  A    between atoms: C4_8  and  N3_9 
REMARK    4  A    between atoms: C4_8  and  C5_13 
REMARK    5  A    between atoms: C5_13  and  N4_14 
ROOT
HETATM    1  C5  UNL     1      15.424  75.741  59.284  1.00  0.00     0.182 C 
ENDROOT
BRANCH   1   2
HETATM    2  C4  UNL     1      16.583  74.791  59.475  1.00  0.00     0.301 C 
BRANCH   2   3
HETATM    3  N2  UNL     1      16.514  74.312  60.839  1.00  0.00    -0.352 N 
HETATM    4  C2  UNL     1      17.225  74.893  61.745  1.00  0.00     0.070 C 
HETATM    5  C3  UNL     1      18.114  76.023  61.499  1.00  0.00     0.088 C 
ATOM      6  H2  UNL     1      15.911  73.525  61.081  1.00  0.00     0.162 HD
BRANCH   4   7
HETATM    7  N1  UNL     1      17.115  74.379  63.067  1.00  0.00    -0.385 N 
HETATM    8  C1  UNL     1      17.942  73.224  63.386  1.00  0.00     0.147 C 
ATOM      9  H1  UNL     1      16.491  74.799  63.756  1.00  0.00     0.160 HD
ENDBRANCH   4   7
ENDBRANCH   2   3
BRANCH   2  10
HETATM   10  N3  UNL     1      16.480  73.673  58.551  1.00  0.00    -0.057 N 
ATOM     11  H33 UNL     1      16.495  72.774  59.034  1.00  0.00     0.276 HD
ATOM     12  H32 UNL     1      15.552  73.603  58.136  1.00  0.00     0.276 HD
ATOM     13  H31 UNL     1      17.212  73.738  57.843  1.00  0.00     0.276 HD
ENDBRANCH   2  10
ENDBRANCH   1   2
BRANCH   1  14
HETATM   14  N4  UNL     1      15.634  76.701  58.247  1.00  0.00    -0.356 N 
HETATM   15  C6  UNL     1      16.759  77.441  58.170  1.00  0.00     0.092 A 
HETATM   16  C7  UNL     1      16.998  78.357  57.195  1.00  0.00     0.031 A 
HETATM   17  C8  UNL     1      16.053  78.554  56.225  1.00  0.00    -0.007 A 
HETATM   18  C9  UNL     1      16.214  79.466  55.193  1.00  0.00     0.102 A 
HETATM   19  C13 UNL     1      14.896  77.818  56.270  1.00  0.00    -0.001 A 
HETATM   20  N5  UNL     1      15.274  79.646  54.246  1.00  0.00    -0.370 N 
HETATM   21  C10 UNL     1      15.450  80.613  53.157  1.00  0.00     0.154 C 
HETATM   22  C11 UNL     1      14.151  78.909  54.319  1.00  0.00     0.091 A 
HETATM   23  C12 UNL     1      13.922  77.989  55.310  1.00  0.00     0.031 A 
HETATM   24  C14 UNL     1      14.709  76.890  57.300  1.00  0.00     0.018 A 
HETATM   25  C15 UNL     1      13.457  76.144  57.304  1.00  0.00     0.069 C 
ENDBRANCH   1  14
TORSDOF 5
ENDMDL
MODEL 3
REMARK VINA RESULT: -6.299330817      1.979      5.880
REMARK  5 active torsions:
REMARK  status: ('A' for Active; 'I' for Inactive)
REMARK    1  A    between atoms: N1_2  and  C2_4 
REMARK    2  A    between atoms: N2_6  and  C4_8 
REMARK    3  A    between atoms: C4_8  and  N3_9 
REMARK    4  A    between atoms: C4_8  and  C5_13 
REMARK    5  A    between atoms: C5_13  and  N4_14 
ROOT
HETATM    1  C5  UNL     1      17.529  76.190  61.115  1.00  0.00     0.182 C 
ENDROOT
BRANCH   1   2
HETATM    2  C4  UNL     1      17.523  74.733  61.517  1.00  0.00     0.301 C 
BRANCH   2   3
HETATM    3  N2  UNL     1      18.626  74.101  60.826  1.00  0.00    -0.352 N 
HETATM    4  C2  UNL     1      18.378  73.180  59.958  1.00  0.00     0.070 C 
HETATM    5  C3  UNL     1      17.041  72.712  59.608  1.00  0.00     0.088 C 
ATOM      6  H2  UNL     1      19.588  74.381  61.023  1.00  0.00     0.162 HD
BRANCH   4   7
HETATM    7  N1  UNL     1      19.502  72.595  59.311  1.00  0.00    -0.385 N 
HETATM    8  C1  UNL     1      19.416  72.447  57.865  1.00  0.00     0.147 C 
ATOM      9  H1  UNL     1      20.326  72.296  59.832  1.00  0.00     0.160 HD
ENDBRANCH   4   7
ENDBRANCH   2   3
BRANCH   2  10
HETATM   10  N3  UNL     1      17.697  74.602  62.954  1.00  0.00    -0.057 N 
ATOM     11  H33 UNL     1      18.059  73.685  63.214  1.00  0.00     0.276 HD
ATOM     12  H32 UNL     1      18.471  75.170  63.299  1.00  0.00     0.276 HD
ATOM     13  H31 UNL     1      16.822  74.818  63.432  1.00  0.00     0.276 HD
ENDBRANCH   2  10
ENDBRANCH   1   2
BRANCH   1  14
HETATM   14  N4  UNL     1      16.854  76.449  59.883  1.00  0.00    -0.356 N 
HETATM   15  C6  UNL     1      15.666  75.885  59.583  1.00  0.00     0.092 A 
HETATM   16  C7  UNL     1      14.990  76.113  58.426  1.00  0.00     0.031 A 
HETATM   17  C8  UNL     1      15.532  76.962  57.499  1.00  0.00    -0.007 A 
HETATM   18  C9  UNL     1      14.910  77.252  56.293  1.00  0.00     0.102 A 
HETATM   19  C13 UNL     1      16.738  77.554  57.770  1.00  0.00    -0.001 A 
HETATM   20  N5  UNL     1      15.456  78.090  55.393  1.00  0.00    -0.370 N 
HETATM   21  C10 UNL     1      14.795  78.393  54.119  1.00  0.00     0.154 C 
HETATM   22  C11 UNL     1      16.641  78.655  55.689  1.00  0.00     0.091 A 
HETATM   23  C12 UNL     1      17.313  78.415  56.860  1.00  0.00     0.031 A 
HETATM   24  C14 UNL     1      17.385  77.279  58.979  1.00  0.00     0.018 A 
HETATM   25  C15 UNL     1      18.669  77.929  59.210  1.00  0.00     0.069 C 
ENDBRANCH   1  14
TORSDOF 5
ENDMDL
MODEL 4
REMARK VINA RESULT: -6.255670018      1.813      3.326
REMARK  5 active torsions:
REMARK  status: ('A' for Active; 'I' for Inactive)
REMARK    1  A    between atoms: N1_2  and  C2_4 
REMARK    2  A    between atoms: N2_6  and  C4_8 
REMARK    3  A    between atoms: C4_8  and  N3_9 
REMARK    4  A    between atoms: C4_8  and  C5_13 
REMARK    5  A    between atoms: C5_13  and  N4_14 
ROOT
HETATM    1  C5  UNL     1      17.772  77.413  56.574  1.00  0.00     0.182 C 
ENDROOT
BRANCH   1   2
HETATM    2  C4  UNL     1      16.392  77.631  55.999  1.00  0.00     0.301 C 
BRANCH   2   3
HETATM    3  N2  UNL     1      16.395  78.939  55.382  1.00  0.00    -0.352 N 
HETATM    4  C2  UNL     1      15.410  79.742  55.607  1.00  0.00     0.070 C 
HETATM    5  C3  UNL     1      14.265  79.427  56.456  1.00  0.00     0.088 C 
ATOM      6  H2  UNL     1      17.165  79.224  54.776  1.00  0.00     0.162 HD
BRANCH   4   7
HETATM    7  N1  UNL     1      15.467  81.015  54.973  1.00  0.00    -0.385 N 
HETATM    8  C1  UNL     1      14.293  81.863  55.112  1.00  0.00     0.147 C 
ATOM      9  H1  UNL     1      16.289  81.316  54.450  1.00  0.00     0.160 HD
ENDBRANCH   4   7
ENDBRANCH   2   3
BRANCH   2  10
HETATM   10  N3  UNL     1      16.089  76.614  55.005  1.00  0.00    -0.057 N 
ATOM     11  H33 UNL     1      15.372  76.922  54.348  1.00  0.00     0.276 HD
ATOM     12  H32 UNL     1      16.853  76.488  54.341  1.00  0.00     0.276 HD
ATOM     13  H31 UNL     1      15.835  75.740  55.466  1.00  0.00     0.276 HD
ENDBRANCH   2  10
ENDBRANCH   1   2
BRANCH   1  14
HETATM   14  N4  UNL     1      17.765  76.953  57.926  1.00  0.00    -0.356 N 
HETATM   15  C6  UNL     1      17.498  77.772  58.962  1.00  0.00     0.092 A 
HETATM   16  C7  UNL     1      17.473  77.370  60.260  1.00  0.00     0.031 A 
HETATM   17  C8  UNL     1      17.734  76.058  60.552  1.00  0.00    -0.007 A 
HETATM   18  C9  UNL     1      17.730  75.561  61.846  1.00  0.00     0.102 A 
HETATM   19  C13 UNL     1      18.010  75.194  59.523  1.00  0.00    -0.001 A 
HETATM   20  N5  UNL     1      17.987  74.268  62.116  1.00  0.00    -0.370 N 
HETATM   21  C10 UNL     1      17.982  73.748  63.487  1.00  0.00     0.154 C 
HETATM   22  C11 UNL     1      18.254  73.446  61.084  1.00  0.00     0.091 A 
HETATM   23  C12 UNL     1      18.276  73.867  59.779  1.00  0.00     0.031 A 
HETATM   24  C14 UNL     1      18.020  75.670  58.207  1.00  0.00     0.018 A 
HETATM   25  C15 UNL     1      18.328  74.710  57.155  1.00  0.00     0.069 C 
ENDBRANCH   1  14
TORSDOF 5
ENDMDL
MODEL 5
REMARK VINA RESULT: -6.167863932      2.236      6.448
REMARK  5 active torsions:
REMARK  status: ('A' for Active; 'I' for Inactive)
REMARK    1  A    between atoms: N1_2  and  C2_4 
REMARK    2  A    between atoms: N2_6  and  C4_8 
REMARK    3  A    between atoms: C4_8  and  N3_9 
REMARK    4  A    between atoms: C4_8  and  C5_13 
REMARK    5  A    between atoms: C5_13  and  N4_14 
ROOT
HETATM    1  C5  UNL     1      17.873  76.187  58.985  1.00  0.00     0.182 C 
ENDROOT
BRANCH   1   2
HETATM    2  C4  UNL     1      17.540  75.752  60.394  1.00  0.00     0.301 C 
BRANCH   2   3
HETATM    3  N2  UNL     1      18.335  74.574  60.669  1.00  0.00    -0.352 N 
HETATM    4  C2  UNL     1      17.799  73.591  61.310  1.00  0.00     0.070 C 
HETATM    5  C3  UNL     1      16.421  73.571  61.791  1.00  0.00     0.088 C 
ATOM      6  H2  UNL     1      19.306  74.521  60.360  1.00  0.00     0.162 HD
BRANCH   4   7
HETATM    7  N1  UNL     1      18.628  72.460  61.551  1.00  0.00    -0.385 N 
HETATM    8  C1  UNL     1      19.533  72.077  60.478  1.00  0.00     0.147 C 
ATOM      9  H1  UNL     1      18.591  71.945  62.431  1.00  0.00     0.160 HD
ENDBRANCH   4   7
ENDBRANCH   2   3
BRANCH   2  10
HETATM   10  N3  UNL     1      17.869  76.804  61.341  1.00  0.00    -0.057 N 
ATOM     11  H33 UNL     1      18.866  77.018  61.345  1.00  0.00     0.276 HD
ATOM     12  H32 UNL     1      17.523  77.714  61.038  1.00  0.00     0.276 HD
ATOM     13  H31 UNL     1      17.527  76.555  62.270  1.00  0.00     0.276 HD
ENDBRANCH   2  10
ENDBRANCH   1   2
BRANCH   1  14
HETATM   14  N4  UNL     1      16.757  76.718  58.270  1.00  0.00    -0.356 N 
HETATM   15  C6  UNL     1      15.507  76.241  58.432  1.00  0.00     0.092 A 
HETATM   16  C7  UNL     1      14.419  76.725  57.776  1.00  0.00     0.031 A 
HETATM   17  C8  UNL     1      14.584  77.759  56.894  1.00  0.00    -0.007 A 
HETATM   18  C9  UNL     1      13.531  78.316  56.184  1.00  0.00     0.102 A 
HETATM   19  C13 UNL     1      15.842  78.272  56.704  1.00  0.00    -0.001 A 
HETATM   20  N5  UNL     1      13.711  79.333  55.321  1.00  0.00    -0.370 N 
HETATM   21  C10 UNL     1      12.594  79.917  54.572  1.00  0.00     0.154 C 
HETATM   22  C11 UNL     1      14.957  79.813  55.157  1.00  0.00     0.091 A 
HETATM   23  C12 UNL     1      16.046  79.313  55.825  1.00  0.00     0.031 A 
HETATM   24  C14 UNL     1      16.922  77.729  57.410  1.00  0.00     0.018 A 
HETATM   25  C15 UNL     1      18.237  78.306  57.161  1.00  0.00     0.069 C 
ENDBRANCH   1  14
TORSDOF 5
ENDMDL
