MODEL 1
REMARK VINA RESULT: -6.160977017      0.000      0.000
REMARK  5 active torsions:
REMARK  status: ('A' for Active; 'I' for Inactive)
REMARK    1  A    between atoms: N1_2  and  C4_5 
REMARK    2  A    between atoms: C4_5  and  C5_6 
REMARK    3  A    between atoms: C5_6  and  N2_7 
REMARK    4  A    between atoms: C9_11  and  N3_12 
REMARK    5  A    between atoms: C14_18  and  O1_19 
ROOT
HETATM    1  N2  UNL     1      17.063  75.931  59.997  1.00  0.00    -0.043 N 
HETATM    2  C6  UNL     1      15.714  75.575  59.603  1.00  0.00     0.275 C 
HETATM    3  C7  UNL     1      18.050  75.306  59.175  1.00  0.00     0.242 C 
HETATM    4  C8  UNL     1      18.018  75.693  57.741  1.00  0.00     0.063 C 
HETATM    5  C9  UNL     1      18.069  77.197  57.565  1.00  0.00     0.216 C 
HETATM    6  C13 UNL     1      17.190  77.918  58.550  1.00  0.00     0.097 C 
HETATM    7  C14 UNL     1      17.251  77.361  59.933  1.00  0.00     0.324 C 
ENDROOT
BRANCH   1   8
HETATM    8  C5  UNL     1      17.331  75.556  61.377  1.00  0.00     0.268 C 
BRANCH   8   9
HETATM    9  C4  UNL     1      17.037  74.105  61.648  1.00  0.00     0.264 C 
BRANCH   9  10
HETATM   10  N1  UNL     1      18.186  73.562  62.351  1.00  0.00    -0.077 N 
HETATM   11  C1  UNL     1      17.794  72.917  63.597  1.00  0.00     0.271 C 
HETATM   12  C2  UNL     1      19.102  74.645  62.737  1.00  0.00     0.271 C 
HETATM   13  C3  UNL     1      18.932  72.619  61.581  1.00  0.00     0.271 C 
ENDBRANCH   9  10
ENDBRANCH   8   9
ENDBRANCH   1   8
BRANCH   7  14
HETATM   14  O1  UNL     1      18.490  77.634  60.556  1.00  0.00    -0.369 OA
ATOM     15  H1  UNL     1      18.398  78.475  60.989  1.00  0.00     0.212 HD
ENDBRANCH   7  14
BRANCH   5  16
HETATM   16  N3  UNL     1      17.811  77.617  56.232  1.00  0.00     0.012 N 
HETATM   17  C10 UNL     1      18.224  76.729  55.170  1.00  0.00     0.297 C 
HETATM   18  C11 UNL     1      16.501  78.145  55.944  1.00  0.00     0.278 C 
HETATM   19  C12 UNL     1      17.189  79.229  55.106  1.00  0.00     0.172 C 
HETATM   20  N4  UNL     1      18.321  78.914  55.950  1.00  0.00    -0.045 NA
ENDBRANCH   5  16
TORSDOF 5
ENDMDL
MODEL 2
REMARK VINA RESULT: -6.093788368      0.567      1.510
REMARK  5 active torsions:
REMARK  status: ('A' for Active; 'I' for Inactive)
REMARK    1  A    between atoms: N1_2  and  C4_5 
REMARK    2  A    between atoms: C4_5  and  C5_6 
REMARK    3  A    between atoms: C5_6  and  N2_7 
REMARK    4  A    between atoms: C9_11  and  N3_12 
REMARK    5  A    between atoms: C14_18  and  O1_19 
ROOT
HETATM    1  N2  UNL     1      17.061  75.953  59.913  1.00  0.00    -0.043 N 
HETATM    2  C6  UNL     1      15.702  75.634  59.520  1.00  0.00     0.275 C 
HETATM    3  C7  UNL     1      18.029  75.260  59.123  1.00  0.00     0.242 C 
HETATM    4  C8  UNL     1      18.023  75.595  57.676  1.00  0.00     0.063 C 
HETATM    5  C9  UNL     1      18.134  77.089  57.445  1.00  0.00     0.216 C 
HETATM    6  C13 UNL     1      17.276  77.879  58.395  1.00  0.00     0.097 C 
HETATM    7  C14 UNL     1      17.305  77.372  59.798  1.00  0.00     0.324 C 
ENDROOT
BRANCH   1   8
HETATM    8  C5  UNL     1      17.304  75.619  61.308  1.00  0.00     0.268 C 
BRANCH   8   9
HETATM    9  C4  UNL     1      17.031  74.170  61.610  1.00  0.00     0.264 C 
BRANCH   9  10
HETATM   10  N1  UNL     1      18.159  73.677  62.382  1.00  0.00    -0.077 N 
HETATM   11  C1  UNL     1      19.095  74.747  62.700  1.00  0.00     0.271 C 
HETATM   12  C2  UNL     1      18.925  72.701  61.594  1.00  0.00     0.271 C 
HETATM   13  C3  UNL     1      17.780  73.044  63.604  1.00  0.00     0.271 C 
ENDBRANCH   9  10
ENDBRANCH   8   9
ENDBRANCH   1   8
BRANCH   7  14
HETATM   14  O1  UNL     1      18.549  77.619  60.421  1.00  0.00    -0.369 OA
ATOM     15  H1  UNL     1      19.021  76.795  60.423  1.00  0.00     0.212 HD
ENDBRANCH   7  14
BRANCH   5  16
HETATM   16  N3  UNL     1      17.902  77.468  56.096  1.00  0.00     0.012 N 
HETATM   17  C10 UNL     1      17.827  78.883  55.812  1.00  0.00     0.297 C 
HETATM   18  C11 UNL     1      18.681  76.808  55.077  1.00  0.00     0.278 C 
HETATM   19  C12 UNL     1      17.400  76.721  54.239  1.00  0.00     0.172 C 
HETATM   20  N4  UNL     1      16.758  76.840  55.530  1.00  0.00    -0.045 NA
ENDBRANCH   5  16
TORSDOF 5
ENDMDL
MODEL 3
REMARK VINA RESULT: -5.792686402      1.635      6.597
REMARK  5 active torsions:
REMARK  status: ('A' for Active; 'I' for Inactive)
REMARK    1  A    between atoms: N1_2  and  C4_5 
REMARK    2  A    between atoms: C4_5  and  C5_6 
REMARK    3  A    between atoms: C5_6  and  N2_7 
REMARK    4  A    between atoms: C9_11  and  N3_12 
REMARK    5  A    between atoms: C14_18  and  O1_19 
ROOT
HETATM    1  N2  UNL     1      16.740  77.106  58.335  1.00  0.00    -0.043 N 
HETATM    2  C6  UNL     1      15.327  76.863  58.550  1.00  0.00     0.275 C 
HETATM    3  C7  UNL     1      17.380  77.639  59.495  1.00  0.00     0.242 C 
HETATM    4  C8  UNL     1      17.382  76.749  60.684  1.00  0.00     0.063 C 
HETATM    5  C9  UNL     1      17.947  75.380  60.360  1.00  0.00     0.216 C 
HETATM    6  C13 UNL     1      17.453  74.857  59.038  1.00  0.00     0.097 C 
HETATM    7  C14 UNL     1      17.415  75.886  57.958  1.00  0.00     0.324 C 
ENDROOT
BRANCH   1   8
HETATM    8  C5  UNL     1      16.959  78.036  57.237  1.00  0.00     0.268 C 
BRANCH   8   9
HETATM    9  C4  UNL     1      15.675  78.625  56.716  1.00  0.00     0.264 C 
BRANCH   9  10
HETATM   10  N1  UNL     1      15.790  78.678  55.269  1.00  0.00    -0.077 N 
HETATM   11  C1  UNL     1      16.009  80.041  54.802  1.00  0.00     0.271 C 
HETATM   12  C2  UNL     1      14.534  78.242  54.644  1.00  0.00     0.271 C 
HETATM   13  C3  UNL     1      16.838  77.860  54.750  1.00  0.00     0.271 C 
ENDBRANCH   9  10
ENDBRANCH   8   9
ENDBRANCH   1   8
BRANCH   7  14
HETATM   14  O1  UNL     1      18.712  76.255  57.538  1.00  0.00    -0.369 OA
ATOM     15  H1  UNL     1      18.874  75.798  56.721  1.00  0.00     0.212 HD
ENDBRANCH   7  14
BRANCH   5  16
HETATM   16  N3  UNL     1      17.756  74.432  61.400  1.00  0.00     0.012 N 
HETATM   17  C10 UNL     1      16.759  73.409  61.185  1.00  0.00     0.297 C 
HETATM   18  C11 UNL     1      18.936  73.847  61.988  1.00  0.00     0.278 C 
HETATM   19  C12 UNL     1      18.260  74.012  63.356  1.00  0.00     0.172 C 
HETATM   20  N4  UNL     1      17.509  75.036  62.663  1.00  0.00    -0.045 NA
ENDBRANCH   5  16
TORSDOF 5
ENDMDL
MODEL 4
REMARK VINA RESULT: -5.783219097      1.738      6.523
REMARK  5 active torsions:
REMARK  status: ('A' for Active; 'I' for Inactive)
REMARK    1  A    between atoms: N1_2  and  C4_5 
REMARK    2  A    between atoms: C4_5  and  C5_6 
REMARK    3  A    between atoms: C5_6  and  N2_7 
REMARK    4  A    between atoms: C9_11  and  N3_12 
REMARK    5  A    between atoms: C14_18  and  O1_19 
ROOT
HETATM    1  N2  UNL     1      16.551  76.696  58.662  1.00  0.00    -0.043 N 
HETATM    2  C6  UNL     1      15.251  76.116  58.939  1.00  0.00     0.275 C 
HETATM    3  C7  UNL     1      17.110  77.342  59.806  1.00  0.00     0.242 C 
HETATM    4  C8  UNL     1      17.393  76.452  60.962  1.00  0.00     0.063 C 
HETATM    5  C9  UNL     1      18.249  75.266  60.561  1.00  0.00     0.216 C 
HETATM    6  C13 UNL     1      17.819  74.670  59.249  1.00  0.00     0.097 C 
HETATM    7  C14 UNL     1      17.475  75.682  58.208  1.00  0.00     0.324 C 
ENDROOT
BRANCH   1   8
HETATM    8  C5  UNL     1      16.479  77.676  57.588  1.00  0.00     0.268 C 
BRANCH   8   9
HETATM    9  C4  UNL     1      15.135  78.351  57.514  1.00  0.00     0.264 C 
BRANCH   9  10
HETATM   10  N1  UNL     1      14.980  78.840  56.156  1.00  0.00    -0.077 N 
HETATM   11  C1  UNL     1      14.383  77.831  55.290  1.00  0.00     0.271 C 
HETATM   12  C2  UNL     1      16.295  79.137  55.570  1.00  0.00     0.271 C 
HETATM   13  C3  UNL     1      14.189  80.026  56.063  1.00  0.00     0.271 C 
ENDBRANCH   9  10
ENDBRANCH   8   9
ENDBRANCH   1   8
BRANCH   7  14
HETATM   14  O1  UNL     1      18.620  76.362  57.737  1.00  0.00    -0.369 OA
ATOM     15  H1  UNL     1      19.169  75.710  57.316  1.00  0.00     0.212 HD
ENDBRANCH   7  14
BRANCH   5  16
HETATM   16  N3  UNL     1      18.350  74.278  61.575  1.00  0.00     0.012 N 
HETATM   17  C10 UNL     1      18.663  72.931  61.155  1.00  0.00     0.297 C 
HETATM   18  C11 UNL     1      19.114  74.610  62.753  1.00  0.00     0.278 C 
HETATM   19  C12 UNL     1      18.012  73.938  63.582  1.00  0.00     0.172 C 
HETATM   20  N4  UNL     1      17.204  74.226  62.417  1.00  0.00    -0.045 NA
ENDBRANCH   5  16
TORSDOF 5
ENDMDL
MODEL 5
REMARK VINA RESULT: -5.650074068      1.795      6.516
REMARK  5 active torsions:
REMARK  status: ('A' for Active; 'I' for Inactive)
REMARK    1  A    between atoms: N1_2  and  C4_5 
REMARK    2  A    between atoms: C4_5  and  C5_6 
REMARK    3  A    between atoms: C5_6  and  N2_7 
REMARK    4  A    between atoms: C9_11  and  N3_12 
REMARK    5  A    between atoms: C14_18  and  O1_19 
ROOT
HETATM    1  N2  UNL     1      17.233  76.756  57.809  1.00  0.00    -0.043 N 
HETATM    2  C6  UNL     1      18.249  77.668  58.296  1.00  0.00     0.275 C 
HETATM    3  C7  UNL     1      17.725  75.422  57.668  1.00  0.00     0.242 C 
HETATM    4  C8  UNL     1      18.164  74.773  58.930  1.00  0.00     0.063 C 
HETATM    5  C9  UNL     1      17.084  74.821  59.992  1.00  0.00     0.216 C 
HETATM    6  C13 UNL     1      16.393  76.157  60.043  1.00  0.00     0.097 C 
HETATM    7  C14 UNL     1      16.097  76.735  58.700  1.00  0.00     0.324 C 
ENDROOT
BRANCH   1   8
HETATM    8  C5  UNL     1      16.715  77.178  56.516  1.00  0.00     0.268 C 
BRANCH   8   9
HETATM    9  C4  UNL     1      16.781  78.670  56.328  1.00  0.00     0.264 C 
BRANCH   9  10
HETATM   10  N1  UNL     1      15.559  79.067  55.650  1.00  0.00    -0.077 N 
HETATM   11  C1  UNL     1      14.486  79.336  56.600  1.00  0.00     0.271 C 
HETATM   12  C2  UNL     1      15.071  77.972  54.800  1.00  0.00     0.271 C 
HETATM   13  C3  UNL     1      15.715  80.220  54.822  1.00  0.00     0.271 C 
ENDBRANCH   9  10
ENDBRANCH   8   9
ENDBRANCH   1   8
BRANCH   7  14
HETATM   14  O1  UNL     1      15.074  76.023  58.035  1.00  0.00    -0.369 OA
ATOM     15  H1  UNL     1      14.766  75.359  58.641  1.00  0.00     0.212 HD
ENDBRANCH   7  14
BRANCH   5  16
HETATM   16  N3  UNL     1      17.539  74.420  61.276  1.00  0.00     0.012 N 
HETATM   17  C10 UNL     1      16.678  73.546  62.038  1.00  0.00     0.297 C 
HETATM   18  C11 UNL     1      18.906  73.974  61.386  1.00  0.00     0.278 C 
HETATM   19  C12 UNL     1      18.999  74.776  62.690  1.00  0.00     0.172 C 
HETATM   20  N4  UNL     1      17.903  75.518  62.105  1.00  0.00    -0.045 NA
ENDBRANCH   5  16
TORSDOF 5
ENDMDL
