MODEL 1
REMARK VINA RESULT: -6.809620467      0.000      0.000
REMARK  2 active torsions:
REMARK  status: ('A' for Active; 'I' for Inactive)
REMARK    1  A    between atoms: C3_3  and  N1_4 
REMARK       I    between atoms: N1_4  and  C4_6 
REMARK       I    between atoms: C4_6  and  N2_8 
REMARK    2  A    between atoms: N4_16  and  C9_17 
ROOT
HETATM    1  C1  UNL     1      20.951  73.167  52.650  1.00  0.00     0.014 C 
HETATM    2  C2  UNL     1      19.874  73.617  52.962  1.00  0.00    -0.098 C 
HETATM    3  C3  UNL     1      18.582  74.181  53.349  1.00  0.00     0.217 C 
ENDROOT
BRANCH   3   4
HETATM    4  N1  UNL     1      18.396  74.042  54.756  1.00  0.00    -0.333 N 
HETATM    5  C4  UNL     1      18.504  75.165  55.637  1.00  0.00     0.319 C 
HETATM    6  O1  UNL     1      18.769  76.283  55.131  1.00  0.00    -0.247 OA
HETATM    7  N2  UNL     1      18.327  75.063  57.024  1.00  0.00    -0.326 N 
HETATM    8  C5  UNL     1      18.016  73.863  57.820  1.00  0.00     0.155 C 
HETATM    9  C12 UNL     1      18.415  76.129  57.986  1.00  0.00     0.109 C 
HETATM   10  C6  UNL     1      17.014  74.336  58.838  1.00  0.00     0.132 C 
HETATM   11  C7  UNL     1      17.306  75.794  58.956  1.00  0.00     0.133 C 
HETATM   12  N4  UNL     1      17.262  73.780  60.153  1.00  0.00    -0.315 N 
HETATM   13  N3  UNL     1      17.736  76.049  60.302  1.00  0.00    -0.334 N 
HETATM   14  C8  UNL     1      17.402  74.878  61.050  1.00  0.00     0.320 C 
ATOM     15  H3  UNL     1      18.187  76.894  60.652  1.00  0.00     0.164 HD
HETATM   16  O2  UNL     1      17.262  74.868  62.314  1.00  0.00    -0.247 OA
HETATM   17  C13 UNL     1      18.284  77.500  57.409  1.00  0.00     0.034 C 
ATOM     18  H1  UNL     1      18.180  73.124  55.143  1.00  0.00     0.165 HD
BRANCH  12  19
HETATM   19  C9  UNL     1      17.362  72.402  60.563  1.00  0.00     0.221 C 
HETATM   20  C10 UNL     1      18.753  71.926  60.478  1.00  0.00    -0.098 C 
HETATM   21  C11 UNL     1      19.894  71.526  60.426  1.00  0.00     0.014 C 
ENDBRANCH  12  19
ENDBRANCH   3   4
TORSDOF 2
ENDMDL
MODEL 2
REMARK VINA RESULT: -6.713650169      4.950      6.939
REMARK  2 active torsions:
REMARK  status: ('A' for Active; 'I' for Inactive)
REMARK    1  A    between atoms: C3_3  and  N1_4 
REMARK       I    between atoms: N1_4  and  C4_6 
REMARK       I    between atoms: C4_6  and  N2_8 
REMARK    2  A    between atoms: N4_16  and  C9_17 
ROOT
HETATM    1  C1  UNL     1       8.678  75.899  59.544  1.00  0.00     0.014 C 
HETATM    2  C2  UNL     1       9.261  75.244  58.712  1.00  0.00    -0.098 C 
HETATM    3  C3  UNL     1       9.975  74.439  57.723  1.00  0.00     0.217 C 
ENDROOT
BRANCH   3   4
HETATM    4  N1  UNL     1      11.355  74.796  57.714  1.00  0.00    -0.333 N 
HETATM    5  C4  UNL     1      11.886  75.700  56.740  1.00  0.00     0.319 C 
HETATM    6  O1  UNL     1      11.094  76.174  55.887  1.00  0.00    -0.247 OA
HETATM    7  N2  UNL     1      13.237  76.072  56.702  1.00  0.00    -0.326 N 
HETATM    8  C5  UNL     1      14.328  75.642  57.593  1.00  0.00     0.155 C 
HETATM    9  C12 UNL     1      13.860  76.970  55.767  1.00  0.00     0.109 C 
HETATM   10  C6  UNL     1      15.132  76.890  57.835  1.00  0.00     0.132 C 
HETATM   11  C7  UNL     1      14.843  77.724  56.633  1.00  0.00     0.133 C 
HETATM   12  N4  UNL     1      16.558  76.640  57.804  1.00  0.00    -0.315 N 
HETATM   13  N3  UNL     1      16.076  77.916  55.924  1.00  0.00    -0.334 N 
HETATM   14  C8  UNL     1      17.112  77.509  56.820  1.00  0.00     0.320 C 
ATOM     15  H3  UNL     1      16.189  78.270  54.974  1.00  0.00     0.164 HD
HETATM   16  O2  UNL     1      18.321  77.891  56.716  1.00  0.00    -0.247 OA
HETATM   17  C13 UNL     1      12.913  77.873  55.047  1.00  0.00     0.034 C 
ATOM     18  H1  UNL     1      11.979  74.399  58.417  1.00  0.00     0.165 HD
BRANCH  12  19
HETATM   19  C9  UNL     1      17.346  75.715  58.579  1.00  0.00     0.221 C 
HETATM   20  C10 UNL     1      17.749  76.313  59.863  1.00  0.00    -0.098 C 
HETATM   21  C11 UNL     1      18.076  76.787  60.928  1.00  0.00     0.014 C 
ENDBRANCH  12  19
ENDBRANCH   3   4
TORSDOF 2
ENDMDL
MODEL 3
REMARK VINA RESULT: -6.671366221      3.319      3.559
REMARK  2 active torsions:
REMARK  status: ('A' for Active; 'I' for Inactive)
REMARK    1  A    between atoms: C3_3  and  N1_4 
REMARK       I    between atoms: N1_4  and  C4_6 
REMARK       I    between atoms: C4_6  and  N2_8 
REMARK    2  A    between atoms: N4_16  and  C9_17 
ROOT
HETATM    1  C1  UNL     1      13.268  70.849  55.098  1.00  0.00     0.014 C 
HETATM    2  C2  UNL     1      13.520  71.977  55.449  1.00  0.00    -0.098 C 
HETATM    3  C3  UNL     1      13.846  73.340  55.865  1.00  0.00     0.217 C 
ENDROOT
BRANCH   3   4
HETATM    4  N1  UNL     1      14.714  73.306  56.997  1.00  0.00    -0.333 N 
HETATM    5  C4  UNL     1      15.370  74.486  57.470  1.00  0.00     0.319 C 
HETATM    6  O1  UNL     1      15.157  75.561  56.856  1.00  0.00    -0.247 OA
HETATM    7  N2  UNL     1      16.228  74.487  58.578  1.00  0.00    -0.326 N 
HETATM    8  C5  UNL     1      16.616  73.354  59.435  1.00  0.00     0.155 C 
HETATM    9  C12 UNL     1      16.929  75.618  59.126  1.00  0.00     0.109 C 
HETATM   10  C6  UNL     1      16.609  73.915  60.830  1.00  0.00     0.132 C 
HETATM   11  C7  UNL     1      16.843  75.372  60.615  1.00  0.00     0.133 C 
HETATM   12  N4  UNL     1      17.733  73.451  61.616  1.00  0.00    -0.315 N 
HETATM   13  N3  UNL     1      18.087  75.716  61.243  1.00  0.00    -0.334 N 
HETATM   14  C8  UNL     1      18.424  74.607  62.080  1.00  0.00     0.320 C 
ATOM     15  H3  UNL     1      18.622  76.575  61.117  1.00  0.00     0.164 HD
HETATM   16  O2  UNL     1      19.218  74.690  63.069  1.00  0.00    -0.247 OA
HETATM   17  C13 UNL     1      16.376  76.946  58.727  1.00  0.00     0.034 C 
ATOM     18  H1  UNL     1      14.870  72.421  57.479  1.00  0.00     0.165 HD
BRANCH  12  19
HETATM   19  C9  UNL     1      18.147  72.104  61.921  1.00  0.00     0.221 C 
HETATM   20  C10 UNL     1      19.162  71.634  60.963  1.00  0.00    -0.098 C 
HETATM   21  C11 UNL     1      20.007  71.240  60.191  1.00  0.00     0.014 C 
ENDBRANCH  12  19
ENDBRANCH   3   4
TORSDOF 2
ENDMDL
MODEL 4
REMARK VINA RESULT: -6.670061267      4.283      6.909
REMARK  2 active torsions:
REMARK  status: ('A' for Active; 'I' for Inactive)
REMARK    1  A    between atoms: C3_3  and  N1_4 
REMARK       I    between atoms: N1_4  and  C4_6 
REMARK       I    between atoms: C4_6  and  N2_8 
REMARK    2  A    between atoms: N4_16  and  C9_17 
ROOT
HETATM    1  C1  UNL     1      19.189  73.205  62.003  1.00  0.00     0.014 C 
HETATM    2  C2  UNL     1      19.327  72.355  61.156  1.00  0.00    -0.098 C 
HETATM    3  C3  UNL     1      19.500  71.343  60.116  1.00  0.00     0.217 C 
ENDROOT
BRANCH   3   4
HETATM    4  N1  UNL     1      18.379  71.359  59.234  1.00  0.00    -0.333 N 
HETATM    5  C4  UNL     1      18.545  71.458  57.816  1.00  0.00     0.319 C 
HETATM    6  O1  UNL     1      19.716  71.530  57.367  1.00  0.00    -0.247 OA
HETATM    7  N2  UNL     1      17.465  71.476  56.923  1.00  0.00    -0.326 N 
HETATM    8  C5  UNL     1      16.025  71.406  57.228  1.00  0.00     0.155 C 
HETATM    9  C12 UNL     1      17.532  71.572  55.489  1.00  0.00     0.109 C 
HETATM   10  C6  UNL     1      15.460  70.500  56.168  1.00  0.00     0.132 C 
HETATM   11  C7  UNL     1      16.427  70.643  55.042  1.00  0.00     0.133 C 
HETATM   12  N4  UNL     1      14.191  70.977  55.656  1.00  0.00    -0.315 N 
HETATM   13  N3  UNL     1      15.724  71.215  53.928  1.00  0.00    -0.334 N 
HETATM   14  C8  UNL     1      14.335  71.112  54.246  1.00  0.00     0.320 C 
ATOM     15  H3  UNL     1      16.134  71.613  53.083  1.00  0.00     0.164 HD
HETATM   16  O2  UNL     1      13.411  71.141  53.372  1.00  0.00    -0.247 OA
HETATM   17  C13 UNL     1      18.858  71.217  54.903  1.00  0.00     0.034 C 
ATOM     18  H1  UNL     1      17.438  71.298  59.623  1.00  0.00     0.165 HD
BRANCH  12  19
HETATM   19  C9  UNL     1      12.972  71.281  56.363  1.00  0.00     0.221 C 
HETATM   20  C10 UNL     1      12.711  72.730  56.365  1.00  0.00    -0.098 C 
HETATM   21  C11 UNL     1      12.477  73.918  56.363  1.00  0.00     0.014 C 
ENDBRANCH  12  19
ENDBRANCH   3   4
TORSDOF 2
ENDMDL
MODEL 5
REMARK VINA RESULT: -6.589404495      2.722      3.303
REMARK  2 active torsions:
REMARK  status: ('A' for Active; 'I' for Inactive)
REMARK    1  A    between atoms: C3_3  and  N1_4 
REMARK       I    between atoms: N1_4  and  C4_6 
REMARK       I    between atoms: C4_6  and  N2_8 
REMARK    2  A    between atoms: N4_16  and  C9_17 
ROOT
HETATM    1  C1  UNL     1      21.089  68.011  54.414  1.00  0.00     0.014 C 
HETATM    2  C2  UNL     1      20.936  69.210  54.429  1.00  0.00    -0.098 C 
HETATM    3  C3  UNL     1      20.770  70.661  54.461  1.00  0.00     0.217 C 
ENDROOT
BRANCH   3   4
HETATM    4  N1  UNL     1      20.235  71.060  55.721  1.00  0.00    -0.333 N 
HETATM    5  C4  UNL     1      19.141  71.978  55.812  1.00  0.00     0.319 C 
HETATM    6  O1  UNL     1      18.662  72.427  54.741  1.00  0.00    -0.247 OA
HETATM    7  N2  UNL     1      18.593  72.390  57.034  1.00  0.00    -0.326 N 
HETATM    8  C5  UNL     1      18.995  71.997  58.395  1.00  0.00     0.155 C 
HETATM    9  C12 UNL     1      17.499  73.305  57.225  1.00  0.00     0.109 C 
HETATM   10  C6  UNL     1      17.697  71.815  59.135  1.00  0.00     0.132 C 
HETATM   11  C7  UNL     1      16.750  72.690  58.386  1.00  0.00     0.133 C 
HETATM   12  N4  UNL     1      17.749  72.356  60.478  1.00  0.00    -0.315 N 
HETATM   13  N3  UNL     1      16.299  73.719  59.280  1.00  0.00    -0.334 N 
HETATM   14  C8  UNL     1      16.686  73.297  60.590  1.00  0.00     0.320 C 
ATOM     15  H3  UNL     1      15.804  74.575  59.031  1.00  0.00     0.164 HD
HETATM   16  O2  UNL     1      16.138  73.723  61.655  1.00  0.00    -0.247 OA
HETATM   17  C13 UNL     1      16.637  73.504  56.022  1.00  0.00     0.034 C 
ATOM     18  H1  UNL     1      20.640  70.681  56.577  1.00  0.00     0.165 HD
BRANCH  12  19
HETATM   19  C9  UNL     1      18.661  72.058  61.553  1.00  0.00     0.221 C 
HETATM   20  C10 UNL     1      19.103  73.290  62.228  1.00  0.00    -0.098 C 
HETATM   21  C11 UNL     1      19.464  74.293  62.800  1.00  0.00     0.014 C 
ENDBRANCH  12  19
ENDBRANCH   3   4
TORSDOF 2
ENDMDL
