MODEL 1
REMARK VINA RESULT: -5.412387513      0.000      0.000
REMARK  6 active torsions:
REMARK  status: ('A' for Active; 'I' for Inactive)
REMARK    1  A    between atoms: N1_2  and  C3_4 
REMARK    2  A    between atoms: C3_4  and  N2_6 
REMARK       I    between atoms: C4_8  and  N4_10 
REMARK    3  A    between atoms: N4_10  and  C5_12 
REMARK    4  A    between atoms: C5_12  and  C6_13 
REMARK    5  A    between atoms: C7_14  and  C8_15 
REMARK    6  A    between atoms: C8_15  and  N5_16 
ROOT
HETATM    1  N2  UNL     1      17.537  74.909  62.287  1.00  0.00    -0.307 N 
ATOM      2  H2  UNL     1      16.914  75.286  63.001  1.00  0.00     0.171 HD
HETATM    3  C4  UNL     1      18.260  74.009  62.740  1.00  0.00     0.191 C 
HETATM    4  N3  UNL     1      18.041  73.716  64.172  1.00  0.00    -0.063 NA
HETATM    5  N4  UNL     1      19.269  73.227  62.115  1.00  0.00    -0.354 N 
ATOM      6  H4  UNL     1      20.198  73.634  62.007  1.00  0.00     0.163 HD
ENDROOT
BRANCH   5   7
HETATM    7  C5  UNL     1      19.046  71.890  61.623  1.00  0.00     0.216 C 
BRANCH   7   8
HETATM    8  C6  UNL     1      19.041  71.821  60.150  1.00  0.00    -0.085 C 
HETATM    9  C7  UNL     1      19.056  71.734  58.939  1.00  0.00    -0.077 C 
BRANCH   9  10
HETATM   10  C8  UNL     1      19.110  71.608  57.459  1.00  0.00     0.329 C 
BRANCH  10  11
HETATM   11  N5  UNL     1      18.159  72.496  56.875  1.00  0.00    -0.069 N 
HETATM   12  C9  UNL     1      18.346  73.891  57.203  1.00  0.00     0.272 C 
HETATM   13  C10 UNL     1      16.771  72.142  57.111  1.00  0.00     0.272 C 
HETATM   14  C11 UNL     1      18.336  72.378  55.416  1.00  0.00     0.272 C 
ENDBRANCH  10  11
ENDBRANCH   9  10
ENDBRANCH   7   8
ENDBRANCH   5   7
BRANCH   1  15
HETATM   15  C3  UNL     1      17.354  75.536  61.065  1.00  0.00     0.175 C 
HETATM   16  S1  UNL     1      18.282  76.814  60.658  1.00  0.00    -0.041 SA
BRANCH  15  17
HETATM   17  N1  UNL     1      16.340  75.074  60.132  1.00  0.00    -0.367 N 
HETATM   18  C1  UNL     1      15.818  75.915  59.090  1.00  0.00     0.151 C 
HETATM   19  C2  UNL     1      15.859  73.728  60.278  1.00  0.00     0.151 C 
ENDBRANCH  15  17
ENDBRANCH   1  15
TORSDOF 6
ENDMDL
MODEL 2
REMARK VINA RESULT: -5.303917910      3.831      6.616
REMARK  6 active torsions:
REMARK  status: ('A' for Active; 'I' for Inactive)
REMARK    1  A    between atoms: N1_2  and  C3_4 
REMARK    2  A    between atoms: C3_4  and  N2_6 
REMARK       I    between atoms: C4_8  and  N4_10 
REMARK    3  A    between atoms: N4_10  and  C5_12 
REMARK    4  A    between atoms: C5_12  and  C6_13 
REMARK    5  A    between atoms: C7_14  and  C8_15 
REMARK    6  A    between atoms: C8_15  and  N5_16 
ROOT
HETATM    1  N2  UNL     1      15.321  69.393  55.451  1.00  0.00    -0.307 N 
ATOM      2  H2  UNL     1      15.089  68.498  55.020  1.00  0.00     0.171 HD
HETATM    3  C4  UNL     1      16.065  69.249  56.433  1.00  0.00     0.191 C 
HETATM    4  N3  UNL     1      16.420  67.845  56.725  1.00  0.00    -0.063 NA
HETATM    5  N4  UNL     1      16.617  70.207  57.326  1.00  0.00    -0.354 N 
ATOM      6  H4  UNL     1      16.031  70.556  58.084  1.00  0.00     0.163 HD
ENDROOT
BRANCH   5   7
HETATM    7  C5  UNL     1      17.963  70.712  57.215  1.00  0.00     0.216 C 
BRANCH   7   8
HETATM    8  C6  UNL     1      18.445  71.322  58.469  1.00  0.00    -0.085 C 
HETATM    9  C7  UNL     1      18.854  71.793  59.510  1.00  0.00    -0.077 C 
BRANCH   9  10
HETATM   10  C8  UNL     1      19.351  72.333  60.802  1.00  0.00     0.329 C 
BRANCH  10  11
HETATM   11  N5  UNL     1      18.396  73.251  61.329  1.00  0.00    -0.069 N 
HETATM   12  C9  UNL     1      17.148  72.656  61.750  1.00  0.00     0.272 C 
HETATM   13  C10 UNL     1      18.108  74.387  60.474  1.00  0.00     0.272 C 
HETATM   14  C11 UNL     1      19.014  73.833  62.535  1.00  0.00     0.272 C 
ENDBRANCH  10  11
ENDBRANCH   9  10
ENDBRANCH   7   8
ENDBRANCH   5   7
BRANCH   1  15
HETATM   15  C3  UNL     1      14.723  70.452  54.786  1.00  0.00     0.175 C 
HETATM   16  S1  UNL     1      15.584  71.332  53.717  1.00  0.00    -0.041 SA
BRANCH  15  17
HETATM   17  N1  UNL     1      13.332  70.797  55.027  1.00  0.00    -0.367 N 
HETATM   18  C1  UNL     1      12.891  71.379  56.265  1.00  0.00     0.151 C 
HETATM   19  C2  UNL     1      12.386  70.536  53.978  1.00  0.00     0.151 C 
ENDBRANCH  15  17
ENDBRANCH   1  15
TORSDOF 6
ENDMDL
MODEL 3
REMARK VINA RESULT: -5.278815641      2.888      4.330
REMARK  6 active torsions:
REMARK  status: ('A' for Active; 'I' for Inactive)
REMARK    1  A    between atoms: N1_2  and  C3_4 
REMARK    2  A    between atoms: C3_4  and  N2_6 
REMARK       I    between atoms: C4_8  and  N4_10 
REMARK    3  A    between atoms: N4_10  and  C5_12 
REMARK    4  A    between atoms: C5_12  and  C6_13 
REMARK    5  A    between atoms: C7_14  and  C8_15 
REMARK    6  A    between atoms: C8_15  and  N5_16 
ROOT
HETATM    1  N2  UNL     1      18.040  73.019  61.224  1.00  0.00    -0.307 N 
ATOM      2  H2  UNL     1      18.154  72.456  62.067  1.00  0.00     0.171 HD
HETATM    3  C4  UNL     1      17.535  74.123  61.477  1.00  0.00     0.191 C 
HETATM    4  N3  UNL     1      17.232  74.341  62.906  1.00  0.00    -0.063 NA
HETATM    5  N4  UNL     1      17.190  75.202  60.618  1.00  0.00    -0.354 N 
ATOM      6  H4  UNL     1      16.310  75.150  60.106  1.00  0.00     0.163 HD
ENDROOT
BRANCH   5   7
HETATM    7  C5  UNL     1      18.020  76.366  60.433  1.00  0.00     0.216 C 
BRANCH   7   8
HETATM    8  C6  UNL     1      17.998  76.864  59.045  1.00  0.00    -0.085 C 
HETATM    9  C7  UNL     1      17.956  77.248  57.894  1.00  0.00    -0.077 C 
BRANCH   9  10
HETATM   10  C8  UNL     1      17.896  77.679  56.473  1.00  0.00     0.329 C 
BRANCH  10  11
HETATM   11  N5  UNL     1      16.651  77.273  55.909  1.00  0.00    -0.069 N 
HETATM   12  C9  UNL     1      15.480  77.728  56.624  1.00  0.00     0.272 C 
HETATM   13  C10 UNL     1      16.526  75.847  55.670  1.00  0.00     0.272 C 
HETATM   14  C11 UNL     1      16.592  77.887  54.569  1.00  0.00     0.272 C 
ENDBRANCH  10  11
ENDBRANCH   9  10
ENDBRANCH   7   8
ENDBRANCH   5   7
BRANCH   1  15
HETATM   15  C3  UNL     1      18.490  72.349  60.097  1.00  0.00     0.175 C 
HETATM   16  S1  UNL     1      19.762  71.334  60.208  1.00  0.00    -0.041 SA
BRANCH  15  17
HETATM   17  N1  UNL     1      17.847  72.539  58.808  1.00  0.00    -0.367 N 
HETATM   18  C1  UNL     1      18.400  73.395  57.795  1.00  0.00     0.151 C 
HETATM   19  C2  UNL     1      16.618  71.837  58.564  1.00  0.00     0.151 C 
ENDBRANCH  15  17
ENDBRANCH   1  15
TORSDOF 6
ENDMDL
MODEL 4
REMARK VINA RESULT: -5.259191487      2.554      4.254
REMARK  6 active torsions:
REMARK  status: ('A' for Active; 'I' for Inactive)
REMARK    1  A    between atoms: N1_2  and  C3_4 
REMARK    2  A    between atoms: C3_4  and  N2_6 
REMARK       I    between atoms: C4_8  and  N4_10 
REMARK    3  A    between atoms: N4_10  and  C5_12 
REMARK    4  A    between atoms: C5_12  and  C6_13 
REMARK    5  A    between atoms: C7_14  and  C8_15 
REMARK    6  A    between atoms: C8_15  and  N5_16 
ROOT
HETATM    1  N2  UNL     1      17.773  73.153  61.057  1.00  0.00    -0.307 N 
ATOM      2  H2  UNL     1      18.034  72.446  61.745  1.00  0.00     0.171 HD
HETATM    3  C4  UNL     1      17.518  74.241  61.594  1.00  0.00     0.191 C 
HETATM    4  N3  UNL     1      17.654  74.240  63.065  1.00  0.00    -0.063 NA
HETATM    5  N4  UNL     1      17.106  75.479  61.029  1.00  0.00    -0.354 N 
ATOM      6  H4  UNL     1      16.121  75.599  60.797  1.00  0.00     0.163 HD
ENDROOT
BRANCH   5   7
HETATM    7  C5  UNL     1      18.009  76.572  60.768  1.00  0.00     0.216 C 
BRANCH   7   8
HETATM    8  C6  UNL     1      18.090  76.910  59.334  1.00  0.00    -0.085 C 
HETATM    9  C7  UNL     1      18.125  77.204  58.157  1.00  0.00    -0.077 C 
BRANCH   9  10
HETATM   10  C8  UNL     1      18.127  77.564  56.715  1.00  0.00     0.329 C 
BRANCH  10  11
HETATM   11  N5  UNL     1      17.918  76.388  55.936  1.00  0.00    -0.069 N 
HETATM   12  C9  UNL     1      16.586  75.834  56.014  1.00  0.00     0.272 C 
HETATM   13  C10 UNL     1      18.880  75.326  56.166  1.00  0.00     0.272 C 
HETATM   14  C11 UNL     1      18.127  76.789  54.532  1.00  0.00     0.272 C 
ENDBRANCH  10  11
ENDBRANCH   9  10
ENDBRANCH   7   8
ENDBRANCH   5   7
BRANCH   1  15
HETATM   15  C3  UNL     1      17.796  72.645  59.768  1.00  0.00     0.175 C 
HETATM   16  S1  UNL     1      16.683  73.133  58.681  1.00  0.00    -0.041 SA
BRANCH  15  17
HETATM   17  N1  UNL     1      18.801  71.676  59.363  1.00  0.00    -0.367 N 
HETATM   18  C1  UNL     1      19.680  71.045  60.310  1.00  0.00     0.151 C 
HETATM   19  C2  UNL     1      18.900  71.357  57.966  1.00  0.00     0.151 C 
ENDBRANCH  15  17
ENDBRANCH   1  15
TORSDOF 6
ENDMDL
MODEL 5
REMARK VINA RESULT: -5.213797599      1.367      2.110
REMARK  6 active torsions:
REMARK  status: ('A' for Active; 'I' for Inactive)
REMARK    1  A    between atoms: N1_2  and  C3_4 
REMARK    2  A    between atoms: C3_4  and  N2_6 
REMARK       I    between atoms: C4_8  and  N4_10 
REMARK    3  A    between atoms: N4_10  and  C5_12 
REMARK    4  A    between atoms: C5_12  and  C6_13 
REMARK    5  A    between atoms: C7_14  and  C8_15 
REMARK    6  A    between atoms: C8_15  and  N5_16 
ROOT
HETATM    1  N2  UNL     1      16.549  75.052  60.536  1.00  0.00    -0.307 N 
ATOM      2  H2  UNL     1      15.746  74.708  60.009  1.00  0.00     0.171 HD
HETATM    3  C4  UNL     1      16.747  74.380  61.558  1.00  0.00     0.191 C 
HETATM    4  N3  UNL     1      15.789  73.272  61.753  1.00  0.00    -0.063 NA
HETATM    5  N4  UNL     1      17.732  74.507  62.575  1.00  0.00    -0.354 N 
ATOM      6  H4  UNL     1      17.581  75.198  63.310  1.00  0.00     0.163 HD
ENDROOT
BRANCH   5   7
HETATM    7  C5  UNL     1      18.934  73.713  62.621  1.00  0.00     0.216 C 
BRANCH   7   8
HETATM    8  C6  UNL     1      19.107  72.876  61.418  1.00  0.00    -0.085 C 
HETATM    9  C7  UNL     1      19.226  72.209  60.411  1.00  0.00    -0.077 C 
BRANCH   9  10
HETATM   10  C8  UNL     1      19.334  71.403  59.168  1.00  0.00     0.329 C 
BRANCH  10  11
HETATM   11  N5  UNL     1      18.365  71.857  58.226  1.00  0.00    -0.069 N 
HETATM   12  C9  UNL     1      18.559  73.210  57.756  1.00  0.00     0.272 C 
HETATM   13  C10 UNL     1      16.985  71.703  58.648  1.00  0.00     0.272 C 
HETATM   14  C11 UNL     1      18.499  70.979  57.049  1.00  0.00     0.272 C 
ENDBRANCH  10  11
ENDBRANCH   9  10
ENDBRANCH   7   8
ENDBRANCH   5   7
BRANCH   1  15
HETATM   15  C3  UNL     1      17.133  76.148  59.921  1.00  0.00     0.175 C 
HETATM   16  S1  UNL     1      18.386  76.911  60.634  1.00  0.00    -0.041 SA
BRANCH  15  17
HETATM   17  N1  UNL     1      16.645  76.636  58.641  1.00  0.00    -0.367 N 
HETATM   18  C1  UNL     1      15.266  76.519  58.254  1.00  0.00     0.151 C 
HETATM   19  C2  UNL     1      17.593  77.250  57.754  1.00  0.00     0.151 C 
ENDBRANCH  15  17
ENDBRANCH   1  15
TORSDOF 6
ENDMDL
