MODEL 1
REMARK VINA RESULT: -6.673521226      0.000      0.000
REMARK  7 active torsions:
REMARK  status: ('A' for Active; 'I' for Inactive)
REMARK    1  A    between atoms: C3_3  and  N1_4 
REMARK    2  A    between atoms: C3_3  and  C4_8 
REMARK    3  A    between atoms: N1_4  and  N2_5 
REMARK       I    between atoms: C4_8  and  N3_10 
REMARK       I    between atoms: N3_10  and  C5_12 
REMARK       I    between atoms: C5_12  and  N4_14 
REMARK    4  A    between atoms: N4_14  and  C6_16 
REMARK    5  A    between atoms: C6_16  and  C7_17 
REMARK    6  A    between atoms: C8_18  and  C9_19 
REMARK    7  A    between atoms: C10_20  and  C11_21 
ROOT
HETATM    1  C1  UNL     1      14.044  83.042  52.872  1.00  0.00     0.021 C 
HETATM    2  C2  UNL     1      13.537  82.235  53.625  1.00  0.00    -0.037 C 
HETATM    3  C3  UNL     1      12.938  81.306  54.533  1.00  0.00     0.250 C 
ENDROOT
BRANCH   3   4
HETATM    4  N1  UNL     1      11.919  81.683  55.190  1.00  0.00    -0.318 NA
BRANCH   4   5
HETATM    5  N2  UNL     1      10.729  81.791  55.569  1.00  0.00    -0.279 N 
ATOM      6  H22 UNL     1      10.492  82.582  54.970  1.00  0.00     0.191 HD
ATOM      7  H21 UNL     1       9.859  81.615  56.070  1.00  0.00     0.191 HD
ENDBRANCH   4   5
ENDBRANCH   3   4
BRANCH   3   8
HETATM    8  C4  UNL     1      13.440  80.002  54.696  1.00  0.00     0.301 C 
HETATM    9  O1  UNL     1      13.725  79.189  53.929  1.00  0.00    -0.264 OA
HETATM   10  N3  UNL     1      13.646  79.608  56.366  1.00  0.00    -0.272 N 
HETATM   11  C5  UNL     1      14.131  78.355  56.156  1.00  0.00     0.323 C 
ATOM     12  H3  UNL     1      13.466  80.136  57.220  1.00  0.00     0.174 HD
HETATM   13  O2  UNL     1      14.370  77.750  55.087  1.00  0.00    -0.247 OA
HETATM   14  N4  UNL     1      14.438  77.534  57.364  1.00  0.00    -0.332 N 
ATOM     15  H4  UNL     1      14.285  77.935  58.290  1.00  0.00     0.165 HD
BRANCH  14  16
HETATM   16  C6  UNL     1      14.937  76.206  57.257  1.00  0.00     0.219 C 
BRANCH  16  17
HETATM   17  C7  UNL     1      15.603  75.737  58.487  1.00  0.00    -0.073 C 
HETATM   18  C8  UNL     1      16.123  75.343  59.495  1.00  0.00    -0.013 C 
BRANCH  18  19
HETATM   19  C9  UNL     1      16.748  74.868  60.667  1.00  0.00    -0.015 C 
HETATM   20  C10 UNL     1      17.303  74.463  61.658  1.00  0.00    -0.088 C 
BRANCH  20  21
HETATM   21  C11 UNL     1      17.988  73.938  62.866  1.00  0.00     0.058 C 
HETATM   22  C12 UNL     1      19.432  74.327  62.800  1.00  0.00     0.023 C 
HETATM   23  C13 UNL     1      17.832  72.421  62.951  1.00  0.00     0.023 C 
ENDBRANCH  20  21
ENDBRANCH  18  19
ENDBRANCH  16  17
ENDBRANCH  14  16
ENDBRANCH   3   8
TORSDOF 7
ENDMDL
MODEL 2
REMARK VINA RESULT: -6.596075350      3.907      9.515
REMARK  7 active torsions:
REMARK  status: ('A' for Active; 'I' for Inactive)
REMARK    1  A    between atoms: C3_3  and  N1_4 
REMARK    2  A    between atoms: C3_3  and  C4_8 
REMARK    3  A    between atoms: N1_4  and  N2_5 
REMARK       I    between atoms: C4_8  and  N3_10 
REMARK       I    between atoms: N3_10  and  C5_12 
REMARK       I    between atoms: C5_12  and  N4_14 
REMARK    4  A    between atoms: N4_14  and  C6_16 
REMARK    5  A    between atoms: C6_16  and  C7_17 
REMARK    6  A    between atoms: C8_18  and  C9_19 
REMARK    7  A    between atoms: C10_20  and  C11_21 
ROOT
HETATM    1  C1  UNL     1      19.375  74.260  63.025  1.00  0.00     0.021 C 
HETATM    2  C2  UNL     1      18.572  74.567  62.168  1.00  0.00    -0.037 C 
HETATM    3  C3  UNL     1      17.619  74.900  61.155  1.00  0.00     0.250 C 
ENDROOT
BRANCH   3   4
HETATM    4  N1  UNL     1      16.477  74.346  61.202  1.00  0.00    -0.318 NA
BRANCH   4   5
HETATM    5  N2  UNL     1      15.572  73.520  61.470  1.00  0.00    -0.279 N 
ATOM      6  H22 UNL     1      15.277  73.957  62.343  1.00  0.00     0.191 HD
ATOM      7  H21 UNL     1      14.950  72.716  61.394  1.00  0.00     0.191 HD
ENDBRANCH   4   5
ENDBRANCH   3   4
BRANCH   3   8
HETATM    8  C4  UNL     1      17.913  75.824  60.137  1.00  0.00     0.301 C 
HETATM    9  O1  UNL     1      18.380  76.879  60.170  1.00  0.00    -0.264 OA
HETATM   10  N3  UNL     1      17.477  75.212  58.580  1.00  0.00    -0.272 N 
HETATM   11  C5  UNL     1      17.893  76.300  57.879  1.00  0.00     0.323 C 
ATOM     12  H3  UNL     1      17.052  74.332  58.287  1.00  0.00     0.174 HD
HETATM   13  O2  UNL     1      18.442  77.352  58.273  1.00  0.00    -0.247 OA
HETATM   14  N4  UNL     1      17.677  76.279  56.403  1.00  0.00    -0.332 N 
ATOM     15  H4  UNL     1      17.241  75.461  55.975  1.00  0.00     0.165 HD
BRANCH  14  16
HETATM   16  C6  UNL     1      18.063  77.372  55.576  1.00  0.00     0.219 C 
BRANCH  16  17
HETATM   17  C7  UNL     1      16.936  78.254  55.219  1.00  0.00    -0.073 C 
HETATM   18  C8  UNL     1      16.029  78.990  54.941  1.00  0.00    -0.013 C 
BRANCH  18  19
HETATM   19  C9  UNL     1      14.971  79.855  54.594  1.00  0.00    -0.015 C 
HETATM   20  C10 UNL     1      14.073  80.594  54.275  1.00  0.00    -0.088 C 
BRANCH  20  21
HETATM   21  C11 UNL     1      12.986  81.526  53.881  1.00  0.00     0.058 C 
HETATM   22  C12 UNL     1      13.604  82.746  53.271  1.00  0.00     0.023 C 
HETATM   23  C13 UNL     1      12.132  81.892  55.094  1.00  0.00     0.023 C 
ENDBRANCH  20  21
ENDBRANCH  18  19
ENDBRANCH  16  17
ENDBRANCH  14  16
ENDBRANCH   3   8
TORSDOF 7
ENDMDL
MODEL 3
REMARK VINA RESULT: -6.471750132      4.723      6.477
REMARK  7 active torsions:
REMARK  status: ('A' for Active; 'I' for Inactive)
REMARK    1  A    between atoms: C3_3  and  N1_4 
REMARK    2  A    between atoms: C3_3  and  C4_8 
REMARK    3  A    between atoms: N1_4  and  N2_5 
REMARK       I    between atoms: C4_8  and  N3_10 
REMARK       I    between atoms: N3_10  and  C5_12 
REMARK       I    between atoms: C5_12  and  N4_14 
REMARK    4  A    between atoms: N4_14  and  C6_16 
REMARK    5  A    between atoms: C6_16  and  C7_17 
REMARK    6  A    between atoms: C8_18  and  C9_19 
REMARK    7  A    between atoms: C10_20  and  C11_21 
ROOT
HETATM    1  C1  UNL     1      10.512  72.096  51.345  1.00  0.00     0.021 C 
HETATM    2  C2  UNL     1      11.174  71.946  52.352  1.00  0.00    -0.037 C 
HETATM    3  C3  UNL     1      11.931  71.753  53.550  1.00  0.00     0.250 C 
ENDROOT
BRANCH   3   4
HETATM    4  N1  UNL     1      11.966  70.588  54.054  1.00  0.00    -0.318 NA
BRANCH   4   5
HETATM    5  N2  UNL     1      12.294  69.626  54.789  1.00  0.00    -0.279 N 
ATOM      6  H22 UNL     1      13.014  69.253  54.170  1.00  0.00     0.191 HD
ATOM      7  H21 UNL     1      12.315  68.982  55.579  1.00  0.00     0.191 HD
ENDBRANCH   4   5
ENDBRANCH   3   4
BRANCH   3   8
HETATM    8  C4  UNL     1      12.636  72.808  54.158  1.00  0.00     0.301 C 
HETATM    9  O1  UNL     1      13.435  73.532  53.749  1.00  0.00    -0.264 OA
HETATM   10  N3  UNL     1      12.178  73.003  55.814  1.00  0.00    -0.272 N 
HETATM   11  C5  UNL     1      13.000  74.056  56.063  1.00  0.00     0.323 C 
ATOM     12  H3  UNL     1      11.515  72.498  56.403  1.00  0.00     0.174 HD
HETATM   13  O2  UNL     1      13.778  74.672  55.302  1.00  0.00    -0.247 OA
HETATM   14  N4  UNL     1      13.008  74.595  57.455  1.00  0.00    -0.332 N 
ATOM     15  H4  UNL     1      12.403  74.170  58.157  1.00  0.00     0.165 HD
BRANCH  14  16
HETATM   16  C6  UNL     1      13.841  75.689  57.827  1.00  0.00     0.219 C 
BRANCH  16  17
HETATM   17  C7  UNL     1      14.926  75.302  58.750  1.00  0.00    -0.073 C 
HETATM   18  C8  UNL     1      15.791  74.981  59.517  1.00  0.00    -0.013 C 
BRANCH  18  19
HETATM   19  C9  UNL     1      16.813  74.587  60.406  1.00  0.00    -0.015 C 
HETATM   20  C10 UNL     1      17.670  74.243  61.181  1.00  0.00    -0.088 C 
BRANCH  20  21
HETATM   21  C11 UNL     1      18.721  73.843  62.150  1.00  0.00     0.058 C 
HETATM   22  C12 UNL     1      19.572  72.786  61.517  1.00  0.00     0.023 C 
HETATM   23  C13 UNL     1      18.088  73.335  63.444  1.00  0.00     0.023 C 
ENDBRANCH  20  21
ENDBRANCH  18  19
ENDBRANCH  16  17
ENDBRANCH  14  16
ENDBRANCH   3   8
TORSDOF 7
ENDMDL
MODEL 4
REMARK VINA RESULT: -6.405670395      3.699      9.827
REMARK  7 active torsions:
REMARK  status: ('A' for Active; 'I' for Inactive)
REMARK    1  A    between atoms: C3_3  and  N1_4 
REMARK    2  A    between atoms: C3_3  and  C4_8 
REMARK    3  A    between atoms: N1_4  and  N2_5 
REMARK       I    between atoms: C4_8  and  N3_10 
REMARK       I    between atoms: N3_10  and  C5_12 
REMARK       I    between atoms: C5_12  and  N4_14 
REMARK    4  A    between atoms: N4_14  and  C6_16 
REMARK    5  A    between atoms: C6_16  and  C7_17 
REMARK    6  A    between atoms: C8_18  and  C9_19 
REMARK    7  A    between atoms: C10_20  and  C11_21 
ROOT
HETATM    1  C1  UNL     1      19.533  74.269  62.791  1.00  0.00     0.021 C 
HETATM    2  C2  UNL     1      18.671  74.104  61.952  1.00  0.00    -0.037 C 
HETATM    3  C3  UNL     1      17.651  73.880  60.974  1.00  0.00     0.250 C 
ENDROOT
BRANCH   3   4
HETATM    4  N1  UNL     1      16.588  73.291  61.341  1.00  0.00    -0.318 NA
BRANCH   4   5
HETATM    5  N2  UNL     1      15.823  72.457  61.880  1.00  0.00    -0.279 N 
ATOM      6  H22 UNL     1      15.248  73.136  62.377  1.00  0.00     0.191 HD
ATOM      7  H21 UNL     1      15.404  71.565  62.144  1.00  0.00     0.191 HD
ENDBRANCH   4   5
ENDBRANCH   3   4
BRANCH   3   8
HETATM    8  C4  UNL     1      17.798  74.307  59.642  1.00  0.00     0.301 C 
HETATM    9  O1  UNL     1      18.106  73.741  58.685  1.00  0.00    -0.264 OA
HETATM   10  N3  UNL     1      17.436  75.989  59.473  1.00  0.00    -0.272 N 
HETATM   11  C5  UNL     1      17.657  76.046  58.132  1.00  0.00     0.323 C 
ATOM     12  H3  UNL     1      17.153  76.698  60.149  1.00  0.00     0.174 HD
HETATM   13  O2  UNL     1      17.973  75.143  57.326  1.00  0.00    -0.247 OA
HETATM   14  N4  UNL     1      17.512  77.378  57.477  1.00  0.00    -0.332 N 
ATOM     15  H4  UNL     1      17.248  78.186  58.043  1.00  0.00     0.165 HD
BRANCH  14  16
HETATM   16  C6  UNL     1      17.732  77.552  56.081  1.00  0.00     0.219 C 
BRANCH  16  17
HETATM   17  C7  UNL     1      16.761  78.469  55.452  1.00  0.00    -0.073 C 
HETATM   18  C8  UNL     1      15.957  79.212  54.961  1.00  0.00    -0.013 C 
BRANCH  18  19
HETATM   19  C9  UNL     1      15.027  80.102  54.385  1.00  0.00    -0.015 C 
HETATM   20  C10 UNL     1      14.235  80.878  53.911  1.00  0.00    -0.088 C 
BRANCH  20  21
HETATM   21  C11 UNL     1      13.239  81.824  53.345  1.00  0.00     0.058 C 
HETATM   22  C12 UNL     1      13.964  83.043  52.865  1.00  0.00     0.023 C 
HETATM   23  C13 UNL     1      12.192  82.187  54.396  1.00  0.00     0.023 C 
ENDBRANCH  20  21
ENDBRANCH  18  19
ENDBRANCH  16  17
ENDBRANCH  14  16
ENDBRANCH   3   8
TORSDOF 7
ENDMDL
MODEL 5
REMARK VINA RESULT: -6.327085244      6.991      9.297
REMARK  7 active torsions:
REMARK  status: ('A' for Active; 'I' for Inactive)
REMARK    1  A    between atoms: C3_3  and  N1_4 
REMARK    2  A    between atoms: C3_3  and  C4_8 
REMARK    3  A    between atoms: N1_4  and  N2_5 
REMARK       I    between atoms: C4_8  and  N3_10 
REMARK       I    between atoms: N3_10  and  C5_12 
REMARK       I    between atoms: C5_12  and  N4_14 
REMARK    4  A    between atoms: N4_14  and  C6_16 
REMARK    5  A    between atoms: C6_16  and  C7_17 
REMARK    6  A    between atoms: C8_18  and  C9_19 
REMARK    7  A    between atoms: C10_20  and  C11_21 
ROOT
HETATM    1  C1  UNL     1      18.372  77.030  60.864  1.00  0.00     0.021 C 
HETATM    2  C2  UNL     1      17.850  75.935  60.808  1.00  0.00    -0.037 C 
HETATM    3  C3  UNL     1      17.254  74.636  60.767  1.00  0.00     0.250 C 
ENDROOT
BRANCH   3   4
HETATM    4  N1  UNL     1      16.911  74.099  61.865  1.00  0.00    -0.318 NA
BRANCH   4   5
HETATM    5  N2  UNL     1      16.903  73.792  63.081  1.00  0.00    -0.279 N 
ATOM      6  H22 UNL     1      17.845  74.124  63.287  1.00  0.00     0.191 HD
ATOM      7  H21 UNL     1      16.583  73.437  63.982  1.00  0.00     0.191 HD
ENDBRANCH   4   5
ENDBRANCH   3   4
BRANCH   3   8
HETATM    8  C4  UNL     1      17.031  73.963  59.552  1.00  0.00     0.301 C 
HETATM    9  O1  UNL     1      17.103  74.315  58.455  1.00  0.00    -0.264 OA
HETATM   10  N3  UNL     1      16.572  72.317  59.815  1.00  0.00    -0.272 N 
HETATM   11  C5  UNL     1      16.459  71.991  58.500  1.00  0.00     0.323 C 
ATOM     12  H3  UNL     1      16.433  71.775  60.668  1.00  0.00     0.174 HD
HETATM   13  O2  UNL     1      16.670  72.678  57.476  1.00  0.00    -0.247 OA
HETATM   14  N4  UNL     1      16.012  70.603  58.181  1.00  0.00    -0.332 N 
ATOM     15  H4  UNL     1      15.818  69.955  58.945  1.00  0.00     0.165 HD
BRANCH  14  16
HETATM   16  C6  UNL     1      15.849  70.161  56.838  1.00  0.00     0.219 C 
BRANCH  16  17
HETATM   17  C7  UNL     1      17.119  69.760  56.202  1.00  0.00    -0.073 C 
HETATM   18  C8  UNL     1      18.165  69.442  55.706  1.00  0.00    -0.013 C 
BRANCH  18  19
HETATM   19  C9  UNL     1      19.387  69.048  55.124  1.00  0.00    -0.015 C 
HETATM   20  C10 UNL     1      20.427  68.723  54.607  1.00  0.00    -0.088 C 
BRANCH  20  21
HETATM   21  C11 UNL     1      21.694  68.304  53.955  1.00  0.00     0.058 C 
HETATM   22  C12 UNL     1      21.359  67.439  52.781  1.00  0.00     0.023 C 
HETATM   23  C13 UNL     1      22.585  67.560  54.949  1.00  0.00     0.023 C 
ENDBRANCH  20  21
ENDBRANCH  18  19
ENDBRANCH  16  17
ENDBRANCH  14  16
ENDBRANCH   3   8
TORSDOF 7
ENDMDL
