MODEL 1
REMARK VINA RESULT: -7.123531868      0.000      0.000
REMARK  7 active torsions:
REMARK  status: ('A' for Active; 'I' for Inactive)
REMARK    1  A    between atoms: C3_3  and  C6_6 
REMARK    2  A    between atoms: C6_6  and  N1_7 
REMARK    3  A    between atoms: C6_6  and  C7_11 
REMARK    4  A    between atoms: N1_7  and  N2_8 
REMARK       I    between atoms: C7_11  and  N3_13 
REMARK    5  A    between atoms: C8_15  and  N4_16 
REMARK    6  A    between atoms: C8_15  and  S1_23 
REMARK    7  A    between atoms: N4_16  and  N5_18 
ROOT
HETATM    1  C1  UNL     1      17.910  76.771  60.897  1.00  0.00     0.013 C 
HETATM    2  C2  UNL     1      17.375  76.548  59.829  1.00  0.00    -0.100 C 
HETATM    3  C3  UNL     1      16.729  76.293  58.541  1.00  0.00     0.079 C 
HETATM    4  C4  UNL     1      15.654  77.311  58.226  1.00  0.00     0.037 C 
HETATM    5  C5  UNL     1      17.815  76.482  57.481  1.00  0.00     0.037 C 
ENDROOT
BRANCH   3   6
HETATM    6  C6  UNL     1      16.189  74.920  58.519  1.00  0.00     0.195 C 
BRANCH   6   7
HETATM    7  N1  UNL     1      15.113  74.726  57.911  1.00  0.00    -0.330 NA
BRANCH   7   8
HETATM    8  N2  UNL     1      14.046  74.320  57.397  1.00  0.00    -0.280 N 
ATOM      9  H22 UNL     1      13.789  73.905  58.293  1.00  0.00     0.191 HD
ATOM     10  H21 UNL     1      13.242  74.072  56.821  1.00  0.00     0.191 HD
ENDBRANCH   7   8
ENDBRANCH   6   7
BRANCH   6  11
HETATM   11  C7  UNL     1      16.846  73.795  59.165  1.00  0.00     0.287 C 
HETATM   12  O1  UNL     1      17.896  73.278  58.672  1.00  0.00    -0.265 OA
HETATM   13  N3  UNL     1      16.351  73.238  60.350  1.00  0.00    -0.300 N 
HETATM   14  C8  UNL     1      17.162  72.753  61.220  1.00  0.00     0.162 C 
ATOM     15  H3  UNL     1      15.346  73.217  60.523  1.00  0.00     0.171 HD
BRANCH  14  16
HETATM   16  N4  UNL     1      16.628  72.197  62.409  1.00  0.00    -0.266 N 
ATOM     17  H4  UNL     1      15.616  72.122  62.516  1.00  0.00     0.190 HD
BRANCH  16  18
HETATM   18  N5  UNL     1      17.456  71.750  63.436  1.00  0.00    -0.247 N 
HETATM   19  N6  UNL     1      17.046  70.947  64.299  1.00  0.00    -0.331 N 
ATOM     20  H62 UNL     1      16.082  70.620  64.237  1.00  0.00     0.178 HD
ATOM     21  H61 UNL     1      17.653  70.620  65.052  1.00  0.00     0.178 HD
ATOM     22  H5  UNL     1      18.418  72.087  63.483  1.00  0.00     0.207 HD
ENDBRANCH  16  18
ENDBRANCH  14  16
BRANCH  14  23
HETATM   23  S1  UNL     1      18.936  72.738  61.018  1.00  0.00    -0.097 SA
HETATM   24  C9  UNL     1      19.542  71.125  60.519  1.00  0.00     0.099 C 
ENDBRANCH  14  23
ENDBRANCH   6  11
ENDBRANCH   3   6
TORSDOF 7
ENDMDL
MODEL 2
REMARK VINA RESULT: -6.982551300      0.914      1.766
REMARK  7 active torsions:
REMARK  status: ('A' for Active; 'I' for Inactive)
REMARK    1  A    between atoms: C3_3  and  C6_6 
REMARK    2  A    between atoms: C6_6  and  N1_7 
REMARK    3  A    between atoms: C6_6  and  C7_11 
REMARK    4  A    between atoms: N1_7  and  N2_8 
REMARK       I    between atoms: C7_11  and  N3_13 
REMARK    5  A    between atoms: C8_15  and  N4_16 
REMARK    6  A    between atoms: C8_15  and  S1_23 
REMARK    7  A    between atoms: N4_16  and  N5_18 
ROOT
HETATM    1  C1  UNL     1      18.435  77.042  56.897  1.00  0.00     0.013 C 
HETATM    2  C2  UNL     1      17.659  76.669  57.754  1.00  0.00    -0.100 C 
HETATM    3  C3  UNL     1      16.727  76.231  58.795  1.00  0.00     0.079 C 
HETATM    4  C4  UNL     1      17.225  76.558  60.186  1.00  0.00     0.037 C 
HETATM    5  C5  UNL     1      15.455  77.056  58.595  1.00  0.00     0.037 C 
ENDROOT
BRANCH   3   6
HETATM    6  C6  UNL     1      16.461  74.787  58.647  1.00  0.00     0.195 C 
BRANCH   6   7
HETATM    7  N1  UNL     1      15.592  74.436  57.817  1.00  0.00    -0.330 NA
BRANCH   7   8
HETATM    8  N2  UNL     1      14.735  73.879  57.095  1.00  0.00    -0.280 N 
ATOM      9  H22 UNL     1      15.484  73.380  56.615  1.00  0.00     0.191 HD
ATOM     10  H21 UNL     1      13.911  73.528  56.608  1.00  0.00     0.191 HD
ENDBRANCH   7   8
ENDBRANCH   6   7
BRANCH   6  11
HETATM   11  C7  UNL     1      17.156  73.765  59.414  1.00  0.00     0.287 C 
HETATM   12  O1  UNL     1      18.350  73.437  59.135  1.00  0.00    -0.265 OA
HETATM   13  N3  UNL     1      16.541  73.106  60.484  1.00  0.00    -0.300 N 
HETATM   14  C8  UNL     1      17.239  72.735  61.497  1.00  0.00     0.162 C 
ATOM     15  H3  UNL     1      15.539  72.920  60.460  1.00  0.00     0.171 HD
BRANCH  14  16
HETATM   16  N4  UNL     1      16.586  72.070  62.564  1.00  0.00    -0.266 N 
ATOM     17  H4  UNL     1      15.576  71.934  62.525  1.00  0.00     0.190 HD
BRANCH  16  18
HETATM   18  N5  UNL     1      17.294  71.597  63.665  1.00  0.00    -0.247 N 
HETATM   19  N6  UNL     1      16.879  70.632  64.341  1.00  0.00    -0.331 N 
ATOM     20  H62 UNL     1      16.001  70.193  64.067  1.00  0.00     0.178 HD
ATOM     21  H61 UNL     1      17.398  70.286  65.148  1.00  0.00     0.178 HD
ATOM     22  H5  UNL     1      18.171  72.049  63.926  1.00  0.00     0.207 HD
ENDBRANCH  16  18
ENDBRANCH  14  16
BRANCH  14  23
HETATM   23  S1  UNL     1      18.998  73.011  61.640  1.00  0.00    -0.097 SA
HETATM   24  C9  UNL     1      19.379  74.319  62.808  1.00  0.00     0.099 C 
ENDBRANCH  14  23
ENDBRANCH   6  11
ENDBRANCH   3   6
TORSDOF 7
ENDMDL
MODEL 3
REMARK VINA RESULT: -6.741124564      3.022      4.842
REMARK  7 active torsions:
REMARK  status: ('A' for Active; 'I' for Inactive)
REMARK    1  A    between atoms: C3_3  and  C6_6 
REMARK    2  A    between atoms: C6_6  and  N1_7 
REMARK    3  A    between atoms: C6_6  and  C7_11 
REMARK    4  A    between atoms: N1_7  and  N2_8 
REMARK       I    between atoms: C7_11  and  N3_13 
REMARK    5  A    between atoms: C8_15  and  N4_16 
REMARK    6  A    between atoms: C8_15  and  S1_23 
REMARK    7  A    between atoms: N4_16  and  N5_18 
ROOT
HETATM    1  C1  UNL     1      19.928  71.349  60.469  1.00  0.00     0.013 C 
HETATM    2  C2  UNL     1      19.290  72.229  61.012  1.00  0.00    -0.100 C 
HETATM    3  C3  UNL     1      18.521  73.281  61.678  1.00  0.00     0.079 C 
HETATM    4  C4  UNL     1      17.473  72.721  62.616  1.00  0.00     0.037 C 
HETATM    5  C5  UNL     1      19.517  74.037  62.559  1.00  0.00     0.037 C 
ENDROOT
BRANCH   3   6
HETATM    6  C6  UNL     1      17.915  74.169  60.667  1.00  0.00     0.195 C 
BRANCH   6   7
HETATM    7  N1  UNL     1      17.804  75.383  60.948  1.00  0.00    -0.330 NA
BRANCH   7   8
HETATM    8  N2  UNL     1      17.723  76.631  61.001  1.00  0.00    -0.280 N 
ATOM      9  H22 UNL     1      18.738  76.680  61.086  1.00  0.00     0.191 HD
ATOM     10  H21 UNL     1      17.470  77.619  61.028  1.00  0.00     0.191 HD
ENDBRANCH   7   8
ENDBRANCH   6   7
BRANCH   6  11
HETATM   11  C7  UNL     1      17.446  73.700  59.373  1.00  0.00     0.287 C 
HETATM   12  O1  UNL     1      17.830  74.256  58.297  1.00  0.00    -0.265 OA
HETATM   13  N3  UNL     1      16.559  72.624  59.259  1.00  0.00    -0.300 N 
HETATM   14  C8  UNL     1      16.636  71.831  58.251  1.00  0.00     0.162 C 
ATOM     15  H3  UNL     1      15.851  72.468  59.977  1.00  0.00     0.171 HD
BRANCH  14  16
HETATM   16  N4  UNL     1      15.723  70.751  58.166  1.00  0.00    -0.266 N 
ATOM     17  H4  UNL     1      15.649  70.097  58.945  1.00  0.00     0.190 HD
BRANCH  16  18
HETATM   18  N5  UNL     1      14.925  70.563  57.041  1.00  0.00    -0.247 N 
HETATM   19  N6  UNL     1      13.746  70.976  57.003  1.00  0.00    -0.331 N 
ATOM     20  H62 UNL     1      13.376  71.458  57.822  1.00  0.00     0.178 HD
ATOM     21  H61 UNL     1      13.161  70.838  56.178  1.00  0.00     0.178 HD
ATOM     22  H5  UNL     1      15.310  70.078  56.231  1.00  0.00     0.207 HD
ENDBRANCH  16  18
ENDBRANCH  14  16
BRANCH  14  23
HETATM   23  S1  UNL     1      17.835  72.013  56.940  1.00  0.00    -0.097 SA
HETATM   24  C9  UNL     1      18.466  70.428  56.383  1.00  0.00     0.099 C 
ENDBRANCH  14  23
ENDBRANCH   6  11
ENDBRANCH   3   6
TORSDOF 7
ENDMDL
MODEL 4
REMARK VINA RESULT: -6.608286288      1.293      1.464
REMARK  7 active torsions:
REMARK  status: ('A' for Active; 'I' for Inactive)
REMARK    1  A    between atoms: C3_3  and  C6_6 
REMARK    2  A    between atoms: C6_6  and  N1_7 
REMARK    3  A    between atoms: C6_6  and  C7_11 
REMARK    4  A    between atoms: N1_7  and  N2_8 
REMARK       I    between atoms: C7_11  and  N3_13 
REMARK    5  A    between atoms: C8_15  and  N4_16 
REMARK    6  A    between atoms: C8_15  and  S1_23 
REMARK    7  A    between atoms: N4_16  and  N5_18 
ROOT
HETATM    1  C1  UNL     1      18.227  76.970  58.869  1.00  0.00     0.013 C 
HETATM    2  C2  UNL     1      17.170  76.758  58.308  1.00  0.00    -0.100 C 
HETATM    3  C3  UNL     1      15.897  76.515  57.628  1.00  0.00     0.079 C 
HETATM    4  C4  UNL     1      14.974  77.713  57.693  1.00  0.00     0.037 C 
HETATM    5  C5  UNL     1      16.239  76.325  56.149  1.00  0.00     0.037 C 
ENDROOT
BRANCH   3   6
HETATM    6  C6  UNL     1      15.254  75.313  58.191  1.00  0.00     0.195 C 
BRANCH   6   7
HETATM    7  N1  UNL     1      14.023  75.173  58.016  1.00  0.00    -0.330 NA
BRANCH   7   8
HETATM    8  N2  UNL     1      12.832  74.809  57.888  1.00  0.00    -0.280 N 
ATOM      9  H22 UNL     1      12.557  75.788  57.797  1.00  0.00     0.191 HD
ATOM     10  H21 UNL     1      11.932  74.337  57.802  1.00  0.00     0.191 HD
ENDBRANCH   7   8
ENDBRANCH   6   7
BRANCH   6  11
HETATM   11  C7  UNL     1      15.980  74.294  58.932  1.00  0.00     0.287 C 
HETATM   12  O1  UNL     1      16.864  73.578  58.367  1.00  0.00    -0.265 OA
HETATM   13  N3  UNL     1      15.737  74.061  60.290  1.00  0.00    -0.300 N 
HETATM   14  C8  UNL     1      16.697  73.695  61.062  1.00  0.00     0.162 C 
ATOM     15  H3  UNL     1      14.797  74.180  60.668  1.00  0.00     0.171 HD
BRANCH  14  16
HETATM   16  N4  UNL     1      16.416  73.468  62.432  1.00  0.00    -0.266 N 
ATOM     17  H4  UNL     1      15.575  72.954  62.692  1.00  0.00     0.190 HD
BRANCH  16  18
HETATM   18  N5  UNL     1      17.267  73.932  63.432  1.00  0.00    -0.247 N 
HETATM   19  N6  UNL     1      17.666  73.181  64.347  1.00  0.00    -0.331 N 
ATOM     20  H62 UNL     1      17.352  72.210  64.347  1.00  0.00     0.178 HD
ATOM     21  H61 UNL     1      18.289  73.520  65.080  1.00  0.00     0.178 HD
ATOM     22  H5  UNL     1      17.571  74.905  63.417  1.00  0.00     0.207 HD
ENDBRANCH  16  18
ENDBRANCH  14  16
BRANCH  14  23
HETATM   23  S1  UNL     1      18.377  73.457  60.505  1.00  0.00    -0.097 SA
HETATM   24  C9  UNL     1      19.056  71.895  61.069  1.00  0.00     0.099 C 
ENDBRANCH  14  23
ENDBRANCH   6  11
ENDBRANCH   3   6
TORSDOF 7
ENDMDL
MODEL 5
REMARK VINA RESULT: -6.493006079      1.440      1.542
REMARK  7 active torsions:
REMARK  status: ('A' for Active; 'I' for Inactive)
REMARK    1  A    between atoms: C3_3  and  C6_6 
REMARK    2  A    between atoms: C6_6  and  N1_7 
REMARK    3  A    between atoms: C6_6  and  C7_11 
REMARK    4  A    between atoms: N1_7  and  N2_8 
REMARK       I    between atoms: C7_11  and  N3_13 
REMARK    5  A    between atoms: C8_15  and  N4_16 
REMARK    6  A    between atoms: C8_15  and  S1_23 
REMARK    7  A    between atoms: N4_16  and  N5_18 
ROOT
HETATM    1  C1  UNL     1      17.847  76.399  60.527  1.00  0.00     0.013 C 
HETATM    2  C2  UNL     1      17.421  76.503  59.394  1.00  0.00    -0.100 C 
HETATM    3  C3  UNL     1      16.902  76.640  58.032  1.00  0.00     0.079 C 
HETATM    4  C4  UNL     1      15.611  77.429  57.986  1.00  0.00     0.037 C 
HETATM    5  C5  UNL     1      17.935  77.472  57.271  1.00  0.00     0.037 C 
ENDROOT
BRANCH   3   6
HETATM    6  C6  UNL     1      16.735  75.304  57.427  1.00  0.00     0.195 C 
BRANCH   6   7
HETATM    7  N1  UNL     1      16.099  75.226  56.353  1.00  0.00    -0.330 NA
BRANCH   7   8
HETATM    8  N2  UNL     1      15.547  74.931  55.269  1.00  0.00    -0.280 N 
ATOM      9  H22 UNL     1      15.625  75.906  54.979  1.00  0.00     0.191 HD
ATOM     10  H21 UNL     1      15.091  74.515  54.457  1.00  0.00     0.191 HD
ENDBRANCH   7   8
ENDBRANCH   6   7
BRANCH   6  11
HETATM   11  C7  UNL     1      17.272  74.089  58.018  1.00  0.00     0.287 C 
HETATM   12  O1  UNL     1      18.448  73.693  57.746  1.00  0.00    -0.265 OA
HETATM   13  N3  UNL     1      16.521  73.310  58.905  1.00  0.00    -0.300 N 
HETATM   14  C8  UNL     1      17.104  72.683  59.863  1.00  0.00     0.162 C 
ATOM     15  H3  UNL     1      15.510  73.240  58.792  1.00  0.00     0.171 HD
BRANCH  14  16
HETATM   16  N4  UNL     1      16.314  71.904  60.744  1.00  0.00    -0.266 N 
ATOM     17  H4  UNL     1      16.032  70.965  60.464  1.00  0.00     0.190 HD
BRANCH  16  18
HETATM   18  N5  UNL     1      15.915  72.394  61.985  1.00  0.00    -0.247 N 
HETATM   19  N6  UNL     1      16.335  73.487  62.418  1.00  0.00    -0.331 N 
ATOM     20  H62 UNL     1      16.983  74.020  61.839  1.00  0.00     0.178 HD
ATOM     21  H61 UNL     1      16.043  73.846  63.328  1.00  0.00     0.178 HD
ATOM     22  H5  UNL     1      15.267  71.848  62.552  1.00  0.00     0.207 HD
ENDBRANCH  16  18
ENDBRANCH  14  16
BRANCH  14  23
HETATM   23  S1  UNL     1      18.866  72.738  60.152  1.00  0.00    -0.097 SA
HETATM   24  C9  UNL     1      19.563  71.098  60.364  1.00  0.00     0.099 C 
ENDBRANCH  14  23
ENDBRANCH   6  11
ENDBRANCH   3   6
TORSDOF 7
ENDMDL
