MODEL 1
REMARK VINA RESULT: -7.129087312      0.000      0.000
REMARK  16 active torsions:
REMARK  status: ('A' for Active; 'I' for Inactive)
REMARK    1  A    between atoms: C2_2  and  C3_3 
REMARK    2  A    between atoms: C3_3  and  C4_4 
REMARK    3  A    between atoms: C4_4  and  N1_5 
REMARK       I    between atoms: N2_8  and  C7_9 
REMARK    4  A    between atoms: C7_9  and  C8_11 
REMARK    5  A    between atoms: N3_14  and  C11_15 
REMARK    6  A    between atoms: C11_15  and  C12_16 
REMARK    7  A    between atoms: C12_16  and  C13_17 
REMARK    8  A    between atoms: C13_17  and  C14_18 
REMARK    9  A    between atoms: C14_18  and  C15_19 
REMARK   10  A    between atoms: C15_19  and  C16_20 
REMARK   11  A    between atoms: C16_20  and  C17_21 
REMARK   12  A    between atoms: C17_21  and  C18_22 
REMARK   13  A    between atoms: C20_29  and  C21_30 
REMARK   14  A    between atoms: C21_30  and  C22_31 
REMARK   15  A    between atoms: C22_31  and  C23_32 
REMARK   16  A    between atoms: C23_32  and  N5_33 
ROOT
HETATM    1  N1  UNL     1      34.277 -11.786   1.062  1.00  0.00    -0.349 N 
HETATM    2  C5  UNL     1      33.831 -12.767   1.985  1.00  0.00     0.145 C 
HETATM    3  C6  UNL     1      34.334 -12.627   3.395  1.00  0.00     0.147 C 
HETATM    4  N2  UNL     1      35.357 -11.652   3.558  1.00  0.00    -0.335 N 
HETATM    5  C7  UNL     1      36.382 -11.856   4.514  1.00  0.00     0.243 C 
HETATM    6  O1  UNL     1      37.333 -11.026   4.651  1.00  0.00    -0.271 OA
HETATM    7  C20 UNL     1      35.428 -10.416   2.796  1.00  0.00     0.179 C 
HETATM    8  C25 UNL     1      34.744 -10.540   1.519  1.00  0.00     0.242 C 
HETATM    9  O5  UNL     1      34.567  -9.499   0.805  1.00  0.00    -0.271 OA
ENDROOT
BRANCH   5  10
HETATM   10  C8  UNL     1      36.376 -13.052   5.385  1.00  0.00     0.180 C 
HETATM   11  C9  UNL     1      37.113 -12.763   6.678  1.00  0.00     0.055 C 
HETATM   12  C10 UNL     1      37.755 -14.011   7.260  1.00  0.00     0.130 C 
HETATM   13  N3  UNL     1      38.718 -14.576   6.330  1.00  0.00    -0.334 N 
HETATM   14  C19 UNL     1      38.357 -14.472   4.956  1.00  0.00     0.319 C 
HETATM   15  O4  UNL     1      39.219 -14.705   4.057  1.00  0.00    -0.247 OA
HETATM   16  N4  UNL     1      37.038 -14.109   4.639  1.00  0.00    -0.330 N 
ATOM     17  H4  UNL     1      36.545 -14.587   3.885  1.00  0.00     0.165 HD
BRANCH  13  18
HETATM   18  C11 UNL     1      39.936 -15.184   6.765  1.00  0.00     0.127 C 
BRANCH  18  19
HETATM   19  C12 UNL     1      39.891 -15.863   8.089  1.00  0.00     0.020 C 
BRANCH  19  20
HETATM   20  C13 UNL     1      41.036 -15.561   9.008  1.00  0.00     0.002 C 
BRANCH  20  21
HETATM   21  C14 UNL     1      41.672 -14.279   8.486  1.00  0.00     0.000 C 
BRANCH  21  22
HETATM   22  C15 UNL     1      41.777 -13.205   9.516  1.00  0.00     0.001 C 
BRANCH  22  23
HETATM   23  C16 UNL     1      40.634 -13.149  10.482  1.00  0.00     0.010 C 
BRANCH  23  24
HETATM   24  C17 UNL     1      39.437 -12.433   9.872  1.00  0.00     0.113 C 
BRANCH  24  25
HETATM   25  C18 UNL     1      39.873 -11.056   9.562  1.00  0.00     0.172 C 
HETATM   26  O2  UNL     1      39.917 -10.676   8.369  1.00  0.00    -0.648 OA
HETATM   27  O3  UNL     1      40.231 -10.189  10.571  1.00  0.00    -0.648 OA
ENDBRANCH  24  25
ENDBRANCH  23  24
ENDBRANCH  22  23
ENDBRANCH  21  22
ENDBRANCH  20  21
ENDBRANCH  19  20
ENDBRANCH  18  19
ENDBRANCH  13  18
ENDBRANCH   5  10
BRANCH   7  28
HETATM   28  C21 UNL     1      35.111  -9.203   3.570  1.00  0.00     0.037 C 
BRANCH  28  29
HETATM   29  C22 UNL     1      36.064  -8.081   3.601  1.00  0.00     0.022 C 
BRANCH  29  30
HETATM   30  C23 UNL     1      36.932  -7.953   2.381  1.00  0.00     0.122 C 
BRANCH  30  31
HETATM   31  N5  UNL     1      36.303  -6.971   1.474  1.00  0.00    -0.367 N 
HETATM   32  C24 UNL     1      36.887  -5.865   1.176  1.00  0.00     0.196 C 
HETATM   33  N6  UNL     1      38.160  -5.467   1.661  1.00  0.00    -0.067 NA
HETATM   34  N7  UNL     1      36.209  -4.981   0.298  1.00  0.00    -0.067 NA
ATOM     35  H5  UNL     1      35.386  -7.174   1.077  1.00  0.00     0.161 HD
ENDBRANCH  30  31
ENDBRANCH  29  30
ENDBRANCH  28  29
ENDBRANCH   7  28
BRANCH   1  36
HETATM   36  C4  UNL     1      34.241 -12.109  -0.373  1.00  0.00     0.129 C 
BRANCH  36  37
HETATM   37  C3  UNL     1      32.819 -12.283  -0.866  1.00  0.00     0.046 C 
BRANCH  37  38
HETATM   38  C2  UNL     1      32.701 -13.623  -1.482  1.00  0.00    -0.035 C 
HETATM   39  C1  UNL     1      33.053 -13.859  -2.729  1.00  0.00     0.007 C 
ENDBRANCH  37  38
ENDBRANCH  36  37
ENDBRANCH   1  36
TORSDOF 16
ENDMDL
MODEL 2
REMARK VINA RESULT: -7.041530297      0.940      1.218
REMARK  16 active torsions:
REMARK  status: ('A' for Active; 'I' for Inactive)
REMARK    1  A    between atoms: C2_2  and  C3_3 
REMARK    2  A    between atoms: C3_3  and  C4_4 
REMARK    3  A    between atoms: C4_4  and  N1_5 
REMARK       I    between atoms: N2_8  and  C7_9 
REMARK    4  A    between atoms: C7_9  and  C8_11 
REMARK    5  A    between atoms: N3_14  and  C11_15 
REMARK    6  A    between atoms: C11_15  and  C12_16 
REMARK    7  A    between atoms: C12_16  and  C13_17 
REMARK    8  A    between atoms: C13_17  and  C14_18 
REMARK    9  A    between atoms: C14_18  and  C15_19 
REMARK   10  A    between atoms: C15_19  and  C16_20 
REMARK   11  A    between atoms: C16_20  and  C17_21 
REMARK   12  A    between atoms: C17_21  and  C18_22 
REMARK   13  A    between atoms: C20_29  and  C21_30 
REMARK   14  A    between atoms: C21_30  and  C22_31 
REMARK   15  A    between atoms: C22_31  and  C23_32 
REMARK   16  A    between atoms: C23_32  and  N5_33 
ROOT
HETATM    1  N1  UNL     1      34.317 -11.368   0.562  1.00  0.00    -0.349 N 
HETATM    2  C5  UNL     1      33.614 -12.196   1.475  1.00  0.00     0.145 C 
HETATM    3  C6  UNL     1      34.072 -12.144   2.906  1.00  0.00     0.147 C 
HETATM    4  N2  UNL     1      35.287 -11.432   3.107  1.00  0.00    -0.335 N 
HETATM    5  C7  UNL     1      36.192 -11.846   4.114  1.00  0.00     0.243 C 
HETATM    6  O1  UNL     1      37.303 -11.257   4.287  1.00  0.00    -0.271 OA
HETATM    7  C20 UNL     1      35.678 -10.263   2.334  1.00  0.00     0.179 C 
HETATM    8  C25 UNL     1      35.042 -10.254   1.027  1.00  0.00     0.242 C 
HETATM    9  O5  UNL     1      35.145  -9.218   0.293  1.00  0.00    -0.271 OA
ENDROOT
BRANCH   5  10
HETATM   10  C8  UNL     1      35.868 -12.987   4.997  1.00  0.00     0.180 C 
HETATM   11  C9  UNL     1      36.587 -12.844   6.325  1.00  0.00     0.055 C 
HETATM   12  C10 UNL     1      36.895 -14.191   6.955  1.00  0.00     0.130 C 
HETATM   13  N3  UNL     1      37.747 -14.985   6.084  1.00  0.00    -0.334 N 
HETATM   14  C19 UNL     1      37.487 -14.834   4.692  1.00  0.00     0.319 C 
HETATM   15  O4  UNL     1      38.316 -15.279   3.843  1.00  0.00    -0.247 OA
HETATM   16  N4  UNL     1      36.305 -14.185   4.301  1.00  0.00    -0.330 N 
ATOM     17  H4  UNL     1      35.752 -14.556   3.528  1.00  0.00     0.165 HD
BRANCH  13  18
HETATM   18  C11 UNL     1      38.769 -15.845   6.591  1.00  0.00     0.127 C 
BRANCH  18  19
HETATM   19  C12 UNL     1      39.792 -15.202   7.462  1.00  0.00     0.020 C 
BRANCH  19  20
HETATM   20  C13 UNL     1      39.920 -15.779   8.840  1.00  0.00     0.002 C 
BRANCH  20  21
HETATM   21  C14 UNL     1      39.855 -14.599   9.801  1.00  0.00     0.000 C 
BRANCH  21  22
HETATM   22  C15 UNL     1      38.537 -13.900   9.797  1.00  0.00     0.001 C 
BRANCH  22  23
HETATM   23  C16 UNL     1      38.616 -12.411   9.932  1.00  0.00     0.010 C 
BRANCH  23  24
HETATM   24  C17 UNL     1      40.024 -11.970  10.311  1.00  0.00     0.113 C 
BRANCH  24  25
HETATM   25  C18 UNL     1      40.267 -10.681   9.632  1.00  0.00     0.172 C 
HETATM   26  O2  UNL     1      40.664  -9.697  10.298  1.00  0.00    -0.648 OA
HETATM   27  O3  UNL     1      40.060 -10.553   8.276  1.00  0.00    -0.648 OA
ENDBRANCH  24  25
ENDBRANCH  23  24
ENDBRANCH  22  23
ENDBRANCH  21  22
ENDBRANCH  20  21
ENDBRANCH  19  20
ENDBRANCH  18  19
ENDBRANCH  13  18
ENDBRANCH   5  10
BRANCH   7  28
HETATM   28  C21 UNL     1      35.618  -8.992   3.078  1.00  0.00     0.037 C 
BRANCH  28  29
HETATM   29  C22 UNL     1      36.776  -8.083   3.072  1.00  0.00     0.022 C 
BRANCH  29  30
HETATM   30  C23 UNL     1      36.461  -6.657   2.718  1.00  0.00     0.122 C 
BRANCH  30  31
HETATM   31  N5  UNL     1      36.175  -6.599   1.270  1.00  0.00    -0.367 N 
HETATM   32  C24 UNL     1      36.545  -5.598   0.553  1.00  0.00     0.196 C 
HETATM   33  N6  UNL     1      37.250  -4.468   1.046  1.00  0.00    -0.067 NA
HETATM   34  N7  UNL     1      36.227  -5.626  -0.829  1.00  0.00    -0.067 NA
ATOM     35  H5  UNL     1      35.673  -7.369   0.829  1.00  0.00     0.161 HD
ENDBRANCH  30  31
ENDBRANCH  29  30
ENDBRANCH  28  29
ENDBRANCH   7  28
BRANCH   1  36
HETATM   36  C4  UNL     1      34.272 -11.706  -0.868  1.00  0.00     0.129 C 
BRANCH  36  37
HETATM   37  C3  UNL     1      32.874 -12.101  -1.299  1.00  0.00     0.046 C 
BRANCH  37  38
HETATM   38  C2  UNL     1      32.896 -13.523  -1.707  1.00  0.00    -0.035 C 
HETATM   39  C1  UNL     1      33.101 -13.895  -2.953  1.00  0.00     0.007 C 
ENDBRANCH  37  38
ENDBRANCH  36  37
ENDBRANCH   1  36
TORSDOF 16
ENDMDL
MODEL 3
REMARK VINA RESULT: -7.011498645      1.301      1.647
REMARK  16 active torsions:
REMARK  status: ('A' for Active; 'I' for Inactive)
REMARK    1  A    between atoms: C2_2  and  C3_3 
REMARK    2  A    between atoms: C3_3  and  C4_4 
REMARK    3  A    between atoms: C4_4  and  N1_5 
REMARK       I    between atoms: N2_8  and  C7_9 
REMARK    4  A    between atoms: C7_9  and  C8_11 
REMARK    5  A    between atoms: N3_14  and  C11_15 
REMARK    6  A    between atoms: C11_15  and  C12_16 
REMARK    7  A    between atoms: C12_16  and  C13_17 
REMARK    8  A    between atoms: C13_17  and  C14_18 
REMARK    9  A    between atoms: C14_18  and  C15_19 
REMARK   10  A    between atoms: C15_19  and  C16_20 
REMARK   11  A    between atoms: C16_20  and  C17_21 
REMARK   12  A    between atoms: C17_21  and  C18_22 
REMARK   13  A    between atoms: C20_29  and  C21_30 
REMARK   14  A    between atoms: C21_30  and  C22_31 
REMARK   15  A    between atoms: C22_31  and  C23_32 
REMARK   16  A    between atoms: C23_32  and  N5_33 
ROOT
HETATM    1  N1  UNL     1      34.318 -11.167   0.388  1.00  0.00    -0.349 N 
HETATM    2  C5  UNL     1      33.595 -12.043   1.238  1.00  0.00     0.145 C 
HETATM    3  C6  UNL     1      34.023 -12.071   2.679  1.00  0.00     0.147 C 
HETATM    4  N2  UNL     1      35.233 -11.373   2.944  1.00  0.00    -0.335 N 
HETATM    5  C7  UNL     1      36.116 -11.844   3.946  1.00  0.00     0.243 C 
HETATM    6  O1  UNL     1      37.224 -11.268   4.175  1.00  0.00    -0.271 OA
HETATM    7  C20 UNL     1      35.642 -10.164   2.246  1.00  0.00     0.179 C 
HETATM    8  C25 UNL     1      35.034 -10.081   0.928  1.00  0.00     0.242 C 
HETATM    9  O5  UNL     1      35.154  -9.007   0.254  1.00  0.00    -0.271 OA
ENDROOT
BRANCH   5  10
HETATM   10  C8  UNL     1      35.772 -13.031   4.758  1.00  0.00     0.180 C 
HETATM   11  C9  UNL     1      36.275 -12.859   6.179  1.00  0.00     0.055 C 
HETATM   12  C10 UNL     1      36.609 -14.190   6.831  1.00  0.00     0.130 C 
HETATM   13  N3  UNL     1      37.646 -14.883   6.085  1.00  0.00    -0.334 N 
HETATM   14  C19 UNL     1      37.580 -14.720   4.672  1.00  0.00     0.319 C 
HETATM   15  O4  UNL     1      38.559 -15.069   3.949  1.00  0.00    -0.247 OA
HETATM   16  N4  UNL     1      36.413 -14.168   4.119  1.00  0.00    -0.330 N 
ATOM     17  H4  UNL     1      36.015 -14.567   3.269  1.00  0.00     0.165 HD
BRANCH  13  18
HETATM   18  C11 UNL     1      38.658 -15.662   6.726  1.00  0.00     0.127 C 
BRANCH  18  19
HETATM   19  C12 UNL     1      39.596 -14.916   7.610  1.00  0.00     0.020 C 
BRANCH  19  20
HETATM   20  C13 UNL     1      39.763 -15.475   8.991  1.00  0.00     0.002 C 
BRANCH  20  21
HETATM   21  C14 UNL     1      39.519 -14.316   9.950  1.00  0.00     0.000 C 
BRANCH  21  22
HETATM   22  C15 UNL     1      38.340 -13.480   9.583  1.00  0.00     0.001 C 
BRANCH  22  23
HETATM   23  C16 UNL     1      38.449 -12.038   9.971  1.00  0.00     0.010 C 
BRANCH  23  24
HETATM   24  C17 UNL     1      39.455 -11.308   9.091  1.00  0.00     0.113 C 
BRANCH  24  25
HETATM   25  C18 UNL     1      40.572 -10.899   9.966  1.00  0.00     0.172 C 
HETATM   26  O2  UNL     1      41.604 -11.608  10.023  1.00  0.00    -0.648 OA
HETATM   27  O3  UNL     1      40.489  -9.748  10.719  1.00  0.00    -0.648 OA
ENDBRANCH  24  25
ENDBRANCH  23  24
ENDBRANCH  22  23
ENDBRANCH  21  22
ENDBRANCH  20  21
ENDBRANCH  19  20
ENDBRANCH  18  19
ENDBRANCH  13  18
ENDBRANCH   5  10
BRANCH   7  28
HETATM   28  C21 UNL     1      35.568  -8.936   3.057  1.00  0.00     0.037 C 
BRANCH  28  29
HETATM   29  C22 UNL     1      36.750  -8.068   3.184  1.00  0.00     0.022 C 
BRANCH  29  30
HETATM   30  C23 UNL     1      36.517  -6.625   2.832  1.00  0.00     0.122 C 
BRANCH  30  31
HETATM   31  N5  UNL     1      36.372  -6.531   1.365  1.00  0.00    -0.367 N 
HETATM   32  C24 UNL     1      36.737  -5.479   0.722  1.00  0.00     0.196 C 
HETATM   33  N6  UNL     1      37.303  -4.323   1.320  1.00  0.00    -0.067 NA
HETATM   34  N7  UNL     1      36.561  -5.476  -0.685  1.00  0.00    -0.067 NA
ATOM     35  H5  UNL     1      35.975  -7.317   0.851  1.00  0.00     0.161 HD
ENDBRANCH  30  31
ENDBRANCH  29  30
ENDBRANCH  28  29
ENDBRANCH   7  28
BRANCH   1  36
HETATM   36  C4  UNL     1      34.303 -11.426  -1.060  1.00  0.00     0.129 C 
BRANCH  36  37
HETATM   37  C3  UNL     1      32.943 -11.132  -1.660  1.00  0.00     0.046 C 
BRANCH  37  38
HETATM   38  C2  UNL     1      33.033  -9.867  -2.422  1.00  0.00    -0.035 C 
HETATM   39  C1  UNL     1      31.972  -9.141  -2.709  1.00  0.00     0.007 C 
ENDBRANCH  37  38
ENDBRANCH  36  37
ENDBRANCH   1  36
TORSDOF 16
ENDMDL
MODEL 4
REMARK VINA RESULT: -6.860564799      1.574      1.936
REMARK  16 active torsions:
REMARK  status: ('A' for Active; 'I' for Inactive)
REMARK    1  A    between atoms: C2_2  and  C3_3 
REMARK    2  A    between atoms: C3_3  and  C4_4 
REMARK    3  A    between atoms: C4_4  and  N1_5 
REMARK       I    between atoms: N2_8  and  C7_9 
REMARK    4  A    between atoms: C7_9  and  C8_11 
REMARK    5  A    between atoms: N3_14  and  C11_15 
REMARK    6  A    between atoms: C11_15  and  C12_16 
REMARK    7  A    between atoms: C12_16  and  C13_17 
REMARK    8  A    between atoms: C13_17  and  C14_18 
REMARK    9  A    between atoms: C14_18  and  C15_19 
REMARK   10  A    between atoms: C15_19  and  C16_20 
REMARK   11  A    between atoms: C16_20  and  C17_21 
REMARK   12  A    between atoms: C17_21  and  C18_22 
REMARK   13  A    between atoms: C20_29  and  C21_30 
REMARK   14  A    between atoms: C21_30  and  C22_31 
REMARK   15  A    between atoms: C22_31  and  C23_32 
REMARK   16  A    between atoms: C23_32  and  N5_33 
ROOT
HETATM    1  N1  UNL     1      34.322 -11.311   0.281  1.00  0.00    -0.349 N 
HETATM    2  C5  UNL     1      33.629 -12.124   1.215  1.00  0.00     0.145 C 
HETATM    3  C6  UNL     1      34.065 -12.006   2.649  1.00  0.00     0.147 C 
HETATM    4  N2  UNL     1      35.257 -11.254   2.838  1.00  0.00    -0.335 N 
HETATM    5  C7  UNL     1      36.158 -11.605   3.873  1.00  0.00     0.243 C 
HETATM    6  O1  UNL     1      37.250 -10.979   4.038  1.00  0.00    -0.271 OA
HETATM    7  C20 UNL     1      35.627 -10.104   2.028  1.00  0.00     0.179 C 
HETATM    8  C25 UNL     1      35.010 -10.161   0.713  1.00  0.00     0.242 C 
HETATM    9  O5  UNL     1      35.096  -9.151  -0.059  1.00  0.00    -0.271 OA
ENDROOT
BRANCH   5  10
HETATM   10  C8  UNL     1      35.852 -12.721   4.794  1.00  0.00     0.180 C 
HETATM   11  C9  UNL     1      36.276 -12.366   6.207  1.00  0.00     0.055 C 
HETATM   12  C10 UNL     1      36.662 -13.595   7.012  1.00  0.00     0.130 C 
HETATM   13  N3  UNL     1      37.776 -14.290   6.388  1.00  0.00    -0.334 N 
HETATM   14  C19 UNL     1      37.766 -14.282   4.964  1.00  0.00     0.319 C 
HETATM   15  O4  UNL     1      38.799 -14.637   4.322  1.00  0.00    -0.247 OA
HETATM   16  N4  UNL     1      36.593 -13.873   4.308  1.00  0.00    -0.330 N 
ATOM     17  H4  UNL     1      36.262 -14.385   3.490  1.00  0.00     0.165 HD
BRANCH  13  18
HETATM   18  C11 UNL     1      38.804 -14.926   7.150  1.00  0.00     0.127 C 
BRANCH  18  19
HETATM   19  C12 UNL     1      38.361 -15.631   8.384  1.00  0.00     0.020 C 
BRANCH  19  20
HETATM   20  C13 UNL     1      38.897 -15.078   9.671  1.00  0.00     0.002 C 
BRANCH  20  21
HETATM   21  C14 UNL     1      39.437 -13.692   9.342  1.00  0.00     0.000 C 
BRANCH  21  22
HETATM   22  C15 UNL     1      40.361 -13.152  10.383  1.00  0.00     0.001 C 
BRANCH  22  23
HETATM   23  C16 UNL     1      41.734 -12.817   9.889  1.00  0.00     0.010 C 
BRANCH  23  24
HETATM   24  C17 UNL     1      41.890 -13.180   8.418  1.00  0.00     0.113 C 
BRANCH  24  25
HETATM   25  C18 UNL     1      43.323 -13.458   8.195  1.00  0.00     0.172 C 
HETATM   26  O2  UNL     1      44.167 -13.065   9.034  1.00  0.00    -0.648 OA
HETATM   27  O3  UNL     1      43.739 -14.144   7.075  1.00  0.00    -0.648 OA
ENDBRANCH  24  25
ENDBRANCH  23  24
ENDBRANCH  22  23
ENDBRANCH  21  22
ENDBRANCH  20  21
ENDBRANCH  19  20
ENDBRANCH  18  19
ENDBRANCH  13  18
ENDBRANCH   5  10
BRANCH   7  28
HETATM   28  C21 UNL     1      35.523  -8.809   2.722  1.00  0.00     0.037 C 
BRANCH  28  29
HETATM   29  C22 UNL     1      36.713  -7.954   2.864  1.00  0.00     0.022 C 
BRANCH  29  30
HETATM   30  C23 UNL     1      36.520  -6.524   2.444  1.00  0.00     0.122 C 
BRANCH  30  31
HETATM   31  N5  UNL     1      36.290  -6.504   0.984  1.00  0.00    -0.367 N 
HETATM   32  C24 UNL     1      36.529  -5.453   0.283  1.00  0.00     0.196 C 
HETATM   33  N6  UNL     1      37.025  -4.230   0.804  1.00  0.00    -0.067 NA
HETATM   34  N7  UNL     1      36.279  -5.524  -1.111  1.00  0.00    -0.067 NA
ATOM     35  H5  UNL     1      35.935  -7.341   0.524  1.00  0.00     0.161 HD
ENDBRANCH  30  31
ENDBRANCH  29  30
ENDBRANCH  28  29
ENDBRANCH   7  28
BRANCH   1  36
HETATM   36  C4  UNL     1      34.307 -11.704  -1.136  1.00  0.00     0.129 C 
BRANCH  36  37
HETATM   37  C3  UNL     1      32.978 -12.320  -1.525  1.00  0.00     0.046 C 
BRANCH  37  38
HETATM   38  C2  UNL     1      33.231 -13.678  -2.055  1.00  0.00    -0.035 C 
HETATM   39  C1  UNL     1      33.158 -13.958  -3.340  1.00  0.00     0.007 C 
ENDBRANCH  37  38
ENDBRANCH  36  37
ENDBRANCH   1  36
TORSDOF 16
ENDMDL
MODEL 5
REMARK VINA RESULT: -6.858935489      1.680      2.142
REMARK  16 active torsions:
REMARK  status: ('A' for Active; 'I' for Inactive)
REMARK    1  A    between atoms: C2_2  and  C3_3 
REMARK    2  A    between atoms: C3_3  and  C4_4 
REMARK    3  A    between atoms: C4_4  and  N1_5 
REMARK       I    between atoms: N2_8  and  C7_9 
REMARK    4  A    between atoms: C7_9  and  C8_11 
REMARK    5  A    between atoms: N3_14  and  C11_15 
REMARK    6  A    between atoms: C11_15  and  C12_16 
REMARK    7  A    between atoms: C12_16  and  C13_17 
REMARK    8  A    between atoms: C13_17  and  C14_18 
REMARK    9  A    between atoms: C14_18  and  C15_19 
REMARK   10  A    between atoms: C15_19  and  C16_20 
REMARK   11  A    between atoms: C16_20  and  C17_21 
REMARK   12  A    between atoms: C17_21  and  C18_22 
REMARK   13  A    between atoms: C20_29  and  C21_30 
REMARK   14  A    between atoms: C21_30  and  C22_31 
REMARK   15  A    between atoms: C22_31  and  C23_32 
REMARK   16  A    between atoms: C23_32  and  N5_33 
ROOT
HETATM    1  N1  UNL     1      34.391 -11.165   0.376  1.00  0.00    -0.349 N 
HETATM    2  C5  UNL     1      33.692 -12.062   1.224  1.00  0.00     0.145 C 
HETATM    3  C6  UNL     1      34.102 -12.063   2.670  1.00  0.00     0.147 C 
HETATM    4  N2  UNL     1      35.281 -11.317   2.946  1.00  0.00    -0.335 N 
HETATM    5  C7  UNL     1      36.169 -11.746   3.962  1.00  0.00     0.243 C 
HETATM    6  O1  UNL     1      37.250 -11.125   4.200  1.00  0.00    -0.271 OA
HETATM    7  C20 UNL     1      35.652 -10.098   2.243  1.00  0.00     0.179 C 
HETATM    8  C25 UNL     1      35.058 -10.049   0.917  1.00  0.00     0.242 C 
HETATM    9  O5  UNL     1      35.145  -8.975   0.236  1.00  0.00    -0.271 OA
ENDROOT
BRANCH   5  10
HETATM   10  C8  UNL     1      35.861 -12.940   4.779  1.00  0.00     0.180 C 
HETATM   11  C9  UNL     1      36.186 -12.677   6.237  1.00  0.00     0.055 C 
HETATM   12  C10 UNL     1      36.580 -13.946   6.971  1.00  0.00     0.130 C 
HETATM   13  N3  UNL     1      37.757 -14.546   6.367  1.00  0.00    -0.334 N 
HETATM   14  C19 UNL     1      37.829 -14.431   4.950  1.00  0.00     0.319 C 
HETATM   15  O4  UNL     1      38.912 -14.695   4.347  1.00  0.00    -0.247 OA
HETATM   16  N4  UNL     1      36.679 -14.021   4.256  1.00  0.00    -0.330 N 
ATOM     17  H4  UNL     1      36.418 -14.482   3.384  1.00  0.00     0.165 HD
BRANCH  13  18
HETATM   18  C11 UNL     1      38.767 -15.197   7.141  1.00  0.00     0.127 C 
BRANCH  18  19
HETATM   19  C12 UNL     1      38.390 -15.560   8.535  1.00  0.00     0.020 C 
BRANCH  19  20
HETATM   20  C13 UNL     1      39.257 -14.978   9.610  1.00  0.00     0.002 C 
BRANCH  20  21
HETATM   21  C14 UNL     1      38.850 -13.515   9.737  1.00  0.00     0.000 C 
BRANCH  21  22
HETATM   22  C15 UNL     1      39.995 -12.602  10.024  1.00  0.00     0.001 C 
BRANCH  22  23
HETATM   23  C16 UNL     1      41.158 -12.744   9.093  1.00  0.00     0.010 C 
BRANCH  23  24
HETATM   24  C17 UNL     1      42.417 -13.150   9.848  1.00  0.00     0.113 C 
BRANCH  24  25
HETATM   25  C18 UNL     1      43.491 -13.295   8.844  1.00  0.00     0.172 C 
HETATM   26  O2  UNL     1      44.685 -13.356   9.221  1.00  0.00    -0.648 OA
HETATM   27  O3  UNL     1      43.192 -13.362   7.501  1.00  0.00    -0.648 OA
ENDBRANCH  24  25
ENDBRANCH  23  24
ENDBRANCH  22  23
ENDBRANCH  21  22
ENDBRANCH  20  21
ENDBRANCH  19  20
ENDBRANCH  18  19
ENDBRANCH  13  18
ENDBRANCH   5  10
BRANCH   7  28
HETATM   28  C21 UNL     1      35.519  -8.868   3.044  1.00  0.00     0.037 C 
BRANCH  28  29
HETATM   29  C22 UNL     1      36.669  -7.961   3.190  1.00  0.00     0.022 C 
BRANCH  29  30
HETATM   30  C23 UNL     1      36.398  -6.529   2.820  1.00  0.00     0.122 C 
BRANCH  30  31
HETATM   31  N5  UNL     1      36.378  -6.434   1.346  1.00  0.00    -0.367 N 
HETATM   32  C24 UNL     1      36.845  -5.403   0.735  1.00  0.00     0.196 C 
HETATM   33  N6  UNL     1      37.415  -4.273   1.378  1.00  0.00    -0.067 NA
HETATM   34  N7  UNL     1      36.784  -5.397  -0.682  1.00  0.00    -0.067 NA
ATOM     35  H5  UNL     1      35.987  -7.202   0.802  1.00  0.00     0.161 HD
ENDBRANCH  30  31
ENDBRANCH  29  30
ENDBRANCH  28  29
ENDBRANCH   7  28
BRANCH   1  36
HETATM   36  C4  UNL     1      34.405 -11.435  -1.070  1.00  0.00     0.129 C 
BRANCH  36  37
HETATM   37  C3  UNL     1      33.012 -11.351  -1.661  1.00  0.00     0.046 C 
BRANCH  37  38
HETATM   38  C2  UNL     1      32.957 -10.175  -2.557  1.00  0.00    -0.035 C 
HETATM   39  C1  UNL     1      32.595  -8.983  -2.132  1.00  0.00     0.007 C 
ENDBRANCH  37  38
ENDBRANCH  36  37
ENDBRANCH   1  36
TORSDOF 16
ENDMDL
